drugbank_target|O00305 Voltage-dependent L-type calcium channel subunit beta-4 (DB00252; DB00653; DB00825; DB09089; DB09231; DB09232; DB09236; DB09238; DB13746)
 OpenBabel12092120093D

  0  0  0     0  0            999 V3000
M  V30 BEGIN CTAB
M  V30 COUNTS 8146 8225 0 0 0
M  V30 BEGIN ATOM
M  V30 1 H -0.908 1.98254 -0.117106 0
M  V30 2 N 0 1.576 0 0
M  V30 3 C 0.933 2.03868 1.02534 0
M  V30 4 C 1.911 0.928543 1.3348 0
M  V30 5 O 3.095 1.19667 1.45644 0
M  V30 6 C 0.222 2.43627 2.35294 0
M  V30 7 C -0.732 3.65373 2.2001 0
M  V30 8 S 0.101 5.13292 1.52614 0
M  V30 9 C 1.257 5.56322 2.86805 0
M  V30 10 H 1.49 2.90518 0.631377 0
M  V30 11 H -0.977 1.52953 0.210867 0
M  V30 12 H 0.981 2.67203 3.11629 0
M  V30 13 H -0.358 1.57376 2.7183 0
M  V30 14 H -1.165 3.90944 3.18086 0
M  V30 15 H -1.563 3.418 1.51819 0
M  V30 16 H 0.729 5.58782 3.83104 0
M  V30 17 H 1.672 6.56266 2.65933 0
M  V30 18 H 2.08 4.83886 2.90714 0
M  V30 19 N 1.4781 -0.272755 1.55222 0
M  V30 20 C 2.7031 -1.02683 1.80197 0
M  V30 21 C 3.1281 -1.79142 0.573551 0
M  V30 22 O 2.4861 -1.74917 -0.476849 0
M  V30 23 C 2.5341 -1.9609 3.02624 0
M  V30 24 O 1.6381 -3.04863 2.77727 0
M  V30 25 H 0.9791 -0.293557 0.595584 0
M  V30 26 H 3.5091 -0.30159 2.02365 0
M  V30 27 H 3.5191 -2.38039 3.31363 0
M  V30 28 H 2.1941 -1.39851 3.91682 0
M  V30 29 H 0.7711 -2.67228 2.60084 0
M  V30 30 N 2.9562 -1.48159 -0.537278 0
M  V30 31 C 4.1812 -1.59707 -1.32319 0
M  V30 32 C 4.6062 -0.254859 -1.86365 0
M  V30 33 O 3.9642 0.772378 -1.64024 0
M  V30 34 C 4.0122 -2.6412 -2.45505 0
M  V30 35 O 3.1162 -2.20774 -3.48328 0
M  V30 36 H 2.4572 -0.535791 -0.392204 0
M  V30 37 H 4.9872 -1.94092 -0.647268 0
M  V30 38 H 4.9972 -2.85166 -2.91795 0
M  V30 39 H 3.6722 -3.61567 -2.05528 0
M  V30 40 H 2.2492 -2.09911 -3.08207 0
M  V30 41 N 4.4343 0.785586 -1.36625 0
M  V30 42 C 5.6593 1.57963 -1.34397 0
M  V30 43 C 6.0843 1.87964 0.071526 0
M  V30 44 O 5.4423 1.48182 1.0446 0
M  V30 45 C 5.4903 2.87511 -2.17646 0
M  V30 46 O 4.5943 3.81281 -1.57158 0
M  V30 47 H 3.9353 0.479014 -0.459828 0
M  V30 48 H 6.4653 0.973411 -1.79961 0
M  V30 49 H 6.4753 3.36745 -2.30362 0
M  V30 50 H 5.1503 2.65002 -3.20541 0
M  V30 51 H 3.7273 3.39885 -1.53403 0
M  V30 52 N 5.9124 1.20967 1.01018 0
M  V30 53 C 7.1374 1.0503 1.78839 0
M  V30 54 C 7.5624 -0.395752 1.8389 0
M  V30 55 O 6.9204 -1.28529 1.27867 0
M  V30 56 C 6.9684 1.64602 3.2084 0
M  V30 57 O 6.0724 0.887988 4.02726 0
M  V30 58 H 5.4134 0.369987 0.551367 0
M  V30 59 H 7.9434 1.60399 1.27018 0
M  V30 60 H 7.9534 1.68607 3.71532 0
M  V30 61 H 6.6284 2.69841 3.16479 0
M  V30 62 H 5.2054 0.922648 3.61305 0
M  V30 63 N 7.3905 -1.2043 1.01659 0
M  V30 64 C 8.6205 -1.93496 0.724081 0
M  V30 65 C 9.0285 -1.74998 -0.71918 0
M  V30 66 O 8.3715 -1.06118 -1.49949 0
M  V30 67 C 8.4335 -3.45886 0.97994 0
M  V30 68 C 8.0975 -3.88145 2.41232 0
M  V30 69 C 9.0945 -3.93907 3.39313 0
M  V30 70 C 6.7795 -4.20134 2.75305 0
M  V30 71 C 8.7735 -4.31069 4.6953 0
M  V30 72 C 6.4605 -4.56971 4.05735 0
M  V30 73 C 7.4585 -4.62411 5.02658 0
M  V30 74 O 7.1465 -4.98403 6.30754 0
M  V30 75 H 6.8785 -0.621824 0.265162 0
M  V30 76 H 9.4325 -1.53867 1.36066 0
M  V30 77 H 7.6625 -3.85639 0.286198 0
M  V30 78 H 9.3515 -4.0018 0.679021 0
M  V30 79 H 10.1175 -3.69357 3.14325 0
M  V30 80 H 5.9965 -4.1509 2.00551 0
M  V30 81 H 9.5405 -4.3523 5.45179 0
M  V30 82 H 5.4375 -4.80977 4.30502 0
M  V30 83 H 6.2055 -5.16395 6.35042 0
M  V30 84 N 8.8686 -0.792821 -1.36206 0
M  V30 85 C 9.8316 -0.199459 -2.2833 0
M  V30 86 C 10.8316 0.605189 -1.48977 0
M  V30 87 O 12.0216 0.425685 -1.68919 0
M  V30 88 C 9.1536 0.723523 -3.33134 0
M  V30 89 H 10.3466 -1.01181 -2.82316 0
M  V30 90 H 7.8996 -0.562485 -1.45828 0
M  V30 91 H 8.6346 1.56008 -2.84309 0
M  V30 92 H 8.4196 0.148436 -3.91819 0
M  V30 93 H 9.9096 1.13344 -4.01924 0
M  V30 94 N 10.3467 1.47872 -0.545128 0
M  V30 95 C 11.2937 2.29849 0.2093 0
M  V30 96 C 12.2637 1.38313 0.919707 0
M  V30 97 O 13.4487 1.67277 0.917772 0
M  V30 98 C 10.5887 3.22019 1.24088 0
M  V30 99 C 9.7017 4.2864 0.537778 0
M  V30 100 C 8.8367 5.07973 1.5536 0
M  V30 101 C 7.8757 6.06381 0.8348 0
M  V30 102 N 7.0127 6.78717 1.79688 0
M  V30 103 H 11.8527 2.93845 -0.49591 0
M  V30 104 H 9.3897 1.44848 -0.256389 0
M  V30 105 H 11.3477 3.73868 1.85144 0
M  V30 106 H 9.9777 2.59914 1.91428 0
M  V30 107 H 9.0297 3.7994 -0.187046 0
M  V30 108 H 10.3417 4.98793 -0.0258907 0
M  V30 109 H 9.4957 5.63912 2.23803 0
M  V30 110 H 8.2347 4.37693 2.15118 0
M  V30 111 H 7.2397 5.49631 0.136388 0
M  V30 112 H 8.4647 6.78665 0.24313 0
M  V30 113 H 6.4107 6.11177 2.38326 0
M  V30 114 H 6.3277 7.44998 1.28505 0
M  V30 115 H 7.5957 7.39237 2.47282 0
M  V30 116 N 11.8248 0.280983 1.55075 0
M  V30 117 C 12.7728 -0.619864 2.24188 0
M  V30 118 C 13.7668 -1.15315 1.24092 0
M  V30 119 O 14.9728 -1.1061 1.42005 0
M  V30 120 H 11.3478 -0.218459 0.719569 0
M  V30 121 H 13.3188 -0.0141831 2.98397 0
M  V30 122 C 12.0678 -1.7899 2.98091 0
M  V30 123 H 11.3908 -1.38874 3.74905 0
M  V30 124 H 12.8308 -2.39672 3.49762 0
M  V30 125 C 11.2898 -2.68192 2.03899 0
M  V30 126 O 11.8198 -3.6872 1.594 0
M  V30 127 N 10.0258 -2.35488 1.70275 0
M  V30 128 H 9.5728 -1.53787 2.06658 0
M  V30 129 H 9.5308 -2.95442 1.07524 0
M  V30 130 N 13.3029 -1.57598 0.00835791 0
M  V30 131 C 14.5509 -1.90551 -0.6734 0
M  V30 132 C 14.8719 -0.883301 -1.73847 0
M  V30 133 O 14.1419 0.0781442 -1.95744 0
M  V30 134 H 12.7219 -0.703312 -0.251717 0
M  V30 135 H 15.3839 -1.94833 0.0512592 0
M  V30 136 H 14.4799 -2.9056 -1.13935 0
M  V30 137 N 14.781 0.264519 -1.55364 0
M  V30 138 C 16.009 1.013 -1.80405 0
M  V30 139 C 16.424 1.79618 -0.581622 0
M  V30 140 O 15.781 1.76879 0.449468 0
M  V30 141 C 15.832 1.96487 -3.03439 0
M  V30 142 O 15.553 1.21341 -4.20961 0
M  V30 143 C 17.054 2.83079 -3.41147 0
M  V30 144 H 14.274 0.298875 -0.600762 0
M  V30 145 H 16.818 0.292736 -2.02394 0
M  V30 146 H 14.973 2.63965 -2.83551 0
M  V30 147 H 15.387 1.85573 -4.90574 0
M  V30 148 H 16.861 3.4565 -4.30384 0
M  V30 149 H 17.338 3.53286 -2.60932 0
M  V30 150 H 17.944 2.2108 -3.63323 0
M  V30 151 N 16.2591 1.48442 0.529413 0
M  V30 152 C 17.2221 1.62524 1.61612 0
M  V30 153 C 18.2221 0.498509 1.52877 0
M  V30 154 O 19.4121 0.76431 1.56537 0
M  V30 155 C 16.5441 1.59597 3.01233 0
M  V30 156 H 17.7371 2.59423 1.50465 0
M  V30 157 H 15.2901 1.37047 0.751514 0
M  V30 158 H 16.0251 0.641781 3.17886 0
M  V30 159 H 15.8101 2.41397 3.08982 0
M  V30 160 H 17.3001 1.72646 3.80241 0
M  V30 161 N 17.7372 -0.778329 1.37039 0
M  V30 162 C 19.0142 -1.52551 1.22424 0
M  V30 163 C 19.3942 -2.10288 -0.184964 0
M  V30 164 O 18.7422 -1.94953 -1.19187 0
M  V30 165 C 18.9522 -2.61164 2.31504 0
M  V30 166 C 20.3002 -3.28746 2.68721 0
M  V30 167 O 21.3242 -2.71455 2.30631 0
M  V30 168 O 20.1832 -4.3231 3.3432 0
M  V30 169 H 17.2772 -0.675343 0.477326 0
M  V30 170 H 19.8232 -0.815859 1.48801 0
M  V30 171 H 18.5952 -2.16574 3.25901 0
M  V30 172 H 18.2182 -3.39737 2.06554 0
M  V30 173 N 19.2153 -1.21501 -1.00376 0
M  V30 174 C 20.4633 -1.03095 -1.73827 0
M  V30 175 C 20.7843 0.436341 -1.90055 0
M  V30 176 O 20.0543 1.31466 -1.45236 0
M  V30 177 H 18.6343 -0.378487 -0.644016 0
M  V30 178 H 21.2963 -1.52831 -1.20949 0
M  V30 179 H 20.3923 -1.49991 -2.73695 0
M  V30 180 N 20.6934 1.19889 -1.02296 0
M  V30 181 C 22.1044 1.71124 -0.746568 0
M  V30 182 C 22.4554 1.81939 0.734335 0
M  V30 183 O 21.5804 1.48639 1.57275 0
M  V30 184 C 22.1754 3.10804 -1.34857 0
M  V30 185 C 20.7344 3.59323 -1.1209 0
M  V30 186 C 19.8814 2.3635 -1.45031 0
M  V30 187 H 22.8324 1.04813 -1.19163 0
M  V30 188 H 22.8534 3.73186 -0.742437 0
M  V30 189 H 22.3654 3.029 -2.42638 0
M  V30 190 H 20.4664 3.7255 -0.0610337 0
M  V30 191 H 20.5794 4.4378 -1.80544 0
M  V30 192 H 18.9434 2.39399 -0.869487 0
M  V30 193 H 19.7264 2.31081 -2.53883 0
M  V30 194 N 22.1715 0.800033 1.35784 0
M  V30 195 C 23.1215 0.178654 2.27299 0
M  V30 196 C 24.1055 -0.643667 1.47464 0
M  V30 197 O 25.2975 -0.502 1.69732 0
M  V30 198 C 22.4265 -0.677194 3.36555 0
M  V30 199 C 21.5125 0.154497 4.23818 0
M  V30 200 N 21.9035 1.21427 4.91008 0
M  V30 201 C 20.2015 -0.0649462 4.45953 0
M  V30 202 C 20.9025 1.72147 5.55644 0
M  V30 203 N 19.8785 1.02897 5.33773 0
M  V30 204 H 23.6805 0.989637 2.76737 0
M  V30 205 H 21.1945 0.64054 1.49234 0
M  V30 206 H 23.1915 -1.13835 4.01058 0
M  V30 207 H 21.8515 -1.4866 2.8867 0
M  V30 208 H 22.8625 1.59684 4.92668 0
M  V30 209 H 19.5395 -0.844016 4.0888 0
M  V30 210 H 20.9295 2.60683 6.19269 0
M  V30 211 N 23.6496 -1.47581 0.552962 0
M  V30 212 C 24.8746 -2.07378 0.0300593 0
M  V30 213 C 25.2996 -1.40355 -1.25229 0
M  V30 214 O 24.6576 -0.477099 -1.7491 0
M  V30 215 C 24.7056 -3.60274 -0.153231 0
M  V30 216 O 23.8096 -3.94041 -1.21678 0
M  V30 217 H 23.1506 -0.662158 0.0494182 0
M  V30 218 H 25.6806 -1.89662 0.767434 0
M  V30 219 H 25.6906 -4.0633 -0.368761 0
M  V30 220 H 24.3656 -4.08455 0.783397 0
M  V30 221 H 22.9426 -3.59735 -0.982079 0
M  V30 222 N 25.1277 -0.289203 -1.54924 0
M  V30 223 C 26.5387 0.205791 -1.85562 0
M  V30 224 C 26.8897 1.54351 -1.2112 0
M  V30 225 O 26.0147 2.10435 -0.504601 0
M  V30 226 C 26.6097 0.380177 -3.3666 0
M  V30 227 C 25.1687 0.819395 -3.67373 0
M  V30 228 C 24.3157 -0.079159 -2.77187 0
M  V30 229 H 27.2667 -0.510577 -1.50262 0
M  V30 230 H 27.2877 1.21659 -3.60526 0
M  V30 231 H 26.7997 -0.593589 -3.83534 0
M  V30 232 H 24.9007 1.80413 -3.26009 0
M  V30 233 H 25.0137 0.646957 -4.74712 0
M  V30 234 H 23.3777 0.439565 -2.50878 0
M  V30 235 H 24.1607 -1.04906 -3.26878 0
M  V30 236 N 26.6058 1.57591 -0.0167156 0
M  V30 237 C 27.8338 1.95575 0.675128 0
M  V30 238 C 28.2488 0.892542 1.6637 0
M  V30 239 O 27.6058 -0.126912 1.82058 0
M  V30 240 C 27.6568 3.33608 1.39239 0
M  V30 241 O 27.3778 4.3585 0.443444 0
M  V30 242 C 28.8788 3.86151 2.17721 0
M  V30 243 H 26.0988 0.644423 0.186978 0
M  V30 244 H 28.6428 2.0437 -0.0728 0
M  V30 245 H 26.7978 3.2607 2.09182 0
M  V30 246 H 27.2118 5.158 0.951358 0
M  V30 247 H 28.6858 4.85114 2.63379 0
M  V30 248 H 29.1628 3.19738 3.01105 0
M  V30 249 H 29.7688 3.96918 1.52761 0
M  V30 250 N 28.0839 -0.256276 1.55502 0
M  V30 251 C 29.3089 -1.00766 1.81276 0
M  V30 252 C 29.7339 -1.78524 0.59252 0
M  V30 253 O 29.0919 -1.75413 -0.45827 0
M  V30 254 C 29.1399 -1.92869 3.04687 0
M  V30 255 O 28.2439 -3.019 2.80945 0
M  V30 256 H 27.5849 -0.287224 0.598664 0
M  V30 257 H 30.1149 -0.280109 2.02674 0
M  V30 258 H 30.1249 -2.34511 3.33869 0
M  V30 259 H 28.7999 -1.35689 3.93143 0
M  V30 260 H 27.3769 -2.64454 2.62904 0
M  V30 261 N 29.562 -1.4872 -0.521534 0
M  V30 262 C 30.494 -1.59968 -1.64143 0
M  V30 263 C 31.507 -0.483463 -1.55456 0
M  V30 264 O 32.696 -0.75467 -1.61762 0
M  V30 265 C 29.796 -1.52127 -3.02838 0
M  V30 266 C 28.969 -2.78932 -3.36921 0
M  V30 267 C 28.028 -2.64428 -4.54933 0
M  V30 268 O 27.054 -3.38331 -4.57735 0
M  V30 269 N 28.256 -1.74606 -5.53618 0
M  V30 270 H 31.021 -2.56548 -1.54929 0
M  V30 271 H 28.582 -1.45551 -0.708988 0
M  V30 272 H 30.574 -1.40106 -3.79674 0
M  V30 273 H 29.144 -0.634868 -3.06085 0
M  V30 274 H 28.364 -3.05455 -2.4918 0
M  V30 275 H 29.652 -3.63041 -3.56481 0
M  V30 276 H 29.05 -1.13782 -5.54139 0
M  V30 277 H 27.607 -1.6852 -6.29638 0
M  V30 278 N 31.0401 0.771051 -1.3745 0
M  V30 279 C 32.2861 1.5319 -1.32894 0
M  V30 280 C 32.6191 1.94008 0.0862511 0
M  V30 281 O 31.8941 1.64124 1.04373 0
M  V30 282 C 32.1771 2.79648 -2.26868 0
M  V30 283 C 32.0301 2.45079 -3.77169 0
M  V30 284 C 33.3491 3.81583 -2.19277 0
M  V30 285 H 30.4681 0.555744 -0.484064 0
M  V30 286 H 33.1101 0.884492 -1.68157 0
M  V30 287 H 31.2601 3.34891 -1.96926 0
M  V30 288 H 32.9321 1.95745 -4.1771 0
M  V30 289 H 31.1751 1.77767 -3.95704 0
M  V30 290 H 31.8461 3.35478 -4.38359 0
M  V30 291 H 34.3221 3.35835 -2.45671 0
M  V30 292 H 33.1981 4.67787 -2.87171 0
M  V30 293 H 33.4591 4.25897 -1.18592 0
M  V30 294 N 32.5182 1.22032 0.997298 0
M  V30 295 C 33.4812 0.987909 2.06816 0
M  V30 296 C 34.4812 -0.0440084 1.6074 0
M  V30 297 O 35.6712 0.194053 1.73116 0
M  V30 298 C 32.8032 0.49132 3.37341 0
M  V30 299 H 33.9962 1.93803 2.28868 0
M  V30 300 H 31.5492 1.03838 1.16822 0
M  V30 301 H 32.2842 -0.463364 3.20973 0
M  V30 302 H 32.0692 1.23575 3.72118 0
M  V30 303 H 33.5592 0.348824 4.16141 0
M  V30 304 N 33.9963 -1.19345 1.0293 0
M  V30 305 C 35.4123 -1.41069 0.746446 0
M  V30 306 C 35.6123 -1.90078 -0.668776 0
M  V30 307 O 34.6683 -2.0778 -1.4347 0
M  V30 308 C 35.9813 -2.42141 1.78292 0
M  V30 309 C 37.5293 -2.55887 1.80252 0
M  V30 310 C 38.0043 -3.60214 2.8286 0
M  V30 311 N 39.4953 -3.67711 2.81679 0
M  V30 312 C 40.2303 -4.48128 3.57727 0
M  V30 313 N 39.7263 -5.32248 4.43491 0
M  V30 314 N 41.5193 -4.42782 3.46267 0
M  V30 315 H 33.6703 -0.858536 1.94275 0
M  V30 316 H 35.9333 -0.439541 0.839945 0
M  V30 317 H 35.6393 -2.13155 2.79746 0
M  V30 318 H 35.5133 -3.41323 1.60557 0
M  V30 319 H 37.9003 -2.84196 0.794757 0
M  V30 320 H 37.9813 -1.56858 2.02062 0
M  V30 321 H 37.6253 -3.32647 3.83807 0
M  V30 322 H 37.5553 -4.58895 2.58307 0
M  V30 323 H 40.0463 -3.07634 2.19476 0
M  V30 324 H 40.3593 -5.90729 4.98256 0
M  V30 325 H 38.7043 -5.31707 4.47564 0
M  V30 326 H 41.8953 -3.76107 2.78677 0
M  V30 327 H 42.0683 -5.05215 4.05785 0
M  V30 328 N 35.4744 -0.807222 -1.35358 0
M  V30 329 C 36.7224 -0.387122 -1.98358 0
M  V30 330 C 37.0434 1.04942 -1.64354 0
M  V30 331 O 36.3134 1.72615 -0.926339 0
M  V30 332 H 34.8934 -0.140154 -0.733734 0
M  V30 333 H 37.5554 -1.0332 -1.6526 0
M  V30 334 H 36.6514 -0.493352 -3.08176 0
M  V30 335 N 36.9525 1.47285 -0.560781 0
M  V30 336 C 38.1805 2.06855 -0.0430262 0
M  V30 337 C 38.5955 1.41291 1.25229 0
M  V30 338 O 37.9525 0.510648 1.7521 0
M  V30 339 C 38.0035 3.61178 0.152518 0
M  V30 340 O 37.7245 4.24285 -1.0915 0
M  V30 341 C 39.2255 4.37624 0.707145 0
M  V30 342 H 36.4455 0.669319 -0.0474652 0
M  V30 343 H 38.9895 1.89237 -0.77521 0
M  V30 344 H 37.1445 3.78298 0.834843 0
M  V30 345 H 37.5585 5.16868 -0.891482 0
M  V30 346 H 39.0325 5.46271 0.793244 0
M  V30 347 H 39.5095 4.04152 1.71923 0
M  V30 348 H 40.1155 4.25257 0.0604027 0
M  V30 349 N 38.4306 0.297415 1.54768 0
M  V30 350 C 39.6586 -0.315623 2.04478 0
M  V30 351 C 40.0736 -1.47792 1.17486 0
M  V30 352 O 39.4306 -1.81404 0.19971 0
M  V30 353 C 39.4816 -0.7753 3.53088 0
M  V30 354 O 39.2026 0.340732 4.36773 0
M  V30 355 C 40.7036 -1.45386 4.18781 0
M  V30 356 H 37.9236 -0.0690887 0.667434 0
M  V30 357 H 40.4676 0.436003 1.99798 0
M  V30 358 H 38.6226 -1.47696 3.58141 0
M  V30 359 H 39.0366 -0.0165035 5.24497 0
M  V30 360 H 40.5106 -1.72669 5.24299 0
M  V30 361 H 40.9876 -2.39275 3.68299 0
M  V30 362 H 41.5936 -0.795475 4.17795 0
M  V30 363 N 39.9087 -1.5758 0.0250728 0
M  V30 364 C 41.1367 -1.9593 -0.664747 0
M  V30 365 C 41.5517 -0.901352 -1.65895 0
M  V30 366 O 40.9087 0.117255 -1.82123 0
M  V30 367 C 40.9597 -3.34342 -1.37468 0
M  V30 368 O 40.6807 -4.36079 -0.420324 0
M  V30 369 C 42.1817 -3.873 -2.1567 0
M  V30 370 H 39.4017 -0.645405 -0.183557 0
M  V30 371 H 41.9457 -2.04329 0.0836372 0
M  V30 372 H 40.1007 -3.27175 -2.0745 0
M  V30 373 H 40.5147 -5.16297 -0.923991 0
M  V30 374 H 41.9887 -4.86504 -2.60803 0
M  V30 375 H 42.4657 -3.21331 -2.99405 0
M  V30 376 H 43.0717 -3.97723 -1.50654 0
M  V30 377 N 41.3868 0.248026 -1.55636 0
M  V30 378 C 42.8028 0.596483 -1.48035 0
M  V30 379 C 43.0028 1.88386 -0.715039 0
M  V30 380 O 42.0588 2.51319 -0.243944 0
M  V30 381 C 43.3718 0.700258 -2.92433 0
M  V30 382 C 44.9198 0.792659 -3.02797 0
M  V30 383 C 45.3948 0.928005 -4.485 0
M  V30 384 N 46.8858 0.992903 -4.52433 0
M  V30 385 C 47.6208 1.11687 -5.62418 0
M  V30 386 N 47.1168 1.20645 -6.82214 0
M  V30 387 N 48.9098 1.14994 -5.50212 0
M  V30 388 H 41.0608 -0.597109 -2.03834 0
M  V30 389 H 43.3238 -0.205925 -0.925364 0
M  V30 390 H 43.0298 -0.175658 -3.51261 0
M  V30 391 H 42.9038 1.57255 -3.42857 0
M  V30 392 H 45.2908 1.65903 -2.4405 0
M  V30 393 H 45.3718 -0.104762 -2.55585 0
M  V30 394 H 45.0158 0.0661971 -5.07857 0
M  V30 395 H 44.9458 1.84045 -4.93391 0
M  V30 396 H 47.4368 0.935064 -3.66149 0
M  V30 397 H 47.7498 1.30008 -7.61786 0
M  V30 398 H 46.0948 1.17605 -6.84977 0
M  V30 399 H 49.2858 1.07643 -4.55555 0
M  V30 400 H 49.4588 1.24311 -6.35965 0
M  V30 401 N 42.8649 1.48995 0.513639 0
M  V30 402 C 44.2809 1.35478 0.843682 0
M  V30 403 C 44.4809 0.378213 1.97919 0
M  V30 404 O 43.5369 -0.194689 2.51748 0
M  V30 405 C 44.8499 2.75901 1.1958 0
M  V30 406 C 46.3979 2.84509 1.30474 0
M  V30 407 C 46.8729 4.25671 1.69021 0
M  V30 408 N 48.3639 4.28422 1.76094 0
M  V30 409 C 49.0989 5.34601 2.07338 0
M  V30 410 N 48.5949 6.5104 2.36894 0
M  V30 411 N 50.3879 5.22007 2.08483 0
M  V30 412 H 42.5389 2.11092 -0.235328 0
M  V30 413 H 44.8019 0.947039 -0.0426669 0
M  V30 414 H 44.5079 3.49001 0.434913 0
M  V30 415 H 44.3819 3.10467 2.1422 0
M  V30 416 H 46.7689 2.11655 2.05637 0
M  V30 417 H 46.8499 2.53542 0.339155 0
M  V30 418 H 46.4939 4.99048 0.944135 0
M  V30 419 H 46.4239 4.54094 2.66658 0
M  V30 420 H 48.9149 3.44441 1.55464 0
M  V30 421 H 49.2279 7.2779 2.59887 0
M  V30 422 H 47.5729 6.54287 2.34378 0
M  V30 423 H 50.7639 4.30051 1.84861 0
M  V30 424 H 50.9369 6.04854 2.325 0
M  V30 425 N 44.343 -0.763751 1.37857 0
M  V30 426 C 45.568 -1.55805 1.36893 0
M  V30 427 C 45.993 -1.88054 -0.0416135 0
M  V30 428 O 45.351 -1.49825 -1.02089 0
M  V30 429 C 45.399 -2.84012 2.22192 0
M  V30 430 O 44.503 -3.78732 1.63204 0
M  V30 431 H 43.844 -0.471638 0.46739 0
M  V30 432 H 46.374 -0.944657 1.81487 0
M  V30 433 H 46.384 -3.33037 2.35691 0
M  V30 434 H 45.059 -2.59869 3.24716 0
M  V30 435 H 43.636 -3.37402 1.58791 0
M  V30 436 N 45.8211 -1.22559 -0.990812 0
M  V30 437 C 47.2371 -0.985996 -1.255 0
M  V30 438 C 47.4371 0.319173 -1.98956 0
M  V30 439 O 46.4931 1.04127 -2.3003 0
M  V30 440 C 47.8061 -2.18607 -2.06474 0
M  V30 441 C 49.3541 -2.22985 -2.19651 0
M  V30 442 C 49.8291 -3.4255 -3.04012 0
M  V30 443 N 51.3201 -3.42725 -3.11599 0
M  V30 444 C 52.0551 -4.31892 -3.7717 0
M  V30 445 N 51.5511 -5.31279 -4.44651 0
M  V30 446 N 53.3441 -4.19662 -3.73952 0
M  V30 447 H 45.4951 -2.06469 -0.49841 0
M  V30 448 H 47.7581 -0.904853 -0.282747 0
M  V30 449 H 47.4641 -3.13267 -1.59865 0
M  V30 450 H 47.3381 -2.18838 -3.07229 0
M  V30 451 H 49.7251 -1.28871 -2.65474 0
M  V30 452 H 49.8061 -2.26791 -1.18319 0
M  V30 453 H 49.4501 -4.36965 -2.58889 0
M  V30 454 H 49.3801 -3.35984 -4.0549 0
M  V30 455 H 51.8711 -2.70807 -2.63575 0
M  V30 456 H 52.1841 -5.95593 -4.92431 0
M  V30 457 H 50.5291 -5.3519 -4.43392 0
M  V30 458 H 53.7201 -3.41268 -3.20396 0
M  V30 459 H 53.8931 -4.89358 -4.24774 0
M  V30 460 N 47.2992 1.18797 -1.03562 0
M  V30 461 C 48.2292 2.24472 -0.643019 0
M  V30 462 C 49.2102 1.66433 0.351283 0
M  V30 463 O 50.3952 1.92803 0.232505 0
M  V30 464 C 47.5252 3.473 4.24935e-05 0
M  V30 465 C 46.4792 4.18055 -0.917257 0
M  V30 466 C 45.8052 5.34519 -0.138941 0
M  V30 467 C 47.1052 4.72109 -2.23407 0
M  V30 468 H 48.7992 2.57566 -1.52643 0
M  V30 469 H 46.3452 1.23806 -0.735394 0
M  V30 470 H 48.2982 4.20426 0.286383 0
M  V30 471 H 47.0222 3.13424 0.918299 0
M  V30 472 H 45.6812 3.46821 -1.1879 0
M  V30 473 H 45.3292 4.96891 0.781562 0
M  V30 474 H 45.0292 5.82794 -0.750005 0
M  V30 475 H 46.5532 6.10438 0.1405 0
M  V30 476 H 47.9672 5.36955 -2.00879 0
M  V30 477 H 46.3642 5.30897 -2.79765 0
M  V30 478 H 47.4342 3.89807 -2.88407 0
M  V30 479 N 48.7773 0.814389 1.34928 0
M  V30 480 C 49.7243 0.22822 2.29669 0
M  V30 481 C 50.6943 -0.642164 1.53184 0
M  V30 482 O 51.8793 -0.585605 1.81591 0
M  V30 483 C 49.0193 -0.61089 3.3965 0
M  V30 484 C 48.1323 0.280792 4.31086 0
M  V30 485 C 47.2673 -0.567067 5.28165 0
M  V30 486 C 46.3063 0.324531 6.11239 0
M  V30 487 N 45.4433 -0.483756 7.00431 0
M  V30 488 H 50.2833 1.04153 2.79206 0
M  V30 489 H 47.8203 0.525133 1.37407 0
M  V30 490 H 49.7783 -1.11263 4.0209 0
M  V30 491 H 48.4083 -1.38939 2.91369 0
M  V30 492 H 47.4603 0.900688 3.69583 0
M  V30 493 H 48.7723 0.966723 4.89342 0
M  V30 494 H 47.9263 -1.13363 5.96015 0
M  V30 495 H 46.6653 -1.28654 4.70425 0
M  V30 496 H 45.6703 0.903298 5.42329 0
M  V30 497 H 46.8953 1.04198 6.71059 0
M  V30 498 H 44.8413 -1.18706 6.45171 0
M  V30 499 H 44.7583 0.143965 7.55863 0
M  V30 500 H 46.0263 -1.03334 7.7262 0
M  V30 501 N 50.2554 -1.46986 0.568584 0
M  V30 502 C 51.6714 -1.57946 0.229189 0
M  V30 503 C 51.8714 -1.56567 -1.26843 0
M  V30 504 O 50.9274 -1.47511 -2.04931 0
M  V30 505 C 52.2404 -2.87963 0.865909 0
M  V30 506 C 53.7884 -3.01568 0.838188 0
M  V30 507 C 54.2634 -4.34301 1.45419 0
M  V30 508 N 55.7544 -4.40965 1.41788 0
M  V30 509 C 56.4894 -5.42256 1.86403 0
M  V30 510 N 55.9854 -6.50297 2.38926 0
M  V30 511 N 57.7784 -5.3337 1.77405 0
M  V30 512 H 49.9294 -1.46126 1.54146 0
M  V30 513 H 52.1924 -0.696156 0.643484 0
M  V30 514 H 51.8984 -2.94742 1.91886 0
M  V30 515 H 51.7724 -3.75423 0.365687 0
M  V30 516 H 54.1594 -2.94379 -0.206106 0
M  V30 517 H 54.2404 -2.1562 1.37629 0
M  V30 518 H 53.8844 -4.42247 2.49761 0
M  V30 519 H 53.8144 -5.19 0.891435 0
M  V30 520 H 56.3054 -3.63484 1.03381 0
M  V30 521 H 56.6184 -7.23777 2.70863 0
M  V30 522 H 54.9634 -6.51155 2.42944 0
M  V30 523 H 58.1544 -4.47865 1.3614 0
M  V30 524 H 58.3274 -6.12169 2.12492 0
M  V30 525 N 51.7335 -0.305618 -1.54608 0
M  V30 526 C 52.9585 0.307562 -2.05107 0
M  V30 527 C 53.3835 1.46385 -1.18123 0
M  V30 528 O 52.7415 1.8034 -0.186324 0
M  V30 529 C 52.7895 0.73704 -3.52987 0
M  V30 530 O 51.8935 1.84134 -3.6901 0
M  V30 531 H 51.2345 0.0589143 -0.661381 0
M  V30 532 H 53.7645 -0.448807 -1.99617 0
M  V30 533 H 53.7745 1.02459 -3.94925 0
M  V30 534 H 52.4495 -0.108773 -4.15758 0
M  V30 535 H 51.0265 1.55398 -3.38978 0
M  V30 536 N 53.2116 1.57565 -0.0334293 0
M  V30 537 C 54.4886 1.83282 0.683163 0
M  V30 538 C 54.8686 0.91823 1.90084 0
M  V30 539 O 54.2166 -0.025113 2.28486 0
M  V30 540 C 54.4266 3.32599 1.0573 0
M  V30 541 C 55.7746 3.99179 1.44711 0
M  V30 542 O 56.7986 3.3712 1.15015 0
M  V30 543 O 55.6576 5.08565 2.0006 0
M  V30 544 H 52.7516 0.755869 0.335546 0
M  V30 545 H 55.2976 1.69589 -0.0614402 0
M  V30 546 H 54.0696 3.90834 0.190828 0
M  V30 547 H 53.6926 3.51415 1.85993 0
M  V30 548 N 54.6897 -0.239769 1.55765 0
M  V30 549 C 55.9377 -0.964892 1.77579 0
M  V30 550 C 56.2587 -1.85582 0.598699 0
M  V30 551 O 55.5287 -1.92075 -0.385226 0
M  V30 552 H 54.1087 -0.359265 0.654933 0
M  V30 553 H 56.7707 -0.256001 1.93211 0
M  V30 554 H 55.8667 -1.58243 2.69009 0
M  V30 555 N 56.1678 -1.49265 -0.50573 0
M  V30 556 C 57.3928 -1.62478 -1.28902 0
M  V30 557 C 57.8178 -0.294332 -1.85783 0
M  V30 558 O 57.1758 0.737412 -1.65626 0
M  V30 559 C 57.2238 -2.69268 -2.39848 0
M  V30 560 O 56.3278 -2.28113 -3.43567 0
M  V30 561 H 55.6688 -0.54399 -0.380751 0
M  V30 562 H 58.1988 -1.95421 -0.605952 0
M  V30 563 H 58.2088 -2.91291 -2.85681 0
M  V30 564 H 56.8838 -3.65846 -1.97812 0
M  V30 565 H 55.4608 -2.16401 -3.03685 0
M  V30 566 N 57.6459 0.756429 -1.3826 0
M  V30 567 C 58.8739 1.54565 -1.3754 0
M  V30 568 C 59.2889 1.88767 0.0355331 0
M  V30 569 O 58.6459 1.52572 1.0014 0
M  V30 570 C 58.6969 2.84654 -2.22833 0
M  V30 571 O 58.4179 2.51912 -3.5843 0
M  V30 572 C 59.9189 3.78807 -2.30261 0
M  V30 573 H 57.1389 0.478353 -0.470553 0
M  V30 574 H 59.6829 0.936381 -1.81803 0
M  V30 575 H 57.8379 3.41965 -1.8204 0
M  V30 576 H 58.2519 3.35325 -4.03308 0
M  V30 577 H 59.7259 4.67045 -2.94233 0
M  V30 578 H 60.2029 4.19038 -1.31545 0
M  V30 579 H 60.8089 3.2742 -2.71433 0
M  V30 580 N 59.124 1.23083 0.984299 0
M  V30 581 C 60.352 1.08714 1.76037 0
M  V30 582 C 60.767 -0.361691 1.85303 0
M  V30 583 O 60.124 -1.25034 1.32939 0
M  V30 584 C 60.175 1.70206 3.18923 0
M  V30 585 O 59.896 3.09423 3.10144 0
M  V30 586 C 61.397 1.61227 4.12941 0
M  V30 587 H 58.617 0.380664 0.552572 0
M  V30 588 H 61.161 1.62853 1.23689 0
M  V30 589 H 59.316 1.20109 3.6831 0
M  V30 590 H 59.73 3.39188 4.00065 0
M  V30 591 H 61.204 2.08962 5.10919 0
M  V30 592 H 61.681 0.570375 4.35481 0
M  V30 593 H 62.287 2.10671 3.69456 0
M  V30 594 N 60.6021 -1.18246 1.0419 0
M  V30 595 C 61.8271 -1.92736 0.765996 0
M  V30 596 C 62.2521 -1.75728 -0.67091 0
M  V30 597 O 61.6101 -1.06825 -1.46486 0
M  V30 598 C 61.6581 -3.42148 1.13875 0
M  V30 599 O 60.7621 -4.11548 0.264954 0
M  V30 600 H 60.1031 -0.601238 0.281797 0
M  V30 601 H 62.6331 -1.49942 1.39207 0
M  V30 602 H 62.6431 -3.92858 1.1012 0
M  V30 603 H 61.3181 -3.53848 2.18551 0
M  V30 604 H 59.8951 -3.71137 0.362226 0
M  V30 605 N 62.0802 -0.821533 -1.34494 0
M  V30 606 C 63.3082 -0.421884 -2.02553 0
M  V30 607 C 63.7232 0.971745 -1.61872 0
M  V30 608 O 63.0802 1.62864 -0.823496 0
M  V30 609 C 63.1312 -0.51285 -3.57844 0
M  V30 610 O 62.8522 -1.85155 -3.97051 0
M  V30 611 C 64.3532 -0.107921 -4.43169 0
M  V30 612 H 61.5732 -0.169482 -0.649243 0
M  V30 613 H 64.1172 -1.1093 -1.71798 0
M  V30 614 H 62.2722 0.126474 -3.87193 0
M  V30 615 H 62.6862 -1.82482 -4.91732 0
M  V30 616 H 64.1602 -0.222657 -5.51551 0
M  V30 617 H 64.6372 0.948401 -4.28838 0
M  V30 618 H 65.2432 -0.720989 -4.19144 0
M  V30 619 N 63.5583 1.46682 -0.576371 0
M  V30 620 C 64.7833 2.07304 -0.0630475 0
M  V30 621 C 65.2083 1.42329 1.2298 0
M  V30 622 O 64.5663 0.504865 1.74129 0
M  V30 623 C 64.6143 3.60472 0.095895 0
M  V30 624 O 63.7183 3.95927 1.15394 0
M  V30 625 H 63.0593 0.661288 -0.0599463 0
M  V30 626 H 65.5893 1.88417 -0.797511 0
M  V30 627 H 65.5993 4.06865 0.304071 0
M  V30 628 H 64.2743 4.07157 -0.84828 0
M  V30 629 H 62.8513 3.61252 0.924724 0
M  V30 630 N 65.0364 0.313813 1.54444 0
M  V30 631 C 66.2834 -0.291675 2.00388 0
M  V30 632 C 66.6114 -1.52904 1.2021 0
M  V30 633 O 65.8664 -1.93833 0.269707 0
M  V30 634 C 66.1654 -0.680386 3.50864 0
M  V30 635 C 65.8314 0.456699 4.48581 0
M  V30 636 C 64.4934 0.768824 4.75018 0
M  V30 637 C 66.8454 1.22098 5.06697 0
M  V30 638 C 64.1734 1.84812 5.56831 0
M  V30 639 C 66.5254 2.29029 5.89685 0
M  V30 640 C 65.1894 2.60834 6.14428 0
M  V30 641 H 64.4594 -0.106732 0.733273 0
M  V30 642 H 67.1064 0.43557 1.86481 0
M  V30 643 H 65.4114 -1.48791 3.62448 0
M  V30 644 H 67.1084 -1.16026 3.83847 0
M  V30 645 H 63.6984 0.203337 4.28117 0
M  V30 646 H 67.8824 0.993096 4.86263 0
M  V30 647 H 63.1384 2.09912 5.74236 0
M  V30 648 H 67.3124 2.887 6.33739 0
M  V30 649 H 64.9394 3.44596 6.77612 0
M  V30 650 N 66.5145 -1.57545 0.0417849 0
M  V30 651 C 67.7635 -1.91494 -0.633492 0
M  V30 652 C 68.0765 -0.921084 -1.72556 0
M  V30 653 O 69.2825 -1.15228 -2.45835 0
M  V30 654 C 67.7385 -3.40072 -1.17808 0
M  V30 655 C 67.3465 -4.47843 -0.118633 0
M  V30 656 C 69.0905 -3.8307 -1.82915 0
M  V30 657 C 66.9975 -5.87529 -0.675578 0
M  V30 658 H 65.9275 -0.714653 -0.24039 0
M  V30 659 H 68.5785 -1.83175 0.109148 0
M  V30 660 H 66.9605 -3.43364 -1.97274 0
M  V30 661 H 68.1345 -4.56128 0.654494 0
M  V30 662 H 66.4495 -4.14128 0.434414 0
M  V30 663 H 69.0465 -4.84794 -2.25563 0
M  V30 664 H 69.3895 -3.1881 -2.67705 0
M  V30 665 H 69.9225 -3.82255 -1.10119 0
M  V30 666 H 66.6615 -6.55362 0.134475 0
M  V30 667 H 66.1815 -5.82824 -1.4169 0
M  V30 668 H 67.8605 -6.36491 -1.1614 0
M  V30 669 N 67.9926 0.231505 -1.5589 0
M  V30 670 C 68.9226 1.29022 -1.94617 0
M  V30 671 C 69.9036 1.4941 -0.813067 0
M  V30 672 O 71.0886 1.6176 -1.07459 0
M  V30 673 C 68.2186 2.64199 -2.25424 0
M  V30 674 C 67.1726 2.58484 -3.41131 0
M  V30 675 C 66.4986 3.97599 -3.57518 0
M  V30 676 C 67.7986 2.1413 -4.76388 0
M  V30 677 H 69.4926 0.968563 -2.83301 0
M  V30 678 H 67.0386 0.464479 -1.36303 0
M  V30 679 H 68.9916 3.38413 -2.51107 0
M  V30 680 H 67.7156 2.98032 -1.33583 0
M  V30 681 H 66.3746 1.86727 -3.15481 0
M  V30 682 H 66.0226 4.28723 -2.6307 0
M  V30 683 H 65.7226 3.94659 -4.35337 0
M  V30 684 H 67.2466 4.7349 -3.85538 0
M  V30 685 H 68.6606 2.78083 -5.01341 0
M  V30 686 H 67.0576 2.2227 -5.57419 0
M  V30 687 H 68.1276 1.09331 -4.72414 0
M  V30 688 N 69.4707 1.49531 0.497807 0
M  V30 689 C 70.8867 1.36365 0.829266 0
M  V30 690 C 71.0867 0.399184 1.97506 0
M  V30 691 O 70.1427 -0.167977 2.51941 0
M  V30 692 C 71.4557 2.77153 1.16647 0
M  V30 693 C 73.0037 2.85877 1.27449 0
M  V30 694 C 73.4787 4.2744 1.64497 0
M  V30 695 N 74.9697 4.30265 1.7154 0
M  V30 696 C 75.7047 5.3677 2.01656 0
M  V30 697 N 75.2007 6.53516 2.29976 0
M  V30 698 N 76.9937 5.24189 2.02934 0
M  V30 699 H 69.1447 2.10831 -0.257703 0
M  V30 700 H 71.4077 0.946534 -0.0527091 0
M  V30 701 H 71.1137 3.49442 0.397872 0
M  V30 702 H 70.9877 3.12722 2.10915 0
M  V30 703 H 73.3747 2.13824 2.0338 0
M  V30 704 H 73.4557 2.53887 0.312244 0
M  V30 705 H 73.0997 5.00021 0.891151 0
M  V30 706 H 73.0297 4.56896 2.61827 0
M  V30 707 H 75.5207 3.4607 1.51802 0
M  V30 708 H 75.8337 7.30506 2.52153 0
M  V30 709 H 74.1787 6.56737 2.27425 0
M  V30 710 H 77.3697 4.31988 1.80289 0
M  V30 711 H 77.5427 6.07286 2.26071 0
M  V30 712 N 70.9488 -0.749086 1.3866 0
M  V30 713 C 71.8808 -1.87273 1.32142 0
M  V30 714 C 72.8938 -1.61127 0.232787 0
M  V30 715 O 74.0828 -1.71623 0.49069 0
M  V30 716 C 71.1828 -3.23005 1.02571 0
M  V30 717 C 70.3558 -3.7662 2.22433 0
M  V30 718 C 69.4148 -4.90879 1.89537 0
M  V30 719 O 68.4408 -5.05276 2.62078 0
M  V30 720 N 69.6428 -5.74198 0.853031 0
M  V30 721 H 72.4078 -1.93373 2.28969 0
M  V30 722 H 69.9688 -0.929216 1.32579 0
M  V30 723 H 71.9608 -3.96992 0.786085 0
M  V30 724 H 70.5308 -3.12262 0.145249 0
M  V30 725 H 69.7508 -2.94147 2.62434 0
M  V30 726 H 71.0388 -4.09173 3.02415 0
M  V30 727 H 70.4368 -5.6514 0.25155 0
M  V30 728 H 68.9938 -6.48313 0.67329 0
M  V30 729 N 72.4269 -1.23603 -0.977757 0
M  V30 730 C 73.6749 -1.06759 -1.71601 0
M  V30 731 C 73.9959 0.395929 -1.90938 0
M  V30 732 O 73.2659 1.28356 -1.47992 0
M  V30 733 H 71.8459 -0.392062 -0.635843 0
M  V30 734 H 74.5079 -1.55362 -1.1768 0
M  V30 735 H 73.6039 -1.55763 -2.70452 0
M  V30 736 N 73.905 1.17692 -1.04816 0
M  V30 737 C 75.13 1.92327 -0.776207 0
M  V30 738 C 75.555 1.76082 0.661581 0
M  V30 739 O 74.913 1.076 1.45917 0
M  V30 740 C 74.961 3.41539 -1.15687 0
M  V30 741 O 74.065 4.11402 -0.286775 0
M  V30 742 H 73.406 0.599735 -0.284981 0
M  V30 743 H 75.936 1.49201 -1.4 0
M  V30 744 H 75.946 3.92269 -1.12202 0
M  V30 745 H 74.621 3.52684 -2.20425 0
M  V30 746 H 73.198 3.70939 -0.381903 0
M  V30 747 N 75.3831 0.828654 1.34056 0
M  V30 748 C 76.3461 0.259927 2.27721 0
M  V30 749 C 77.3461 -0.565478 1.50529 0
M  V30 750 O 78.5361 -0.38075 1.69988 0
M  V30 751 C 75.6681 -0.634944 3.34935 0
M  V30 752 H 76.8611 1.0863 2.79534 0
M  V30 753 H 74.4141 0.600951 1.44285 0
M  V30 754 H 75.1491 -1.48416 2.88346 0
M  V30 755 H 74.9341 -0.0444999 3.92075 0
M  V30 756 H 76.4241 -1.02648 4.04788 0
M  V30 757 N 76.8612 -1.46375 0.584142 0
M  V30 758 C 78.1382 -1.956 0.0033388 0
M  V30 759 C 78.5182 -1.52679 -1.45782 0
M  V30 760 O 77.8662 -0.77816 -2.14842 0
M  V30 761 C 78.0762 -3.48551 0.176891 0
M  V30 762 C 79.4242 -4.24576 0.0454609 0
M  V30 763 O 80.4482 -3.56043 0.105801 0
M  V30 764 O 79.3072 -5.46427 -0.0890376 0
M  V30 765 H 76.4012 -0.825547 -0.0490066 0
M  V30 766 H 78.9472 -1.56652 0.65256 0
M  V30 767 H 77.7192 -3.72683 1.1926 0
M  V30 768 H 77.3422 -3.94332 -0.508695 0
M  V30 769 N 78.3393 -0.321999 -1.54275 0
M  V30 770 C 79.5643 0.285791 -2.05422 0
M  V30 771 C 79.9893 1.45124 -1.19669 0
M  V30 772 O 79.3473 1.80132 -0.205441 0
M  V30 773 C 79.3953 0.69956 -3.53749 0
M  V30 774 O 78.4993 1.8021 -3.70942 0
M  V30 775 H 77.8403 0.0518962 -0.661969 0
M  V30 776 H 80.3703 -0.469954 -1.9913 0
M  V30 777 H 80.3803 0.982649 -3.9599 0
M  V30 778 H 79.0553 -0.152864 -4.15619 0
M  V30 779 H 77.6323 1.51794 -3.40607 0
M  V30 780 N 79.8174 1.5752 -0.0501392 0
M  V30 781 C 81.0474 1.96678 0.632573 0
M  V30 782 C 81.4554 0.926298 1.64974 0
M  V30 783 O 80.7984 -0.09802 1.83438 0
M  V30 784 C 80.8604 3.32068 1.37735 0
M  V30 785 C 80.5244 4.54076 0.516131 0
M  V30 786 C 81.5214 5.19445 -0.217357 0
M  V30 787 C 79.2064 5.00304 0.44736 0
M  V30 788 C 81.2004 6.29378 -1.00807 0
M  V30 789 C 78.8874 6.10114 -0.347038 0
M  V30 790 C 79.8854 6.74512 -1.07344 0
M  V30 791 O 79.5734 7.82211 -1.85477 0
M  V30 792 H 79.3054 0.652193 0.177821 0
M  V30 793 H 81.8594 2.05091 -0.112543 0
M  V30 794 H 80.0894 3.20206 2.16807 0
M  V30 795 H 81.7784 3.55981 1.95019 0
M  V30 796 H 82.5444 4.84689 -0.173688 0
M  V30 797 H 78.4234 4.49971 1.00235 0
M  V30 798 H 81.9674 6.79575 -1.57556 0
M  V30 799 H 77.8644 6.44307 -0.392349 0
M  V30 800 H 78.6324 7.98982 -1.77678 0
M  V30 801 N 81.2955 -0.223234 1.56011 0
M  V30 802 C 82.5235 -0.964812 1.83027 0
M  V30 803 C 82.9385 -1.78013 0.62904 0
M  V30 804 O 82.2955 -1.78008 -0.402414 0
M  V30 805 C 82.3465 -1.88373 3.08542 0
M  V30 806 O 82.0675 -1.10137 4.2403 0
M  V30 807 C 83.5685 -2.73934 3.48533 0
M  V30 808 H 80.7885 -0.282842 0.608475 0
M  V30 809 H 83.3325 -0.238971 2.03099 0
M  V30 810 H 81.4875 -2.56354 2.9045 0
M  V30 811 H 81.9015 -1.72501 4.95322 0
M  V30 812 H 83.3755 -3.34117 4.39397 0
M  V30 813 H 83.8525 -3.46244 2.70207 0
M  V30 814 H 84.4585 -2.11369 3.69057 0
M  V30 815 N 82.7736 -1.49793 -0.48987 0
M  V30 816 C 83.9986 -1.63836 -1.27172 0
M  V30 817 C 84.4236 -0.31402 -1.8546 0
M  V30 818 O 83.7816 0.719803 -1.66399 0
M  V30 819 C 83.8296 -2.71797 -2.36978 0
M  V30 820 O 82.9336 -2.31744 -3.41128 0
M  V30 821 H 82.2746 -0.547997 -0.37496 0
M  V30 822 H 84.8046 -1.96053 -0.585191 0
M  V30 823 H 84.8146 -2.94305 -2.82575 0
M  V30 824 H 83.4896 -3.67923 -1.93921 0
M  V30 825 H 82.0666 -2.1961 -3.01373 0
M  V30 826 N 84.2517 0.741722 -1.39055 0
M  V30 827 C 85.6677 1.04638 -1.20512 0
M  V30 828 C 85.8677 2.01405 -0.0620218 0
M  V30 829 O 84.9237 2.45547 0.588457 0
M  V30 830 C 86.2367 1.6151 -2.53643 0
M  V30 831 C 87.7847 1.73623 -2.6043 0
M  V30 832 C 88.2597 2.33906 -3.93767 0
M  V30 833 N 89.7507 2.41323 -3.9537 0
M  V30 834 C 90.4857 2.88888 -4.95309 0
M  V30 835 N 89.9817 3.36401 -6.05645 0
M  V30 836 N 91.7747 2.88037 -4.82692 0
M  V30 837 H 83.9257 0.0998155 -2.12165 0
M  V30 838 H 86.1887 0.106907 -0.941953 0
M  V30 839 H 85.8947 0.978739 -3.37807 0
M  V30 840 H 85.7687 2.60411 -2.72885 0
M  V30 841 H 88.1557 2.36384 -1.76655 0
M  V30 842 H 88.2367 0.733945 -2.45045 0
M  V30 843 H 87.8807 1.71776 -4.7797 0
M  V30 844 H 87.8107 3.34799 -4.06469 0
M  V30 845 H 90.3017 2.07734 -3.15682 0
M  V30 846 H 90.6147 3.71186 -6.77821 0
M  V30 847 H 88.9597 3.34427 -6.09248 0
M  V30 848 H 92.1507 2.50237 -3.95599 0
M  V30 849 H 92.3237 3.24792 -5.60726 0
M  V30 850 N 85.7298 1.2412 0.971189 0
M  V30 851 C 87.1408 1.07236 1.52831 0
M  V30 852 C 87.4918 -0.357352 1.92918 0
M  V30 853 O 86.6168 -1.24528 1.76979 0
M  V30 854 C 87.2118 1.94043 2.77728 0
M  V30 855 C 85.7708 1.81394 3.29808 0
M  V30 856 C 84.9178 1.89189 2.02738 0
M  V30 857 H 87.8688 1.37648 0.789864 0
M  V30 858 H 87.8898 1.47066 3.5093 0
M  V30 859 H 87.4018 2.98093 2.4852 0
M  V30 860 H 85.5028 0.801634 3.63874 0
M  V30 861 H 85.6158 2.65294 3.98944 0
M  V30 862 H 83.9798 1.32877 2.17292 0
M  V30 863 H 84.7628 2.94812 1.759 0
M  V30 864 N 87.2079 -1.17134 1.05439 0
M  V30 865 C 88.4329 -1.91913 0.786396 0
M  V30 866 C 88.8579 -1.7643 -0.652234 0
M  V30 867 O 88.2159 -1.08372 -1.45345 0
M  V30 868 C 88.2639 -3.40921 1.17497 0
M  V30 869 O 87.3679 -4.11244 0.308589 0
M  V30 870 H 86.7089 -0.598215 0.288158 0
M  V30 871 H 89.2389 -1.48457 1.4079 0
M  V30 872 H 89.2489 -3.91668 1.14281 0
M  V30 873 H 87.9239 -3.5151 2.22292 0
M  V30 874 H 86.5009 -3.70731 0.40157 0
M  V30 875 N 88.686 -0.835752 -1.33615 0
M  V30 876 C 89.963 -0.352017 -1.92406 0
M  V30 877 C 90.343 1.16225 -1.76224 0
M  V30 878 O 89.691 1.97526 -1.14873 0
M  V30 879 C 89.901 -0.795485 -3.39813 0
M  V30 880 C 91.249 -0.801703 -4.16963 0
M  V30 881 O 92.273 -0.738889 -3.48452 0
M  V30 882 O 91.132 -0.886607 -5.3926 0
M  V30 883 H 88.226 -0.0989641 -0.821057 0
M  V30 884 H 90.772 -0.921397 -1.42507 0
M  V30 885 H 89.544 -1.83795 -3.45449 0
M  V30 886 H 89.167 -0.202505 -3.97084 0
M  V30 887 N 90.1641 1.46063 -0.591896 0
M  V30 888 C 91.3891 2.07226 -0.0850314 0
M  V30 889 C 91.8141 1.43625 1.21463 0
M  V30 890 O 91.1721 0.523305 1.73583 0
M  V30 891 C 91.2201 3.60554 0.0576567 0
M  V30 892 O 90.3241 3.97128 1.11188 0
M  V30 893 H 89.6651 0.660615 -0.0669568 0
M  V30 894 H 92.1951 1.8756 -0.81745 0
M  V30 895 H 92.2051 4.07165 0.2609 0
M  V30 896 H 90.8801 4.06235 -0.891416 0
M  V30 897 H 89.4571 3.62213 0.886356 0
M  V30 898 N 91.6422 0.330177 1.54103 0
M  V30 899 C 92.9192 -0.325007 1.92881 0
M  V30 900 C 93.2992 -1.6934 1.26045 0
M  V30 901 O 92.6472 -2.24855 0.406526 0
M  V30 902 C 92.8572 -0.410634 3.46576 0
M  V30 903 C 94.2052 -0.667801 4.19316 0
M  V30 904 O 95.2292 -0.49329 3.52768 0
M  V30 905 O 94.0882 -1.00491 5.37181 0
M  V30 906 H 91.1822 -0.186873 0.80561 0
M  V30 907 H 93.7282 0.380376 1.65382 0
M  V30 908 H 92.5002 0.550164 3.87413 0
M  V30 909 H 92.1232 -1.16333 3.802 0
M  V30 910 N 93.1203 -1.57491 0.0584922 0
M  V30 911 C 94.3663 -1.93264 -0.614558 0
M  V30 912 C 94.6993 -0.937717 -1.7006 0
M  V30 913 O 93.9743 0.0351652 -1.94468 0
M  V30 914 C 94.2573 -3.3938 -1.20386 0
M  V30 915 C 94.1103 -4.49625 -0.125375 0
M  V30 916 C 95.4293 -3.86039 -2.11334 0
M  V30 917 H 92.5483 -0.702791 -0.221933 0
M  V30 918 H 95.1903 -1.8961 0.12175 0
M  V30 919 H 93.3403 -3.42626 -1.83139 0
M  V30 920 H 95.0123 -4.58506 0.506971 0
M  V30 921 H 93.2553 -4.30354 0.545672 0
M  V30 922 H 93.9263 -5.48967 -0.577861 0
M  V30 923 H 96.4023 -3.84716 -1.58534 0
M  V30 924 H 95.2783 -4.88914 -2.49507 0
M  V30 925 H 95.5393 -3.23215 -3.01636 0
M  V30 926 N 94.5984 0.214957 -1.56127 0
M  V30 927 C 95.8234 0.95924 -1.83884 0
M  V30 928 C 96.2484 1.7689 -0.639644 0
M  V30 929 O 95.6064 1.76566 0.411601 0
M  V30 930 C 95.6544 1.84723 -3.09693 0
M  V30 931 O 94.7584 2.94346 -2.8885 0
M  V30 932 H 94.0994 0.27125 -0.606069 0
M  V30 933 H 96.6294 0.226276 -2.03345 0
M  V30 934 H 96.6394 2.25576 -3.39969 0
M  V30 935 H 95.3144 1.25218 -3.96602 0
M  V30 936 H 93.8914 2.57391 -2.69823 0
M  V30 937 N 96.0765 1.50051 0.48192 0
M  V30 938 C 97.0065 1.71046 1.58951 0
M  V30 939 C 97.9875 0.559288 1.60642 0
M  V30 940 O 99.1725 0.797243 1.77081 0
M  V30 941 C 96.3025 1.79462 2.97339 0
M  V30 942 C 95.2565 2.94558 3.10515 0
M  V30 943 C 94.5825 2.88105 4.50444 0
M  V30 944 C 95.8825 4.35227 2.88747 0
M  V30 945 H 97.5765 2.6378 1.41635 0
M  V30 946 H 95.1225 1.26936 0.679942 0
M  V30 947 H 97.0755 1.92734 3.74742 0
M  V30 948 H 95.7995 0.833412 3.15788 0
M  V30 949 H 94.4585 2.80918 2.35543 0
M  V30 950 H 94.1065 1.89853 4.65795 0
M  V30 951 H 93.8065 3.65366 4.60197 0
M  V30 952 H 95.3305 3.03412 5.29881 0
M  V30 953 H 96.7445 4.49449 3.55905 0
M  V30 954 H 95.1415 5.13856 3.09955 0
M  V30 955 H 96.2115 4.48347 1.84696 0
M  V30 956 N 97.5546 -0.734337 1.39446 0
M  V30 957 C 98.4646 -1.87879 1.40495 0
M  V30 958 C 99.4806 -1.714 0.299672 0
M  V30 959 O 100.657 -1.93991 0.541249 0
M  V30 960 C 97.7216 -3.23477 1.24754 0
M  V30 961 C 96.7826 -3.52344 2.45259 0
M  V30 962 C 96.0156 -4.81473 2.30259 0
M  V30 963 O 96.2386 -5.55237 1.30643 0
M  V30 964 O 95.1726 -5.10254 3.19256 0
M  V30 965 H 98.9986 -1.89949 2.36966 0
M  V30 966 H 96.5836 -0.882243 1.20569 0
M  V30 967 H 98.4656 -4.04509 1.18111 0
M  V30 968 H 97.1406 -3.22176 0.313781 0
M  V30 969 H 96.0476 -2.71396 2.57478 0
M  V30 970 H 97.3806 -3.58426 3.37331 0
M  V30 971 N 99.0327 -1.24633 -0.964593 0
M  V30 972 C 99.9427 -1.05859 -2.09359 0
M  V30 973 C 100.959 0.00148855 -1.74 0
M  V30 974 O 102.135 -0.197346 -2.00431 0
M  V30 975 C 99.1997 -0.668879 -3.40187 0
M  V30 976 C 98.2607 -1.80578 -3.89474 0
M  V30 977 C 97.4937 -1.43457 -5.14058 0
M  V30 978 O 97.7167 -0.325775 -5.69469 0
M  V30 979 O 96.6507 -2.2613 -5.57807 0
M  V30 980 H 100.477 -2.00516 -2.28094 0
M  V30 981 H 98.0617 -1.03481 -1.0776 0
M  V30 982 H 99.9437 -0.463211 -4.18846 0
M  V30 983 H 98.6187 0.248536 -3.22744 0
M  V30 984 H 97.5257 -2.06623 -3.11862 0
M  V30 985 H 98.8587 -2.70208 -4.11398 0
M  V30 986 N 100.511 1.16574 -1.06058 0
M  V30 987 C 101.788 1.83048 -0.689416 0
M  V30 988 C 102.168 1.94122 0.829443 0
M  V30 989 O 101.516 1.48249 1.7388 0
M  V30 990 C 101.726 3.20186 -1.38859 0
M  V30 991 C 103.074 3.95989 -1.53226 0
M  V30 992 O 104.098 3.29696 -1.3483 0
M  V30 993 O 102.957 5.14813 -1.83384 0
M  V30 994 H 100.051 0.790258 -0.243764 0
M  V30 995 H 102.597 1.23797 -1.16071 0
M  V30 996 H 101.369 3.07146 -2.4244 0
M  V30 997 H 100.992 3.87112 -0.907216 0
M  V30 998 N 101.989 0.842826 1.3317 0
M  V30 999 C 103.405 0.531128 1.50503 0
M  V30 1000 C 103.605 -0.940734 1.78192 0
M  V30 1001 O 102.661 -1.72436 1.84451 0
M  V30 1002 C 103.974 1.40789 2.65705 0
M  V30 1003 C 105.522 1.40708 2.79589 0
M  V30 1004 C 105.997 2.26878 3.97857 0
M  V30 1005 N 107.488 2.24609 4.05099 0
M  V30 1006 C 108.223 2.88019 4.95815 0
M  V30 1007 N 107.719 3.60496 5.9162 0
M  V30 1008 N 109.512 2.77469 4.88843 0
M  V30 1009 H 101.663 1.79557 1.1346 0
M  V30 1010 H 103.926 0.766267 0.558156 0
M  V30 1011 H 103.632 2.454 2.51936 0
M  V30 1012 H 103.506 1.08677 3.61205 0
M  V30 1013 H 105.893 0.368668 2.92788 0
M  V30 1014 H 105.974 1.76829 1.84838 0
M  V30 1015 H 105.618 3.3078 3.85418 0
M  V30 1016 H 105.548 1.88096 4.91861 0
M  V30 1017 H 108.039 1.71906 3.36536 0
M  V30 1018 H 108.352 4.06076 6.57512 0
M  V30 1019 H 106.697 3.64604 5.91683 0
M  V30 1020 H 109.888 2.20406 4.12963 0
M  V30 1021 H 110.061 3.2717 5.59342 0
M  V30 1022 N 103.467 -1.45747 0.599634 0
M  V30 1023 C 104.377 -2.34262 -0.125888 0
M  V30 1024 C 105.393 -1.50768 -0.868625 0
M  V30 1025 O 106.569 -1.83592 -0.828003 0
M  V30 1026 C 103.634 -3.28252 -1.11587 0
M  V30 1027 C 102.695 -4.27651 -0.375956 0
M  V30 1028 C 101.928 -5.1715 -1.31877 0
M  V30 1029 O 102.151 -5.09916 -2.55621 0
M  V30 1030 O 101.085 -5.96286 -0.820157 0
M  V30 1031 H 104.911 -2.97688 0.601315 0
M  V30 1032 H 102.496 -1.44999 0.359934 0
M  V30 1033 H 104.378 -3.86191 -1.68626 0
M  V30 1034 H 103.053 -2.67401 -1.82424 0
M  V30 1035 H 101.96 -3.7335 0.236698 0
M  V30 1036 H 103.293 -4.91334 0.29177 0
M  V30 1037 N 104.945 -0.338344 -1.53925 0
M  V30 1038 C 105.908 0.508299 -2.23493 0
M  V30 1039 C 106.908 1.03175 -1.23335 0
M  V30 1040 O 108.098 0.921826 -1.47811 0
M  V30 1041 C 105.23 1.70754 -2.95052 0
M  V30 1042 H 106.423 -0.100058 -2.99733 0
M  V30 1043 H 103.976 -0.0896198 -1.56043 0
M  V30 1044 H 104.711 2.35474 -2.22986 0
M  V30 1045 H 104.496 1.33946 -3.68512 0
M  V30 1046 H 105.986 2.30818 -3.48013 0
M  V30 1047 N 106.423 1.57458 -0.0668435 0
M  V30 1048 C 107.672 1.92477 0.602947 0
M  V30 1049 C 107.985 0.948419 1.71068 0
M  V30 1050 O 109.191 1.19124 2.43971 0
M  V30 1051 C 107.647 3.41903 1.12383 0
M  V30 1052 C 107.255 4.47975 0.04737 0
M  V30 1053 C 108.999 3.85931 1.76797 0
M  V30 1054 C 106.906 5.88529 0.582022 0
M  V30 1055 H 105.836 0.718387 0.22899 0
M  V30 1056 H 108.487 1.82978 -0.138276 0
M  V30 1057 H 106.869 3.46459 1.91787 0
M  V30 1058 H 108.043 4.55029 -0.726978 0
M  V30 1059 H 106.358 4.13384 -0.500243 0
M  V30 1060 H 108.955 4.88322 2.17821 0
M  V30 1061 H 109.298 3.23029 2.62599 0
M  V30 1062 H 109.831 3.83958 1.04024 0
M  V30 1063 H 106.57 6.55065 -0.238721 0
M  V30 1064 H 106.09 5.85004 1.324 0
M  V30 1065 H 107.769 6.38258 1.05999 0
M  V30 1066 N 107.901 -0.206675 1.56239 0
M  V30 1067 C 109.317 -0.557025 1.49564 0
M  V30 1068 C 109.517 -1.86424 0.764735 0
M  V30 1069 O 108.573 -2.50584 0.310491 0
M  V30 1070 C 109.886 -0.622478 2.94186 0
M  V30 1071 C 111.434 -0.712099 3.04792 0
M  V30 1072 C 111.909 -0.808767 4.50803 0
M  V30 1073 N 113.4 -0.8726 4.54907 0
M  V30 1074 C 114.135 -0.967365 5.65181 0
M  V30 1075 N 113.631 -1.02515 6.85173 0
M  V30 1076 N 115.424 -1.00366 5.53067 0
M  V30 1077 H 107.575 0.650943 2.02179 0
M  V30 1078 H 109.838 0.230387 0.919579 0
M  V30 1079 H 109.544 0.268727 3.50672 0
M  V30 1080 H 109.418 -1.4811 3.46905 0
M  V30 1081 H 111.805 -1.59374 2.48363 0
M  V30 1082 H 111.886 0.172489 2.55218 0
M  V30 1083 H 111.53 0.0684754 5.07854 0
M  V30 1084 H 111.46 -1.70899 4.98098 0
M  V30 1085 H 113.951 -0.837657 3.68499 0
M  V30 1086 H 114.264 -1.09765 7.64965 0
M  V30 1087 H 112.609 -0.994026 6.87855 0
M  V30 1088 H 115.8 -0.95527 4.58249 0
M  V30 1089 H 115.973 -1.07405 6.39037 0
M  V30 1090 N 109.379 -1.50304 -0.473955 0
M  V30 1091 C 110.311 -1.65109 -1.58971 0
M  V30 1092 C 111.324 -0.532676 -1.53839 0
M  V30 1093 O 112.513 -0.805751 -1.59279 0
M  V30 1094 C 109.613 -1.61684 -2.97845 0
M  V30 1095 C 108.786 -2.8951 -3.27876 0
M  V30 1096 C 107.845 -2.78768 -4.4629 0
M  V30 1097 O 106.871 -3.52722 -4.46739 0
M  V30 1098 N 108.073 -1.9213 -5.47783 0
M  V30 1099 H 110.838 -2.61347 -1.46689 0
M  V30 1100 H 108.399 -1.47732 -0.662324 0
M  V30 1101 H 110.391 -1.52114 -3.75024 0
M  V30 1102 H 108.961 -0.731925 -3.03911 0
M  V30 1103 H 108.181 -3.13228 -2.39336 0
M  V30 1104 H 109.469 -3.74199 -3.4475 0
M  V30 1105 H 108.867 -1.31353 -5.50239 0
M  V30 1106 H 107.424 -1.88466 -6.23958 0
M  V30 1107 N 110.857 0.726932 -1.39834 0
M  V30 1108 C 111.767 1.87131 -1.41489 0
M  V30 1109 C 112.783 1.71239 -0.308757 0
M  V30 1110 O 113.959 1.93701 -0.551529 0
M  V30 1111 C 111.024 3.22811 -1.26468 0
M  V30 1112 C 110.085 3.51039 -2.47124 0
M  V30 1113 C 109.318 4.80245 -2.3281 0
M  V30 1114 O 109.541 5.54537 -1.33585 0
M  V30 1115 O 108.475 5.08554 -3.21957 0
M  V30 1116 H 112.301 1.8869 -2.3797 0
M  V30 1117 H 109.886 0.875837 -1.21035 0
M  V30 1118 H 111.768 4.03877 -1.20255 0
M  V30 1119 H 110.443 3.22005 -0.330862 0
M  V30 1120 H 109.35 2.70027 -2.58914 0
M  V30 1121 H 110.683 3.56632 -3.39227 0
M  V30 1122 N 112.336 1.25143 0.95797 0
M  V30 1123 C 113.752 1.01892 1.22842 0
M  V30 1124 C 113.952 -0.266311 1.99732 0
M  V30 1125 O 113.008 -0.979913 2.3271 0
M  V30 1126 C 114.321 2.24004 2.00606 0
M  V30 1127 C 115.869 2.28731 2.13662 0
M  V30 1128 C 116.344 3.5049 2.94823 0
M  V30 1129 N 117.835 3.50866 3.02403 0
M  V30 1130 C 118.57 4.4174 3.65586 0
M  V30 1131 N 118.066 5.42882 4.30408 0
M  V30 1132 N 119.859 4.29429 3.62694 0
M  V30 1133 H 112.01 2.07718 0.443493 0
M  V30 1134 H 114.273 0.912031 0.258657 0
M  V30 1135 H 113.979 3.17395 1.51503 0
M  V30 1136 H 113.853 2.26907 3.01319 0
M  V30 1137 H 116.24 1.35865 2.61963 0
M  V30 1138 H 116.321 2.29848 1.12265 0
M  V30 1139 H 115.965 4.43676 2.47213 0
M  V30 1140 H 115.895 3.46617 3.96439 0
M  V30 1141 H 118.386 2.777 2.56302 0
M  V30 1142 H 118.699 6.0844 4.76467 0
M  V30 1143 H 117.044 5.46758 4.29047 0
M  V30 1144 H 120.235 3.49643 3.11236 0
M  V30 1145 H 120.408 5.00448 4.1165 0
M  V30 1146 N 113.814 -1.1601 1.06675 0
M  V30 1147 C 114.724 -2.24156 0.692179 0
M  V30 1148 C 115.74 -1.71507 -0.293513 0
M  V30 1149 O 116.916 -2.009 -0.141861 0
M  V30 1150 C 113.981 -3.46587 0.0884131 0
M  V30 1151 C 113.042 -4.14257 1.12646 0
M  V30 1152 C 112.275 -5.30844 0.551416 0
M  V30 1153 O 112.498 -5.66858 -0.634656 0
M  V30 1154 O 111.432 -5.87848 1.29298 0
M  V30 1155 H 115.258 -2.58513 1.59388 0
M  V30 1156 H 112.843 -1.23599 0.83926 0
M  V30 1157 H 114.725 -4.20679 -0.246361 0
M  V30 1158 H 113.4 -3.13994 -0.786712 0
M  V30 1159 H 112.307 -3.42118 1.51348 0
M  V30 1160 H 113.64 -4.50914 1.97325 0
M  V30 1161 N 115.292 -0.849877 -1.32721 0
M  V30 1162 C 116.224 -0.248332 -2.27851 0
M  V30 1163 C 117.237 0.577218 -1.52224 0
M  V30 1164 O 118.426 0.402489 -1.73903 0
M  V30 1165 C 115.526 0.668107 -3.32249 0
M  V30 1166 C 114.699 -0.120534 -4.37234 0
M  V30 1167 C 113.758 0.720932 -5.21238 0
M  V30 1168 O 112.784 0.156166 -5.68986 0
M  V30 1169 N 113.986 2.03647 -5.43607 0
M  V30 1170 H 116.751 -1.06575 -2.80111 0
M  V30 1171 H 114.312 -0.709395 -1.45531 0
M  V30 1172 H 116.304 1.23627 -3.85355 0
M  V30 1173 H 114.874 1.38621 -2.80184 0
M  V30 1174 H 114.094 -0.870108 -3.84477 0
M  V30 1175 H 115.382 -0.662406 -5.0447 0
M  V30 1176 H 114.78 2.51871 -5.06535 0
M  V30 1177 H 113.337 2.55287 -5.99727 0
M  V30 1178 N 116.77 1.45427 -0.607355 0
M  V30 1179 C 117.702 2.2871 0.149752 0
M  V30 1180 C 118.715 1.39937 0.831958 0
M  V30 1181 O 119.904 1.64313 0.697385 0
M  V30 1182 C 117.004 3.15673 1.23304 0
M  V30 1183 C 116.177 4.32722 0.637996 0
M  V30 1184 C 115.236 5.00895 1.61215 0
M  V30 1185 O 114.262 5.57697 1.13854 0
M  V30 1186 N 115.464 5.00159 2.94655 0
M  V30 1187 H 118.229 2.94328 -0.564882 0
M  V30 1188 H 115.79 1.55612 -0.446823 0
M  V30 1189 H 117.782 3.58144 1.88454 0
M  V30 1190 H 116.352 2.51965 1.8502 0
M  V30 1191 H 115.572 3.93734 -0.191572 0
M  V30 1192 H 116.86 5.08321 0.220665 0
M  V30 1193 H 116.258 4.553 3.35735 0
M  V30 1194 H 114.815 5.46495 3.55228 0
M  V30 1195 N 118.248 0.346503 1.53744 0
M  V30 1196 C 119.211 -0.496439 2.23759 0
M  V30 1197 C 120.211 -1.0252 1.2388 0
M  V30 1198 O 121.401 -0.913974 1.48297 0
M  V30 1199 C 118.533 -1.69187 2.95954 0
M  V30 1200 H 119.726 0.115952 2.99676 0
M  V30 1201 H 117.279 0.0978939 1.55993 0
M  V30 1202 H 118.014 -2.34288 2.24231 0
M  V30 1203 H 117.799 -1.31989 3.69217 0
M  V30 1204 H 119.289 -2.28969 3.49232 0
M  V30 1205 N 119.726 -1.57421 0.075193 0
M  V30 1206 C 120.689 -2.11791 -0.876203 0
M  V30 1207 C 121.689 -1.04268 -1.22412 0
M  V30 1208 O 122.879 -1.30242 -1.15684 0
M  V30 1209 C 120.011 -2.62207 -2.17854 0
M  V30 1210 H 121.204 -2.9716 -0.40444 0
M  V30 1211 H 118.757 -1.55333 -0.173557 0
M  V30 1212 H 119.492 -1.803 -2.6956 0
M  V30 1213 H 119.277 -3.40802 -1.93897 0
M  V30 1214 H 120.767 -3.04335 -2.85955 0
M  V30 1215 N 121.204 0.198386 -1.56346 0
M  V30 1216 C 122.453 0.917451 -1.79627 0
M  V30 1217 C 122.766 1.8456 -0.64784 0
M  V30 1218 O 123.972 2.60504 -0.764859 0
M  V30 1219 C 122.428 1.68175 -3.18191 0
M  V30 1220 C 122.036 0.798589 -4.40825 0
M  V30 1221 C 123.78 2.39065 -3.50782 0
M  V30 1222 C 121.687 1.56157 -5.70411 0
M  V30 1223 H 120.617 0.346317 -0.669762 0
M  V30 1224 H 123.268 0.170801 -1.82703 0
M  V30 1225 H 121.65 2.47216 -3.09354 0
M  V30 1226 H 122.824 0.0470665 -4.60776 0
M  V30 1227 H 121.139 0.200686 -4.15916 0
M  V30 1228 H 123.736 2.96692 -4.44835 0
M  V30 1229 H 124.079 3.13091 -2.74371 0
M  V30 1230 H 124.612 1.66993 -3.61052 0
M  V30 1231 H 121.351 0.864142 -6.49779 0
M  V30 1232 H 120.871 2.2871 -5.54483 0
M  V30 1233 H 122.55 2.11622 -6.11412 0
M  V30 1234 N 122.682 1.50554 0.465978 0
M  V30 1235 C 123.614 1.65949 1.58093 0
M  V30 1236 C 124.627 0.540827 1.53554 0
M  V30 1237 O 125.816 0.814187 1.5885 0
M  V30 1238 C 122.916 1.63261 2.96983 0
M  V30 1239 C 122.089 2.91245 3.26336 0
M  V30 1240 C 121.148 2.8113 4.44806 0
M  V30 1241 O 120.174 3.55086 4.44862 0
M  V30 1242 N 121.376 1.95032 5.46756 0
M  V30 1243 H 124.141 2.62122 1.45301 0
M  V30 1244 H 121.702 1.48082 0.65448 0
M  V30 1245 H 123.694 1.54101 3.74212 0
M  V30 1246 H 122.264 0.748032 3.03518 0
M  V30 1247 H 121.484 3.14493 2.37672 0
M  V30 1248 H 122.772 3.76022 3.42761 0
M  V30 1249 H 122.17 1.3427 5.49534 0
M  V30 1250 H 120.727 1.91772 6.2295 0
M  V30 1251 N 124.16 -0.719506 1.40217 0
M  V30 1252 C 125.09 -1.8465 1.42922 0
M  V30 1253 C 126.071 -1.67599 0.29062 0
M  V30 1254 O 127.256 -1.87688 0.498677 0
M  V30 1255 C 124.386 -3.22565 1.28722 0
M  V30 1256 C 123.34 -3.54281 2.40144 0
M  V30 1257 C 122.666 -4.91298 2.11023 0
M  V30 1258 C 123.966 -3.55676 3.82481 0
M  V30 1259 H 125.66 -1.82644 2.37237 0
M  V30 1260 H 123.206 -0.877305 1.1419 0
M  V30 1261 H 125.159 -4.01095 1.29232 0
M  V30 1262 H 123.883 -3.25137 0.308811 0
M  V30 1263 H 122.542 -2.78088 2.38877 0
M  V30 1264 H 122.19 -4.90468 1.11582 0
M  V30 1265 H 121.89 -5.13485 2.8567 0
M  V30 1266 H 123.414 -5.72166 2.13209 0
M  V30 1267 H 124.828 -4.24254 3.85592 0
M  V30 1268 H 123.225 -3.89388 4.56614 0
M  V30 1269 H 124.295 -2.55144 4.12346 0
M  V30 1270 N 125.638 -1.25649 -0.95132 0
M  V30 1271 C 126.548 -1.08073 -2.08224 0
M  V30 1272 C 127.564 -0.0169666 -1.73992 0
M  V30 1273 O 128.74 -0.218593 -2.0021 0
M  V30 1274 C 125.805 -0.704922 -3.39458 0
M  V30 1275 C 124.866 -1.84699 -3.87537 0
M  V30 1276 C 124.099 -1.48902 -5.12508 0
M  V30 1277 O 124.322 -0.386156 -5.69091 0
M  V30 1278 O 123.256 -2.32033 -5.55378 0
M  V30 1279 H 127.082 -2.02924 -2.25954 0
M  V30 1280 H 124.667 -1.04618 -1.06656 0
M  V30 1281 H 126.549 -0.507609 -4.18332 0
M  V30 1282 H 125.224 0.214291 -3.2299 0
M  V30 1283 H 124.131 -2.09919 -3.09653 0
M  V30 1284 H 125.464 -2.74557 -4.08509 0
M  V30 1285 N 127.117 1.15442 -1.07289 0
M  V30 1286 C 128.533 1.38201 -0.798288 0
M  V30 1287 C 128.733 1.92429 0.597769 0
M  V30 1288 O 127.789 2.12962 1.3566 0
M  V30 1289 C 129.102 2.35357 -1.87156 0
M  V30 1290 C 130.65 2.49021 -1.89624 0
M  V30 1291 C 131.125 3.49468 -2.96034 0
M  V30 1292 N 132.616 3.57003 -2.95132 0
M  V30 1293 C 133.351 4.34543 -3.74112 0
M  V30 1294 N 132.847 5.15421 -4.6294 0
M  V30 1295 N 134.64 4.29625 -3.62462 0
M  V30 1296 H 126.791 0.78584 -1.97328 0
M  V30 1297 H 129.054 0.408065 -0.855679 0
M  V30 1298 H 128.76 2.02626 -2.87464 0
M  V30 1299 H 128.634 3.35129 -1.73114 0
M  V30 1300 H 131.021 2.81051 -0.899687 0
M  V30 1301 H 131.102 1.4925 -2.07745 0
M  V30 1302 H 130.746 3.18173 -3.95889 0
M  V30 1303 H 130.676 4.48992 -2.75161 0
M  V30 1304 H 133.167 2.99276 -2.30743 0
M  V30 1305 H 133.48 5.7183 -5.19837 0
M  V30 1306 H 131.825 5.14729 -4.66989 0
M  V30 1307 H 135.016 3.65505 -2.92444 0
M  V30 1308 H 135.189 4.89807 -4.24256 0
M  V30 1309 N 128.595 0.856903 1.32268 0
M  V30 1310 C 129.558 0.308171 2.27119 0
M  V30 1311 C 130.558 -0.533421 1.51695 0
M  V30 1312 O 131.748 -0.344607 1.70757 0
M  V30 1313 C 128.88 -0.563757 3.36206 0
M  V30 1314 H 130.073 1.14535 2.77167 0
M  V30 1315 H 127.626 0.631421 1.42978 0
M  V30 1316 H 128.361 -1.42266 2.91429 0
M  V30 1317 H 128.146 0.0386749 3.92081 0
M  V30 1318 H 129.636 -0.940386 4.06874 0
M  V30 1319 N 130.073 -1.45103 0.615059 0
M  V30 1320 C 131.02 -2.30586 -0.0993978 0
M  V30 1321 C 131.99 -1.42544 -0.852669 0
M  V30 1322 O 133.175 -1.71465 -0.836917 0
M  V30 1323 C 130.315 -3.27572 -1.08583 0
M  V30 1324 C 129.428 -4.30717 -0.332656 0
M  V30 1325 C 128.563 -5.14807 -1.30947 0
M  V30 1326 C 127.602 -6.09673 -0.544538 0
M  V30 1327 N 126.739 -6.86517 -1.47101 0
M  V30 1328 H 131.579 -2.91144 0.635542 0
M  V30 1329 H 129.116 -1.4346 0.325206 0
M  V30 1330 H 131.074 -3.82276 -1.67095 0
M  V30 1331 H 129.704 -2.68751 -1.78809 0
M  V30 1332 H 128.756 -3.78615 0.368107 0
M  V30 1333 H 130.068 -4.98102 0.263842 0
M  V30 1334 H 129.222 -5.73948 -1.96643 0
M  V30 1335 H 127.961 -4.47458 -1.9399 0
M  V30 1336 H 126.966 -5.49656 0.126003 0
M  V30 1337 H 128.191 -6.79052 0.080947 0
M  V30 1338 H 126.137 -6.21851 -2.08895 0
M  V30 1339 H 126.054 -7.50281 -0.928137 0
M  V30 1340 H 127.322 -7.50194 -2.11731 0
M  V30 1341 N 131.551 -0.354651 -1.53558 0
M  V30 1342 C 132.776 0.242153 -2.05981 0
M  V30 1343 C 133.201 1.42553 -1.2272 0
M  V30 1344 O 132.559 1.79656 -0.243604 0
M  V30 1345 C 132.607 0.624367 -3.55154 0
M  V30 1346 O 131.711 1.72301 -3.74681 0
M  V30 1347 H 131.052 0.0378432 -0.662921 0
M  V30 1348 H 133.582 -0.512087 -1.98088 0
M  V30 1349 H 133.592 0.898433 -3.97985 0
M  V30 1350 H 132.267 -0.240989 -4.15201 0
M  V30 1351 H 130.844 1.44535 -3.4375 0
M  V30 1352 N 133.029 1.57378 -0.0835403 0
M  V30 1353 C 133.976 2.13384 0.879539 0
M  V30 1354 C 134.946 1.04936 1.28754 0
M  V30 1355 O 136.131 1.32662 1.37133 0
M  V30 1356 C 133.271 2.70932 2.13752 0
M  V30 1357 C 132.384 3.93575 1.7811 0
M  V30 1358 C 131.519 4.39326 2.98607 0
M  V30 1359 C 130.558 5.54587 2.59037 0
M  V30 1360 N 129.695 5.95243 3.72331 0
M  V30 1361 H 134.535 2.9537 0.395076 0
M  V30 1362 H 132.072 1.45953 0.183349 0
M  V30 1363 H 134.03 3.02411 2.87408 0
M  V30 1364 H 132.66 1.91693 2.59718 0
M  V30 1365 H 131.712 3.68483 0.94469 0
M  V30 1366 H 133.024 4.77258 1.45005 0
M  V30 1367 H 132.178 4.72528 3.80529 0
M  V30 1368 H 130.917 3.5452 3.34913 0
M  V30 1369 H 129.922 5.21024 1.75539 0
M  V30 1370 H 131.147 6.41133 2.23887 0
M  V30 1371 H 129.093 5.13385 4.08378 0
M  V30 1372 H 129.01 6.73694 3.43034 0
M  V30 1373 H 130.278 6.33072 4.54797 0
M  V30 1374 N 134.507 -0.190092 1.56449 0
M  V30 1375 C 135.918 -0.754312 1.70784 0
M  V30 1376 C 136.269 -1.83631 0.690951 0
M  V30 1377 O 135.394 -2.15868 -0.151604 0
M  V30 1378 C 135.989 -1.37503 3.09642 0
M  V30 1379 C 134.548 -1.88628 3.25725 0
M  V30 1380 C 133.695 -0.758098 2.66736 0
M  V30 1381 H 136.646 0.0350524 1.58661 0
M  V30 1382 H 136.667 -2.2445 3.0725 0
M  V30 1383 H 136.179 -0.587302 3.83631 0
M  V30 1384 H 134.28 -2.70103 2.56661 0
M  V30 1385 H 134.393 -2.04462 4.3328 0
M  V30 1386 H 132.757 -1.17369 2.26046 0
M  V30 1387 H 133.54 0.0174705 3.43296 0
M  V30 1388 N 135.985 -1.50799 -0.457987 0
M  V30 1389 C 137.231 -1.62683 -1.21088 0
M  V30 1390 C 137.564 -0.332268 -1.91336 0
M  V30 1391 O 136.839 0.667043 -1.82704 0
M  V30 1392 C 137.122 -2.81615 -2.24422 0
M  V30 1393 C 136.975 -4.20989 -1.58392 0
M  V30 1394 C 138.294 -2.96085 -3.2561 0
M  V30 1395 H 135.413 -0.592087 -0.438864 0
M  V30 1396 H 138.055 -1.83225 -0.50286 0
M  V30 1397 H 136.205 -2.64231 -2.84806 0
M  V30 1398 H 137.877 -4.49994 -1.01504 0
M  V30 1399 H 136.12 -4.24641 -0.886704 0
M  V30 1400 H 136.791 -5.0016 -2.33547 0
M  V30 1401 H 139.267 -3.12042 -2.75262 0
M  V30 1402 H 138.143 -3.80902 -3.95228 0
M  V30 1403 H 138.404 -2.0726 -3.90507 0
M  V30 1404 N 137.463 0.71206 -1.40597 0
M  V30 1405 C 138.426 1.80785 -1.40888 0
M  V30 1406 C 139.426 1.57937 -0.302103 0
M  V30 1407 O 140.616 1.64913 -0.561182 0
M  V30 1408 C 137.748 3.18927 -1.20409 0
M  V30 1409 H 138.941 1.81924 -2.38419 0
M  V30 1410 H 136.494 0.91805 -1.26497 0
M  V30 1411 H 137.229 3.23436 -0.236522 0
M  V30 1412 H 137.014 3.36911 -2.00582 0
M  V30 1413 H 138.504 3.98949 -1.23408 0
M  V30 1414 N 138.941 1.26152 0.944643 0
M  V30 1415 C 140.188 1.11492 1.69044 0
M  V30 1416 C 140.516 -0.342366 1.91463 0
M  V30 1417 O 139.771 -1.26812 1.49054 0
M  V30 1418 C 140.07 1.82541 3.07268 0
M  V30 1419 C 139.736 3.32445 3.04616 0
M  V30 1420 C 138.398 3.73337 3.036 0
M  V30 1421 C 140.75 4.28171 2.97185 0
M  V30 1422 C 138.078 5.08348 2.92915 0
M  V30 1423 C 140.43 5.63218 2.88041 0
M  V30 1424 C 139.094 6.03426 2.85366 0
M  V30 1425 H 138.364 0.407977 0.618576 0
M  V30 1426 H 141.011 1.56551 1.10291 0
M  V30 1427 H 139.316 1.29941 3.69625 0
M  V30 1428 H 141.013 1.68642 3.63815 0
M  V30 1429 H 137.603 2.99915 3.06185 0
M  V30 1430 H 141.787 3.97563 2.97081 0
M  V30 1431 H 137.043 5.38667 2.89219 0
M  V30 1432 H 141.217 6.37078 2.81254 0
M  V30 1433 H 138.844 7.07999 2.76842 0
M  V30 1434 N 140.419 -1.14872 1.07899 0
M  V30 1435 C 141.382 -2.17986 0.708161 0
M  V30 1436 C 142.382 -1.58775 -0.25442 0
M  V30 1437 O 143.572 -1.74166 -0.034645 0
M  V30 1438 C 140.704 -3.40871 0.0446929 0
M  V30 1439 H 141.897 -2.52306 1.62116 0
M  V30 1440 H 139.45 -1.2943 0.876218 0
M  V30 1441 H 140.185 -3.12124 -0.880281 0
M  V30 1442 H 139.97 -3.8511 0.737091 0
M  V30 1443 H 141.46 -4.17121 -0.19991 0
M  V30 1444 N 141.898 -0.863906 -1.31812 0
M  V30 1445 C 143.144 -0.472535 -1.97218 0
M  V30 1446 C 143.477 0.971394 -1.68159 0
M  V30 1447 O 142.752 1.68309 -0.974798 0
M  V30 1448 C 143.035 -0.723054 -3.52766 0
M  V30 1449 C 142.888 -2.21608 -3.91421 0
M  V30 1450 C 144.207 -0.185522 -4.39709 0
M  V30 1451 H 141.326 -0.173158 -0.71637 0
M  V30 1452 H 143.968 -1.08403 -1.56041 0
M  V30 1453 H 142.118 -0.202577 -3.87971 0
M  V30 1454 H 143.79 -2.80334 -3.66347 0
M  V30 1455 H 142.033 -2.691 -3.40246 0
M  V30 1456 H 142.704 -2.34203 -4.99853 0
M  V30 1457 H 145.18 -0.630726 -4.11292 0
M  V30 1458 H 144.056 -0.390306 -5.47511 0
M  V30 1459 H 144.317 0.912229 -4.32586 0
M  V30 1460 N 143.376 1.44774 -0.622745 0
M  V30 1461 C 144.323 2.30635 0.0871679 0
M  V30 1462 C 145.293 1.42994 0.845097 0
M  V30 1463 O 146.478 1.71907 0.827812 0
M  V30 1464 C 143.618 3.28144 1.06844 0
M  V30 1465 C 142.731 4.30888 0.309809 0
M  V30 1466 C 141.866 5.15494 1.28215 0
M  V30 1467 C 140.905 6.09953 0.512198 0
M  V30 1468 N 140.042 6.87287 1.43458 0
M  V30 1469 H 144.882 2.90803 -0.650974 0
M  V30 1470 H 142.419 1.43286 -0.33281 0
M  V30 1471 H 144.377 3.83157 1.65066 0
M  V30 1472 H 143.007 2.69695 1.77382 0
M  V30 1473 H 142.059 3.78414 -0.388181 0
M  V30 1474 H 143.371 4.97955 -0.290254 0
M  V30 1475 H 142.525 5.74983 1.93596 0
M  V30 1476 H 141.264 4.48481 1.91614 0
M  V30 1477 H 140.269 5.49581 -0.155151 0
M  V30 1478 H 141.494 6.78999 -0.116958 0
M  V30 1479 H 139.44 6.2295 2.05594 0
M  V30 1480 H 139.357 7.50763 0.888335 0
M  V30 1481 H 140.625 7.51306 2.07749 0
M  V30 1482 N 144.854 0.36279 1.53368 0
M  V30 1483 C 146.082 -0.228613 2.05633 0
M  V30 1484 C 146.497 -1.42676 1.23649 0
M  V30 1485 O 145.854 -1.80394 0.27647 0
M  V30 1486 C 145.905 -0.624845 3.56059 0
M  V30 1487 O 145.626 0.525675 4.34935 0
M  V30 1488 C 147.127 -1.27493 4.24571 0
M  V30 1489 H 144.347 -0.0407183 0.669763 0
M  V30 1490 H 146.891 0.520352 1.97769 0
M  V30 1491 H 145.046 -1.32373 3.64083 0
M  V30 1492 H 145.46 0.205969 5.24095 0
M  V30 1493 H 146.934 -1.50277 5.31151 0
M  V30 1494 H 147.411 -2.23439 3.78116 0
M  V30 1495 H 148.017 -0.617558 4.20792 0
M  V30 1496 N 146.332 -1.57332 0.0918853 0
M  V30 1497 C 147.28 -2.15075 -0.885747 0
M  V30 1498 C 148.274 -1.09277 -1.29441 0
M  V30 1499 O 149.48 -1.27627 -1.26931 0
M  V30 1500 H 145.855 -0.687966 -0.303656 0
M  V30 1501 H 147.826 -2.96047 -0.373995 0
M  V30 1502 C 146.575 -2.74325 -2.13638 0
M  V30 1503 H 145.898 -3.55418 -1.8308 0
M  V30 1504 H 147.338 -3.183 -2.80109 0
M  V30 1505 C 145.797 -1.70062 -2.90827 0
M  V30 1506 O 146.327 -1.13763 -3.85254 0
M  V30 1507 N 144.533 -1.40628 -2.54307 0
M  V30 1508 H 144.08 -1.866 -1.7759 0
M  V30 1509 H 144.038 -0.711043 -3.06254 0
M  V30 1510 N 147.81 0.181792 -1.56548 0
M  V30 1511 C 149.056 0.901431 -1.81665 0
M  V30 1512 C 149.389 1.82347 -0.668075 0
M  V30 1513 O 148.664 1.91669 0.330615 0
M  V30 1514 C 148.947 1.70618 -3.17115 0
M  V30 1515 C 148.8 0.807964 -4.42484 0
M  V30 1516 C 150.119 2.67605 -3.49393 0
M  V30 1517 H 147.238 0.32627 -0.660846 0
M  V30 1518 H 149.88 0.168134 -1.89255 0
M  V30 1519 H 148.03 2.33133 -3.10775 0
M  V30 1520 H 149.702 0.19649 -4.60881 0
M  V30 1521 H 147.945 0.115411 -4.33646 0
M  V30 1522 H 148.616 1.40632 -5.33785 0
M  V30 1523 H 151.092 2.15218 -3.56118 0
M  V30 1524 H 149.968 3.20985 -4.45264 0
M  V30 1525 H 150.229 3.47298 -2.73563 0
M  V30 1526 N 149.288 1.51039 0.449983 0
M  V30 1527 C 150.513 1.6715 1.22783 0
M  V30 1528 C 150.938 0.363081 1.84563 0
M  V30 1529 O 150.296 -0.675433 1.68249 0
M  V30 1530 C 150.344 2.77985 2.29689 0
M  V30 1531 O 149.448 2.40707 3.34864 0
M  V30 1532 H 148.789 0.557746 0.360299 0
M  V30 1533 H 151.319 1.97535 0.533005 0
M  V30 1534 H 151.329 3.01693 2.74673 0
M  V30 1535 H 150.004 3.72935 1.84098 0
M  V30 1536 H 148.581 2.27523 2.95445 0
M  V30 1537 N 150.766 -0.704594 1.40972 0
M  V30 1538 C 151.996 -1.49138 1.42974 0
M  V30 1539 C 152.404 -1.89175 0.0308406 0
M  V30 1540 O 151.747 -1.56734 -0.958138 0
M  V30 1541 C 151.809 -2.79016 2.26694 0
M  V30 1542 C 151.473 -2.61236 3.74973 0
M  V30 1543 C 152.47 -2.27773 4.67349 0
M  V30 1544 C 150.155 -2.77158 4.18914 0
M  V30 1545 C 152.149 -2.10457 6.01653 0
M  V30 1546 C 149.836 -2.59459 5.53285 0
M  V30 1547 C 150.834 -2.26158 6.4447 0
M  V30 1548 O 150.522 -2.08605 7.76363 0
M  V30 1549 H 150.254 -0.466443 0.489292 0
M  V30 1550 H 152.808 -0.8758 1.85793 0
M  V30 1551 H 151.038 -3.42947 1.78673 0
M  V30 1552 H 152.727 -3.40782 2.20504 0
M  V30 1553 H 153.493 -2.15095 4.34694 0
M  V30 1554 H 149.372 -3.02064 3.48251 0
M  V30 1555 H 152.916 -1.84387 6.72791 0
M  V30 1556 H 148.813 -2.71725 5.85522 0
M  V30 1557 H 149.581 -2.23439 7.87412 0
M  V30 1558 N 152.244 -1.26651 -0.937939 0
M  V30 1559 C 153.484 -1.13611 -1.69917 0
M  V30 1560 C 153.848 0.314687 -1.89404 0
M  V30 1561 O 155.049 0.567285 -2.62746 0
M  V30 1562 C 153.32 -1.88742 -3.03498 0
M  V30 1563 S 154.879 -1.91794 -3.94665 0
M  V30 1564 H 151.697 -0.405767 -0.583844 0
M  V30 1565 H 154.299 -1.60416 -1.11745 0
M  V30 1566 H 153.003 -2.9336 -2.86999 0
M  V30 1567 H 152.534 -1.42391 -3.66727 0
M  V30 1568 H 154.549 -1.00698 -4.85875 0
M  V30 1569 N 153.722 1.14298 -1.08507 0
M  V30 1570 C 154.97 1.84993 -0.813763 0
M  V30 1571 C 155.291 1.83405 0.662393 0
M  V30 1572 O 154.561 1.28319 1.48024 0
M  V30 1573 H 153.141 0.684966 -0.298045 0
M  V30 1574 H 155.803 1.385 -1.37126 0
M  V30 1575 H 154.899 2.89788 -1.15884 0
M  V30 1576 N 155.201 0.870884 1.31352 0
M  V30 1577 C 156.164 0.332243 2.26779 0
M  V30 1578 C 157.164 -0.517302 1.52252 0
M  V30 1579 O 158.354 -0.326477 1.71113 0
M  V30 1580 C 155.486 -0.528066 3.36785 0
M  V30 1581 H 156.679 1.17469 2.75937 0
M  V30 1582 H 154.232 0.64655 1.423 0
M  V30 1583 H 154.967 -1.39167 2.92922 0
M  V30 1584 H 154.752 0.0802582 3.92018 0
M  V30 1585 H 156.242 -0.897179 4.07849 0
M  V30 1586 N 156.679 -1.44442 0.630414 0
M  V30 1587 C 157.609 -2.33418 -0.0618083 0
M  V30 1588 C 158.59 -1.48165 -0.835541 0
M  V30 1589 O 159.775 -1.76886 -0.801564 0
M  V30 1590 C 156.905 -3.31222 -1.04449 0
M  V30 1591 C 155.859 -4.26288 -0.382436 0
M  V30 1592 C 155.185 -5.13954 -1.47497 0
M  V30 1593 C 156.485 -5.1744 0.710865 0
M  V30 1594 H 158.179 -2.91548 0.681184 0
M  V30 1595 H 155.725 -1.40191 0.329026 0
M  V30 1596 H 157.678 -3.92351 -1.53748 0
M  V30 1597 H 156.402 -2.71299 -1.81836 0
M  V30 1598 H 155.061 -3.6649 0.0899054 0
M  V30 1599 H 154.709 -4.50385 -2.2397 0
M  V30 1600 H 154.409 -5.7837 -1.03737 0
M  V30 1601 H 155.933 -5.77955 -1.96979 0
M  V30 1602 H 157.347 -5.72509 0.300996 0
M  V30 1603 H 155.744 -5.90455 1.07156 0
M  V30 1604 H 156.814 -4.58496 1.57829 0
M  V30 1605 N 158.157 -0.370918 -1.53173 0
M  V30 1606 C 159.434 0.273754 -1.93675 0
M  V30 1607 C 159.814 1.65938 -1.3049 0
M  V30 1608 O 159.162 2.23698 -0.465999 0
M  V30 1609 C 159.372 0.318602 -3.47543 0
M  V30 1610 C 160.72 0.556392 -4.20939 0
M  V30 1611 O 161.744 0.399587 -3.53952 0
M  V30 1612 O 160.603 0.862133 -5.39657 0
M  V30 1613 H 157.697 0.165448 -0.810281 0
M  V30 1614 H 160.243 -0.42409 -1.64315 0
M  V30 1615 H 159.015 -0.652687 -3.85818 0
M  V30 1616 H 158.638 1.06212 -3.83151 0
M  V30 1617 N 159.635 1.57281 -0.100228 0
M  V30 1618 C 160.545 2.17833 0.870965 0
M  V30 1619 C 161.561 1.14921 1.30649 0
M  V30 1620 O 162.737 1.47313 1.37335 0
M  V30 1621 C 159.802 2.75085 2.1102 0
M  V30 1622 C 158.863 3.9297 1.72838 0
M  V30 1623 C 158.096 4.47482 2.90854 0
M  V30 1624 O 158.319 4.00922 4.05731 0
M  V30 1625 O 157.253 5.38433 2.69023 0
M  V30 1626 H 161.079 3.0124 0.38575 0
M  V30 1627 H 158.664 1.48881 0.124397 0
M  V30 1628 H 160.546 3.11656 2.83634 0
M  V30 1629 H 159.221 1.94721 2.58584 0
M  V30 1630 H 158.128 3.61201 0.973883 0
M  V30 1631 H 159.461 4.74713 1.30033 0
M  V30 1632 N 161.113 -0.173488 1.56642 0
M  V30 1633 C 162.39 -0.917617 1.7274 0
M  V30 1634 C 162.77 -2.00484 0.661027 0
M  V30 1635 O 162.118 -2.26184 -0.32453 0
M  V30 1636 C 162.328 -1.48433 3.15862 0
M  V30 1637 C 163.676 -1.95809 3.76754 0
M  V30 1638 O 164.7 -1.58231 3.19126 0
M  V30 1639 O 163.559 -2.65024 4.77938 0
M  V30 1640 H 160.653 -0.431772 0.705338 0
M  V30 1641 H 163.199 -0.161487 1.6893 0
M  V30 1642 H 161.971 -0.701715 3.84957 0
M  V30 1643 H 161.594 -2.30471 3.23989 0
M  V30 1644 N 162.591 -1.51276 -0.441967 0
M  V30 1645 C 163.837 -1.63958 -1.19355 0
M  V30 1646 C 164.17 -0.352543 -1.90973 0
M  V30 1647 O 163.445 0.647627 -1.83401 0
M  V30 1648 C 163.728 -2.83979 -2.21422 0
M  V30 1649 C 163.581 -4.22646 -1.53918 0
M  V30 1650 C 164.9 -2.99521 -3.22451 0
M  V30 1651 H 162.019 -0.596709 -0.432559 0
M  V30 1652 H 164.661 -1.83748 -0.483398 0
M  V30 1653 H 162.811 -2.67237 -2.81987 0
M  V30 1654 H 164.483 -4.51045 -0.967256 0
M  V30 1655 H 162.726 -4.25558 -0.841615 0
M  V30 1656 H 163.397 -5.02609 -2.28229 0
M  V30 1657 H 165.873 -3.14944 -2.71937 0
M  V30 1658 H 164.749 -3.85072 -3.91166 0
M  V30 1659 H 165.01 -2.11391 -3.88287 0
M  V30 1660 N 164.069 0.697108 -1.41344 0
M  V30 1661 C 165.48 1.27697 -1.36199 0
M  V30 1662 C 165.831 1.9615 -0.0443463 0
M  V30 1663 O 164.956 1.98689 0.857419 0
M  V30 1664 C 165.551 2.32223 -2.46694 0
M  V30 1665 C 164.11 2.8579 -2.44952 0
M  V30 1666 C 163.257 1.59807 -2.26621 0
M  V30 1667 H 166.208 0.491968 -1.50882 0
M  V30 1668 H 166.229 3.1348 -2.15664 0
M  V30 1669 H 165.741 1.82373 -3.42581 0
M  V30 1670 H 163.842 3.3982 -1.52817 0
M  V30 1671 H 163.955 3.36325 -3.41207 0
M  V30 1672 H 162.319 1.8556 -1.7447 0
M  V30 1673 H 163.102 1.11956 -3.24532 0
M  V30 1674 N 165.547 1.27147 0.931209 0
M  V30 1675 C 166.793 1.13446 1.68101 0
M  V30 1676 C 167.126 -0.319628 1.91552 0
M  V30 1677 O 166.401 -1.23407 1.50336 0
M  V30 1678 C 166.684 1.91482 3.0497 0
M  V30 1679 C 166.537 3.44855 2.88782 0
M  V30 1680 C 167.856 1.71651 4.05246 0
M  V30 1681 H 164.975 0.413498 0.610072 0
M  V30 1682 H 167.617 1.56261 1.08086 0
M  V30 1683 H 165.767 1.55095 3.56199 0
M  V30 1684 H 167.439 3.9105 2.44698 0
M  V30 1685 H 165.682 3.71373 2.24198 0
M  V30 1686 H 166.353 3.94694 3.85902 0
M  V30 1687 H 168.829 2.0337 3.63015 0
M  V30 1688 H 167.705 2.28651 4.99009 0
M  V30 1689 H 167.966 0.663555 4.37092 0
M  V30 1690 N 167.025 -1.13721 1.09112 0
M  V30 1691 C 168.436 -1.6648 0.845068 0
M  V30 1692 C 168.787 -1.85911 -0.62701 0
M  V30 1693 O 167.912 -1.57556 -1.48341 0
M  V30 1694 C 168.507 -3.02413 1.52748 0
M  V30 1695 C 167.066 -3.52176 1.32849 0
M  V30 1696 C 166.213 -2.27492 1.58564 0
M  V30 1697 H 169.164 -0.976872 1.25072 0
M  V30 1698 H 169.185 -3.68223 0.958752 0
M  V30 1699 H 168.697 -2.88238 2.59885 0
M  V30 1700 H 166.798 -3.7156 0.278137 0
M  V30 1701 H 166.911 -4.32499 2.0611 0
M  V30 1702 H 165.275 -2.33923 1.00758 0
M  V30 1703 H 166.058 -2.15886 2.66924 0
M  V30 1704 N 168.503 -0.877838 -1.30888 0
M  V30 1705 C 169.728 -0.506629 -2.01117 0
M  V30 1706 C 170.153 0.895564 -1.65412 0
M  V30 1707 O 169.511 1.5923 -0.866922 0
M  V30 1708 C 169.559 -0.680223 -3.54126 0
M  V30 1709 O 168.663 0.277033 -4.11468 0
M  V30 1710 H 168.004 -0.200518 -0.633 0
M  V30 1711 H 170.534 -1.18342 -1.66902 0
M  V30 1712 H 170.544 -0.5765 -4.03907 0
M  V30 1713 H 169.219 -1.70261 -3.79452 0
M  V30 1714 H 167.796 0.127606 -3.72682 0
M  V30 1715 N 169.982 1.44106 -0.638065 0
M  V30 1716 C 171.21 2.06336 -0.152615 0
M  V30 1717 C 171.625 1.47731 1.17563 0
M  V30 1718 O 170.982 0.602806 1.72257 0
M  V30 1719 C 171.033 3.61479 -0.0391491 0
M  V30 1720 O 170.754 4.17903 -1.31487 0
M  V30 1721 C 172.255 4.40757 0.474176 0
M  V30 1722 H 169.475 0.665862 -0.0828776 0
M  V30 1723 H 172.019 1.84862 -0.87443 0
M  V30 1724 H 170.174 3.82191 0.633142 0
M  V30 1725 H 170.588 5.11416 -1.16421 0
M  V30 1726 H 172.062 5.49707 0.502562 0
M  V30 1727 H 172.539 4.12697 1.50258 0
M  V30 1728 H 173.145 4.24979 -0.165102 0
M  V30 1729 N 171.46 0.379036 1.52974 0
M  V30 1730 C 172.423 -0.448865 2.24762 0
M  V30 1731 C 173.423 -0.998689 1.26027 0
M  V30 1732 O 174.613 -0.882313 1.50203 0
M  V30 1733 C 171.745 -1.62872 2.99476 0
M  V30 1734 H 172.938 0.179491 2.99362 0
M  V30 1735 H 170.491 0.13096 1.5575 0
M  V30 1736 H 171.226 -2.29479 2.29151 0
M  V30 1737 H 171.011 -1.24128 3.71934 0
M  V30 1738 H 172.501 -2.2151 3.5401 0
M  V30 1739 N 172.938 -1.57226 0.108567 0
M  V30 1740 C 174.187 -1.94008 -0.551703 0
M  V30 1741 C 174.5 -0.993442 -1.68494 0
M  V30 1742 O 175.706 -1.25551 -2.40726 0
M  V30 1743 C 174.162 -3.44763 -1.03279 0
M  V30 1744 C 173.77 -4.47943 0.0714193 0
M  V30 1745 C 175.514 -3.90483 -1.66503 0
M  V30 1746 C 173.421 -5.89865 -0.425779 0
M  V30 1747 H 172.351 -0.724206 -0.209863 0
M  V30 1748 H 175.002 -1.82547 0.186741 0
M  V30 1749 H 173.384 -3.51422 -1.82533 0
M  V30 1750 H 174.558 -4.52942 0.847365 0
M  V30 1751 H 172.873 -4.11913 0.609669 0
M  V30 1752 H 175.47 -4.93925 -2.04798 0
M  V30 1753 H 175.813 -3.29877 -2.53942 0
M  V30 1754 H 176.346 -3.86581 -0.938074 0
M  V30 1755 H 173.085 -6.54202 0.412316 0
M  V30 1756 H 172.605 -5.88309 -1.16843 0
M  V30 1757 H 174.284 -6.40844 -0.890397 0
M  V30 1758 N 174.416 0.165178 -1.56732 0
M  V30 1759 C 175.641 0.900253 -1.86843 0
M  V30 1760 C 176.066 1.74766 -0.695596 0
M  V30 1761 O 175.424 1.77786 0.35522 0
M  V30 1762 C 175.472 1.74777 -3.15413 0
M  V30 1763 O 174.576 2.85007 -2.98068 0
M  V30 1764 H 173.917 0.251832 -0.614391 0
M  V30 1765 H 176.447 0.161468 -2.03962 0
M  V30 1766 H 176.457 2.14646 -3.46974 0
M  V30 1767 H 175.132 1.12537 -4.00385 0
M  V30 1768 H 173.709 2.48676 -2.77875 0
M  V30 1769 N 175.894 1.51508 0.433938 0
M  V30 1770 C 177.141 1.64345 1.18309 0
M  V30 1771 C 177.469 0.361315 1.91115 0
M  V30 1772 O 176.724 -0.654753 1.84422 0
M  V30 1773 C 177.023 2.79928 2.22205 0
M  V30 1774 C 176.689 4.19078 1.66387 0
M  V30 1775 C 175.351 4.56932 1.50887 0
M  V30 1776 C 177.703 5.05894 1.25381 0
M  V30 1777 C 175.031 5.79305 0.928608 0
M  V30 1778 C 177.383 6.2885 0.687823 0
M  V30 1779 C 176.047 6.65473 0.519755 0
M  V30 1780 H 175.317 0.601381 0.432923 0
M  V30 1781 H 177.964 1.85549 0.473676 0
M  V30 1782 H 176.269 2.52959 2.99197 0
M  V30 1783 H 177.966 2.87059 2.79997 0
M  V30 1784 H 174.556 3.89234 1.79428 0
M  V30 1785 H 178.74 4.77253 1.36175 0
M  V30 1786 H 173.996 6.06324 0.786186 0
M  V30 1787 H 178.17 6.95461 0.361581 0
M  V30 1788 H 175.797 7.6017 0.0679979 0
M  V30 1789 N 177.372 -0.689602 1.41712 0
M  V30 1790 C 178.649 -1.44457 1.31877 0
M  V30 1791 C 179.029 -2.11039 -0.0508537 0
M  V30 1792 O 178.377 -2.02138 -1.06547 0
M  V30 1793 C 178.587 -2.45913 2.47645 0
M  V30 1794 C 179.935 -3.10991 2.89084 0
M  V30 1795 O 180.959 -2.56238 2.47428 0
M  V30 1796 O 179.818 -4.10174 3.61137 0
M  V30 1797 H 176.912 -0.64362 0.519309 0
M  V30 1798 H 179.458 -0.719576 1.53689 0
M  V30 1799 H 178.23 -1.95409 3.39015 0
M  V30 1800 H 177.853 -3.25913 2.27742 0
M  V30 1801 N 178.85 -1.27639 -0.924453 0
M  V30 1802 C 179.813 -1.10681 -2.00705 0
M  V30 1803 C 180.813 -0.0497823 -1.60723 0
M  V30 1804 O 182.003 -0.294654 -1.7169 0
M  V30 1805 C 179.135 -0.687164 -3.33902 0
M  V30 1806 H 180.328 -2.06817 -2.17179 0
M  V30 1807 H 177.881 -1.10473 -1.10569 0
M  V30 1808 H 178.616 0.275439 -3.23128 0
M  V30 1809 H 178.401 -1.45061 -3.6428 0
M  V30 1810 H 179.891 -0.590853 -4.13399 0
M  V30 1811 N 180.328 1.1314 -1.09713 0
M  V30 1812 C 181.275 2.18642 -0.739196 0
M  V30 1813 C 182.245 1.63706 0.280978 0
M  V30 1814 O 183.43 1.90111 0.161946 0
M  V30 1815 C 180.57 3.44685 -0.169102 0
M  V30 1816 C 179.683 4.13711 -1.24367 0
M  V30 1817 C 178.818 5.27379 -0.636019 0
M  V30 1818 C 177.857 5.88259 -1.69169 0
M  V30 1819 N 176.994 6.93352 -1.10485 0
M  V30 1820 H 181.834 2.48607 -1.64312 0
M  V30 1821 H 179.371 1.22066 -0.820875 0
M  V30 1822 H 181.329 4.16815 0.179256 0
M  V30 1823 H 179.959 3.15161 0.698079 0
M  V30 1824 H 179.011 3.39835 -1.70927 0
M  V30 1825 H 180.323 4.55037 -2.04311 0
M  V30 1826 H 179.477 6.06238 -0.236677 0
M  V30 1827 H 178.216 4.8731 0.194928 0
M  V30 1828 H 177.221 5.08092 -2.10055 0
M  V30 1829 H 178.446 6.30399 -2.52536 0
M  V30 1830 H 176.392 6.55335 -0.295234 0
M  V30 1831 H 176.309 7.33236 -1.84121 0
M  V30 1832 H 177.577 7.76057 -0.73181 0
M  V30 1833 N 181.806 0.884767 1.30421 0
M  V30 1834 C 183.083 0.423185 1.90967 0
M  V30 1835 C 183.463 -1.09605 1.80416 0
M  V30 1836 O 182.811 -1.93126 1.22125 0
M  V30 1837 C 183.021 0.921056 3.36627 0
M  V30 1838 C 184.369 0.955903 4.137 0
M  V30 1839 O 185.393 0.867706 3.4547 0
M  V30 1840 O 184.252 1.08614 5.35598 0
M  V30 1841 H 181.346 0.129369 0.816819 0
M  V30 1842 H 183.892 0.973653 1.3899 0
M  V30 1843 H 182.664 1.96489 3.3839 0
M  V30 1844 H 182.287 0.349741 3.96059 0
M  V30 1845 N 183.284 -1.43765 0.645699 0
M  V30 1846 C 184.531 -2.01898 0.15604 0
M  V30 1847 C 184.859 -1.50887 -1.22733 0
M  V30 1848 O 184.114 -0.689271 -1.8316 0
M  V30 1849 C 184.413 -3.57238 0.107679 0
M  V30 1850 C 184.079 -4.27564 1.43178 0
M  V30 1851 C 182.741 -4.46492 1.7944 0
M  V30 1852 C 185.093 -4.67454 2.30513 0
M  V30 1853 C 182.421 -5.02573 3.02716 0
M  V30 1854 C 184.773 -5.24901 3.53074 0
M  V30 1855 C 183.437 -5.42046 3.89541 0
M  V30 1856 H 182.707 -0.738797 0.057099 0
M  V30 1857 H 185.354 -1.72341 0.834912 0
M  V30 1858 H 183.659 -3.86293 -0.654618 0
M  V30 1859 H 185.356 -3.99965 -0.287938 0
M  V30 1860 H 181.946 -4.13171 1.13963 0
M  V30 1861 H 186.13 -4.5253 2.0379 0
M  V30 1862 H 181.386 -5.14033 3.31028 0
M  V30 1863 H 185.56 -5.54758 4.20971 0
M  V30 1864 H 183.187 -5.85268 4.85145 0
M  V30 1865 N 184.763 -0.387143 -1.52771 0
M  V30 1866 C 185.693 0.440551 -2.29306 0
M  V30 1867 C 186.674 1.06535 -1.32606 0
M  V30 1868 O 187.859 1.07853 -1.61497 0
M  V30 1869 C 184.989 1.56919 -3.09829 0
M  V30 1870 C 183.943 1.07054 -4.14395 0
M  V30 1871 C 183.269 2.29109 -4.83129 0
M  V30 1872 C 184.569 0.140015 -5.22112 0
M  V30 1873 H 186.263 -0.198026 -2.98744 0
M  V30 1874 H 183.809 -0.09668 -1.43675 0
M  V30 1875 H 185.762 2.15503 -3.62128 0
M  V30 1876 H 184.486 2.23532 -2.3812 0
M  V30 1877 H 183.145 0.507247 -3.63074 0
M  V30 1878 H 182.793 2.94227 -4.0797 0
M  V30 1879 H 182.493 1.96406 -5.53804 0
M  V30 1880 H 184.017 2.88339 -5.38231 0
M  V30 1881 H 185.431 0.633978 -5.69784 0
M  V30 1882 H 183.828 -0.0971485 -6.00021 0
M  V30 1883 H 184.898 -0.811711 -4.78058 0
M  V30 1884 N 186.241 1.57166 -0.116904 0
M  V30 1885 C 187.191 2.11756 0.845178 0
M  V30 1886 C 188.175 1.03783 1.22955 0
M  V30 1887 O 189.367 1.3002 1.20099 0
M  V30 1888 C 186.496 2.71886 2.09602 0
M  V30 1889 C 185.582 3.86937 1.7361 0
M  V30 1890 N 185.973 4.94073 1.08284 0
M  V30 1891 C 184.271 3.97082 2.03082 0
M  V30 1892 C 184.972 5.74477 0.913855 0
M  V30 1893 N 183.948 5.2423 1.43818 0
M  V30 1894 H 187.75 2.91967 0.336523 0
M  V30 1895 H 185.264 1.62174 0.0856332 0
M  V30 1896 H 187.261 3.09338 2.79492 0
M  V30 1897 H 185.921 1.93138 2.61013 0
M  V30 1898 H 186.932 5.12483 0.747067 0
M  V30 1899 H 183.609 3.29372 2.56554 0
M  V30 1900 H 184.999 6.70701 0.40125 0
M  V30 1901 N 187.719 -0.156864 1.56817 0
M  V30 1902 C 188.968 -0.869504 1.81996 0
M  V30 1903 C 189.281 -1.82777 0.696545 0
M  V30 1904 O 190.487 -2.58384 0.833658 0
M  V30 1905 C 188.943 -1.59679 3.22538 0
M  V30 1906 C 188.551 -0.681431 4.42787 0
M  V30 1907 C 190.295 -2.2968 3.56997 0
M  V30 1908 C 188.202 -1.40978 5.74351 0
M  V30 1909 H 187.132 -0.328438 0.678708 0
M  V30 1910 H 189.783 -0.1223 1.83092 0
M  V30 1911 H 188.165 -2.38927 3.158 0
M  V30 1912 H 189.339 0.0751166 4.60739 0
M  V30 1913 H 187.654 -0.0903431 4.16302 0
M  V30 1914 H 190.251 -2.84794 4.52544 0
M  V30 1915 H 190.594 -3.05707 2.82576 0
M  V30 1916 H 191.127 -1.57361 3.65352 0
M  V30 1917 H 187.866 -0.691561 6.51842 0
M  V30 1918 H 187.386 -2.13929 5.60352 0
M  V30 1919 H 189.065 -1.95337 6.16808 0
M  V30 1920 N 189.197 -1.51736 -0.425897 0
M  V30 1921 C 190.144 -1.73875 -1.51776 0
M  V30 1922 C 191.114 -0.580702 -1.55618 0
M  V30 1923 O 192.299 -0.81641 -1.72451 0
M  V30 1924 C 189.439 -1.88012 -2.89388 0
M  V30 1925 C 188.552 -3.15606 -2.94986 0
M  V30 1926 C 187.687 -3.20271 -4.23793 0
M  V30 1927 C 186.726 -4.42134 -4.23302 0
M  V30 1928 N 185.863 -4.44284 -5.43651 0
M  V30 1929 H 190.703 -2.67071 -1.32201 0
M  V30 1930 H 188.24 -1.32351 -0.642008 0
M  V30 1931 H 190.198 -1.9419 -3.69251 0
M  V30 1932 H 188.828 -0.98213 -3.07496 0
M  V30 1933 H 187.88 -3.18681 -2.07717 0
M  V30 1934 H 189.192 -4.05486 -2.90486 0
M  V30 1935 H 188.346 -3.25428 -5.12036 0
M  V30 1936 H 187.085 -2.28299 -4.30965 0
M  V30 1937 H 186.09 -4.3714 -3.3345 0
M  V30 1938 H 187.315 -5.35382 -4.17783 0
M  V30 1939 H 185.261 -3.55188 -5.51523 0
M  V30 1940 H 185.178 -5.27988 -5.41078 0
M  V30 1941 H 186.446 -4.53649 -6.33895 0
M  V30 1942 N 190.675 0.682077 -1.42076 0
M  V30 1943 C 191.585 1.82535 -1.47371 0
M  V30 1944 C 192.601 1.7017 -0.363079 0
M  V30 1945 O 193.777 1.91848 -0.612875 0
M  V30 1946 C 190.842 3.18624 -1.36674 0
M  V30 1947 C 189.903 3.42999 -2.58167 0
M  V30 1948 C 189.136 4.72595 -2.4797 0
M  V30 1949 O 189.359 5.50006 -1.5116 0
M  V30 1950 O 188.293 4.98054 -3.37974 0
M  V30 1951 H 192.119 1.81023 -2.43853 0
M  V30 1952 H 189.704 0.836887 -1.2376 0
M  V30 1953 H 191.586 3.99847 -1.33043 0
M  V30 1954 H 190.261 3.20789 -0.433138 0
M  V30 1955 H 189.168 2.61653 -2.67373 0
M  V30 1956 H 190.501 3.45659 -3.50401 0
M  V30 1957 N 192.153 1.28127 0.917671 0
M  V30 1958 C 193.1 1.11717 2.0196 0
M  V30 1959 C 194.07 0.0153929 1.66093 0
M  V30 1960 O 195.255 0.179596 1.89953 0
M  V30 1961 C 192.395 0.780927 3.36148 0
M  V30 1962 C 191.508 1.96135 3.84909 0
M  V30 1963 C 190.643 1.56609 5.0759 0
M  V30 1964 C 189.682 2.71339 5.48673 0
M  V30 1965 N 188.819 2.32332 6.62545 0
M  V30 1966 H 193.659 2.06003 2.15329 0
M  V30 1967 H 191.196 1.02535 1.05475 0
M  V30 1968 H 193.154 0.56675 4.13333 0
M  V30 1969 H 191.784 -0.124998 3.22558 0
M  V30 1970 H 190.836 2.28777 3.03916 0
M  V30 1971 H 192.148 2.82165 4.1132 0
M  V30 1972 H 191.302 1.31374 5.92305 0
M  V30 1973 H 190.041 0.677014 4.82978 0
M  V30 1974 H 189.046 2.97276 4.62501 0
M  V30 1975 H 190.271 3.60882 5.75274 0
M  V30 1976 H 188.217 1.45889 6.39572 0
M  V30 1977 H 188.134 3.11899 6.88662 0
M  V30 1978 H 189.402 2.10371 7.50576 0
M  V30 1979 N 193.631 -1.12557 1.10312 0
M  V30 1980 C 194.861 -1.87592 0.865617 0
M  V30 1981 C 195.269 -1.79851 -0.587389 0
M  V30 1982 O 194.612 -1.16949 -1.41664 0
M  V30 1983 C 194.674 -3.37665 1.23381 0
M  V30 1984 C 194.338 -3.69181 2.69359 0
M  V30 1985 C 195.335 -3.67652 3.67597 0
M  V30 1986 C 193.02 -3.98555 3.05711 0
M  V30 1987 C 195.014 -3.95053 5.00212 0
M  V30 1988 C 192.701 -4.25616 4.38514 0
M  V30 1989 C 193.699 -4.23851 5.35574 0
M  V30 1990 O 193.387 -4.50242 6.65986 0
M  V30 1991 H 193.119 -0.600442 0.310557 0
M  V30 1992 H 195.673 -1.4335 1.47105 0
M  V30 1993 H 193.903 -3.82454 0.571467 0
M  V30 1994 H 195.592 -3.94041 0.973994 0
M  V30 1995 H 196.358 -3.45024 3.40857 0
M  V30 1996 H 192.237 -3.99071 2.30789 0
M  V30 1997 H 195.781 -3.93591 5.75962 0
M  V30 1998 H 191.678 -4.47718 4.64994 0
M  V30 1999 H 192.446 -4.67867 6.71597 0
M  V30 2000 N 195.109 -0.891671 -1.2995 0
M  V30 2001 C 196.057 -0.353066 -2.29905 0
M  V30 2002 C 197.051 0.543509 -1.60444 0
M  V30 2003 O 198.257 0.4272 -1.74857 0
M  V30 2004 H 194.632 -0.095531 -0.745907 0
M  V30 2005 H 196.603 -1.20961 -2.72784 0
M  V30 2006 C 195.352 0.411475 -3.45257 0
M  V30 2007 H 194.675 -0.269182 -3.98893 0
M  V30 2008 H 196.115 0.753328 -4.17254 0
M  V30 2009 C 194.574 1.6111 -2.9588 0
M  V30 2010 O 195.104 2.71045 -2.96475 0
M  V30 2011 N 193.31 1.45054 -2.51809 0
M  V30 2012 H 192.857 0.556175 -2.51524 0
M  V30 2013 H 192.815 2.25453 -2.1913 0
M  V30 2014 N 196.587 1.43421 -0.653314 0
M  V30 2015 C 197.535 2.32546 0.0501531 0
M  V30 2016 C 198.529 1.48617 0.812985 0
M  V30 2017 O 199.735 1.64825 0.723375 0
M  V30 2018 H 196.11 0.751185 0.0350032 0
M  V30 2019 H 198.081 2.89602 -0.719261 0
M  V30 2020 C 196.83 3.32925 1.00279 0
M  V30 2021 H 196.153 3.97532 0.425236 0
M  V30 2022 H 197.593 3.9792 1.46409 0
M  V30 2023 C 196.052 2.63532 2.09886 0
M  V30 2024 O 196.582 2.45092 3.18265 0
M  V30 2025 N 194.788 2.22905 1.86445 0
M  V30 2026 H 194.335 2.38103 0.98309 0
M  V30 2027 H 194.293 1.76805 2.59976 0
M  V30 2028 N 198.065 0.39524 1.52563 0
M  V30 2029 C 199.342 -0.242908 1.94086 0
M  V30 2030 C 199.722 -1.63841 1.33114 0
M  V30 2031 O 199.07 -2.22928 0.501529 0
M  V30 2032 C 199.28 -0.26327 3.48006 0
M  V30 2033 C 200.628 -0.489354 4.21771 0
M  V30 2034 O 201.652 -0.343226 3.54543 0
M  V30 2035 O 200.511 -0.776169 5.4096 0
M  V30 2036 H 197.605 -0.152536 0.812811 0
M  V30 2037 H 200.151 0.450178 1.6362 0
M  V30 2038 H 198.923 0.713985 3.84731 0
M  V30 2039 H 198.546 -1.00103 3.84792 0
M  V30 2040 N 199.544 -1.57102 0.125237 0
M  V30 2041 C 200.79 -1.96488 -0.525753 0
M  V30 2042 C 201.145 -1.00786 -1.6389 0
M  V30 2043 O 200.438 -0.038979 -1.9156 0
M  V30 2044 C 200.632 -3.40096 -1.09862 0
M  V30 2045 C 200.461 -4.4968 -0.0425004 0
M  V30 2046 C 199.231 -5.03781 0.391463 0
M  V30 2047 C 201.429 -5.08936 0.740829 0
M  V30 2048 N 199.411 -5.96948 1.4327 0
M  V30 2049 C 200.782 -5.98105 1.6331 0
M  V30 2050 C 202.837 -4.91576 0.791029 0
M  V30 2051 C 201.54 -6.71774 2.57122 0
M  V30 2052 C 203.566 -5.6593 1.71688 0
M  V30 2053 C 202.928 -6.5479 2.59672 0
M  V30 2054 H 199.027 -0.765072 -0.161831 0
M  V30 2055 H 201.611 -1.93511 0.214801 0
M  V30 2056 H 199.782 -3.43707 -1.80887 0
M  V30 2057 H 201.514 -3.66591 -1.71444 0
M  V30 2058 H 198.269 -4.736 -0.00213584 0
M  V30 2059 H 198.693 -6.48236 1.95243 0
M  V30 2060 H 203.335 -4.22615 0.124915 0
M  V30 2061 H 201.053 -7.39977 3.24744 0
M  V30 2062 H 204.639 -5.54501 1.76125 0
M  V30 2063 H 203.519 -7.11316 3.30149 0
M  V30 2064 N 201.022 0.148545 -1.56898 0
M  V30 2065 C 202.268 0.857877 -1.84424 0
M  V30 2066 C 202.623 1.7886 -0.709006 0
M  V30 2067 O 201.916 1.89344 0.293139 0
M  V30 2068 C 202.11 1.67064 -3.1595 0
M  V30 2069 C 201.939 0.82011 -4.42159 0
M  V30 2070 C 200.709 0.486328 -5.02954 0
M  V30 2071 C 202.907 0.151155 -5.14078 0
M  V30 2072 N 200.889 -0.377956 -6.12735 0
M  V30 2073 C 202.26 -0.573333 -6.17343 0
M  V30 2074 C 204.315 0.0716685 -4.97848 0
M  V30 2075 C 203.018 -1.3698 -7.06137 0
M  V30 2076 C 205.044 -0.711532 -5.87104 0
M  V30 2077 C 204.406 -1.42431 -6.8985 0
M  V30 2078 H 200.505 0.291798 -0.725519 0
M  V30 2079 H 203.089 0.123347 -1.94309 0
M  V30 2080 H 201.26 2.37642 -3.07215 0
M  V30 2081 H 202.992 2.32302 -3.31388 0
M  V30 2082 H 199.747 0.821753 -4.66416 0
M  V30 2083 H 200.171 -0.801077 -6.72244 0
M  V30 2084 H 204.813 0.608381 -4.184 0
M  V30 2085 H 202.531 -1.91778 -7.85014 0
M  V30 2086 H 206.117 -0.775005 -5.76615 0
M  V30 2087 H 204.997 -2.02061 -7.57721 0
M  V30 2088 N 202.5 1.5196 0.417844 0
M  V30 2089 C 203.749 1.6482 1.16264 0
M  V30 2090 C 204.062 0.379886 1.91876 0
M  V30 2091 O 205.268 0.388154 2.68711 0
M  V30 2092 C 203.724 2.91161 2.1155 0
M  V30 2093 C 203.332 4.25068 1.41495 0
M  V30 2094 C 205.076 3.13383 2.86341 0
M  V30 2095 C 202.983 5.42541 2.35379 0
M  V30 2096 H 201.913 0.613954 0.437694 0
M  V30 2097 H 204.564 1.78442 0.427871 0
M  V30 2098 H 202.946 2.71218 2.88543 0
M  V30 2099 H 204.12 4.55463 0.699263 0
M  V30 2100 H 202.435 4.0888 0.787792 0
M  V30 2101 H 205.032 3.98324 3.5671 0
M  V30 2102 H 205.375 2.27256 3.48798 0
M  V30 2103 H 205.908 3.33757 2.1645 0
M  V30 2104 H 202.647 6.30987 1.77582 0
M  V30 2105 H 202.167 5.16497 3.04945 0
M  V30 2106 H 203.846 5.75272 2.96093 0
M  V30 2107 N 203.978 -0.674533 1.42435 0
M  V30 2108 C 205.226 -1.43175 1.42637 0
M  V30 2109 C 205.547 -1.94951 0.0438992 0
M  V30 2110 O 204.817 -1.7308 -0.917607 0
M  V30 2111 H 203.397 -0.531307 0.525092 0
M  V30 2112 H 206.059 -0.797006 1.77859 0
M  V30 2113 H 205.155 -2.28463 2.12629 0
M  V30 2114 N 205.456 -1.28612 -0.910864 0
M  V30 2115 C 206.872 -1.06381 -1.18976 0
M  V30 2116 C 207.072 0.191998 -2.00583 0
M  V30 2117 O 206.128 0.892869 -2.36187 0
M  V30 2118 C 207.441 -2.31295 -1.92154 0
M  V30 2119 C 208.989 -2.36503 -2.05025 0
M  V30 2120 C 209.464 -3.61191 -2.81612 0
M  V30 2121 N 210.955 -3.61847 -2.89172 0
M  V30 2122 C 211.69 -4.55004 -3.4894 0
M  V30 2123 N 211.186 -5.58482 -4.09963 0
M  V30 2124 N 212.979 -4.42594 -3.46506 0
M  V30 2125 H 205.13 -2.09221 -0.366094 0
M  V30 2126 H 207.393 -0.921003 -0.224629 0
M  V30 2127 H 207.099 -3.228 -1.39618 0
M  V30 2128 H 206.973 -2.37934 -2.9269 0
M  V30 2129 H 209.36 -1.45494 -2.5674 0
M  V30 2130 H 209.441 -2.33857 -1.03657 0
M  V30 2131 H 209.085 -4.52545 -2.30576 0
M  V30 2132 H 209.015 -3.61092 -3.83302 0
M  V30 2133 H 211.506 -2.87022 -2.45819 0
M  V30 2134 H 211.819 -6.25704 -4.53557 0
M  V30 2135 H 210.164 -5.62305 -4.08459 0
M  V30 2136 H 213.355 -3.60953 -2.98045 0
M  V30 2137 H 213.528 -5.15381 -3.92793 0
M  V30 2138 N 206.934 1.1197 -1.10907 0
M  V30 2139 C 207.864 2.19928 -0.784473 0
M  V30 2140 C 208.845 1.6833 0.244726 0
M  V30 2141 O 210.03 1.93892 0.109418 0
M  V30 2142 C 207.16 3.46597 -0.220827 0
M  V30 2143 C 206.114 4.11376 -1.18127 0
M  V30 2144 C 205.44 5.32554 -0.478594 0
M  V30 2145 C 206.74 4.56945 -2.52979 0
M  V30 2146 H 208.434 2.47337 -1.68715 0
M  V30 2147 H 205.98 1.18879 -0.812642 0
M  V30 2148 H 207.933 4.21396 0.0184278 0
M  V30 2149 H 206.657 3.1863 0.717113 0
M  V30 2150 H 205.316 3.38564 -1.40606 0
M  V30 2151 H 204.964 5.00856 0.463976 0
M  V30 2152 H 204.664 5.76844 -1.11912 0
M  V30 2153 H 206.188 6.10096 -0.248 0
M  V30 2154 H 207.602 5.23093 -2.3462 0
M  V30 2155 H 205.999 5.1203 -3.12962 0
M  V30 2156 H 207.069 3.70676 -3.12614 0
M  V30 2157 N 208.412 0.89855 1.29475 0
M  V30 2158 C 209.658 0.524658 1.95896 0
M  V30 2159 C 209.991 -0.926468 1.70676 0
M  V30 2160 O 209.266 -1.65665 1.01908 0
M  V30 2161 C 209.549 0.81633 3.50725 0
M  V30 2162 C 209.402 2.31907 3.85408 0
M  V30 2163 C 210.721 0.302038 4.39062 0
M  V30 2164 H 207.84 0.19209 0.711527 0
M  V30 2165 H 210.482 1.12502 1.53112 0
M  V30 2166 H 208.632 0.305369 3.87298 0
M  V30 2167 H 210.304 2.89949 3.58786 0
M  V30 2168 H 208.547 2.78027 3.32992 0
M  V30 2169 H 209.218 2.47373 4.93468 0
M  V30 2170 H 211.694 0.739551 4.09475 0
M  V30 2171 H 210.57 0.535331 5.46283 0
M  V30 2172 H 210.831 -0.797216 4.34853 0
M  V30 2173 N 209.89 -1.43072 0.660911 0
M  V30 2174 C 210.837 -2.30785 -0.0259884 0
M  V30 2175 C 211.807 -1.45184 -0.806888 0
M  V30 2176 O 212.992 -1.74041 -0.781943 0
M  V30 2177 C 210.132 -3.30861 -0.981067 0
M  V30 2178 C 209.245 -4.31558 -0.195458 0
M  V30 2179 C 208.38 -5.18712 -1.14503 0
M  V30 2180 C 207.419 -6.11097 -0.350299 0
M  V30 2181 N 206.556 -6.90849 -1.25186 0
M  V30 2182 H 211.396 -2.88975 0.727846 0
M  V30 2183 H 208.933 -1.42353 0.370682 0
M  V30 2184 H 210.891 -3.87399 -1.54849 0
M  V30 2185 H 209.521 -2.74304 -1.70169 0
M  V30 2186 H 208.573 -3.77252 0.488374 0
M  V30 2187 H 209.885 -4.9701 0.422176 0
M  V30 2188 H 209.039 -5.79914 -1.78284 0
M  V30 2189 H 207.778 -4.53404 -1.79656 0
M  V30 2190 H 206.783 -5.48976 0.300808 0
M  V30 2191 H 208.008 -6.7845 0.296941 0
M  V30 2192 H 205.954 -6.28182 -1.89005 0
M  V30 2193 H 205.871 -7.52854 -0.688971 0
M  V30 2194 H 207.139 -7.5655 -1.87757 0
M  V30 2195 N 211.368 -0.403325 -1.52352 0
M  V30 2196 C 212.278 0.432009 -2.30588 0
M  V30 2197 C 213.294 1.05884 -1.38075 0
M  V30 2198 O 214.47 1.06161 -1.71148 0
M  V30 2199 C 211.535 1.53669 -3.10784 0
M  V30 2200 C 210.596 0.933525 -4.19027 0
M  V30 2201 C 209.829 1.98557 -4.9539 0
M  V30 2202 O 210.052 3.20283 -4.71991 0
M  V30 2203 O 208.986 1.59504 -5.80381 0
M  V30 2204 H 212.812 -0.205739 -3.03002 0
M  V30 2205 H 210.397 -0.166675 -1.48467 0
M  V30 2206 H 212.279 2.17814 -3.60742 0
M  V30 2207 H 210.954 2.15915 -2.41169 0
M  V30 2208 H 209.861 0.254954 -3.7323 0
M  V30 2209 H 211.194 0.35508 -4.90918 0
M  V30 2210 N 212.846 1.57033 -0.133567 0
M  V30 2211 C 214.094 1.953 0.519848 0
M  V30 2212 C 214.415 1.01866 1.66278 0
M  V30 2213 O 213.685 0.0776513 1.95746 0
M  V30 2214 H 212.265 0.721091 0.195032 0
M  V30 2215 H 214.927 1.93809 -0.205921 0
M  V30 2216 H 214.023 2.98695 0.904854 0
M  V30 2217 N 214.325 -0.140222 1.56975 0
M  V30 2218 C 215.565 -0.857823 1.85528 0
M  V30 2219 C 215.929 -1.78039 0.718768 0
M  V30 2220 O 217.13 -2.53795 0.885521 0
M  V30 2221 C 215.401 -1.60615 3.19277 0
M  V30 2222 S 216.96 -2.36824 3.69405 0
M  V30 2223 H 213.778 -0.286727 0.650622 0
M  V30 2224 H 216.38 -0.117408 1.95147 0
M  V30 2225 H 215.084 -0.919994 3.99955 0
M  V30 2226 H 214.615 -2.38735 3.12681 0
M  V30 2227 H 216.63 -3.62148 3.3921 0
M  V30 2228 N 215.803 -1.52179 -0.40978 0
M  V30 2229 C 216.713 -1.78364 -1.52392 0
M  V30 2230 C 217.729 -0.669183 -1.60617 0
M  V30 2231 O 218.905 -0.954518 -1.77344 0
M  V30 2232 C 215.97 -1.92822 -2.88133 0
M  V30 2233 C 215.031 -3.16725 -2.898 0
M  V30 2234 C 214.264 -3.30483 -4.19067 0
M  V30 2235 O 214.487 -2.49522 -5.12928 0
M  V30 2236 O 213.421 -4.2363 -4.27576 0
M  V30 2237 H 217.247 -2.72931 -1.33201 0
M  V30 2238 H 214.832 -1.37016 -0.59557 0
M  V30 2239 H 216.714 -2.04157 -3.68643 0
M  V30 2240 H 215.389 -1.01444 -3.07393 0
M  V30 2241 H 214.296 -3.10848 -2.08146 0
M  V30 2242 H 215.629 -4.07881 -2.75489 0
M  V30 2243 N 217.281 0.66697 -1.42791 0
M  V30 2244 C 218.53 1.42278 -1.42968 0
M  V30 2245 C 218.843 1.9553 -0.0524489 0
M  V30 2246 O 220.049 2.71414 0.068363 0
M  V30 2247 C 218.505 2.57418 -2.51524 0
M  V30 2248 C 218.113 2.10832 -3.9529 0
M  V30 2249 C 219.857 3.34878 -2.60877 0
M  V30 2250 C 217.764 3.23101 -4.95338 0
M  V30 2251 H 216.694 0.534533 -0.531781 0
M  V30 2252 H 219.345 0.721302 -1.68729 0
M  V30 2253 H 217.727 3.29971 -2.18941 0
M  V30 2254 H 218.901 1.4538 -4.37266 0
M  V30 2255 H 217.216 1.46289 -3.89857 0
M  V30 2256 H 219.813 4.18505 -3.32802 0
M  V30 2257 H 220.156 3.81993 -1.6549 0
M  V30 2258 H 220.689 2.69398 -2.92693 0
M  V30 2259 H 217.428 2.80969 -5.9223 0
M  V30 2260 H 216.948 3.87309 -4.57987 0
M  V30 2261 H 218.627 3.88447 -5.17415 0
M  V30 2262 N 218.759 1.29093 0.90403 0
M  V30 2263 C 220.007 1.16583 1.65085 0
M  V30 2264 C 220.328 -0.283933 1.92922 0
M  V30 2265 O 219.598 -1.19509 1.55224 0
M  V30 2266 H 218.178 0.428467 0.611903 0
M  V30 2267 H 220.84 1.61959 1.08422 0
M  V30 2268 H 219.936 1.71266 2.6091 0
M  V30 2269 N 220.237 -1.11381 1.11499 0
M  V30 2270 C 221.484 -1.83132 0.864231 0
M  V30 2271 C 221.812 -1.84683 -0.610114 0
M  V30 2272 O 221.067 -1.29589 -1.46646 0
M  V30 2273 C 221.366 -3.30026 1.37177 0
M  V30 2274 C 221.032 -3.48634 2.85946 0
M  V30 2275 C 219.694 -3.53421 3.26569 0
M  V30 2276 C 222.046 -3.54837 3.81759 0
M  V30 2277 C 219.374 -3.61967 4.61733 0
M  V30 2278 C 221.726 -3.64915 5.1674 0
M  V30 2279 C 220.39 -3.67962 5.5692 0
M  V30 2280 H 219.66 -0.670127 0.316245 0
M  V30 2281 H 222.307 -1.31354 1.3935 0
M  V30 2282 H 220.612 -3.84304 0.762753 0
M  V30 2283 H 222.309 -3.84034 1.15408 0
M  V30 2284 H 218.899 -3.45579 2.53521 0
M  V30 2285 H 223.083 -3.50399 3.51474 0
M  V30 2286 H 218.339 -3.62603 4.92269 0
M  V30 2287 H 222.513 -3.68658 5.90816 0
M  V30 2288 H 220.14 -3.74336 6.61647 0
M  V30 2289 N 221.715 -0.905404 -1.28997 0
M  V30 2290 C 222.964 -0.530191 -1.94607 0
M  V30 2291 C 223.277 0.929185 -1.72121 0
M  V30 2292 O 224.483 1.41218 -2.31883 0
M  V30 2293 C 222.939 -0.897333 -3.48534 0
M  V30 2294 C 222.547 -2.37587 -3.79811 0
M  V30 2295 C 224.291 -0.592304 -4.20347 0
M  V30 2296 C 222.198 -2.68357 -5.27009 0
M  V30 2297 H 221.128 -0.194558 -0.728466 0
M  V30 2298 H 223.779 -1.10318 -1.46636 0
M  V30 2299 H 222.161 -0.253214 -3.9519 0
M  V30 2300 H 223.335 -3.06602 -3.43994 0
M  V30 2301 H 221.65 -2.6505 -3.2115 0
M  V30 2302 H 224.247 -0.798975 -5.28697 0
M  V30 2303 H 224.59 0.469474 -4.13644 0
M  V30 2304 H 225.123 -1.19452 -3.79442 0
M  V30 2305 H 221.862 -3.73355 -5.38782 0
M  V30 2306 H 221.382 -2.03971 -5.64053 0
M  V30 2307 H 223.061 -2.54922 -5.94663 0
M  V30 2308 N 223.193 1.4272 -0.668489 0
M  V30 2309 C 224.604 1.84793 -0.266151 0
M  V30 2310 C 224.955 1.55959 1.19043 0
M  V30 2311 O 224.08 1.01622 1.91055 0
M  V30 2312 C 224.675 3.35436 -0.476271 0
M  V30 2313 C 223.234 3.76182 -0.128113 0
M  V30 2314 C 222.381 2.66344 -0.771777 0
M  V30 2315 H 225.332 1.32656 -0.871098 0
M  V30 2316 H 225.353 3.79515 0.273561 0
M  V30 2317 H 224.865 3.5639 -1.53647 0
M  V30 2318 H 222.966 3.60836 0.928891 0
M  V30 2319 H 223.079 4.75766 -0.564231 0
M  V30 2320 H 221.443 2.53885 -0.203652 0
M  V30 2321 H 222.226 2.90123 -1.83531 0
M  V30 2322 N 224.671 0.411399 1.52136 0
M  V30 2323 C 225.896 -0.165538 2.06738 0
M  V30 2324 C 226.321 -1.379 1.27926 0
M  V30 2325 O 225.679 -1.78628 0.310114 0
M  V30 2326 C 225.727 -0.492124 3.57226 0
M  V30 2327 O 224.831 -1.58276 3.80818 0
M  V30 2328 H 224.172 -0.0132132 0.663869 0
M  V30 2329 H 226.702 0.585253 1.96051 0
M  V30 2330 H 226.712 -0.750104 4.01045 0
M  V30 2331 H 225.387 0.394922 4.14021 0
M  V30 2332 H 223.964 -1.31677 3.48877 0
M  V30 2333 N 226.149 -1.5696 0.141893 0
M  V30 2334 C 227.56 -1.82797 -0.379776 0
M  V30 2335 C 227.911 -1.06033 -1.6508 0
M  V30 2336 O 227.036 -0.304011 -2.14254 0
M  V30 2337 C 227.631 -3.31578 -0.695802 0
M  V30 2338 C 226.19 -3.58014 -1.16201 0
M  V30 2339 C 225.337 -2.76699 -0.182455 0
M  V30 2340 H 228.288 -1.54406 0.366675 0
M  V30 2341 H 228.309 -3.47454 -1.55099 0
M  V30 2342 H 227.821 -3.87421 0.229449 0
M  V30 2343 H 225.922 -3.07553 -2.10338 0
M  V30 2344 H 226.035 -4.66501 -1.09151 0
M  V30 2345 H 224.399 -2.45618 -0.674072 0
M  V30 2346 H 225.182 -3.35311 0.736297 0
M  V30 2347 N 227.627 0.131896 -1.57047 0
M  V30 2348 C 228.557 1.16384 -2.02428 0
M  V30 2349 C 229.538 1.43936 -0.90644 0
M  V30 2350 O 230.723 1.54599 -1.17528 0
M  V30 2351 C 227.853 2.49328 -2.4177 0
M  V30 2352 C 226.807 2.36266 -3.56879 0
M  V30 2353 C 226.133 3.74057 -3.8208 0
M  V30 2354 C 227.433 1.834 -4.89042 0
M  V30 2355 H 229.127 0.786433 -2.88887 0
M  V30 2356 H 226.673 0.376855 -1.38981 0
M  V30 2357 H 228.626 3.21759 -2.7212 0
M  V30 2358 H 227.35 2.88934 -1.52266 0
M  V30 2359 H 226.009 1.66286 -3.26718 0
M  V30 2360 H 225.657 4.11125 -2.89803 0
M  V30 2361 H 225.357 3.66174 -4.59554 0
M  V30 2362 H 226.881 4.48012 -4.1487 0
M  V30 2363 H 228.295 2.45636 -5.18011 0
M  V30 2364 H 226.692 1.8637 -5.70426 0
M  V30 2365 H 227.762 0.790662 -4.7841 0
M  V30 2366 N 229.106 1.52395 0.401703 0
M  V30 2367 C 230.522 1.41363 0.740864 0
M  V30 2368 C 230.722 0.523982 1.94568 0
M  V30 2369 O 229.778 -0.00741204 2.52499 0
M  V30 2370 C 231.091 2.84011 0.987847 0
M  V30 2371 C 232.639 2.93404 1.09011 0
M  V30 2372 C 233.114 4.37036 1.3698 0
M  V30 2373 N 234.605 4.40304 1.43829 0
M  V30 2374 C 235.34 5.48508 1.67112 0
M  V30 2375 N 234.836 6.66819 1.87949 0
M  V30 2376 N 236.629 5.36034 1.69187 0
M  V30 2377 H 228.78 2.08765 -0.391262 0
M  V30 2378 H 231.043 0.941265 -0.112798 0
M  V30 2379 H 230.749 3.51265 0.174835 0
M  V30 2380 H 230.623 3.25502 1.906 0
M  V30 2381 H 233.01 2.26325 1.8937 0
M  V30 2382 H 233.091 2.55359 0.15015 0
M  V30 2383 H 232.735 5.04676 0.571353 0
M  V30 2384 H 232.665 4.72623 2.3224 0
M  V30 2385 H 235.156 3.55024 1.29486 0
M  V30 2386 H 235.469 7.45063 2.05185 0
M  V30 2387 H 233.814 6.6987 1.85199 0
M  V30 2388 H 237.005 4.42579 1.52451 0
M  V30 2389 H 237.178 6.20434 1.86993 0
M  V30 2390 N 230.584 -0.659388 1.43143 0
M  V30 2391 C 231.514 -1.78422 1.50625 0
M  V30 2392 C 232.495 -1.66216 0.361443 0
M  V30 2393 O 233.68 -1.85404 0.577834 0
M  V30 2394 C 230.81 -3.16815 1.42287 0
M  V30 2395 C 229.764 -3.43777 2.54954 0
M  V30 2396 C 229.09 -4.81905 2.31671 0
M  V30 2397 C 230.39 -3.39134 3.97222 0
M  V30 2398 H 232.084 -1.72417 2.44771 0
M  V30 2399 H 229.63 -0.828084 1.17808 0
M  V30 2400 H 231.583 -3.95253 1.46127 0
M  V30 2401 H 230.307 -3.23534 0.446435 0
M  V30 2402 H 228.966 -2.67707 2.50457 0
M  V30 2403 H 228.614 -4.85294 1.32284 0
M  V30 2404 H 228.314 -5.00906 3.07192 0
M  V30 2405 H 229.838 -5.62609 2.37284 0
M  V30 2406 H 231.252 -4.07518 4.03239 0
M  V30 2407 H 229.649 -3.69671 4.72719 0
M  V30 2408 H 230.719 -2.37426 4.22797 0
M  V30 2409 N 232.062 -1.29571 -0.897171 0
M  V30 2410 C 232.972 -1.16808 -2.03453 0
M  V30 2411 C 233.988 -0.0907471 -1.73763 0
M  V30 2412 O 235.164 -0.303312 -1.99103 0
M  V30 2413 C 232.229 -0.848264 -3.36163 0
M  V30 2414 C 231.29 -2.0097 -3.79354 0
M  V30 2415 C 230.523 -1.70505 -5.05731 0
M  V30 2416 O 230.746 -0.62718 -5.66941 0
M  V30 2417 O 229.68 -2.5538 -5.45036 0
M  V30 2418 H 233.506 -2.12325 -2.17144 0
M  V30 2419 H 231.091 -1.09047 -1.02123 0
M  V30 2420 H 232.973 -0.684581 -4.15802 0
M  V30 2421 H 231.648 0.0771071 -3.23608 0
M  V30 2422 H 230.555 -2.22863 -3.00471 0
M  V30 2423 H 231.888 -2.91636 -3.96496 0
M  V30 2424 N 233.54 1.10788 -1.12088 0
M  V30 2425 C 234.488 2.19111 -0.780587 0
M  V30 2426 C 235.482 1.67818 0.230961 0
M  V30 2427 O 236.688 1.79777 0.0895427 0
M  V30 2428 H 233.063 0.714477 -0.234578 0
M  V30 2429 H 235.034 2.45055 -1.70266 0
M  V30 2430 C 233.783 3.46818 -0.24747 0
M  V30 2431 H 233.106 3.86646 -1.01712 0
M  V30 2432 H 234.546 4.23973 -0.0476291 0
M  V30 2433 C 233.005 3.20968 1.02378 0
M  V30 2434 O 233.535 3.42298 2.10226 0
M  V30 2435 N 231.741 2.74658 0.949271 0
M  V30 2436 H 231.288 2.57501 0.0715173 0
M  V30 2437 H 231.246 2.57739 1.80049 0
M  V30 2438 N 235.018 0.912232 1.28515 0
M  V30 2439 C 236.267 0.540504 1.94323 0
M  V30 2440 C 236.58 -0.920044 1.72611 0
M  V30 2441 O 237.786 -1.39986 2.32629 0
M  V30 2442 C 236.242 0.915803 3.48053 0
M  V30 2443 C 235.85 2.39598 3.78546 0
M  V30 2444 C 237.594 0.614588 4.20027 0
M  V30 2445 C 235.501 2.71148 5.25578 0
M  V30 2446 H 234.431 0.198418 0.727424 0
M  V30 2447 H 237.082 1.11094 1.46049 0
M  V30 2448 H 235.464 0.274168 3.9505 0
M  V30 2449 H 236.638 3.08422 3.42364 0
M  V30 2450 H 234.953 2.66749 3.1974 0
M  V30 2451 H 237.55 0.827002 5.28266 0
M  V30 2452 H 237.893 -0.447531 4.13887 0
M  V30 2453 H 238.426 1.21462 3.78803 0
M  V30 2454 H 235.165 3.76207 5.36794 0
M  V30 2455 H 234.685 2.0696 5.62963 0
M  V30 2456 H 236.364 2.58072 5.93302 0
M  V30 2457 N 236.496 -1.42363 0.676048 0
M  V30 2458 C 237.912 -1.55811 0.345718 0
M  V30 2459 C 238.112 -1.65544 -1.14879 0
M  V30 2460 O 237.168 -1.62306 -1.93424 0
M  V30 2461 C 238.481 -2.80746 1.07713 0
M  V30 2462 C 240.029 -2.9452 1.05958 0
M  V30 2463 C 240.504 -4.22318 1.77233 0
M  V30 2464 N 241.995 -4.29233 1.74108 0
M  V30 2465 C 242.73 -5.26935 2.26113 0
M  V30 2466 N 242.226 -6.30783 2.86505 0
M  V30 2467 N 244.019 -5.18741 2.1648 0
M  V30 2468 H 236.17 -1.34289 1.6456 0
M  V30 2469 H 238.433 -0.646506 0.69335 0
M  V30 2470 H 238.139 -2.79696 2.13221 0
M  V30 2471 H 238.013 -3.71676 0.64316 0
M  V30 2472 H 240.4 -2.95097 0.0128255 0
M  V30 2473 H 240.481 -2.04817 1.53244 0
M  V30 2474 H 240.125 -4.22502 2.81877 0
M  V30 2475 H 240.055 -5.10958 1.27396 0
M  V30 2476 H 242.546 -3.54814 1.30059 0
M  V30 2477 H 242.859 -7.01691 3.23805 0
M  V30 2478 H 241.204 -6.31341 2.90575 0
M  V30 2479 H 244.395 -4.36533 1.68987 0
M  V30 2480 H 244.568 -5.94721 2.57316 0
M  V30 2481 N 237.974 -0.419461 -1.51915 0
M  V30 2482 C 239.223 0.154346 -2.01109 0
M  V30 2483 C 239.536 1.45338 -1.30905 0
M  V30 2484 O 240.742 2.10906 -1.7097 0
M  V30 2485 C 239.198 0.325615 -3.58424 0
M  V30 2486 C 238.806 -0.961934 -4.37551 0
M  V30 2487 C 240.55 0.854155 -4.15818 0
M  V30 2488 C 238.457 -0.757287 -5.86531 0
M  V30 2489 H 237.387 0.0614563 -0.751491 0
M  V30 2490 H 240.038 -0.54649 -1.75173 0
M  V30 2491 H 238.42 1.08903 -3.80731 0
M  V30 2492 H 239.594 -1.7323 -4.26999 0
M  V30 2493 H 237.909 -1.41766 -3.91524 0
M  V30 2494 H 240.506 1.02346 -5.24814 0
M  V30 2495 H 240.849 1.83172 -3.73837 0
M  V30 2496 H 241.382 0.149528 -3.97519 0
M  V30 2497 H 238.121 -1.70671 -6.32892 0
M  V30 2498 H 237.641 -0.0264061 -5.99794 0
M  V30 2499 H 239.32 -0.403482 -6.45741 0
M  V30 2500 N 239.452 1.56882 -0.150215 0
M  V30 2501 C 240.384 2.14057 0.819286 0
M  V30 2502 C 241.397 1.09082 1.20851 0
M  V30 2503 O 242.586 1.36347 1.15203 0
M  V30 2504 C 239.686 2.65102 2.11127 0
M  V30 2505 C 238.859 3.94511 1.88891 0
M  V30 2506 C 237.918 4.30834 3.02107 0
M  V30 2507 O 236.944 4.99099 2.73659 0
M  V30 2508 N 238.146 3.90676 4.29363 0
M  V30 2509 H 240.911 2.97871 0.330618 0
M  V30 2510 H 238.472 1.61866 0.0332538 0
M  V30 2511 H 240.464 2.86411 2.85921 0
M  V30 2512 H 239.034 1.85994 2.51247 0
M  V30 2513 H 238.254 3.81795 0.981152 0
M  V30 2514 H 239.542 4.7907 1.71376 0
M  V30 2515 H 238.94 3.35677 4.55343 0
M  V30 2516 H 237.497 4.1703 5.00928 0
M  V30 2517 N 240.93 -0.123565 1.57115 0
M  V30 2518 C 241.862 -1.17739 1.96648 0
M  V30 2519 C 242.875 -1.37906 0.865201 0
M  V30 2520 O 244.064 -1.37062 1.14351 0
M  V30 2521 C 241.164 -2.53821 2.24562 0
M  V30 2522 C 240.337 -2.54317 3.55867 0
M  V30 2523 C 239.396 -3.72112 3.72047 0
M  V30 2524 O 238.422 -3.55907 4.44206 0
M  V30 2525 N 239.624 -4.90498 3.10471 0
M  V30 2526 H 242.389 -0.841147 2.87654 0
M  V30 2527 H 239.95 -0.31289 1.58848 0
M  V30 2528 H 241.942 -3.31175 2.32606 0
M  V30 2529 H 240.512 -2.79645 1.39705 0
M  V30 2530 H 239.732 -1.62711 3.59053 0
M  V30 2531 H 241.02 -2.51701 4.42181 0
M  V30 2532 H 240.418 -5.06567 2.51806 0
M  V30 2533 H 238.975 -5.65544 3.24043 0
M  V30 2534 N 242.408 -1.52605 -0.393616 0
M  V30 2535 C 243.318 -1.79971 -1.50492 0
M  V30 2536 C 244.334 -0.686181 -1.59899 0
M  V30 2537 O 245.51 -0.973274 -1.76322 0
M  V30 2538 C 242.575 -1.95867 -2.86072 0
M  V30 2539 C 241.636 -3.19781 -2.86424 0
M  V30 2540 C 240.869 -3.34909 -4.15538 0
M  V30 2541 O 241.092 -2.54948 -5.10253 0
M  V30 2542 O 240.026 -4.28141 -4.23059 0
M  V30 2543 H 243.852 -2.74328 -1.30299 0
M  V30 2544 H 241.437 -1.3764 -0.581005 0
M  V30 2545 H 243.319 -2.08056 -3.66457 0
M  V30 2546 H 241.994 -1.04699 -3.063 0
M  V30 2547 H 240.901 -3.13038 -2.04837 0
M  V30 2548 H 242.234 -4.1078 -2.71147 0
M  V30 2549 N 243.887 0.651787 -1.4349 0
M  V30 2550 C 244.819 1.77725 -1.44729 0
M  V30 2551 C 245.832 1.59141 -0.343231 0
M  V30 2552 O 247.021 1.67835 -0.607751 0
M  V30 2553 C 244.121 3.15172 -1.24579 0
M  V30 2554 C 243.294 3.60402 -2.47849 0
M  V30 2555 C 242.353 4.76656 -2.22902 0
M  V30 2556 O 241.379 4.86022 -2.96263 0
M  V30 2557 N 242.581 5.66958 -1.24656 0
M  V30 2558 H 245.346 1.77141 -2.41746 0
M  V30 2559 H 242.907 0.835678 -1.38665 0
M  V30 2560 H 244.899 3.90634 -1.0577 0
M  V30 2561 H 243.469 3.1052 -0.360015 0
M  V30 2562 H 242.689 2.75369 -2.82073 0
M  V30 2563 H 243.977 3.87368 -3.29884 0
M  V30 2564 H 243.375 5.62065 -0.640265 0
M  V30 2565 H 241.932 6.42135 -1.1183 0
M  V30 2566 N 245.365 1.30045 0.890287 0
M  V30 2567 C 246.312 1.15976 1.99545 0
M  V30 2568 C 247.282 0.0506202 1.66023 0
M  V30 2569 O 248.467 0.219847 1.89529 0
M  V30 2570 C 245.607 0.852054 3.34416 0
M  V30 2571 C 244.72 2.04255 3.80662 0
M  V30 2572 C 243.855 1.6734 5.04154 0
M  V30 2573 C 242.894 2.82916 5.42794 0
M  V30 2574 N 242.031 2.46333 6.57468 0
M  V30 2575 H 246.871 2.10524 2.10911 0
M  V30 2576 H 244.408 1.04749 1.03276 0
M  V30 2577 H 246.366 0.654296 4.12037 0
M  V30 2578 H 244.996 -0.0565502 3.2275 0
M  V30 2579 H 244.048 2.35172 2.98995 0
M  V30 2580 H 245.36 2.90826 4.05242 0
M  V30 2581 H 244.514 1.43908 5.89386 0
M  V30 2582 H 243.253 0.779308 4.81433 0
M  V30 2583 H 242.258 3.0702 4.56091 0
M  V30 2584 H 243.483 3.73004 5.6749 0
M  V30 2585 H 241.429 1.59423 6.36334 0
M  V30 2586 H 241.346 3.26436 6.81891 0
M  V30 2587 H 242.614 2.26244 7.45945 0
M  V30 2588 N 246.843 -1.10192 1.12674 0
M  V30 2589 C 248.259 -1.34235 0.863317 0
M  V30 2590 C 248.459 -1.95062 -0.505277 0
M  V30 2591 O 247.515 -2.19192 -1.25345 0
M  V30 2592 C 248.828 -2.2616 1.98172 0
M  V30 2593 C 250.376 -2.3969 2.0129 0
M  V30 2594 C 250.851 -3.34946 3.1237 0
M  V30 2595 N 252.342 -3.42515 3.11829 0
M  V30 2596 C 253.077 -4.16199 3.94419 0
M  V30 2597 N 252.573 -4.92747 4.87004 0
M  V30 2598 N 254.366 -4.11843 3.82547 0
M  V30 2599 H 246.517 -0.690798 2.00853 0
M  V30 2600 H 248.78 -0.366774 0.874174 0
M  V30 2601 H 248.486 -1.8868 2.96804 0
M  V30 2602 H 248.36 -3.26488 1.88906 0
M  V30 2603 H 250.747 -2.76438 1.03276 0
M  V30 2604 H 250.828 -1.39169 2.14629 0
M  V30 2605 H 250.472 -2.98923 4.10619 0
M  V30 2606 H 250.402 -4.35353 2.96269 0
M  V30 2607 H 252.893 -2.87926 2.44759 0
M  V30 2608 H 253.206 -5.46376 5.46528 0
M  V30 2609 H 251.551 -4.91862 4.91016 0
M  V30 2610 H 254.742 -3.51136 3.0955 0
M  V30 2611 H 254.915 -4.69007 4.47142 0
M  V30 2612 N 248.321 -0.919034 -1.28029 0
M  V30 2613 C 249.569 -0.553838 -1.94363 0
M  V30 2614 C 249.89 0.906357 -1.72656 0
M  V30 2615 O 249.16 1.64143 -1.0693 0
M  V30 2616 H 247.74 -0.201834 -0.719216 0
M  V30 2617 H 250.402 -1.16954 -1.55909 0
M  V30 2618 H 249.498 -0.752758 -3.02886 0
M  V30 2619 N 249.799 1.42003 -0.683588 0
M  V30 2620 C 251.215 1.55625 -0.353976 0
M  V30 2621 C 251.415 1.66151 1.14 0
M  V30 2622 O 250.471 1.63329 1.92561 0
M  V30 2623 C 251.784 2.80171 -1.092 0
M  V30 2624 C 253.332 2.93954 -1.07518 0
M  V30 2625 C 253.807 4.21372 -1.79471 0
M  V30 2626 N 255.298 4.28303 -1.76381 0
M  V30 2627 C 256.033 5.25729 -2.28904 0
M  V30 2628 N 255.529 6.29254 -2.89846 0
M  V30 2629 N 257.322 5.17586 -2.19228 0
M  V30 2630 H 249.473 1.33415 -1.6527 0
M  V30 2631 H 251.736 0.64282 -0.696769 0
M  V30 2632 H 251.442 2.78561 -2.14701 0
M  V30 2633 H 251.316 3.7133 -0.662862 0
M  V30 2634 H 253.703 2.95086 -0.028475 0
M  V30 2635 H 253.784 2.04002 -1.54328 0
M  V30 2636 H 253.428 4.21001 -2.84114 0
M  V30 2637 H 253.358 5.10275 -1.30104 0
M  V30 2638 H 255.849 3.54119 -1.31939 0
M  V30 2639 H 256.162 6.99964 -3.27522 0
M  V30 2640 H 254.507 6.29791 -2.93919 0
M  V30 2641 H 257.698 4.35631 -1.71299 0
M  V30 2642 H 257.871 5.93348 -2.60466 0
M  V30 2643 N 251.277 0.427512 1.51691 0
M  V30 2644 C 252.524 -0.142229 2.02 0
M  V30 2645 C 252.852 -1.43566 1.31221 0
M  V30 2646 O 252.107 -1.91298 0.412744 0
M  V30 2647 C 252.406 -0.418249 3.54944 0
M  V30 2648 C 252.072 0.788187 4.43958 0
M  V30 2649 C 250.734 1.11906 4.68007 0
M  V30 2650 C 253.086 1.59347 4.96244 0
M  V30 2651 C 250.414 2.25608 5.41588 0
M  V30 2652 C 252.766 2.7214 5.71072 0
M  V30 2653 C 251.43 3.05692 5.93387 0
M  V30 2654 H 250.7 -0.0520451 0.73917 0
M  V30 2655 H 253.347 0.572697 1.82736 0
M  V30 2656 H 251.652 -1.21496 3.72486 0
M  V30 2657 H 253.349 -0.872339 3.91397 0
M  V30 2658 H 249.939 0.520344 4.2543 0
M  V30 2659 H 254.123 1.35106 4.77556 0
M  V30 2660 H 249.379 2.51929 5.57083 0
M  V30 2661 H 253.553 3.34914 6.10578 0
M  V30 2662 H 251.18 3.9391 6.50184 0
M  V30 2663 N 252.755 -1.56801 0.158532 0
M  V30 2664 C 253.705 -2.13923 -0.788738 0
M  V30 2665 C 254.689 -1.07006 -1.2016 0
M  V30 2666 O 255.881 -1.33159 -1.1661 0
M  V30 2667 C 253.01 -2.77348 -2.02319 0
M  V30 2668 C 252.096 -3.91404 -1.6329 0
M  V30 2669 N 252.487 -4.9677 -0.951463 0
M  V30 2670 C 250.785 -4.02326 -1.92482 0
M  V30 2671 C 251.486 -5.76698 -0.761221 0
M  V30 2672 N 250.462 -5.27859 -1.29869 0
M  V30 2673 H 254.264 -2.92757 -0.258995 0
M  V30 2674 H 251.778 -1.62344 -0.0426055 0
M  V30 2675 H 253.775 -3.16639 -2.71192 0
M  V30 2676 H 252.435 -1.99991 -2.558 0
M  V30 2677 H 253.446 -5.14284 -0.610928 0
M  V30 2678 H 250.123 -3.36059 -2.47732 0
M  V30 2679 H 251.513 -6.71529 -0.223284 0
M  V30 2680 N 254.233 0.115231 -1.57178 0
M  V30 2681 C 255.481 0.820727 -1.84685 0
M  V30 2682 C 255.802 1.80237 -0.744279 0
M  V30 2683 O 255.072 1.94529 0.231375 0
M  V30 2684 H 253.652 0.306084 -0.681411 0
M  V30 2685 H 256.314 0.101656 -1.94635 0
M  V30 2686 H 255.41 1.36366 -2.80733 0
M  V30 2687 N 255.711 1.52812 0.385517 0
M  V30 2688 C 256.959 1.67694 1.12797 0
M  V30 2689 C 257.28 0.421115 1.90399 0
M  V30 2690 O 256.55 -0.564551 1.87589 0
M  V30 2691 H 255.13 0.618155 0.419396 0
M  V30 2692 H 257.792 1.89938 0.436972 0
M  V30 2693 H 256.888 2.52896 1.82894 0
M  V30 2694 N 257.189 -0.644168 1.43834 0
M  V30 2695 C 258.136 -1.75671 1.49694 0
M  V30 2696 C 259.106 -1.6246 0.345809 0
M  V30 2697 O 260.291 -1.82573 0.554234 0
M  V30 2698 C 257.431 -3.13867 1.43463 0
M  V30 2699 C 256.544 -3.38147 2.6885 0
M  V30 2700 C 255.679 -4.66241 2.54544 0
M  V30 2701 C 254.718 -4.83657 3.75157 0
M  V30 2702 N 253.855 -6.03016 3.59605 0
M  V30 2703 H 258.695 -1.69998 2.44754 0
M  V30 2704 H 256.232 -0.829458 1.21484 0
M  V30 2705 H 258.19 -3.9377 1.37843 0
M  V30 2706 H 256.82 -3.18588 0.519783 0
M  V30 2707 H 255.872 -2.52276 2.84712 0
M  V30 2708 H 257.184 -3.46899 3.58417 0
M  V30 2709 H 256.338 -5.54285 2.46683 0
M  V30 2710 H 255.077 -4.59826 1.62516 0
M  V30 2711 H 254.082 -3.94046 3.83416 0
M  V30 2712 H 255.307 -4.91896 4.68204 0
M  V30 2713 H 253.253 -5.97715 2.7032 0
M  V30 2714 H 253.17 -6.12766 4.42779 0
M  V30 2715 H 254.438 -6.93657 3.55613 0
M  V30 2716 N 258.668 -1.30515 -0.883378 0
M  V30 2717 C 259.893 -1.22487 -1.67367 0
M  V30 2718 C 260.318 0.208767 -1.86938 0
M  V30 2719 O 259.676 1.15015 -1.40148 0
M  V30 2720 C 259.724 -1.96041 -3.02655 0
M  V30 2721 O 258.828 -1.28859 -3.91751 0
M  V30 2722 H 258.169 -0.423573 -0.511353 0
M  V30 2723 H 260.699 -1.72362 -1.10239 0
M  V30 2724 H 260.709 -2.05124 -3.52687 0
M  V30 2725 H 259.384 -3.00307 -2.8773 0
M  V30 2726 H 257.961 -1.28141 -3.50192 0
M  V30 2727 N 260.146 1.09593 -1.13257 0
M  V30 2728 C 261.371 1.8604 -0.916732 0
M  V30 2729 C 261.796 1.80504 0.529146 0
M  V30 2730 O 261.154 1.18127 1.37534 0
M  V30 2731 C 261.202 3.32017 -1.40703 0
M  V30 2732 O 260.306 4.08141 -0.591153 0
M  V30 2733 H 259.647 0.576943 -0.328683 0
M  V30 2734 H 262.177 1.38405 -1.50682 0
M  V30 2735 H 262.187 3.82865 -1.4099 0
M  V30 2736 H 260.862 3.35361 -2.45979 0
M  V30 2737 H 259.439 3.67084 -0.656005 0
M  V30 2738 N 261.624 0.925811 1.2754 0
M  V30 2739 C 262.872 0.564138 1.94067 0
M  V30 2740 C 263.193 -0.897188 1.73134 0
M  V30 2741 O 262.463 -1.63573 1.07799 0
M  V30 2742 H 261.043 0.205645 0.718136 0
M  V30 2743 H 263.705 1.1778 1.55287 0
M  V30 2744 H 262.801 0.76881 3.02483 0
M  V30 2745 N 263.102 -1.41638 0.69111 0
M  V30 2746 C 264.05 -2.32597 0.0115199 0
M  V30 2747 C 265.044 -1.5072 -0.773296 0
M  V30 2748 O 266.25 -1.66685 -0.67942 0
M  V30 2749 H 262.625 -0.751849 -0.0150746 0
M  V30 2750 H 264.596 -2.87593 0.795791 0
M  V30 2751 C 263.345 -3.35467 -0.914172 0
M  V30 2752 H 262.668 -3.9852 -0.319687 0
M  V30 2753 H 264.108 -4.01662 -1.35808 0
M  V30 2754 C 262.567 -2.69004 -2.02826 0
M  V30 2755 O 263.097 -2.53444 -3.11655 0
M  V30 2756 N 261.303 -2.2777 -1.80469 0
M  V30 2757 H 260.85 -2.40626 -0.919615 0
M  V30 2758 H 260.808 -1.83635 -2.55197 0
M  V30 2759 N 264.58 -0.43555 -1.51462 0
M  V30 2760 C 265.805 0.132627 -2.06976 0
M  V30 2761 C 266.23 1.35848 -1.30104 0
M  V30 2762 O 265.588 1.78112 -0.338493 0
M  V30 2763 C 265.636 0.43523 -3.57964 0
M  V30 2764 O 264.74 1.52198 -3.83288 0
M  V30 2765 H 264.081 0.00265 -0.663995 0
M  V30 2766 H 266.611 -0.616369 -1.95095 0
M  V30 2767 H 266.621 0.686206 -4.02188 0
M  V30 2768 H 265.296 -0.460739 -4.1334 0
M  V30 2769 H 263.873 1.2611 -3.50928 0
M  V30 2770 N 266.058 1.56714 -0.166846 0
M  V30 2771 C 267.283 2.01557 0.488833 0
M  V30 2772 C 267.708 1.0463 1.56314 0
M  V30 2773 O 267.066 0.0251304 1.81283 0
M  V30 2774 C 267.114 3.4503 1.04818 0
M  V30 2775 O 266.218 3.51163 2.16236 0
M  V30 2776 H 265.559 0.653516 0.117526 0
M  V30 2777 H 268.089 2.02818 -0.269421 0
M  V30 2778 H 268.099 3.84243 1.37191 0
M  V30 2779 H 266.774 4.15077 0.261572 0
M  V30 2780 H 265.351 3.23807 1.84942 0
M  V30 2781 N 267.536 -0.106894 1.57237 0
M  V30 2782 C 268.761 -0.830287 1.90055 0
M  V30 2783 C 269.186 -1.72064 0.75998 0
M  V30 2784 O 268.544 -1.78982 -0.288991 0
M  V30 2785 C 268.592 -1.6295 3.21683 0
M  V30 2786 O 267.696 -2.73748 3.08441 0
M  V30 2787 H 267.037 -0.228855 0.623315 0
M  V30 2788 H 269.567 -0.085658 2.04421 0
M  V30 2789 H 269.577 -2.01621 3.54701 0
M  V30 2790 H 268.252 -0.975989 4.04286 0
M  V30 2791 H 266.829 -2.38192 2.86913 0
M  V30 2792 N 269.014 -1.53014 -0.377408 0
M  V30 2793 C 270.239 -1.72818 -1.14668 0
M  V30 2794 C 270.664 -0.450725 -1.8262 0
M  V30 2795 O 270.022 0.59439 -1.7128 0
M  V30 2796 C 270.07 -2.88627 -2.16164 0
M  V30 2797 O 269.174 -2.56409 -3.22998 0
M  V30 2798 H 268.515 -0.574301 -0.333278 0
M  V30 2799 H 271.045 -1.99853 -0.438152 0
M  V30 2800 H 271.055 -3.14455 -2.59966 0
M  V30 2801 H 269.73 -3.81294 -1.66095 0
M  V30 2802 H 268.307 -2.4136 -2.84253 0
M  V30 2803 N 270.492 0.636531 -1.44174 0
M  V30 2804 C 271.422 1.76003 -1.53444 0
M  V30 2805 C 272.403 1.65619 -0.387841 0
M  V30 2806 O 273.588 1.84461 -0.607257 0
M  V30 2807 C 270.718 3.14511 -1.4731 0
M  V30 2808 C 269.672 3.39677 -2.60391 0
M  V30 2809 C 268.998 4.78159 -2.39308 0
M  V30 2810 C 270.298 3.32772 -4.02567 0
M  V30 2811 H 271.992 1.68501 -2.47483 0
M  V30 2812 H 269.538 0.809237 -1.19111 0
M  V30 2813 H 271.491 3.92878 -1.52397 0
M  V30 2814 H 270.215 3.22783 -0.49785 0
M  V30 2815 H 268.874 2.63688 -2.54684 0
M  V30 2816 H 268.522 4.83128 -1.39988 0
M  V30 2817 H 268.222 4.95956 -3.15122 0
M  V30 2818 H 269.746 5.58762 -2.46205 0
M  V30 2819 H 271.16 4.01051 -4.09672 0
M  V30 2820 H 269.557 3.62104 -4.7854 0
M  V30 2821 H 270.627 2.30669 -4.2652 0
M  V30 2822 N 271.97 1.30982 0.876444 0
M  V30 2823 C 273.218 1.20058 1.62575 0
M  V30 2824 C 273.539 -0.242947 1.93481 0
M  V30 2825 O 272.809 -1.1619 1.57724 0
M  V30 2826 H 271.389 0.44135 0.602677 0
M  V30 2827 H 274.051 1.64222 1.04962 0
M  V30 2828 H 273.147 1.76762 2.57219 0
M  V30 2829 N 273.449 -1.08991 1.13837 0
M  V30 2830 C 274.359 -2.19301 0.833333 0
M  V30 2831 C 275.375 -1.73026 -0.183847 0
M  V30 2832 O 276.551 -2.01395 -0.0138092 0
M  V30 2833 C 273.616 -3.45323 0.308651 0
M  V30 2834 C 272.677 -4.06255 1.38764 0
M  V30 2835 C 271.91 -5.26262 0.887896 0
M  V30 2836 O 272.133 -5.69747 -0.27287 0
M  V30 2837 O 271.067 -5.78435 1.66421 0
M  V30 2838 H 274.893 -2.47854 1.75506 0
M  V30 2839 H 272.478 -1.18012 0.916166 0
M  V30 2840 H 274.36 -4.21394 0.0216739 0
M  V30 2841 H 273.035 -3.18362 -0.585431 0
M  V30 2842 H 271.942 -3.318 1.72799 0
M  V30 2843 H 273.275 -4.37452 2.25602 0
M  V30 2844 N 274.927 -0.932562 -1.27047 0
M  V30 2845 C 275.86 -0.379774 -2.25018 0
M  V30 2846 C 276.838 0.526587 -1.53837 0
M  V30 2847 O 278.022 0.465992 -1.82649 0
M  V30 2848 C 275.149 0.455187 -3.35627 0
M  V30 2849 C 274.195 -0.388428 -4.24728 0
M  V30 2850 S 275.028 -1.80701 -5.04091 0
M  V30 2851 C 276.184 -0.979865 -6.18182 0
M  V30 2852 H 276.417 -1.2101 -2.71558 0
M  V30 2853 H 273.95 -0.735078 -1.35779 0
M  V30 2854 H 275.908 0.931052 -3.99802 0
M  V30 2855 H 274.569 1.26009 -2.87716 0
M  V30 2856 H 273.762 0.25089 -5.03375 0
M  V30 2857 H 273.364 -0.798649 -3.65373 0
M  V30 2858 H 275.656 -0.218115 -6.77149 0
M  V30 2859 H 276.599 -1.73951 -6.86401 0
M  V30 2860 H 277.007 -0.51973 -5.62102 0
M  V30 2861 N 276.405 1.4127 -0.698611 0
M  V30 2862 C 277.651 2.01478 -0.231207 0
M  V30 2863 C 277.984 1.55215 1.16713 0
M  V30 2864 O 277.259 0.764672 1.78838 0
M  V30 2865 C 277.542 3.58912 -0.292281 0
M  V30 2866 C 277.395 4.15293 -1.72778 0
M  V30 2867 C 278.714 4.38736 0.346194 0
M  V30 2868 H 275.833 0.732025 -0.0854878 0
M  V30 2869 H 278.475 1.67977 -0.887906 0
M  V30 2870 H 276.625 3.87582 0.26686 0
M  V30 2871 H 278.297 3.97486 -2.341 0
M  V30 2872 H 276.54 3.7022 -2.26096 0
M  V30 2873 H 277.211 5.24452 -1.72202 0
M  V30 2874 H 279.687 4.15897 -0.130035 0
M  V30 2875 H 278.563 5.48221 0.272932 0
M  V30 2876 H 278.824 4.18425 1.42734 0
M  V30 2877 N 277.883 0.443576 1.51229 0
M  V30 2878 C 279.108 -0.121648 2.07043 0
M  V30 2879 C 279.533 -1.35156 1.30823 0
M  V30 2880 O 278.891 -1.7793 0.347934 0
M  V30 2881 C 278.939 -0.41624 3.5819 0
M  V30 2882 O 278.043 -1.50163 3.8409 0
M  V30 2883 H 277.384 0.000871367 0.663999 0
M  V30 2884 H 279.914 0.626706 1.94765 0
M  V30 2885 H 279.924 -0.664867 4.02546 0
M  V30 2886 H 278.599 0.482653 4.1309 0
M  V30 2887 H 277.176 -1.24248 3.51592 0
M  V30 2888 N 279.361 -1.56624 0.175154 0
M  V30 2889 C 280.609 -1.96609 -0.467885 0
M  V30 2890 C 280.93 -1.06238 -1.63519 0
M  V30 2891 O 280.2 -0.129523 -1.95471 0
M  V30 2892 H 278.78 -0.726008 -0.175845 0
M  V30 2893 H 281.442 -1.93195 0.257234 0
M  V30 2894 H 280.538 -3.00989 -0.825342 0
M  V30 2895 N 280.839 0.0985539 -1.57292 0
M  V30 2896 C 282.067 0.816318 -1.90115 0
M  V30 2897 C 282.482 1.72451 -0.768509 0
M  V30 2898 O 281.839 1.80643 0.259687 0
M  V30 2899 C 281.89 1.63259 -3.22535 0
M  V30 2900 O 281.611 0.760934 -4.31441 0
M  V30 2901 C 283.112 2.45372 -3.69199 0
M  V30 2902 H 280.332 0.233595 -0.629027 0
M  V30 2903 H 282.876 0.0768229 -2.04356 0
M  V30 2904 H 281.031 2.32463 -3.09903 0
M  V30 2905 H 281.445 1.32595 -5.07463 0
M  V30 2906 H 282.919 2.98144 -4.64558 0
M  V30 2907 H 283.396 3.23677 -2.96867 0
M  V30 2908 H 284.002 1.81373 -3.84687 0
M  V30 2909 N 282.317 1.53212 0.369288 0
M  V30 2910 C 283.564 1.69215 1.11232 0
M  V30 2911 C 283.892 0.442048 1.8941 0
M  V30 2912 O 283.147 -0.575944 1.87033 0
M  V30 2913 C 283.446 2.89101 2.10132 0
M  V30 2914 C 283.112 4.25758 1.48463 0
M  V30 2915 C 281.774 4.6292 1.31372 0
M  V30 2916 C 284.126 5.10757 1.03811 0
M  V30 2917 C 281.454 5.82722 0.68207 0
M  V30 2918 C 283.806 6.31201 0.420487 0
M  V30 2919 C 282.47 6.67079 0.237038 0
M  V30 2920 H 281.74 0.619201 0.407027 0
M  V30 2921 H 284.387 1.87391 0.394552 0
M  V30 2922 H 282.692 2.65421 2.88199 0
M  V30 2923 H 284.389 2.98676 2.6757 0
M  V30 2924 H 280.979 3.96494 1.62758 0
M  V30 2925 H 285.163 4.82599 1.1581 0
M  V30 2926 H 280.419 6.09113 0.528316 0
M  V30 2927 H 284.593 6.96368 0.0662874 0
M  V30 2928 H 282.22 7.59774 -0.254477 0
M  V30 2929 N 283.795 -0.628877 1.44509 0
M  V30 2930 C 285.211 -0.947305 1.28446 0
M  V30 2931 C 285.411 -2.00275 0.221872 0
M  V30 2932 O 284.467 -2.49447 -0.391471 0
M  V30 2933 C 285.78 -1.40843 2.65676 0
M  V30 2934 C 287.328 -1.52379 2.73404 0
M  V30 2935 C 287.803 -2.01875 4.11109 0
M  V30 2936 N 289.294 -2.09142 4.13296 0
M  V30 2937 C 290.029 -2.48615 5.16699 0
M  V30 2938 N 289.525 -2.87209 6.30462 0
M  V30 2939 N 291.318 -2.48768 5.04054 0
M  V30 2940 H 283.469 0.0690977 2.12288 0
M  V30 2941 H 285.732 -0.0317164 0.947469 0
M  V30 2942 H 285.438 -0.707206 3.44516 0
M  V30 2943 H 285.312 -2.37902 2.92716 0
M  V30 2944 H 287.699 -2.21598 1.9488 0
M  V30 2945 H 287.78 -0.536898 2.50102 0
M  V30 2946 H 287.424 -1.3325 4.90109 0
M  V30 2947 H 287.354 -3.0144 4.31789 0
M  V30 2948 H 289.845 -1.81991 3.31191 0
M  V30 2949 H 290.158 -3.16149 7.05174 0
M  V30 2950 H 288.503 -2.84955 6.33897 0
M  V30 2951 H 291.694 -2.18009 4.14234 0
M  V30 2952 H 291.867 -2.79207 5.84763 0
M  V30 2953 N 285.273 -1.31445 -0.869486 0
M  V30 2954 C 286.236 -1.19094 -1.9583 0
M  V30 2955 C 287.236 -0.117906 -1.60367 0
M  V30 2956 O 288.426 -0.367208 -1.70286 0
M  V30 2957 C 285.558 -0.828165 -3.30688 0
M  V30 2958 H 286.751 -2.15842 -2.08212 0
M  V30 2959 H 284.304 -1.15063 -1.05784 0
M  V30 2960 H 285.039 0.138142 -3.24006 0
M  V30 2961 H 284.824 -1.6038 -3.578 0
M  V30 2962 H 286.314 -0.765658 -4.10521 0
M  V30 2963 N 286.751 1.08385 -1.14413 0
M  V30 2964 C 287.979 1.84517 -0.936001 0
M  V30 2965 C 288.394 1.81626 0.515503 0
M  V30 2966 O 287.751 1.22008 1.35721 0
M  V30 2967 C 287.802 3.32049 -1.42918 0
M  V30 2968 O 287.523 3.34951 -2.82381 0
M  V30 2969 C 289.024 4.24986 -1.26103 0
M  V30 2970 H 286.244 0.582491 -0.333084 0
M  V30 2971 H 288.788 1.36885 -1.5193 0
M  V30 2972 H 286.943 3.7707 -0.888641 0
M  V30 2973 H 287.357 4.27048 -3.04517 0
M  V30 2974 H 288.831 5.26615 -1.6547 0
M  V30 2975 H 289.308 4.38726 -0.20392 0
M  V30 2976 H 289.914 3.85791 -1.79012 0
M  V30 2977 N 288.23 0.939286 1.26551 0
M  V30 2978 C 289.641 0.628782 1.75793 0
M  V30 2979 C 289.992 -0.856046 1.7654 0
M  V30 2980 O 289.117 -1.66994 1.3763 0
M  V30 2981 C 289.712 1.13465 3.19235 0
M  V30 2982 C 288.271 0.874601 3.66098 0
M  V30 2983 C 287.418 1.28667 2.45642 0
M  V30 2984 H 290.369 1.1178 1.12654 0
M  V30 2985 H 290.39 0.487609 3.77363 0
M  V30 2986 H 289.902 2.21535 3.1866 0
M  V30 2987 H 288.003 -0.191793 3.72106 0
M  V30 2988 H 288.116 1.50028 4.55004 0
M  V30 2989 H 286.48 0.705109 2.44745 0
M  V30 2990 H 287.263 2.37625 2.47769 0
M  V30 2991 N 289.708 -1.40897 0.706093 0
M  V30 2992 C 290.936 -2.05373 0.250887 0
M  V30 2993 C 291.351 -1.53172 -1.10381 0
M  V30 2994 O 290.708 -0.684305 -1.69185 0
M  V30 2995 C 290.759 -3.6088 0.211571 0
M  V30 2996 O 290.48 -4.11153 1.51276 0
M  V30 2997 C 291.981 -4.42517 -0.263346 0
M  V30 2998 H 289.201 -0.66115 0.114552 0
M  V30 2999 H 291.745 -1.80479 0.961635 0
M  V30 3000 H 289.9 -3.84777 -0.450073 0
M  V30 3001 H 290.314 -5.05279 1.40689 0
M  V30 3002 H 291.788 -5.51479 -0.239718 0
M  V30 3003 H 292.265 -4.19396 -1.30397 0
M  V30 3004 H 292.871 -4.23708 0.367677 0
M  V30 3005 N 291.186 -0.45159 -1.50991 0
M  V30 3006 C 292.411 0.110667 -2.07105 0
M  V30 3007 C 292.836 1.3446 -1.31538 0
M  V30 3008 O 292.194 1.77743 -0.357365 0
M  V30 3009 C 292.242 0.397238 -3.58405 0
M  V30 3010 O 291.346 1.48124 -3.84881 0
M  V30 3011 H 290.687 -0.00439271 -0.663985 0
M  V30 3012 H 293.217 -0.637026 -1.9443 0
M  V30 3013 H 293.227 0.64351 -4.02893 0
M  V30 3014 H 291.902 -0.504553 -4.12828 0
M  V30 3015 H 290.479 1.22381 -3.52246 0
M  V30 3016 N 292.664 1.56529 -0.183458 0
M  V30 3017 C 293.892 2.01623 0.464285 0
M  V30 3018 C 294.307 1.06366 1.55986 0
M  V30 3019 O 293.664 0.0665398 1.82379 0
M  V30 3020 C 293.715 3.46475 1.03139 0
M  V30 3021 O 293.436 4.38095 -0.0204675 0
M  V30 3022 C 294.937 4.0703 1.75617 0
M  V30 3023 H 292.157 0.660596 0.117704 0
M  V30 3024 H 294.701 2.02451 -0.288751 0
M  V30 3025 H 292.856 3.46383 1.73486 0
M  V30 3026 H 293.27 5.22973 0.399952 0
M  V30 3027 H 294.744 5.10271 2.10542 0
M  V30 3028 H 295.221 3.49819 2.65563 0
M  V30 3029 H 295.827 4.1086 1.09882 0
M  V30 3030 N 294.142 -0.090211 1.57342 0
M  V30 3031 C 295.105 -1.09335 2.01441 0
M  V30 3032 C 296.105 -1.32666 0.908641 0
M  V30 3033 O 297.295 -1.28697 1.174 0
M  V30 3034 C 294.427 -2.44136 2.3793 0
M  V30 3035 H 295.62 -0.713662 2.91285 0
M  V30 3036 H 293.173 -0.335404 1.52659 0
M  V30 3037 H 293.908 -2.86972 1.51055 0
M  V30 3038 H 293.693 -2.28548 3.18603 0
M  V30 3039 H 295.183 -3.16277 2.72688 0
M  V30 3040 N 295.62 -1.53406 -0.361157 0
M  V30 3041 C 296.567 -1.80156 -1.44265 0
M  V30 3042 C 297.537 -0.646183 -1.53015 0
M  V30 3043 O 298.722 -0.888818 -1.68833 0
M  V30 3044 C 295.862 -2.00116 -2.81154 0
M  V30 3045 C 294.975 -3.27833 -2.81335 0
M  V30 3046 C 294.11 -3.37957 -4.09828 0
M  V30 3047 C 293.149 -4.59689 -4.04168 0
M  V30 3048 N 292.286 -4.66942 -5.24318 0
M  V30 3049 H 297.126 -2.72438 -1.20754 0
M  V30 3050 H 294.663 -1.34954 -0.585296 0
M  V30 3051 H 296.621 -2.09677 -3.60682 0
M  V30 3052 H 295.251 -1.11167 -3.03054 0
M  V30 3053 H 294.303 -3.27204 -1.94014 0
M  V30 3054 H 295.615 -4.17442 -2.73027 0
M  V30 3055 H 294.769 -3.46853 -4.97773 0
M  V30 3056 H 293.508 -2.46372 -4.20894 0
M  V30 3057 H 292.513 -4.50889 -3.14609 0
M  V30 3058 H 293.738 -5.5262 -3.947 0
M  V30 3059 H 291.684 -3.7826 -5.35962 0
M  V30 3060 H 291.601 -5.50462 -5.18197 0
M  V30 3061 H 292.869 -4.80127 -6.14084 0
M  V30 3062 N 297.098 0.621204 -1.44841 0
M  V30 3063 C 298.03 1.74615 -1.48466 0
M  V30 3064 C 299.043 1.58377 -0.37691 0
M  V30 3065 O 300.232 1.66508 -0.643215 0
M  V30 3066 C 297.332 3.12459 -1.31236 0
M  V30 3067 C 296.505 3.55064 -2.55438 0
M  V30 3068 C 295.564 4.71821 -2.32963 0
M  V30 3069 O 294.59 4.79628 -3.06505 0
M  V30 3070 N 295.792 5.64186 -1.36654 0
M  V30 3071 H 298.557 1.71973 -2.45449 0
M  V30 3072 H 296.118 0.806077 -1.40407 0
M  V30 3073 H 298.11 3.88302 -1.14032 0
M  V30 3074 H 296.68 3.09686 -0.4258 0
M  V30 3075 H 295.9 2.69324 -2.87851 0
M  V30 3076 H 297.188 3.80284 -3.38026 0
M  V30 3077 H 296.586 5.6058 -0.759344 0
M  V30 3078 H 295.143 6.39618 -1.25425 0
M  V30 3079 N 298.576 1.31904 0.862503 0
M  V30 3080 C 299.523 1.20182 1.9704 0
M  V30 3081 C 300.493 0.0858247 1.65878 0
M  V30 3082 O 301.678 0.26 1.8902 0
M  V30 3083 C 298.818 0.922797 3.32533 0
M  V30 3084 C 297.931 2.12284 3.76244 0
M  V30 3085 C 297.066 1.77996 5.00491 0
M  V30 3086 C 296.105 2.94366 5.36671 0
M  V30 3087 N 295.242 2.60223 6.52095 0
M  V30 3088 H 300.082 2.14951 2.06398 0
M  V30 3089 H 297.619 1.06917 1.01031 0
M  V30 3090 H 299.577 0.741548 4.10557 0
M  V30 3091 H 298.207 0.0119227 3.22798 0
M  V30 3092 H 297.259 2.41461 2.9394 0
M  V30 3093 H 298.571 2.99357 3.98982 0
M  V30 3094 H 297.725 1.56377 5.862 0
M  V30 3095 H 296.464 0.881252 4.79672 0
M  V30 3096 H 295.469 3.16625 4.49476 0
M  V30 3097 H 296.694 3.84957 5.59451 0
M  V30 3098 H 294.64 1.72884 6.32809 0
M  V30 3099 H 294.557 3.40827 6.74814 0
M  V30 3100 H 295.825 2.42016 7.40978 0
M  V30 3101 N 300.054 -1.07777 1.14986 0
M  V30 3102 C 300.986 -2.14769 0.800436 0
M  V30 3103 C 301.999 -1.61739 -0.185595 0
M  V30 3104 O 303.188 -1.78462 0.0370358 0
M  V30 3105 C 300.288 -3.38481 0.168533 0
M  V30 3106 C 299.461 -4.20876 1.1909 0
M  V30 3107 C 298.52 -5.22976 0.581575 0
M  V30 3108 O 297.546 -5.55388 1.24633 0
M  V30 3109 N 298.748 -5.76976 -0.638706 0
M  V30 3110 H 301.513 -2.45348 1.72118 0
M  V30 3111 H 299.074 -1.23645 1.04515 0
M  V30 3112 H 301.066 -4.03916 -0.251764 0
M  V30 3113 H 299.636 -3.05651 -0.655467 0
M  V30 3114 H 298.856 -3.51322 1.78791 0
M  V30 3115 H 300.144 -4.7274 1.88133 0
M  V30 3116 H 299.542 -5.52886 -1.19723 0
M  V30 3117 H 298.099 -6.44061 -1.00142 0
M  V30 3118 N 301.532 -0.945985 -1.26051 0
M  V30 3119 C 302.479 -0.45809 -2.26208 0
M  V30 3120 C 303.449 0.484816 -1.58867 0
M  V30 3121 O 304.634 0.399969 -1.86561 0
M  V30 3122 C 301.774 0.266131 -3.44072 0
M  V30 3123 C 300.887 -0.713005 -4.26075 0
M  V30 3124 C 300.022 0.0329013 -5.3119 0
M  V30 3125 C 299.061 -0.93774 -6.04874 0
M  V30 3126 N 298.198 -0.223274 -7.01745 0
M  V30 3127 H 303.038 -1.3171 -2.67313 0
M  V30 3128 H 300.575 -0.66069 -1.31428 0
M  V30 3129 H 302.533 0.702514 -4.11243 0
M  V30 3130 H 301.163 1.08925 -3.03867 0
M  V30 3131 H 300.215 -1.26789 -3.58648 0
M  V30 3132 H 301.527 -1.45406 -4.77136 0
M  V30 3133 H 300.681 0.528335 -6.04395 0
M  V30 3134 H 299.42 0.806801 -4.8098 0
M  V30 3135 H 298.425 -1.44425 -5.30492 0
M  V30 3136 H 299.65 -1.71172 -6.57173 0
M  V30 3137 H 297.596 0.532046 -6.53839 0
M  V30 3138 H 297.513 -0.90357 -7.50581 0
M  V30 3139 H 298.781 0.250907 -7.79096 0
M  V30 3140 N 303.011 1.40521 -0.713556 0
M  V30 3141 C 304.257 2.01221 -0.252564 0
M  V30 3142 C 304.59 1.56444 1.1506 0
M  V30 3143 O 303.865 0.783597 1.78017 0
M  V30 3144 C 304.148 3.58582 -0.330332 0
M  V30 3145 C 304.001 4.13437 -1.77173 0
M  V30 3146 C 305.32 4.39079 0.299641 0
M  V30 3147 H 302.439 0.731077 -0.0932471 0
M  V30 3148 H 305.081 1.67026 -0.905673 0
M  V30 3149 H 303.231 3.87844 0.225737 0
M  V30 3150 H 304.903 3.9498 -2.38303 0
M  V30 3151 H 303.146 3.67801 -2.3001 0
M  V30 3152 H 303.817 5.22597 -1.77755 0
M  V30 3153 H 306.293 4.15735 -0.174139 0
M  V30 3154 H 305.169 5.4848 0.214771 0
M  V30 3155 H 305.43 4.19915 1.38288 0
M  V30 3156 N 304.489 0.459591 1.5075 0
M  V30 3157 C 305.717 -0.0973749 2.06671 0
M  V30 3158 C 306.132 -1.34524 1.32472 0
M  V30 3159 O 305.489 -1.7827 0.390634 0
M  V30 3160 C 305.54 -0.39714 3.59312 0
M  V30 3161 O 305.261 0.801214 4.30711 0
M  V30 3162 C 306.762 -1.00234 4.31819 0
M  V30 3163 H 303.982 0.00195854 0.670997 0
M  V30 3164 H 306.526 0.645072 1.94059 0
M  V30 3165 H 304.681 -1.08951 3.71764 0
M  V30 3166 H 305.095 0.538857 5.21725 0
M  V30 3167 H 306.569 -1.16193 5.39632 0
M  V30 3168 H 307.046 -1.98939 3.91561 0
M  V30 3169 H 307.652 -0.348699 4.23868 0
M  V30 3170 N 305.967 -1.56429 0.191757 0
M  V30 3171 C 306.877 -2.22541 -0.742481 0
M  V30 3172 C 307.893 -1.22342 -1.23727 0
M  V30 3173 O 309.069 -1.55069 -1.28513 0
M  V30 3174 C 306.134 -2.8692 -1.94623 0
M  V30 3175 C 305.195 -4.02378 -1.49633 0
M  V30 3176 C 304.428 -4.63678 -2.6427 0
M  V30 3177 O 304.651 -4.23895 -3.81666 0
M  V30 3178 O 303.585 -5.53202 -2.37174 0
M  V30 3179 H 307.411 -3.02977 -0.209462 0
M  V30 3180 H 304.996 -1.49353 -0.0373832 0
M  V30 3181 H 306.878 -3.27663 -2.64982 0
M  V30 3182 H 305.553 -2.09466 -2.46791 0
M  V30 3183 H 304.46 -3.66265 -0.761636 0
M  V30 3184 H 305.793 -4.81487 -1.02134 0
M  V30 3185 N 307.445 0.0818655 -1.57387 0
M  V30 3186 C 308.395 1.10501 -1.99433 0
M  V30 3187 C 309.379 1.35041 -0.874798 0
M  V30 3188 O 310.571 1.35511 -1.13868 0
M  V30 3189 C 307.7 2.42159 -2.43339 0
M  V30 3190 C 306.786 2.20937 -3.62005 0
M  V30 3191 N 307.177 1.69616 -4.76512 0
M  V30 3192 C 305.475 2.51451 -3.68359 0
M  V30 3193 C 306.176 1.62973 -5.58404 0
M  V30 3194 N 305.152 2.08664 -5.01956 0
M  V30 3195 H 308.954 0.701373 -2.85408 0
M  V30 3196 H 306.468 0.289096 -1.59806 0
M  V30 3197 H 308.465 3.16208 -2.71695 0
M  V30 3198 H 307.125 2.83249 -1.58746 0
M  V30 3199 H 308.136 1.38624 -4.99003 0
M  V30 3200 H 304.813 2.95975 -2.94457 0
M  V30 3201 H 306.203 1.24233 -6.60315 0
M  V30 3202 N 308.923 1.53595 0.353017 0
M  V30 3203 C 310.172 1.69603 1.09168 0
M  V30 3204 C 310.485 0.460925 1.90092 0
M  V30 3205 O 311.691 0.501774 2.66823 0
M  V30 3206 C 310.147 2.99872 1.9901 0
M  V30 3207 C 309.755 4.30687 1.23339 0
M  V30 3208 C 311.499 3.25246 2.72792 0
M  V30 3209 C 309.406 5.52036 2.12156 0
M  V30 3210 H 308.336 0.631966 0.411261 0
M  V30 3211 H 310.987 1.80096 0.351802 0
M  V30 3212 H 309.369 2.83212 2.7678 0
M  V30 3213 H 310.543 4.58019 0.505456 0
M  V30 3214 H 308.858 4.11853 0.613663 0
M  V30 3215 H 311.455 4.13095 3.39495 0
M  V30 3216 H 311.798 2.41846 3.38846 0
M  V30 3217 H 312.331 3.42638 2.021 0
M  V30 3218 H 309.07 6.37951 1.50659 0
M  V30 3219 H 308.59 5.28966 2.82764 0
M  V30 3220 H 310.269 5.87313 2.71427 0
M  V30 3221 N 310.401 -0.613514 1.45168 0
M  V30 3222 C 311.812 -1.19539 1.43413 0
M  V30 3223 C 312.163 -1.95558 0.158632 0
M  V30 3224 O 311.288 -2.0335 -0.740119 0
M  V30 3225 C 311.883 -2.17445 2.59813 0
M  V30 3226 C 310.442 -2.71022 2.61197 0
M  V30 3227 C 309.589 -1.46323 2.35552 0
M  V30 3228 H 312.54 -0.403163 1.53494 0
M  V30 3229 H 312.561 -3.00373 2.33574 0
M  V30 3230 H 312.073 -1.62089 3.52631 0
M  V30 3231 H 310.174 -3.30332 1.7237 0
M  V30 3232 H 310.287 -3.15859 3.60236 0
M  V30 3233 H 308.651 -1.75072 1.84992 0
M  V30 3234 H 309.434 -0.92844 3.30507 0
M  V30 3235 N 311.879 -1.3236 -0.855495 0
M  V30 3236 C 313.29 -1.2056 -1.42556 0
M  V30 3237 C 313.641 0.182209 -1.95352 0
M  V30 3238 O 312.766 1.08088 -1.87472 0
M  V30 3239 C 313.361 -2.1826 -2.59129 0
M  V30 3240 C 311.92 -2.10351 -3.12137 0
M  V30 3241 C 311.067 -2.06674 -1.84882 0
M  V30 3242 H 314.018 -1.442 -0.662727 0
M  V30 3243 H 314.039 -1.78064 -3.36264 0
M  V30 3244 H 313.551 -3.19257 -2.20673 0
M  V30 3245 H 311.652 -1.12599 -3.55179 0
M  V30 3246 H 311.765 -3.00135 -3.73438 0
M  V30 3247 H 310.129 -1.51901 -2.04446 0
M  V30 3248 H 310.912 -3.09451 -1.48643 0
M  V30 3249 N 313.357 1.07166 -1.15556 0
M  V30 3250 C 314.587 1.83248 -0.954133 0
M  V30 3251 C 314.995 1.82449 0.500911 0
M  V30 3252 O 314.338 1.23575 1.35923 0
M  V30 3253 C 314.4 3.31393 -1.39351 0
M  V30 3254 C 314.064 3.5591 -2.86666 0
M  V30 3255 C 315.061 3.49695 -3.8472 0
M  V30 3256 C 312.746 3.83515 -3.24379 0
M  V30 3257 C 314.74 3.70737 -5.18491 0
M  V30 3258 C 312.427 4.04209 -4.58321 0
M  V30 3259 C 313.425 3.97815 -5.55186 0
M  V30 3260 O 313.113 4.17954 -6.86709 0
M  V30 3261 H 312.845 0.584941 -0.338851 0
M  V30 3262 H 315.399 1.36169 -1.53777 0
M  V30 3263 H 313.629 3.79292 -0.75329 0
M  V30 3264 H 315.318 3.88945 -1.16089 0
M  V30 3265 H 316.084 3.28368 -3.56931 0
M  V30 3266 H 311.963 3.87605 -2.49567 0
M  V30 3267 H 315.507 3.65663 -5.94085 0
M  V30 3268 H 311.404 4.25023 -4.85825 0
M  V30 3269 H 312.172 4.35291 -6.93155 0
M  V30 3270 N 314.835 0.952656 1.25548 0
M  V30 3271 C 316.112 0.523818 1.88456 0
M  V30 3272 C 316.492 -0.998871 1.85973 0
M  V30 3273 O 315.84 -1.86381 1.3219 0
M  V30 3274 C 316.05 1.0982 3.31271 0
M  V30 3275 C 317.398 1.17385 4.08051 0
M  V30 3276 O 318.422 1.04961 3.40384 0
M  V30 3277 O 317.281 1.36852 5.29088 0
M  V30 3278 H 314.375 0.172485 0.808813 0
M  V30 3279 H 316.921 1.04596 1.33633 0
M  V30 3280 H 315.693 2.1415 3.27499 0
M  V30 3281 H 315.316 0.559191 3.93648 0
M  V30 3282 N 316.313 -1.40141 0.720998 0
M  V30 3283 C 317.559 -2.01084 0.263231 0
M  V30 3284 C 317.892 -1.57052 -1.14229 0
M  V30 3285 O 317.167 -0.793027 -1.77599 0
M  V30 3286 C 317.45 -3.58401 0.349344 0
M  V30 3287 C 317.303 -4.12491 1.79363 0
M  V30 3288 C 318.622 -4.39231 -0.276351 0
M  V30 3289 H 315.741 -0.730572 0.0971228 0
M  V30 3290 H 318.383 -1.66543 0.914518 0
M  V30 3291 H 316.533 -3.87958 -0.205165 0
M  V30 3292 H 318.205 -3.93711 2.40394 0
M  V30 3293 H 316.448 -3.66576 2.31958 0
M  V30 3294 H 317.119 -5.21646 1.80524 0
M  V30 3295 H 319.595 -4.15637 0.196184 0
M  V30 3296 H 318.471 -5.48586 -0.185681 0
M  V30 3297 H 318.732 -4.20643 -1.36059 0
M  V30 3298 N 317.792 -0.46758 -1.50504 0
M  V30 3299 C 319.038 0.0887532 -2.02606 0
M  V30 3300 C 319.371 1.39686 -1.34913 0
M  V30 3301 O 318.646 1.88644 -0.473694 0
M  V30 3302 C 318.929 0.276206 -3.59039 0
M  V30 3303 C 318.782 -1.05267 -4.37309 0
M  V30 3304 C 320.101 1.03235 -4.27821 0
M  V30 3305 H 317.22 0.0307814 -0.736357 0
M  V30 3306 H 319.862 -0.612485 -1.79857 0
M  V30 3307 H 318.012 0.8735 -3.78553 0
M  V30 3308 H 319.684 -1.68628 -4.29374 0
M  V30 3309 H 317.927 -1.65015 -4.01189 0
M  V30 3310 H 318.598 -0.875197 -5.45018 0
M  V30 3311 H 321.074 0.526111 -4.12761 0
M  V30 3312 H 319.95 1.1323 -5.37094 0
M  V30 3313 H 320.211 2.06806 -3.90748 0
M  V30 3314 N 319.27 1.56325 -0.20005 0
M  V30 3315 C 320.681 1.8408 0.31167 0
M  V30 3316 C 321.032 1.12087 1.61031 0
M  V30 3317 O 320.157 0.38332 2.12978 0
M  V30 3318 C 320.752 3.33932 0.57226 0
M  V30 3319 C 319.311 3.6208 1.02834 0
M  V30 3320 C 318.458 2.77186 0.079634 0
M  V30 3321 H 321.409 1.52939 -0.423729 0
M  V30 3322 H 321.43 3.52971 1.42096 0
M  V30 3323 H 320.942 3.86303 -0.37308 0
M  V30 3324 H 319.043 3.15147 1.98778 0
M  V30 3325 H 319.156 4.7023 0.917624 0
M  V30 3326 H 317.52 2.47951 0.582448 0
M  V30 3327 H 318.303 3.32347 -0.860238 0
M  V30 3328 N 320.748 -0.0735177 1.57428 0
M  V30 3329 C 321.973 -0.789787 1.91774 0
M  V30 3330 C 322.398 -1.70413 0.796306 0
M  V30 3331 O 321.756 -1.79555 -0.250961 0
M  V30 3332 C 321.804 -1.5609 3.25067 0
M  V30 3333 O 320.908 -2.67144 3.14178 0
M  V30 3334 H 320.249 -0.215582 0.628029 0
M  V30 3335 H 322.779 -0.0422781 2.04556 0
M  V30 3336 H 322.789 -1.94052 3.58898 0
M  V30 3337 H 321.464 -0.890015 4.06265 0
M  V30 3338 H 320.041 -2.32052 2.91901 0
M  V30 3339 N 322.226 -1.5378 -0.344866 0
M  V30 3340 C 323.159 -1.7649 -1.4466 0
M  V30 3341 C 324.137 -0.613954 -1.50563 0
M  V30 3342 O 325.321 -0.84896 -1.683 0
M  V30 3343 C 322.448 -1.86235 -2.82903 0
M  V30 3344 C 321.494 -3.08375 -2.94631 0
M  V30 3345 S 322.327 -4.67457 -2.61236 0
M  V30 3346 C 323.483 -4.80079 -4.0159 0
M  V30 3347 H 323.716 -2.69661 -1.2518 0
M  V30 3348 H 321.249 -1.44632 -0.540455 0
M  V30 3349 H 323.207 -1.92535 -3.62547 0
M  V30 3350 H 321.868 -0.940786 -2.9968 0
M  V30 3351 H 321.061 -3.11865 -3.95925 0
M  V30 3352 H 320.663 -3.00294 -2.22934 0
M  V30 3353 H 322.955 -4.61407 -4.96094 0
M  V30 3354 H 323.898 -5.82168 -4.03095 0
M  V30 3355 H 324.306 -4.08544 -3.89554 0
M  V30 3356 N 323.704 0.605807 -1.45491 0
M  V30 3357 C 325.12 0.926751 -1.29936 0
M  V30 3358 C 325.32 1.99896 -0.253706 0
M  V30 3359 O 324.376 2.50038 0.351737 0
M  V30 3360 C 325.689 1.36599 -2.67883 0
M  V30 3361 C 327.237 1.4801 -2.75793 0
M  V30 3362 C 327.712 1.95309 -4.14268 0
M  V30 3363 N 329.203 2.0254 -4.16571 0
M  V30 3364 C 329.938 2.40363 -5.20589 0
M  V30 3365 N 329.434 2.77143 -6.34952 0
M  V30 3366 N 331.227 2.40718 -5.07948 0
M  V30 3367 H 323.378 -0.102862 -2.12151 0
M  V30 3368 H 325.641 0.016639 -0.947854 0
M  V30 3369 H 325.347 0.652306 -3.45598 0
M  V30 3370 H 325.221 2.33215 -2.96463 0
M  V30 3371 H 327.608 2.1847 -1.98381 0
M  V30 3372 H 327.689 0.497041 -2.50925 0
M  V30 3373 H 327.333 1.25436 -4.92167 0
M  V30 3374 H 327.263 2.94532 -4.3653 0
M  V30 3375 H 329.754 1.76699 -3.34045 0
M  V30 3376 H 330.067 3.0489 -7.10114 0
M  V30 3377 H 328.412 2.74834 -6.3835 0
M  V30 3378 H 331.603 2.11392 -4.1765 0
M  V30 3379 H 331.776 2.69869 -5.89131 0
M  V30 3380 N 325.182 1.32811 0.848464 0
M  V30 3381 C 326.593 1.21315 1.41914 0
M  V30 3382 C 326.944 -0.171847 1.95446 0
M  V30 3383 O 326.069 -1.07093 1.88043 0
M  V30 3384 C 326.664 2.19631 2.57968 0
M  V30 3385 C 325.223 2.12003 3.11017 0
M  V30 3386 C 324.37 2.07651 1.83783 0
M  V30 3387 H 327.321 1.44549 0.655071 0
M  V30 3388 H 327.342 1.79845 3.35315 0
M  V30 3389 H 326.854 3.20423 2.18976 0
M  V30 3390 H 324.955 1.14481 3.54577 0
M  V30 3391 H 325.068 3.02111 3.71841 0
M  V30 3392 H 323.432 1.52983 2.03638 0
M  V30 3393 H 324.215 3.10235 1.47 0
M  V30 3394 N 326.66 -1.06551 1.16123 0
M  V30 3395 C 327.906 -1.79567 0.94252 0
M  V30 3396 C 328.239 -1.86869 -0.528547 0
M  V30 3397 O 327.514 -1.35838 -1.39206 0
M  V30 3398 C 327.797 -3.24195 1.56747 0
M  V30 3399 C 327.65 -3.24989 3.10969 0
M  V30 3400 C 328.969 -4.21678 1.25998 0
M  V30 3401 H 326.088 -0.651883 0.343828 0
M  V30 3402 H 328.73 -1.2463 1.43413 0
M  V30 3403 H 326.88 -3.71107 1.14942 0
M  V30 3404 H 328.552 -2.86258 3.61737 0
M  V30 3405 H 326.795 -2.63716 3.44436 0
M  V30 3406 H 327.466 -4.27005 3.49815 0
M  V30 3407 H 329.942 -3.83196 1.62174 0
M  V30 3408 H 328.818 -5.21146 1.7233 0
M  V30 3409 H 329.079 -4.4174 0.178367 0
M  V30 3410 N 328.138 -0.959301 -1.25041 0
M  V30 3411 C 329.384 -0.617525 -1.9317 0
M  V30 3412 C 329.717 0.843981 -1.74902 0
M  V30 3413 O 328.992 1.60615 -1.09696 0
M  V30 3414 C 329.275 -0.982736 -3.46431 0
M  V30 3415 C 329.128 -2.50032 -3.73904 0
M  V30 3416 C 330.447 -0.511176 -4.37121 0
M  V30 3417 H 327.566 -0.22582 -0.701552 0
M  V30 3418 H 330.208 -1.19679 -1.4757 0
M  V30 3419 H 328.358 -0.489806 -3.854 0
M  V30 3420 H 330.03 -3.06737 -3.44544 0
M  V30 3421 H 328.273 -2.93598 -3.19348 0
M  V30 3422 H 328.944 -2.70635 -4.81103 0
M  V30 3423 H 331.42 -0.934075 -4.0548 0
M  V30 3424 H 330.296 -0.795361 -5.43107 0
M  V30 3425 H 330.557 0.588834 -4.38161 0
M  V30 3426 N 329.616 1.39756 -0.72842 0
M  V30 3427 C 330.546 2.33289 -0.0991354 0
M  V30 3428 C 331.527 1.53568 0.731489 0
M  V30 3429 O 332.712 1.81987 0.677807 0
M  V30 3430 C 329.842 3.3763 0.813834 0
M  V30 3431 C 328.796 4.2791 0.0878663 0
M  V30 3432 C 328.122 5.22894 1.11741 0
M  V30 3433 C 329.422 5.11314 -1.06563 0
M  V30 3434 H 331.116 2.86163 -0.880408 0
M  V30 3435 H 328.662 1.37591 -0.424819 0
M  V30 3436 H 330.615 4.0201 1.26355 0
M  V30 3437 H 329.339 2.83181 1.62715 0
M  V30 3438 H 327.998 3.65 -0.342159 0
M  V30 3439 H 327.646 4.64744 1.92412 0
M  V30 3440 H 327.346 5.84143 0.636477 0
M  V30 3441 H 328.87 5.90151 1.56697 0
M  V30 3442 H 330.284 5.69076 -0.694671 0
M  V30 3443 H 328.681 5.81671 -1.47577 0
M  V30 3444 H 329.751 4.46534 -1.89038 0
M  V30 3445 N 331.094 0.475555 1.50254 0
M  V30 3446 C 332.34 -0.0780073 2.0265 0
M  V30 3447 C 332.673 -1.38968 1.35652 0
M  V30 3448 O 331.948 -1.8839 0.483691 0
M  V30 3449 C 332.231 -0.257161 3.59181 0
M  V30 3450 C 332.084 1.07585 4.36744 0
M  V30 3451 C 333.403 -1.00965 4.28362 0
M  V30 3452 H 330.522 -0.0268758 0.73651 0
M  V30 3453 H 333.164 0.622015 1.7953 0
M  V30 3454 H 331.314 -0.853412 3.79011 0
M  V30 3455 H 332.986 1.70902 4.28474 0
M  V30 3456 H 331.229 1.6714 4.00308 0
M  V30 3457 H 331.9 0.904088 5.44546 0
M  V30 3458 H 334.376 -0.504214 4.13034 0
M  V30 3459 H 333.252 -1.10381 5.37687 0
M  V30 3460 H 333.513 -2.04731 3.91839 0
M  V30 3461 N 332.573 -1.56217 0.208337 0
M  V30 3462 C 333.821 -1.97558 -0.426076 0
M  V30 3463 C 334.142 -1.09683 -1.61229 0
M  V30 3464 O 333.412 -0.170956 -1.95153 0
M  V30 3465 H 331.992 -0.729575 -0.160405 0
M  V30 3466 H 334.654 -1.92606 0.298155 0
M  V30 3467 H 333.75 -3.02672 -0.761312 0
M  V30 3468 N 334.051 0.0651679 -1.57465 0
M  V30 3469 C 335.462 0.616213 -1.76238 0
M  V30 3470 C 335.813 1.7756 -0.834689 0
M  V30 3471 O 334.938 2.1639 -0.0204156 0
M  V30 3472 C 335.533 1.12462 -3.1959 0
M  V30 3473 C 334.092 1.62147 -3.39684 0
M  V30 3474 C 333.239 0.543739 -2.71917 0
M  V30 3475 H 336.19 -0.161022 -1.57881 0
M  V30 3476 H 336.211 1.99324 -3.24114 0
M  V30 3477 H 335.723 0.280592 -3.87084 0
M  V30 3478 H 333.824 2.48854 -2.77313 0
M  V30 3479 H 333.937 1.69385 -4.48158 0
M  V30 3480 H 332.301 0.990352 -2.34657 0
M  V30 3481 H 333.084 -0.290216 -3.42071 0
M  V30 3482 N 335.529 1.53961 0.336706 0
M  V30 3483 C 336.754 1.75797 1.10046 0
M  V30 3484 C 337.179 0.498985 1.81361 0
M  V30 3485 O 336.537 -0.548769 1.72795 0
M  V30 3486 C 336.585 2.94257 2.08436 0
M  V30 3487 O 335.689 2.64883 3.16087 0
M  V30 3488 H 335.03 0.582936 0.317934 0
M  V30 3489 H 337.56 2.00945 0.38501 0
M  V30 3490 H 337.57 3.21237 2.51537 0
M  V30 3491 H 336.245 3.85564 1.55927 0
M  V30 3492 H 334.822 2.48812 2.77753 0
M  V30 3493 N 337.007 -0.598083 1.45811 0
M  V30 3494 C 337.937 -1.71873 1.58057 0
M  V30 3495 C 338.918 -1.64533 0.431615 0
M  V30 3496 O 340.103 -1.82787 0.65595 0
M  V30 3497 C 337.233 -3.10495 1.55597 0
M  V30 3498 C 336.187 -3.32654 2.69305 0
M  V30 3499 C 335.513 -4.71646 2.51902 0
M  V30 3500 C 336.813 -3.21981 4.11248 0
M  V30 3501 H 338.507 -1.61881 2.51863 0
M  V30 3502 H 336.053 -0.777372 1.21214 0
M  V30 3503 H 338.006 -3.88699 1.6276 0
M  V30 3504 H 336.73 -3.2135 0.583255 0
M  V30 3505 H 335.389 -2.56843 2.61586 0
M  V30 3506 H 335.037 -4.79246 1.52748 0
M  V30 3507 H 334.737 -4.87426 3.2816 0
M  V30 3508 H 336.261 -5.52038 2.60933 0
M  V30 3509 H 337.675 -3.90049 4.20161 0
M  V30 3510 H 336.072 -3.49289 4.87972 0
M  V30 3511 H 337.142 -2.1928 4.32486 0
M  V30 3512 N 338.485 -1.33259 -0.841409 0
M  V30 3513 C 339.432 -1.23302 -1.95103 0
M  V30 3514 C 340.402 -0.112204 -1.65721 0
M  V30 3515 O 341.587 -0.290038 -1.88583 0
M  V30 3516 C 338.727 -0.975583 -3.31023 0
M  V30 3517 C 337.84 -2.18243 -3.72819 0
M  V30 3518 C 336.975 -1.85936 -4.97595 0
M  V30 3519 C 336.014 -3.02866 -5.3192 0
M  V30 3520 N 335.151 -2.70565 -6.47873 0
M  V30 3521 H 339.991 -2.18207 -2.02952 0
M  V30 3522 H 337.528 -1.0851 -0.993173 0
M  V30 3523 H 339.486 -0.80677 -4.09325 0
M  V30 3524 H 338.116 -0.0632755 -3.22738 0
M  V30 3525 H 337.168 -2.46107 -2.90061 0
M  V30 3526 H 338.48 -3.05666 -3.94169 0
M  V30 3527 H 337.634 -1.65684 -5.83638 0
M  V30 3528 H 336.373 -0.957452 -4.78209 0
M  V30 3529 H 335.378 -3.23736 -4.44382 0
M  V30 3530 H 336.603 -3.93809 -5.53255 0
M  V30 3531 H 334.549 -1.8293 -6.29978 0
M  V30 3532 H 334.466 -3.51519 -6.69306 0
M  V30 3533 H 335.734 -2.53774 -7.37034 0
M  V30 3534 N 339.963 1.05934 -1.16686 0
M  V30 3535 C 341.211 1.78447 -0.948744 0
M  V30 3536 C 341.532 1.87813 0.524523 0
M  V30 3537 O 340.802 1.38945 1.38098 0
M  V30 3538 H 339.382 0.660971 -0.348033 0
M  V30 3539 H 342.044 1.27947 -1.47022 0
M  V30 3540 H 341.14 2.80394 -1.37061 0
M  V30 3541 N 341.441 0.965919 1.2453 0
M  V30 3542 C 342.671 0.643451 1.96324 0
M  V30 3543 C 343.079 -0.790927 1.71875 0
M  V30 3544 O 342.422 -1.54208 0.998273 0
M  V30 3545 C 342.484 0.836078 3.49643 0
M  V30 3546 C 342.148 2.24975 3.97788 0
M  V30 3547 C 343.145 3.22735 4.07601 0
M  V30 3548 C 340.83 2.57697 4.31158 0
M  V30 3549 C 342.824 4.51303 4.50116 0
M  V30 3550 C 340.511 3.86492 4.73357 0
M  V30 3551 C 341.509 4.83107 4.828 0
M  V30 3552 O 341.197 6.09605 5.24058 0
M  V30 3553 H 340.929 0.239223 0.632257 0
M  V30 3554 H 343.483 1.29587 1.59362 0
M  V30 3555 H 341.713 0.12649 3.86493 0
M  V30 3556 H 343.402 0.512965 4.02646 0
M  V30 3557 H 344.168 2.98783 3.82039 0
M  V30 3558 H 340.047 1.83216 4.23028 0
M  V30 3559 H 343.591 5.26716 4.57401 0
M  V30 3560 H 339.488 4.10245 4.98366 0
M  V30 3561 H 340.256 6.13146 5.42213 0
M  V30 3562 N 342.919 -1.39368 0.735821 0
M  V30 3563 C 343.829 -2.34395 0.0979693 0
M  V30 3564 C 344.845 -1.58361 -0.720968 0
M  V30 3565 O 346.021 -1.90648 -0.649245 0
M  V30 3566 C 343.086 -3.37393 -0.797916 0
M  V30 3567 C 342.147 -4.29287 0.0333662 0
M  V30 3568 C 341.38 -5.27365 -0.819854 0
M  V30 3569 O 341.603 -5.31959 -2.05855 0
M  V30 3570 O 340.537 -6.01389 -0.248079 0
M  V30 3571 H 344.363 -2.90601 0.882315 0
M  V30 3572 H 341.948 -1.40909 0.4965 0
M  V30 3573 H 343.83 -4.00505 -1.31048 0
M  V30 3574 H 342.505 -2.83571 -1.56106 0
M  V30 3575 H 341.412 -3.69395 0.591475 0
M  V30 3576 H 342.745 -4.86317 0.758752 0
M  V30 3577 N 344.397 -0.483516 -1.5 0
M  V30 3578 C 345.643 0.0672592 -2.02688 0
M  V30 3579 C 345.976 1.38247 -1.36387 0
M  V30 3580 O 345.251 1.88131 -0.493675 0
M  V30 3581 C 345.534 0.238109 -3.59312 0
M  V30 3582 C 345.387 -1.099 -4.36168 0
M  V30 3583 C 346.706 0.986916 -4.28892 0
M  V30 3584 H 343.825 0.0229696 -0.736642 0
M  V30 3585 H 346.467 -0.631527 -1.79197 0
M  V30 3586 H 344.617 0.8333 -3.79458 0
M  V30 3587 H 346.289 -1.73172 -4.27562 0
M  V30 3588 H 344.532 -1.69261 -3.99416 0
M  V30 3589 H 345.203 -0.932954 -5.44059 0
M  V30 3590 H 347.679 0.482302 -4.13295 0
M  V30 3591 H 346.555 1.07527 -5.38265 0
M  V30 3592 H 346.816 2.0265 -3.92919 0
M  V30 3593 N 345.875 1.56104 -0.216619 0
M  V30 3594 C 347.103 2.02563 0.421413 0
M  V30 3595 C 347.518 1.0965 1.53695 0
M  V30 3596 O 346.875 0.10521 1.82196 0
M  V30 3597 C 346.926 3.48584 0.957665 0
M  V30 3598 O 346.647 4.37953 -0.113389 0
M  V30 3599 C 348.148 4.10664 1.66943 0
M  V30 3600 H 345.368 0.662944 0.103665 0
M  V30 3601 H 347.912 2.01793 -0.331629 0
M  V30 3602 H 346.067 3.49985 1.661 0
M  V30 3603 H 346.481 5.23704 0.288932 0
M  V30 3604 H 347.955 5.14622 1.99671 0
M  V30 3605 H 348.432 3.55373 2.58083 0
M  V30 3606 H 349.038 4.13098 1.01142 0
M  V30 3607 N 347.353 -0.0568162 1.57498 0
M  V30 3608 C 348.63 -0.786954 1.79071 0
M  V30 3609 C 349.01 -1.95028 0.80792 0
M  V30 3610 O 348.358 -2.27968 -0.155858 0
M  V30 3611 C 348.568 -1.24594 3.26002 0
M  V30 3612 C 349.916 -1.67323 3.90241 0
M  V30 3613 O 350.94 -1.34124 3.29984 0
M  V30 3614 O 349.799 -2.28842 4.9628 0
M  V30 3615 H 346.893 -0.378262 0.735423 0
M  V30 3616 H 349.439 -0.035734 1.69662 0
M  V30 3617 H 348.211 -0.41423 3.89101 0
M  V30 3618 H 347.834 -2.05803 3.40192 0
M  V30 3619 N 348.832 -1.54138 -0.328536 0
M  V30 3620 C 349.765 -1.78014 -1.4278 0
M  V30 3621 C 350.743 -0.629889 -1.49904 0
M  V30 3622 O 351.927 -0.866763 -1.6739 0
M  V30 3623 C 349.054 -1.89225 -2.80912 0
M  V30 3624 C 348.1 -3.11483 -2.91343 0
M  V30 3625 S 348.933 -4.70201 -2.56263 0
M  V30 3626 C 350.089 -4.84312 -3.96476 0
M  V30 3627 H 350.322 -2.70974 -1.22313 0
M  V30 3628 H 347.855 -1.45197 -0.525084 0
M  V30 3629 H 349.813 -1.9637 -3.60485 0
M  V30 3630 H 348.474 -0.972518 -2.98665 0
M  V30 3631 H 347.667 -3.16046 -3.92595 0
M  V30 3632 H 347.269 -3.02642 -2.19736 0
M  V30 3633 H 349.561 -4.66643 -4.91173 0
M  V30 3634 H 350.504 -5.86411 -3.96898 0
M  V30 3635 H 350.912 -4.12652 -3.85199 0
M  V30 3636 N 350.31 0.590341 -1.46126 0
M  V30 3637 C 351.243 1.71434 -1.50617 0
M  V30 3638 C 352.221 1.58543 -0.360948 0
M  V30 3639 O 353.405 1.79865 -0.563985 0
M  V30 3640 C 350.532 3.09422 -1.37753 0
M  V30 3641 C 349.578 3.40854 -2.5636 0
M  V30 3642 S 350.411 3.33773 -4.18755 0
M  V30 3643 C 351.567 4.74312 -4.08386 0
M  V30 3644 H 351.8 1.67364 -2.45717 0
M  V30 3645 H 349.333 0.76845 -1.33919 0
M  V30 3646 H 351.291 3.8903 -1.31018 0
M  V30 3647 H 349.952 3.10989 -0.440949 0
M  V30 3648 H 349.145 4.41368 -2.43332 0
M  V30 3649 H 348.747 2.68798 -2.60046 0
M  V30 3650 H 351.039 5.64522 -3.74595 0
M  V30 3651 H 351.982 4.92397 -5.08872 0
M  V30 3652 H 352.39 4.50803 -3.3976 0
M  V30 3653 N 351.788 1.33704 0.83433 0
M  V30 3654 C 352.72 1.20172 1.9517 0
M  V30 3655 C 353.733 0.131572 1.62267 0
M  V30 3656 O 354.922 0.382406 1.74356 0
M  V30 3657 C 352.022 0.821716 3.28787 0
M  V30 3658 C 351.195 1.98446 3.89792 0
M  V30 3659 C 350.254 1.58469 5.01771 0
M  V30 3660 O 349.28 2.29968 5.20676 0
M  V30 3661 N 350.482 0.492291 5.78409 0
M  V30 3662 H 353.247 2.16429 2.07313 0
M  V30 3663 H 350.808 1.26509 1.0103 0
M  V30 3664 H 352.8 0.536291 4.01131 0
M  V30 3665 H 351.37 -0.0503058 3.1256 0
M  V30 3666 H 350.59 2.43526 3.09982 0
M  V30 3667 H 351.878 2.76236 4.27283 0
M  V30 3668 H 351.276 -0.102349 5.65607 0
M  V30 3669 H 349.833 0.266555 6.51255 0
M  V30 3670 N 353.266 -1.05314 1.17247 0
M  V30 3671 C 354.213 -2.13031 0.888058 0
M  V30 3672 C 355.183 -1.65253 -0.167537 0
M  V30 3673 O 356.368 -1.90775 -0.0305974 0
M  V30 3674 C 353.508 -3.42702 0.406147 0
M  V30 3675 C 352.621 -4.04161 1.52572 0
M  V30 3676 C 351.756 -5.21744 0.997808 0
M  V30 3677 C 350.795 -5.75207 2.09291 0
M  V30 3678 N 349.932 -6.84094 1.57986 0
M  V30 3679 H 354.772 -2.36698 1.81048 0
M  V30 3680 H 352.309 -1.16121 0.903013 0
M  V30 3681 H 354.267 -4.17059 0.108305 0
M  V30 3682 H 352.897 -3.19222 -0.479313 0
M  V30 3683 H 351.949 -3.27253 1.93931 0
M  V30 3684 H 353.261 -4.39881 2.35172 0
M  V30 3685 H 352.415 -6.03168 0.653739 0
M  V30 3686 H 351.154 -4.87495 0.141232 0
M  V30 3687 H 350.159 -4.92414 2.44557 0
M  V30 3688 H 351.384 -6.11505 2.95362 0
M  V30 3689 H 349.33 -6.51745 0.74598 0
M  V30 3690 H 349.247 -7.18811 2.34195 0
M  V30 3691 H 350.515 -7.69172 1.26468 0
M  V30 3692 N 354.744 -0.972509 -1.24016 0
M  V30 3693 C 355.707 -0.511403 -2.23422 0
M  V30 3694 C 356.707 0.394679 -1.55881 0
M  V30 3695 O 357.897 0.189469 -1.73167 0
M  V30 3696 C 355.029 0.258769 -3.39916 0
M  V30 3697 H 356.222 -1.39024 -2.6573 0
M  V30 3698 H 353.775 -0.757585 -1.36713 0
M  V30 3699 H 354.51 1.1545 -3.03054 0
M  V30 3700 H 354.295 -0.391522 -3.9014 0
M  V30 3701 H 355.785 0.570244 -4.13688 0
M  V30 3702 N 356.222 1.38976 -0.743202 0
M  V30 3703 C 357.152 2.33171 -0.123873 0
M  V30 3704 C 358.133 1.54336 0.71516 0
M  V30 3705 O 359.318 1.82696 0.658467 0
M  V30 3706 C 356.448 3.38474 0.777978 0
M  V30 3707 C 355.402 4.27979 0.0424758 0
M  V30 3708 C 354.728 5.2405 1.06189 0
M  V30 3709 C 356.028 5.10155 -1.1198 0
M  V30 3710 H 357.722 2.85213 -0.910709 0
M  V30 3711 H 355.268 1.37133 -0.439388 0
M  V30 3712 H 357.221 4.03328 1.22084 0
M  V30 3713 H 355.945 2.84891 1.59702 0
M  V30 3714 H 354.604 3.64616 -0.380853 0
M  V30 3715 H 354.252 4.66758 1.87472 0
M  V30 3716 H 353.952 5.84785 0.574485 0
M  V30 3717 H 355.476 5.9178 1.50428 0
M  V30 3718 H 356.89 5.68307 -0.75499 0
M  V30 3719 H 355.287 5.80073 -1.53738 0
M  V30 3720 H 356.357 4.44504 -1.93764 0
M  V30 3721 N 357.7 0.491464 1.49741 0
M  V30 3722 C 358.947 -0.0564256 2.02421 0
M  V30 3723 C 359.275 -1.37872 1.37192 0
M  V30 3724 O 358.53 -1.89375 0.493508 0
M  V30 3725 C 358.829 -0.267329 3.56399 0
M  V30 3726 C 358.495 0.975775 4.40215 0
M  V30 3727 C 357.157 1.31655 4.62839 0
M  V30 3728 C 359.509 1.80251 4.89039 0
M  V30 3729 C 356.837 2.48375 5.31532 0
M  V30 3730 C 359.189 2.96116 5.59015 0
M  V30 3731 C 357.853 3.30585 5.79888 0
M  V30 3732 H 357.123 -0.0206476 0.740712 0
M  V30 3733 H 359.77 0.649686 1.80143 0
M  V30 3734 H 358.075 -1.05588 3.77304 0
M  V30 3735 H 359.772 -0.705549 3.94744 0
M  V30 3736 H 356.362 0.700315 4.2284 0
M  V30 3737 H 360.546 1.55239 4.71396 0
M  V30 3738 H 355.802 2.7533 5.45897 0
M  V30 3739 H 359.976 3.60509 5.95824 0
M  V30 3740 H 357.603 4.21132 6.32892 0
M  V30 3741 N 359.178 -1.55987 0.224894 0
M  V30 3742 C 360.455 -1.90232 -0.455083 0
M  V30 3743 C 360.835 -1.14269 -1.77499 0
M  V30 3744 O 360.183 -0.253079 -2.27094 0
M  V30 3745 C 360.393 -3.42993 -0.644758 0
M  V30 3746 C 361.741 -4.13821 -0.950669 0
M  V30 3747 O 362.765 -3.4861 -0.731423 0
M  V30 3748 O 361.624 -5.29128 -1.36695 0
M  V30 3749 H 358.718 -0.79108 -0.241084 0
M  V30 3750 H 361.264 -1.67581 0.267327 0
M  V30 3751 H 360.036 -3.90252 0.28613 0
M  V30 3752 H 359.659 -3.71434 -1.41853 0
M  V30 3753 N 360.656 0.0484629 -1.57525 0
M  V30 3754 C 361.903 0.743125 -1.88372 0
M  V30 3755 C 362.231 1.76383 -0.819715 0
M  V30 3756 O 361.486 1.94855 0.181659 0
M  V30 3757 C 361.785 1.46632 -3.25935 0
M  V30 3758 C 361.451 0.583427 -4.4711 0
M  V30 3759 C 360.113 0.340191 -4.79996 0
M  V30 3760 C 362.465 -0.0273345 -5.21193 0
M  V30 3761 C 359.793 -0.522903 -5.84365 0
M  V30 3762 C 362.145 -0.878017 -6.26477 0
M  V30 3763 C 360.809 -1.1309 -6.5785 0
M  V30 3764 H 360.079 0.271929 -0.689301 0
M  V30 3765 H 362.726 0.00336166 -1.915 0
M  V30 3766 H 361.031 2.2789 -3.18706 0
M  V30 3767 H 362.728 2.00902 -3.47044 0
M  V30 3768 H 359.318 0.783151 -4.21384 0
M  V30 3769 H 363.502 0.147654 -4.9608 0
M  V30 3770 H 358.758 -0.727335 -6.07058 0
M  V30 3771 H 362.932 -1.35789 -6.83033 0
M  V30 3772 H 360.559 -1.80144 -7.38547 0
M  V30 3773 N 362.134 1.5431 0.320358 0
M  V30 3774 C 363.064 1.86912 1.3995 0
M  V30 3775 C 364.045 0.726211 1.53819 0
M  V30 3776 O 365.23 0.980233 1.67646 0
M  V30 3777 C 362.36 2.09932 2.7667 0
M  V30 3778 C 361.314 3.25776 2.77586 0
M  V30 3779 C 360.64 3.34173 4.17412 0
M  V30 3780 C 361.94 4.6335 2.41048 0
M  V30 3781 H 363.634 2.77292 1.12914 0
M  V30 3782 H 361.18 1.33421 0.541738 0
M  V30 3783 H 363.133 2.31324 3.52232 0
M  V30 3784 H 361.857 1.16304 3.0519 0
M  V30 3785 H 360.516 3.04276 2.04479 0
M  V30 3786 H 360.164 2.38098 4.43078 0
M  V30 3787 H 359.864 4.12033 4.18931 0
M  V30 3788 H 361.388 3.57803 4.94782 0
M  V30 3789 H 362.802 4.84602 3.06324 0
M  V30 3790 H 361.199 5.43782 2.53813 0
M  V30 3791 H 362.269 4.65381 1.36193 0
M  V30 3792 N 363.613 -0.582584 1.46437 0
M  V30 3793 C 364.56 -1.69164 1.5701 0
M  V30 3794 C 365.53 -1.60847 0.414403 0
M  V30 3795 O 366.715 -1.80058 0.631171 0
M  V30 3796 C 363.855 -3.075 1.56646 0
M  V30 3797 C 362.968 -3.2644 2.82951 0
M  V30 3798 C 362.103 -4.55026 2.7409 0
M  V30 3799 C 361.142 -4.6731 3.95333 0
M  V30 3800 N 360.279 -5.87221 3.84858 0
M  V30 3801 H 365.119 -1.59464 2.51744 0
M  V30 3802 H 362.656 -0.777186 1.24893 0
M  V30 3803 H 364.614 -3.8757 1.5442 0
M  V30 3804 H 363.244 -3.16096 0.654439 0
M  V30 3805 H 362.296 -2.39974 2.95155 0
M  V30 3806 H 363.608 -3.31385 3.72808 0
M  V30 3807 H 362.762 -5.43324 2.6997 0
M  V30 3808 H 361.501 -4.52519 1.81873 0
M  V30 3809 H 360.506 -3.77429 3.99784 0
M  V30 3810 H 361.731 -4.71595 4.88646 0
M  V30 3811 H 359.677 -5.85712 2.95427 0
M  V30 3812 H 359.594 -5.93435 4.6837 0
M  V30 3813 H 360.862 -6.7795 3.84713 0
M  V30 3814 N 365.091 -1.34144 -0.827227 0
M  V30 3815 C 366.041 -1.21923 -1.92663 0
M  V30 3816 C 367.025 -0.119294 -1.60457 0
M  V30 3817 O 368.217 -0.348539 -1.73534 0
M  V30 3818 C 365.346 -0.972492 -3.29238 0
M  V30 3819 C 364.432 -2.1154 -3.67576 0
M  V30 3820 N 364.823 -3.36627 -3.77512 0
M  V30 3821 C 363.121 -2.02468 -3.97395 0
M  V30 3822 C 363.822 -4.11658 -4.1099 0
M  V30 3823 N 362.798 -3.40207 -4.23981 0
M  V30 3824 H 366.6 -2.16721 -1.98517 0
M  V30 3825 H 364.114 -1.2632 -1.02064 0
M  V30 3826 H 366.111 -0.865847 -4.0781 0
M  V30 3827 H 364.771 -0.0331509 -3.24683 0
M  V30 3828 H 365.782 -3.71234 -3.61118 0
M  V30 3829 H 362.459 -1.16265 -4.00985 0
M  V30 3830 H 363.849 -5.19657 -4.25918 0
M  V30 3831 N 366.569 1.04691 -1.17803 0
M  V30 3832 C 367.985 1.29963 -0.926379 0
M  V30 3833 C 368.185 1.97251 0.411635 0
M  V30 3834 O 367.241 2.24922 1.14744 0
M  V30 3835 C 368.554 2.16447 -2.08737 0
M  V30 3836 C 370.102 2.29814 -2.12496 0
M  V30 3837 C 370.577 3.19661 -3.27995 0
M  V30 3838 N 372.068 3.27247 -3.27816 0
M  V30 3839 C 372.803 3.96906 -4.13827 0
M  V30 3840 N 372.299 4.6895 -5.09959 0
M  V30 3841 N 374.092 3.93122 -4.01761 0
M  V30 3842 H 366.243 0.594182 -2.0392 0
M  V30 3843 H 368.506 0.324649 -0.890678 0
M  V30 3844 H 368.212 1.74304 -3.05469 0
M  V30 3845 H 368.086 3.17103 -2.04268 0
M  V30 3846 H 370.473 2.71196 -1.16347 0
M  V30 3847 H 370.554 1.2877 -2.21025 0
M  V30 3848 H 370.198 2.78991 -4.24413 0
M  V30 3849 H 370.128 4.20722 -3.16703 0
M  V30 3850 H 372.619 2.75921 -2.58217 0
M  V30 3851 H 372.932 5.19679 -5.71974 0
M  V30 3852 H 371.277 4.67875 -5.13924 0
M  V30 3853 H 374.468 3.35967 -3.2595 0
M  V30 3854 H 374.641 4.47139 -4.6901 0
M  V30 3855 N 368.047 0.979072 1.23499 0
M  V30 3856 C 369.294 0.647219 1.91878 0
M  V30 3857 C 369.622 -0.819074 1.76413 0
M  V30 3858 O 368.877 -1.60616 1.11808 0
M  V30 3859 C 369.176 0.981932 3.43646 0
M  V30 3860 C 368.842 2.43822 3.79291 0
M  V30 3861 C 367.504 2.83622 3.88731 0
M  V30 3862 C 369.856 3.3828 3.96505 0
M  V30 3863 C 367.184 4.16897 4.12812 0
M  V30 3864 C 369.536 4.71197 4.22085 0
M  V30 3865 C 368.2 5.10758 4.29747 0
M  V30 3866 H 367.47 0.236834 0.702133 0
M  V30 3867 H 370.117 1.23268 1.46551 0
M  V30 3868 H 368.422 0.314365 3.90537 0
M  V30 3869 H 370.119 0.703395 3.94783 0
M  V30 3870 H 366.709 2.11966 3.72516 0
M  V30 3871 H 370.893 3.0871 3.88603 0
M  V30 3872 H 366.149 4.47157 4.16966 0
M  V30 3873 H 370.323 5.44348 4.34348 0
M  V30 3874 H 367.95 6.1405 4.48159 0
M  V30 3875 N 369.525 -1.3858 0.750561 0
M  V30 3876 C 370.802 -1.94231 0.231009 0
M  V30 3877 C 371.182 -1.68611 -1.27018 0
M  V30 3878 O 370.53 -1.02296 -2.04323 0
M  V30 3879 C 370.74 -3.44123 0.581428 0
M  V30 3880 C 372.088 -4.2116 0.539389 0
M  V30 3881 O 373.112 -3.52391 0.519541 0
M  V30 3882 O 371.971 -5.43749 0.54765 0
M  V30 3883 H 369.065 -0.825639 0.0474263 0
M  V30 3884 H 371.611 -1.4799 0.830478 0
M  V30 3885 H 370.383 -3.56267 1.61833 0
M  V30 3886 H 370.006 -3.97573 -0.0462047 0
M  V30 3887 N 371.003 -0.499398 -1.49478 0
M  V30 3888 C 372.251 0.0455996 -2.02049 0
M  V30 3889 C 372.572 1.37633 -1.38138 0
M  V30 3890 O 371.842 1.8842 -0.536166 0
M  V30 3891 H 370.422 0.0198416 -0.746736 0
M  V30 3892 H 373.084 -0.656274 -1.83519 0
M  V30 3893 H 372.18 0.176445 -3.11601 0
M  V30 3894 N 372.481 1.55866 -0.233164 0
M  V30 3895 C 373.897 1.59133 0.121988 0
M  V30 3896 C 374.097 1.25016 1.58029 0
M  V30 3897 O 373.153 0.990922 2.32243 0
M  V30 3898 C 374.466 2.99932 -0.214792 0
M  V30 3899 C 376.014 3.12601 -0.157971 0
M  V30 3900 C 376.489 4.55597 -0.46859 0
M  V30 3901 N 377.98 4.61305 -0.418585 0
M  V30 3902 C 378.715 5.69903 -0.63227 0
M  V30 3903 N 378.211 6.86819 -0.90835 0
M  V30 3904 N 380.004 5.59264 -0.563913 0
M  V30 3905 H 372.155 1.76315 -1.18434 0
M  V30 3906 H 374.418 0.820093 -0.475553 0
M  V30 3907 H 374.124 3.29588 -1.22739 0
M  V30 3908 H 373.998 3.74327 0.464691 0
M  V30 3909 H 376.385 2.82735 0.845283 0
M  V30 3910 H 376.466 2.40511 -0.871102 0
M  V30 3911 H 376.11 4.86182 -1.46934 0
M  V30 3912 H 376.04 5.25928 0.265865 0
M  V30 3913 H 378.531 3.77297 -0.213368 0
M  V30 3914 H 378.844 7.65507 -1.05919 0
M  V30 3915 H 377.189 6.88536 -0.945673 0
M  V30 3916 H 380.38 4.66802 -0.348372 0
M  V30 3917 H 380.553 6.43831 -0.733847 0
M  V30 3918 N 373.959 -0.0401083 1.57549 0
M  V30 3919 C 375.208 -0.732108 1.87944 0
M  V30 3920 C 375.521 -1.77107 0.830206 0
M  V30 3921 O 376.727 -2.51488 1.02302 0
M  V30 3922 C 375.183 -1.35315 3.33494 0
M  V30 3923 C 374.791 -0.351105 4.46622 0
M  V30 3924 C 376.535 -2.02566 3.73051 0
M  V30 3925 C 374.442 -0.979859 5.83226 0
M  V30 3926 H 373.372 -0.277188 0.701201 0
M  V30 3927 H 376.023 0.0138501 1.83495 0
M  V30 3928 H 374.405 -2.14844 3.32653 0
M  V30 3929 H 375.579 0.416674 4.58912 0
M  V30 3930 H 373.894 0.218708 4.15825 0
M  V30 3931 H 376.491 -2.50441 4.72423 0
M  V30 3932 H 376.834 -2.83904 3.04474 0
M  V30 3933 H 377.367 -1.29827 3.76018 0
M  V30 3934 H 374.106 -0.206135 6.55176 0
M  V30 3935 H 373.626 -1.71774 5.74677 0
M  V30 3936 H 375.305 -1.49046 6.29599 0
M  V30 3937 N 375.437 -1.54477 -0.31217 0
M  V30 3938 C 376.662 -1.77526 -1.07235 0
M  V30 3939 C 377.087 -0.527775 -1.80544 0
M  V30 3940 O 376.445 0.52121 -1.73646 0
M  V30 3941 C 376.493 -2.97535 -2.03728 0
M  V30 3942 O 375.597 -2.69878 -3.11833 0
M  V30 3943 H 374.938 -0.58792 -0.30862 0
M  V30 3944 H 377.468 -2.01532 -0.352993 0
M  V30 3945 H 377.478 -3.25198 -2.46395 0
M  V30 3946 H 376.153 -3.87996 -1.49774 0
M  V30 3947 H 374.73 -2.53199 -2.7376 0
M  V30 3948 N 376.915 0.57481 -1.46744 0
M  V30 3949 C 378.164 1.32898 -1.51727 0
M  V30 3950 C 378.477 1.948 -0.176692 0
M  V30 3951 O 379.683 2.71299 -0.104385 0
M  V30 3952 C 378.139 2.40901 -2.67385 0
M  V30 3953 C 377.747 1.85266 -4.07898 0
M  V30 3954 C 379.491 3.17609 -2.81646 0
M  V30 3955 C 377.398 2.90945 -5.14883 0
M  V30 3956 H 376.328 0.499631 -0.564699 0
M  V30 3957 H 378.979 0.612536 -1.72975 0
M  V30 3958 H 377.361 3.15379 -2.39483 0
M  V30 3959 H 378.535 1.17278 -4.45626 0
M  V30 3960 H 376.85 1.21199 -3.98371 0
M  V30 3961 H 379.447 3.96493 -3.58744 0
M  V30 3962 H 379.79 3.70696 -1.89448 0
M  V30 3963 H 380.323 2.50239 -3.09233 0
M  V30 3964 H 377.062 2.42736 -6.089 0
M  V30 3965 H 376.582 3.57398 -4.81691 0
M  V30 3966 H 378.261 3.54755 -5.41071 0
M  V30 3967 N 378.394 1.34581 0.820102 0
M  V30 3968 C 379.622 1.3018 1.60813 0
M  V30 3969 C 380.037 -0.123551 1.88395 0
M  V30 3970 O 379.394 -1.07148 1.47735 0
M  V30 3971 C 379.445 2.09312 2.94739 0
M  V30 3972 O 379.166 3.46288 2.68358 0
M  V30 3973 C 380.667 2.1234 3.89136 0
M  V30 3974 H 377.887 0.447726 0.499782 0
M  V30 3975 H 380.431 1.77237 1.02017 0
M  V30 3976 H 378.586 1.65889 3.50085 0
M  V30 3977 H 379 3.87227 3.53774 0
M  V30 3978 H 380.474 2.72126 4.80262 0
M  V30 3979 H 380.951 1.11854 4.24718 0
M  V30 3980 H 381.557 2.55864 3.39726 0
M  V30 3981 N 379.872 -1.04064 1.18357 0
M  V30 3982 C 381.288 -1.2947 0.933258 0
M  V30 3983 C 381.488 -1.97466 -0.401169 0
M  V30 3984 O 380.544 -2.25528 -1.13549 0
M  V30 3985 C 381.857 -2.15337 2.09882 0
M  V30 3986 C 383.405 -2.28683 2.13712 0
M  V30 3987 C 383.88 -3.17917 3.29686 0
M  V30 3988 N 385.371 -3.25504 3.29547 0
M  V30 3989 C 386.106 -3.94706 4.15926 0
M  V30 3990 N 385.602 -4.66239 5.12439 0
M  V30 3991 N 387.395 -3.90986 4.0384 0
M  V30 3992 H 379.546 -0.583359 2.04232 0
M  V30 3993 H 381.809 -0.319921 0.892387 0
M  V30 3994 H 381.515 -1.72682 3.06389 0
M  V30 3995 H 381.389 -3.16015 2.05947 0
M  V30 3996 H 383.776 -2.70575 1.17784 0
M  V30 3997 H 383.857 -1.27596 2.21705 0
M  V30 3998 H 383.501 -2.76736 4.25887 0
M  V30 3999 H 383.431 -4.19036 3.1893 0
M  V30 4000 H 385.922 -2.74547 2.59677 0
M  V30 4001 H 386.235 -5.16638 5.74722 0
M  V30 4002 H 384.58 -4.65143 5.16398 0
M  V30 4003 H 387.771 -3.34234 3.27727 0
M  V30 4004 H 387.944 -4.44646 4.71375 0
M  V30 4005 N 381.35 -0.985608 -1.22978 0
M  V30 4006 C 382.596 -0.65836 -1.91816 0
M  V30 4007 C 382.929 0.806692 -1.76653 0
M  V30 4008 O 382.204 1.58252 -1.13078 0
M  V30 4009 C 382.487 -1.056 -3.44268 0
M  V30 4010 C 382.34 -2.57906 -3.68516 0
M  V30 4011 C 383.659 -0.603781 -4.35939 0
M  V30 4012 H 380.778 -0.24065 -0.696604 0
M  V30 4013 H 383.42 -1.22783 -1.44998 0
M  V30 4014 H 381.57 -0.571445 -3.84274 0
M  V30 4015 H 383.242 -3.13976 -3.3796 0
M  V30 4016 H 381.485 -3.00305 -3.13048 0
M  V30 4017 H 382.156 -2.80779 -4.75255 0
M  V30 4018 H 384.632 -1.01987 -4.03408 0
M  V30 4019 H 383.508 -0.910383 -5.41298 0
M  V30 4020 H 383.769 0.495761 -4.39312 0
M  V30 4021 N 382.828 1.3818 -0.7579 0
M  V30 4022 C 384.056 2.04301 -0.326937 0
M  V30 4023 C 384.471 1.57163 1.0462 0
M  V30 4024 O 383.828 0.746626 1.66529 0
M  V30 4025 C 383.879 3.59846 -0.345363 0
M  V30 4026 O 383.6 4.05256 -1.66432 0
M  V30 4027 C 385.101 4.4319 0.098927 0
M  V30 4028 H 382.321 0.656443 -0.139012 0
M  V30 4029 H 384.865 1.76786 -1.02796 0
M  V30 4030 H 383.02 3.86182 0.306955 0
M  V30 4031 H 383.434 4.99709 -1.59345 0
M  V30 4032 H 384.908 5.51989 0.0348745 0
M  V30 4033 H 385.385 4.23947 1.14741 0
M  V30 4034 H 385.991 4.22051 -0.52468 0
M  V30 4035 N 384.306 0.507319 1.49211 0
M  V30 4036 C 385.269 -0.256763 2.27757 0
M  V30 4037 C 386.269 -0.888287 1.34038 0
M  V30 4038 O 387.459 -0.751841 1.5714 0
M  V30 4039 C 384.591 -1.36905 3.12202 0
M  V30 4040 H 385.784 0.432557 2.96764 0
M  V30 4041 H 383.337 0.262488 1.5408 0
M  V30 4042 H 384.072 -2.09233 2.47775 0
M  V30 4043 H 383.857 -0.921599 3.81115 0
M  V30 4044 H 385.347 -1.9071 3.7151 0
M  V30 4045 N 385.784 -1.5574 0.241426 0
M  V30 4046 C 387.061 -1.90704 -0.434881 0
M  V30 4047 C 387.441 -1.16145 -1.76277 0
M  V30 4048 O 386.789 -0.277152 -2.26813 0
M  V30 4049 C 386.999 -3.43657 -0.608343 0
M  V30 4050 C 388.347 -4.14806 -0.906725 0
M  V30 4051 O 389.371 -3.49366 -0.694408 0
M  V30 4052 O 388.23 -5.30548 -1.31075 0
M  V30 4053 H 385.324 -0.793592 -0.23268 0
M  V30 4054 H 387.87 -1.67288 0.285086 0
M  V30 4055 H 386.642 -3.89927 0.327505 0
M  V30 4056 H 386.265 -3.72918 -1.37906 0
M  V30 4057 N 387.262 0.0317525 -1.57568 0
M  V30 4058 C 388.511 0.722131 -1.8833 0
M  V30 4059 C 388.824 1.76664 -0.839587 0
M  V30 4060 O 390.03 2.50942 -1.03635 0
M  V30 4061 C 388.486 1.33544 -3.34207 0
M  V30 4062 C 388.094 0.327415 -4.46802 0
M  V30 4063 C 389.838 2.00585 -3.7412 0
M  V30 4064 C 387.745 0.948915 -5.83738 0
M  V30 4065 H 386.675 0.273466 -0.702661 0
M  V30 4066 H 389.326 -0.0235811 -1.83485 0
M  V30 4067 H 387.708 2.13077 -3.33788 0
M  V30 4068 H 388.882 -0.441006 -4.58685 0
M  V30 4069 H 387.197 -0.240758 -4.15703 0
M  V30 4070 H 389.794 2.47932 -4.73744 0
M  V30 4071 H 390.137 2.82285 -3.05975 0
M  V30 4072 H 390.67 1.27831 -3.76702 0
M  V30 4073 H 387.409 0.171387 -6.55276 0
M  V30 4074 H 386.929 1.68724 -5.7558 0
M  V30 4075 H 388.608 1.45705 -6.3038 0
M  V30 4076 N 388.74 1.54641 0.303973 0
M  V30 4077 C 389.965 1.78092 1.06292 0
M  V30 4078 C 390.39 0.537342 1.80262 0
M  V30 4079 O 389.748 -0.511993 1.7392 0
M  V30 4080 C 389.796 2.98612 2.02147 0
M  V30 4081 O 388.9 2.71528 3.10397 0
M  V30 4082 H 388.241 0.589548 0.305497 0
M  V30 4083 H 390.771 2.01716 0.3423 0
M  V30 4084 H 390.781 3.265 2.44667 0
M  V30 4085 H 389.456 3.88785 1.47714 0
M  V30 4086 H 388.033 2.54648 2.72413 0
M  V30 4087 N 390.218 -0.567019 1.47046 0
M  V30 4088 C 391.148 -1.68482 1.61667 0
M  V30 4089 C 392.129 -1.6358 0.466418 0
M  V30 4090 O 393.314 -1.81354 0.694574 0
M  V30 4091 C 390.444 -3.07124 1.62148 0
M  V30 4092 C 389.398 -3.26867 2.76301 0
M  V30 4093 C 388.724 -4.66196 2.61849 0
M  V30 4094 C 390.024 -3.13186 4.17986 0
M  V30 4095 H 391.718 -1.56502 2.5524 0
M  V30 4096 H 389.264 -0.751486 1.22836 0
M  V30 4097 H 391.217 -3.8516 1.70968 0
M  V30 4098 H 389.941 -3.2004 0.651287 0
M  V30 4099 H 388.6 -2.51237 2.66975 0
M  V30 4100 H 388.248 -4.75898 1.62879 0
M  V30 4101 H 387.948 -4.80356 3.38425 0
M  V30 4102 H 389.472 -5.46379 2.72584 0
M  V30 4103 H 390.886 -3.81049 4.2834 0
M  V30 4104 H 389.283 -3.3886 4.95272 0
M  V30 4105 H 390.353 -2.10057 4.3704 0
M  V30 4106 N 391.696 -1.35014 -0.812953 0
M  V30 4107 C 392.659 -1.27292 -1.90602 0
M  V30 4108 C 393.659 -0.185817 -1.59723 0
M  V30 4109 O 394.849 -0.439102 -1.68575 0
M  V30 4110 C 391.981 -0.967676 -3.26877 0
M  V30 4111 H 393.174 -2.24479 -1.9887 0
M  V30 4112 H 390.727 -1.19446 -1.00808 0
M  V30 4113 H 391.462 0.0005954 -3.243 0
M  V30 4114 H 391.247 -1.75412 -3.50675 0
M  V30 4115 H 392.737 -0.939085 -4.06904 0
M  V30 4116 N 393.175 1.03435 -1.18907 0
M  V30 4117 C 394.122 2.11591 -0.921837 0
M  V30 4118 C 395.092 1.65499 0.141226 0
M  V30 4119 O 396.277 1.908 0.000242829 0
M  V30 4120 C 393.417 3.42012 -0.460616 0
M  V30 4121 C 392.53 4.01682 -1.58982 0
M  V30 4122 C 391.665 5.20091 -1.08069 0
M  V30 4123 C 390.704 5.71805 -2.18416 0
M  V30 4124 N 389.841 6.81494 -1.68849 0
M  V30 4125 H 394.681 2.33787 -1.8479 0
M  V30 4126 H 392.218 1.1467 -0.921373 0
M  V30 4127 H 394.176 4.16834 -0.174642 0
M  V30 4128 H 392.806 3.19944 0.428467 0
M  V30 4129 H 391.858 3.24127 -1.99113 0
M  V30 4130 H 393.17 4.36084 -2.4214 0
M  V30 4131 H 392.324 6.02051 -0.749615 0
M  V30 4132 H 391.063 4.87209 -0.218771 0
M  V30 4133 H 390.068 4.88461 -2.5236 0
M  V30 4134 H 391.293 6.06728 -3.05054 0
M  V30 4135 H 389.239 6.50475 -0.849572 0
M  V30 4136 H 389.156 7.14994 -2.45601 0
M  V30 4137 H 390.424 7.67063 -1.38689 0
M  V30 4138 N 394.653 0.992116 1.22453 0
M  V30 4139 C 396.069 0.702713 1.43297 0
M  V30 4140 C 396.269 -0.726909 1.87932 0
M  V30 4141 O 395.325 -1.49792 2.0327 0
M  V30 4142 C 396.638 1.70762 2.47509 0
M  V30 4143 C 398.186 1.72298 2.61309 0
M  V30 4144 C 398.661 2.71649 3.68742 0
M  V30 4145 N 400.152 2.70239 3.76199 0
M  V30 4146 C 400.887 3.43778 4.58917 0
M  V30 4147 N 400.383 4.26914 5.45633 0
M  V30 4148 N 402.176 3.32487 4.5322 0
M  V30 4149 H 394.327 1.91543 0.917871 0
M  V30 4150 H 396.59 0.826031 0.465162 0
M  V30 4151 H 396.296 2.73059 2.21657 0
M  V30 4152 H 396.17 1.49985 3.46099 0
M  V30 4153 H 398.557 0.706989 2.86506 0
M  V30 4154 H 398.638 1.97143 1.62997 0
M  V30 4155 H 398.282 3.73397 3.44292 0
M  V30 4156 H 398.212 2.44074 4.66622 0
M  V30 4157 H 400.703 2.09912 3.14237 0
M  V30 4158 H 401.016 4.79855 6.05771 0
M  V30 4159 H 399.361 4.31002 5.45218 0
M  V30 4160 H 402.552 2.6698 3.84499 0
M  V30 4161 H 402.725 3.90058 5.17454 0
M  V30 4162 N 396.131 -1.37776 0.765217 0
M  V30 4163 C 397.356 -2.04651 0.336537 0
M  V30 4164 C 397.781 -1.57337 -1.03086 0
M  V30 4165 O 397.139 -0.730621 -1.65927 0
M  V30 4166 C 397.187 -3.58577 0.381468 0
M  V30 4167 O 396.291 -4.07706 -0.62042 0
M  V30 4168 H 395.632 -0.64756 0.146838 0
M  V30 4169 H 398.162 -1.76221 1.03959 0
M  V30 4170 H 398.172 -4.07314 0.236448 0
M  V30 4171 H 396.847 -3.9237 1.37907 0
M  V30 4172 H 395.424 -3.70306 -0.439056 0
M  V30 4173 N 397.609 -0.515225 -1.4894 0
M  V30 4174 C 398.855 0.0242508 -2.02785 0
M  V30 4175 C 399.188 1.35323 -1.39289 0
M  V30 4176 O 398.463 1.87041 -0.533469 0
M  V30 4177 C 398.746 0.16184 -3.59736 0
M  V30 4178 C 398.599 -1.19127 -4.33738 0
M  V30 4179 C 399.918 0.895719 -4.30888 0
M  V30 4180 H 397.037 0.00733914 -0.736963 0
M  V30 4181 H 399.679 -0.669395 -1.77818 0
M  V30 4182 H 397.829 0.752624 -3.8114 0
M  V30 4183 H 399.501 -1.82202 -4.23792 0
M  V30 4184 H 397.744 -1.77695 -3.95736 0
M  V30 4185 H 398.415 -1.04815 -5.41957 0
M  V30 4186 H 400.891 0.394528 -4.14225 0
M  V30 4187 H 399.767 0.960859 -5.40425 0
M  V30 4188 H 400.028 1.9427 -3.97129 0
M  V30 4189 N 399.087 1.5561 -0.249682 0
M  V30 4190 C 400.017 2.24477 0.642826 0
M  V30 4191 C 400.998 1.22601 1.17911 0
M  V30 4192 O 402.183 1.5126 1.21795 0
M  V30 4193 C 399.313 2.94638 1.83863 0
M  V30 4194 C 398.267 4.03227 1.435 0
M  V30 4195 C 397.593 4.60828 2.71186 0
M  V30 4196 C 398.893 5.18796 0.604002 0
M  V30 4197 H 400.587 2.99321 0.0685625 0
M  V30 4198 H 398.133 1.43965 0.0315363 0
M  V30 4199 H 400.086 3.41517 2.46868 0
M  V30 4200 H 398.81 2.17287 2.43832 0
M  V30 4201 H 397.469 3.57121 0.828275 0
M  V30 4202 H 397.117 3.80174 3.29358 0
M  V30 4203 H 396.817 5.34132 2.44901 0
M  V30 4204 H 398.341 5.10442 3.35084 0
M  V30 4205 H 399.755 5.61883 1.13842 0
M  V30 4206 H 398.152 5.98506 0.437097 0
M  V30 4207 H 399.222 4.83384 -0.383147 0
M  V30 4208 N 400.565 -0.0233959 1.57583 0
M  V30 4209 C 401.513 -1.04063 2.08023 0
M  V30 4210 C 402.507 -1.37084 0.995204 0
M  V30 4211 O 403.713 -1.35923 1.18004 0
M  V30 4212 H 400.088 -0.353144 0.663922 0
M  V30 4213 H 402.059 -0.589453 2.9252 0
M  V30 4214 C 400.808 -2.33123 2.57971 0
M  V30 4215 H 400.131 -2.08577 3.4108 0
M  V30 4216 H 401.571 -3.02632 2.96967 0
M  V30 4217 C 400.03 -3.02483 1.48342 0
M  V30 4218 O 400.56 -3.92541 0.852898 0
M  V30 4219 N 398.766 -2.63909 1.21658 0
M  V30 4220 H 398.313 -1.90758 1.73116 0
M  V30 4221 H 398.271 -3.10633 0.485218 0
M  V30 4222 N 402.043 -1.548 -0.295768 0
M  V30 4223 C 402.991 -1.86874 -1.38495 0
M  V30 4224 C 403.985 -0.742938 -1.52239 0
M  V30 4225 O 405.191 -0.926999 -1.54294 0
M  V30 4226 H 401.566 -0.592786 -0.462719 0
M  V30 4227 H 403.537 -2.77904 -1.08682 0
M  V30 4228 C 402.286 -2.13732 -2.74252 0
M  V30 4229 H 401.609 -2.99835 -2.64459 0
M  V30 4230 H 403.049 -2.4011 -3.49461 0
M  V30 4231 C 401.508 -0.937539 -3.23592 0
M  V30 4232 O 402.038 -0.160665 -4.01379 0
M  V30 4233 N 400.244 -0.741478 -2.80981 0
M  V30 4234 H 399.791 -1.37489 -2.1784 0
M  V30 4235 H 399.749 0.0597103 -3.14343 0
M  V30 4236 N 403.521 0.559213 -1.47345 0
M  V30 4237 C 404.932 1.14134 -1.47751 0
M  V30 4238 C 405.283 1.94834 -0.231103 0
M  V30 4239 O 404.408 2.05957 0.664137 0
M  V30 4240 C 405.003 2.07653 -2.67705 0
M  V30 4241 C 403.562 2.61141 -2.71076 0
M  V30 4242 C 402.709 1.3748 -2.40821 0
M  V30 4243 H 405.66 0.345917 -1.54884 0
M  V30 4244 H 405.681 2.91497 -2.44561 0
M  V30 4245 H 405.193 1.4889 -3.58404 0
M  V30 4246 H 403.294 3.23707 -1.84511 0
M  V30 4247 H 403.407 3.02272 -3.7171 0
M  V30 4248 H 401.771 1.68086 -1.91362 0
M  V30 4249 H 402.554 0.805135 -3.33725 0
M  V30 4250 N 404.999 1.35443 0.805782 0
M  V30 4251 C 406.224 1.32037 1.59941 0
M  V30 4252 C 406.649 -0.0994215 1.87837 0
M  V30 4253 O 406.007 -1.06648 1.46615 0
M  V30 4254 C 406.055 2.13354 2.90711 0
M  V30 4255 O 405.159 1.5148 3.83572 0
M  V30 4256 H 404.5 0.452666 0.485787 0
M  V30 4257 H 407.03 1.78496 1.00002 0
M  V30 4258 H 407.04 2.25338 3.40128 0
M  V30 4259 H 405.715 3.16572 2.69732 0
M  V30 4260 H 404.292 1.4834 3.42125 0
M  V30 4261 N 406.477 -1.02803 1.19454 0
M  V30 4262 C 407.424 -2.11099 0.933046 0
M  V30 4263 C 408.394 -1.65571 -0.132447 0
M  V30 4264 O 409.579 -1.90797 0.00987576 0
M  V30 4265 C 406.719 -3.41763 0.478747 0
M  V30 4266 C 405.832 -4.00833 1.6111 0
M  V30 4267 C 404.967 -5.19511 1.10825 0
M  V30 4268 C 404.006 -5.70639 2.21445 0
M  V30 4269 N 403.143 -6.80589 1.72461 0
M  V30 4270 H 407.983 -2.32804 1.86028 0
M  V30 4271 H 405.52 -1.14179 0.927441 0
M  V30 4272 H 407.478 -4.16736 0.196745 0
M  V30 4273 H 406.108 -3.20166 -0.411493 0
M  V30 4274 H 405.16 -3.23066 2.00829 0
M  V30 4275 H 406.472 -4.34794 2.4445 0
M  V30 4276 H 405.626 -6.01645 0.781533 0
M  V30 4277 H 404.365 -4.87086 0.244606 0
M  V30 4278 H 403.37 -4.87116 2.54947 0
M  V30 4279 H 404.595 -6.05102 3.08267 0
M  V30 4280 H 402.541 -6.50016 0.884056 0
M  V30 4281 H 402.458 -7.13681 2.49389 0
M  V30 4282 H 403.726 -7.66317 1.42755 0
M  V30 4283 N 407.956 -0.998596 -1.21925 0
M  V30 4284 C 409.372 -0.710303 -1.42923 0
M  V30 4285 C 409.572 0.716933 -1.88314 0
M  V30 4286 O 408.628 1.48712 -2.04062 0
M  V30 4287 C 409.941 -1.72072 -2.466 0
M  V30 4288 C 411.489 -1.73681 -2.60392 0
M  V30 4289 C 411.964 -2.73601 -3.67296 0
M  V30 4290 N 413.455 -2.7223 -3.7476 0
M  V30 4291 C 414.19 -3.46206 -4.57087 0
M  V30 4292 N 413.686 -4.29802 -5.43362 0
M  V30 4293 N 415.479 -3.34886 -4.51451 0
M  V30 4294 H 407.63 -1.92028 -0.9077 0
M  V30 4295 H 409.893 -0.828487 -0.460775 0
M  V30 4296 H 409.599 -2.74231 -2.20206 0
M  V30 4297 H 409.473 -1.51818 -3.45299 0
M  V30 4298 H 411.86 -0.722173 -2.86127 0
M  V30 4299 H 411.941 -1.98005 -1.61949 0
M  V30 4300 H 411.585 -3.75217 -3.42307 0
M  V30 4301 H 411.515 -2.46545 -4.65321 0
M  V30 4302 H 414.006 -2.11576 -3.1312 0
M  V30 4303 H 414.319 -4.83061 -6.03218 0
M  V30 4304 H 412.664 -4.33887 -5.42925 0
M  V30 4305 H 415.855 -2.69015 -3.83078 0
M  V30 4306 H 416.028 -3.92796 -5.15379 0
M  V30 4307 N 409.434 1.37368 -0.772513 0
M  V30 4308 C 410.397 2.28601 -0.165541 0
M  V30 4309 C 411.397 1.48062 0.627238 0
M  V30 4310 O 412.587 1.68268 0.450715 0
M  V30 4311 C 409.719 3.32023 0.772897 0
M  V30 4312 H 410.912 2.83787 -0.969787 0
M  V30 4313 H 408.465 1.46647 -0.540775 0
M  V30 4314 H 409.2 2.81962 1.60212 0
M  V30 4315 H 408.985 3.91555 0.206585 0
M  V30 4316 H 410.475 4.00197 1.19298 0
M  V30 4317 N 410.912 0.523116 1.48665 0
M  V30 4318 C 412.161 -0.01544 2.01694 0
M  V30 4319 C 412.474 -1.35975 1.40606 0
M  V30 4320 O 413.68 -1.98627 1.85093 0
M  V30 4321 C 412.136 -0.0779303 3.59816 0
M  V30 4322 C 411.744 1.26107 4.29885 0
M  V30 4323 C 413.488 -0.565678 4.20714 0
M  V30 4324 C 411.395 1.15954 5.79921 0
M  V30 4325 H 410.325 -0.00954163 0.75394 0
M  V30 4326 H 412.976 0.665865 1.70993 0
M  V30 4327 H 411.358 -0.824165 3.87329 0
M  V30 4328 H 412.532 2.02233 4.14051 0
M  V30 4329 H 410.847 1.68401 3.80828 0
M  V30 4330 H 413.444 -0.6595 5.30617 0
M  V30 4331 H 413.787 -1.56984 3.85567 0
M  V30 4332 H 414.32 0.12467 3.97605 0
M  V30 4333 H 411.059 2.13864 6.19631 0
M  V30 4334 H 410.579 0.439529 5.98187 0
M  V30 4335 H 412.258 0.847361 6.41427 0
M  V30 4336 N 412.39 -1.55475 0.257931 0
M  V30 4337 C 413.639 -1.98383 -0.364275 0
M  V30 4338 C 413.952 -1.14952 -1.58258 0
M  V30 4339 O 415.158 -1.47924 -2.27664 0
M  V30 4340 C 413.614 -3.53037 -0.699479 0
M  V30 4341 C 413.222 -4.45223 0.498046 0
M  V30 4342 C 414.966 -4.04575 -1.28526 0
M  V30 4343 C 412.873 -5.91238 0.138383 0
M  V30 4344 H 411.803 -0.740911 -0.13988 0
M  V30 4345 H 414.454 -1.79936 0.359883 0
M  V30 4346 H 412.836 -3.6722 -1.48207 0
M  V30 4347 H 414.01 -4.42803 1.27522 0
M  V30 4348 H 412.325 -4.04226 0.999503 0
M  V30 4349 H 414.922 -5.11196 -1.56788 0
M  V30 4350 H 415.265 -3.5258 -2.21344 0
M  V30 4351 H 415.798 -3.93762 -0.565337 0
M  V30 4352 H 412.537 -6.47294 1.03398 0
M  V30 4353 H 412.057 -5.96768 -0.602374 0
M  V30 4354 H 413.736 -6.46413 -0.27553 0
M  V30 4355 N 413.868 0.0150385 -1.57593 0
M  V30 4356 C 414.778 1.02791 -2.10882 0
M  V30 4357 C 415.794 1.38702 -1.0506 0
M  V30 4358 O 416.97 1.47739 -1.36877 0
M  V30 4359 C 414.035 2.30568 -2.58919 0
M  V30 4360 C 413.096 2.01108 -3.79281 0
M  V30 4361 C 412.329 3.22794 -4.25018 0
M  V30 4362 O 412.552 4.33959 -3.70183 0
M  V30 4363 O 411.486 3.07672 -5.17322 0
M  V30 4364 H 415.312 0.604973 -2.97613 0
M  V30 4365 H 412.897 0.23292 -1.47573 0
M  V30 4366 H 414.779 3.05662 -2.90084 0
M  V30 4367 H 413.454 2.72129 -1.75293 0
M  V30 4368 H 412.361 1.23537 -3.53114 0
M  V30 4369 H 413.694 1.64394 -4.63935 0
M  V30 4370 N 415.346 1.54954 0.287554 0
M  V30 4371 C 416.762 1.46469 0.633964 0
M  V30 4372 C 416.962 0.666865 1.90145 0
M  V30 4373 O 416.018 0.179906 2.51858 0
M  V30 4374 C 417.331 2.90556 0.774454 0
M  V30 4375 C 418.879 3.00681 0.869462 0
M  V30 4376 C 419.354 4.45993 1.04184 0
M  V30 4377 N 420.845 4.4976 1.10772 0
M  V30 4378 C 421.58 5.59393 1.25964 0
M  V30 4379 N 421.076 6.78923 1.37968 0
M  V30 4380 N 422.869 5.47107 1.28959 0
M  V30 4381 H 415.02 2.05288 -0.545041 0
M  V30 4382 H 417.283 0.930305 -0.182308 0
M  V30 4383 H 416.989 3.51594 -0.086207 0
M  V30 4384 H 416.863 3.38743 1.6593 0
M  V30 4385 H 419.25 2.39749 1.7206 0
M  V30 4386 H 419.331 2.55769 -0.0396831 0
M  V30 4387 H 418.975 5.07524 0.195422 0
M  V30 4388 H 418.905 4.88548 1.96542 0
M  V30 4389 H 421.396 3.63651 1.02794 0
M  V30 4390 H 421.709 7.58231 1.49353 0
M  V30 4391 H 420.054 6.81763 1.34999 0
M  V30 4392 H 423.245 4.52668 1.19202 0
M  V30 4393 H 423.418 6.32595 1.40455 0
M  V30 4394 N 416.824 -0.551391 1.4764 0
M  V30 4395 C 418.049 -1.33837 1.58437 0
M  V30 4396 C 418.474 -1.866 0.237063 0
M  V30 4397 O 417.832 -1.6328 -0.787994 0
M  V30 4398 C 417.88 -2.48014 2.61766 0
M  V30 4399 O 416.984 -3.50419 2.1744 0
M  V30 4400 H 416.325 -0.397299 0.532024 0
M  V30 4401 H 418.855 -0.665759 1.93465 0
M  V30 4402 H 418.865 -2.94503 2.82369 0
M  V30 4403 H 417.54 -2.08969 3.5959 0
M  V30 4404 H 416.117 -3.10196 2.06961 0
M  V30 4405 N 418.302 -1.35869 -0.798587 0
M  V30 4406 C 419.25 -1.29491 -1.93222 0
M  V30 4407 C 420.244 -0.18836 -1.6835 0
M  V30 4408 O 421.45 -0.354822 -1.76468 0
M  V30 4409 H 417.825 -0.402901 -0.63496 0
M  V30 4410 H 419.796 -2.25247 -1.9572 0
M  V30 4411 C 418.545 -1.09184 -3.30112 0
M  V30 4412 H 417.868 -1.93574 -3.49813 0
M  V30 4413 H 419.308 -1.08766 -4.09812 0
M  V30 4414 C 417.767 0.203959 -3.36282 0
M  V30 4415 O 418.297 1.19699 -3.83451 0
M  V30 4416 N 416.503 0.245488 -2.89561 0
M  V30 4417 H 416.05 -0.563223 -2.51367 0
M  V30 4418 H 416.008 1.11219 -2.94071 0
M  V30 4419 N 419.78 1.02168 -1.19998 0
M  V30 4420 C 421.008 1.79296 -1.03249 0
M  V30 4421 C 421.423 1.84103 0.418502 0
M  V30 4422 O 420.78 1.29031 1.29063 0
M  V30 4423 C 420.831 3.24007 -1.60319 0
M  V30 4424 O 420.552 3.19512 -2.99739 0
M  V30 4425 C 422.053 4.17704 -1.48453 0
M  V30 4426 H 419.273 0.564016 -0.363493 0
M  V30 4427 H 421.817 1.28639 -1.58973 0
M  V30 4428 H 419.972 3.7183 -1.08727 0
M  V30 4429 H 420.386 4.10306 -3.26725 0
M  V30 4430 H 421.86 5.17104 -1.93153 0
M  V30 4431 H 422.337 4.37029 -0.436193 0
M  V30 4432 H 422.943 3.7576 -1.99211 0
M  V30 4433 N 421.258 1.00505 1.21394 0
M  V30 4434 C 422.674 0.717873 1.42544 0
M  V30 4435 C 422.874 -0.706936 1.88692 0
M  V30 4436 O 421.93 -1.47627 2.04847 0
M  V30 4437 C 423.243 1.73377 2.45684 0
M  V30 4438 C 424.791 1.75059 2.59467 0
M  V30 4439 C 425.266 2.75545 3.6584 0
M  V30 4440 N 426.757 2.74213 3.73311 0
M  V30 4441 C 427.492 3.48626 4.55245 0
M  V30 4442 N 426.988 4.32678 5.41075 0
M  V30 4443 N 428.781 3.37276 4.49668 0
M  V30 4444 H 420.932 1.92506 0.897503 0
M  V30 4445 H 423.195 0.830919 0.456375 0
M  V30 4446 H 422.901 2.75395 2.18748 0
M  V30 4447 H 422.775 1.53647 3.44489 0
M  V30 4448 H 425.162 0.737337 2.8574 0
M  V30 4449 H 425.243 1.98861 1.60897 0
M  V30 4450 H 424.887 3.77028 3.40313 0
M  V30 4451 H 424.817 2.49009 4.64007 0
M  V30 4452 H 427.308 2.13234 3.11993 0
M  V30 4453 H 427.621 4.86253 6.00648 0
M  V30 4454 H 425.966 4.3676 5.40616 0
M  V30 4455 H 429.157 2.71043 3.81646 0
M  V30 4456 H 429.33 3.95524 5.13288 0
M  V30 4457 N 422.737 -1.36956 0.779787 0
M  V30 4458 C 423.962 -2.04283 0.358224 0
M  V30 4459 C 424.387 -1.58422 -1.01411 0
M  V30 4460 O 423.745 -0.748179 -1.65142 0
M  V30 4461 C 423.793 -3.58152 0.419479 0
M  V30 4462 O 422.897 -4.08342 -0.577142 0
M  V30 4463 H 422.238 -0.645967 0.153698 0
M  V30 4464 H 424.768 -1.75108 1.05822 0
M  V30 4465 H 424.778 -4.07041 0.279636 0
M  V30 4466 H 423.453 -3.90886 1.42061 0
M  V30 4467 H 422.03 -3.70751 -0.399755 0
M  V30 4468 N 424.215 -0.530993 -1.48385 0
M  V30 4469 C 425.44 0.000729535 -2.074 0
M  V30 4470 C 425.865 1.27298 -1.3848 0
M  V30 4471 O 425.223 1.75599 -0.451081 0
M  V30 4472 C 425.271 0.206697 -3.60007 0
M  V30 4473 O 424.375 1.27514 -3.92191 0
M  V30 4474 H 423.716 -0.039583 -0.662819 0
M  V30 4475 H 426.246 -0.739194 -1.9078 0
M  V30 4476 H 426.256 0.42904 -4.05738 0
M  V30 4477 H 424.931 -0.722675 -4.09573 0
M  V30 4478 H 423.508 1.03537 -3.58238 0
M  V30 4479 N 425.693 1.55336 -0.266172 0
M  V30 4480 C 426.623 2.25146 0.618981 0
M  V30 4481 C 427.604 1.23845 1.16604 0
M  V30 4482 O 428.789 1.52544 1.20183 0
M  V30 4483 C 425.919 2.96572 1.80728 0
M  V30 4484 C 424.873 4.04726 1.39215 0
M  V30 4485 C 424.199 4.63678 2.66283 0
M  V30 4486 C 425.499 5.19407 0.548942 0
M  V30 4487 H 427.193 2.99377 0.0368116 0
M  V30 4488 H 424.739 1.43991 0.0162651 0
M  V30 4489 H 426.692 3.44116 2.43232 0
M  V30 4490 H 425.416 2.19861 2.41514 0
M  V30 4491 H 424.075 3.57979 0.790351 0
M  V30 4492 H 423.723 3.83646 3.25308 0
M  V30 4493 H 423.423 5.367 2.39222 0
M  V30 4494 H 424.947 5.13967 3.29651 0
M  V30 4495 H 426.361 5.63059 1.07876 0
M  V30 4496 H 424.758 5.98936 0.373593 0
M  V30 4497 H 425.828 4.8295 -0.434394 0
M  V30 4498 N 427.171 -0.0066808 1.57599 0
M  V30 4499 C 428.134 -0.985035 2.06953 0
M  V30 4500 C 429.134 -1.27663 0.977687 0
M  V30 4501 O 430.324 -1.22293 1.24057 0
M  V30 4502 C 427.456 -2.3118 2.50536 0
M  V30 4503 H 428.649 -0.558255 2.94658 0
M  V30 4504 H 426.202 -0.254011 1.54222 0
M  V30 4505 H 426.937 -2.78561 1.66054 0
M  V30 4506 H 426.722 -2.11338 3.3027 0
M  V30 4507 H 428.212 -3.01377 2.8907 0
M  V30 4508 N 428.649 -1.55105 -0.279332 0
M  V30 4509 C 429.559 -1.90638 -1.36727 0
M  V30 4510 C 430.575 -0.802899 -1.54368 0
M  V30 4511 O 431.751 -1.10138 -1.68616 0
M  V30 4512 C 428.816 -2.16547 -2.70755 0
M  V30 4513 C 427.877 -3.40146 -2.61915 0
M  V30 4514 C 427.11 -3.6481 -3.8955 0
M  V30 4515 O 427.333 -2.92095 -4.89935 0
M  V30 4516 O 426.267 -4.58343 -3.90135 0
M  V30 4517 H 430.093 -2.83237 -1.09591 0
M  V30 4518 H 427.678 -1.4157 -0.477306 0
M  V30 4519 H 429.56 -2.34665 -3.50014 0
M  V30 4520 H 428.235 -1.27131 -2.9769 0
M  V30 4521 H 427.142 -3.2737 -1.81052 0
M  V30 4522 H 428.475 -4.29761 -2.3993 0
M  V30 4523 N 430.127 0.543554 -1.4793 0
M  V30 4524 C 431.373 1.30201 -1.55485 0
M  V30 4525 C 431.706 1.92925 -0.222201 0
M  V30 4526 O 430.981 1.78586 0.77053 0
M  V30 4527 C 431.264 2.40174 -2.68307 0
M  V30 4528 C 431.117 1.8223 -4.11233 0
M  V30 4529 C 432.436 3.42024 -2.76961 0
M  V30 4530 H 429.555 0.472036 -0.565996 0
M  V30 4531 H 432.197 0.606914 -1.80046 0
M  V30 4532 H 430.347 2.99463 -2.47495 0
M  V30 4533 H 432.019 1.27096 -4.43446 0
M  V30 4534 H 430.262 1.12832 -4.18869 0
M  V30 4535 H 430.933 2.61793 -4.85972 0
M  V30 4536 H 433.409 2.92672 -2.95774 0
M  V30 4537 H 432.285 4.16383 -3.57654 0
M  V30 4538 H 432.546 4.0173 -1.84568 0
M  V30 4539 N 431.605 1.3629 0.791371 0
M  V30 4540 C 432.537 1.26321 1.91248 0
M  V30 4541 C 433.55 0.18313 1.61767 0
M  V30 4542 O 434.739 0.437682 1.73051 0
M  V30 4543 C 431.839 0.925901 3.26007 0
M  V30 4544 C 431.012 2.10746 3.83281 0
M  V30 4545 C 430.071 1.74352 4.96475 0
M  V30 4546 O 429.097 2.46416 5.13096 0
M  V30 4547 N 430.299 0.676058 5.7655 0
M  V30 4548 H 433.064 2.22915 2.00323 0
M  V30 4549 H 430.625 1.29659 0.969546 0
M  V30 4550 H 432.617 0.663636 3.99222 0
M  V30 4551 H 431.187 0.0491581 3.12561 0
M  V30 4552 H 430.407 2.53264 3.02077 0
M  V30 4553 H 431.695 2.8969 4.18279 0
M  V30 4554 H 431.093 0.0776467 5.65647 0
M  V30 4555 H 429.65 0.473612 6.50077 0
M  V30 4556 N 433.083 -1.0153 1.20538 0
M  V30 4557 C 434.308 -1.79283 1.04271 0
M  V30 4558 C 434.733 -1.8372 -0.403544 0
M  V30 4559 O 434.091 -1.27321 -1.2907 0
M  V30 4560 C 434.139 -3.21535 1.63241 0
M  V30 4561 O 433.243 -4.03099 0.870908 0
M  V30 4562 H 432.584 -0.55293 0.367647 0
M  V30 4563 H 435.114 -1.27696 1.59859 0
M  V30 4564 H 435.124 -3.72243 1.6703 0
M  V30 4565 H 433.799 -3.1762 2.68497 0
M  V30 4566 H 432.376 -3.61693 0.907323 0
M  V30 4567 N 434.561 -1.01147 -1.20859 0
M  V30 4568 C 435.471 -0.58686 -2.27141 0
M  V30 4569 C 436.487 0.373198 -1.69951 0
M  V30 4570 O 437.663 0.235423 -2.00019 0
M  V30 4571 C 434.728 0.0733602 -3.46622 0
M  V30 4572 C 433.789 -0.931995 -4.19061 0
M  V30 4573 C 433.022 -0.303186 -5.32838 0
M  V30 4574 O 433.245 0.898395 -5.63281 0
M  V30 4575 O 432.179 -1.01735 -5.9324 0
M  V30 4576 H 436.005 -1.47155 -2.65667 0
M  V30 4577 H 433.59 -0.780689 -1.2738 0
M  V30 4578 H 435.472 0.442333 -4.19072 0
M  V30 4579 H 434.147 0.932329 -3.09983 0
M  V30 4580 H 433.054 -1.35224 -3.48805 0
M  V30 4581 H 434.387 -1.76076 -4.59628 0
M  V30 4582 N 436.039 1.36541 -0.78704 0
M  V30 4583 C 437.288 1.98552 -0.35494 0
M  V30 4584 C 437.601 1.63171 1.07864 0
M  V30 4585 O 438.807 2.18399 1.61289 0
M  V30 4586 C 437.263 3.55136 -0.583671 0
M  V30 4587 C 436.871 3.99444 -2.02851 0
M  V30 4588 C 438.615 4.2395 -0.215957 0
M  V30 4589 C 436.522 5.48796 -2.20403 0
M  V30 4590 H 435.452 0.742888 -0.128972 0
M  V30 4591 H 438.103 1.5587 -0.968337 0
M  V30 4592 H 436.485 3.95875 0.0994046 0
M  V30 4593 H 437.659 3.6991 -2.74779 0
M  V30 4594 H 435.974 3.43459 -2.35425 0
M  V30 4595 H 438.571 5.33709 -0.325405 0
M  V30 4596 H 438.914 4.07827 0.835646 0
M  V30 4597 H 439.447 3.88565 -0.852175 0
M  V30 4598 H 436.186 5.69864 -3.23937 0
M  V30 4599 H 435.706 5.79964 -1.52977 0
M  V30 4600 H 437.385 6.14986 -2.01002 0
M  V30 4601 N 437.518 0.538854 1.48102 0
M  V30 4602 C 438.428 -0.222648 2.33541 0
M  V30 4603 C 439.444 -0.930225 1.47047 0
M  V30 4604 O 440.62 -0.903211 1.80011 0
M  V30 4605 C 437.685 -1.25064 3.23357 0
M  V30 4606 C 436.746 -0.552469 4.2573 0
M  V30 4607 C 435.979 -1.53149 5.11254 0
M  V30 4608 O 436.202 -2.76487 4.9891 0
M  V30 4609 O 435.136 -1.06602 5.92385 0
M  V30 4610 H 438.962 0.477707 2.99919 0
M  V30 4611 H 436.547 0.299669 1.46364 0
M  V30 4612 H 438.429 -1.8445 3.78888 0
M  V30 4613 H 437.104 -1.93325 2.59629 0
M  V30 4614 H 436.011 0.082114 3.7401 0
M  V30 4615 H 437.344 0.0883526 4.92121 0
M  V30 4616 N 438.996 -1.55193 0.274407 0
M  V30 4617 C 440.412 -1.59401 -0.0797543 0
M  V30 4618 C 440.612 -1.29162 -1.54659 0
M  V30 4619 O 439.668 -1.05215 -2.29534 0
M  V30 4620 C 440.981 -2.99257 0.294238 0
M  V30 4621 C 442.529 -3.12072 0.240796 0
M  V30 4622 C 443.004 -4.54194 0.589218 0
M  V30 4623 N 444.495 -4.60033 0.540744 0
M  V30 4624 C 445.23 -5.68027 0.783147 0
M  V30 4625 N 444.726 -6.8417 1.09013 0
M  V30 4626 N 446.519 -5.57572 0.711993 0
M  V30 4627 H 438.67 -1.73113 1.23067 0
M  V30 4628 H 440.933 -0.807197 0.497129 0
M  V30 4629 H 440.639 -3.26217 1.31435 0
M  V30 4630 H 440.513 -3.75427 -0.365281 0
M  V30 4631 H 442.9 -2.84877 -0.770024 0
M  V30 4632 H 442.981 -2.38117 0.934563 0
M  V30 4633 H 442.625 -4.82115 1.59772 0
M  V30 4634 H 442.555 -5.26448 -0.126331 0
M  V30 4635 H 445.046 -3.76599 0.313327 0
M  V30 4636 H 445.359 -7.6243 1.26178 0
M  V30 4637 H 443.704 -6.85787 1.12789 0
M  V30 4638 H 446.895 -4.65714 0.472014 0
M  V30 4639 H 447.068 -6.41659 0.90429 0
M  V30 4640 N 440.474 -0.00167713 -1.576 0
M  V30 4641 C 441.723 0.682021 -1.89819 0
M  V30 4642 C 442.036 1.74844 -0.876871 0
M  V30 4643 O 443.242 2.48688 -1.08934 0
M  V30 4644 C 441.698 1.26425 -3.36964 0
M  V30 4645 C 441.306 0.232568 -4.47396 0
M  V30 4646 C 443.05 1.92604 -3.78291 0
M  V30 4647 C 440.957 0.824882 -5.85619 0
M  V30 4648 H 439.887 0.258499 -0.708304 0
M  V30 4649 H 442.538 -0.0624957 -1.83394 0
M  V30 4650 H 440.92 2.05949 -3.38232 0
M  V30 4651 H 442.094 -0.5382 -4.57646 0
M  V30 4652 H 440.409 -0.32888 -4.15099 0
M  V30 4653 H 443.006 2.37827 -4.78897 0
M  V30 4654 H 443.349 2.75732 -3.11894 0
M  V30 4655 H 443.882 1.19812 -3.79328 0
M  V30 4656 H 440.621 0.0323542 -6.55492 0
M  V30 4657 H 440.141 1.56477 -5.79029 0
M  V30 4658 H 441.82 1.32301 -6.33329 0
M  V30 4659 N 441.952 1.55251 0.271103 0
M  V30 4660 C 443.199 1.75946 1.00245 0
M  V30 4661 C 443.527 0.561611 1.86215 0
M  V30 4662 O 442.782 -0.455832 1.90317 0
M  V30 4663 C 443.081 3.01879 1.91321 0
M  V30 4664 C 442.747 4.34337 1.21086 0
M  V30 4665 C 441.409 4.70338 1.01666 0
M  V30 4666 C 443.761 5.16325 0.71119 0
M  V30 4667 C 441.089 5.8588 0.310099 0
M  V30 4668 C 443.441 6.32597 0.0182157 0
M  V30 4669 C 442.105 6.67236 -0.18768 0
M  V30 4670 H 441.375 0.643833 0.366824 0
M  V30 4671 H 444.022 1.89521 0.27458 0
M  V30 4672 H 442.327 2.83212 2.70736 0
M  V30 4673 H 444.024 3.15088 2.48033 0
M  V30 4674 H 440.614 4.06043 1.37213 0
M  V30 4675 H 444.798 4.88987 0.848844 0
M  V30 4676 H 440.054 6.1124 0.139873 0
M  V30 4677 H 444.228 6.9538 -0.376711 0
M  V30 4678 H 441.855 7.56618 -0.73715 0
M  V30 4679 N 443.43 -0.535701 1.48216 0
M  V30 4680 C 444.34 -1.66785 1.64985 0
M  V30 4681 C 445.356 -1.65654 0.532414 0
M  V30 4682 O 446.532 -1.8471 0.80275 0
M  V30 4683 C 443.597 -3.0326 1.68031 0
M  V30 4684 C 442.658 -3.1529 2.9136 0
M  V30 4685 C 441.891 -4.45255 2.94252 0
M  V30 4686 O 442.114 -5.32011 2.05719 0
M  V30 4687 O 441.048 -4.6153 3.86359 0
M  V30 4688 H 444.874 -1.55576 2.60825 0
M  V30 4689 H 442.459 -0.70815 1.31551 0
M  V30 4690 H 444.341 -3.84436 1.72589 0
M  V30 4691 H 443.016 -3.14805 0.753628 0
M  V30 4692 H 441.923 -2.3343 2.92337 0
M  V30 4693 H 443.256 -3.08658 3.83394 0
M  V30 4694 N 444.908 -1.36708 -0.784132 0
M  V30 4695 C 445.838 -1.34153 -1.91116 0
M  V30 4696 C 446.819 -0.212121 -1.68772 0
M  V30 4697 O 448.004 -0.410581 -1.8981 0
M  V30 4698 C 445.134 -1.13535 -3.28218 0
M  V30 4699 C 444.088 -2.23356 -3.65097 0
M  V30 4700 C 443.414 -1.87875 -5.00607 0
M  V30 4701 C 444.714 -3.65473 -3.73131 0
M  V30 4702 H 446.408 -2.28459 -1.93512 0
M  V30 4703 H 443.954 -1.09973 -0.929618 0
M  V30 4704 H 445.907 -1.10381 -4.06687 0
M  V30 4705 H 444.631 -0.156804 -3.26223 0
M  V30 4706 H 443.29 -2.25645 -2.88929 0
M  V30 4707 H 442.938 -0.885814 -4.95139 0
M  V30 4708 H 442.638 -2.61406 -5.26252 0
M  V30 4709 H 444.162 -1.86286 -5.81489 0
M  V30 4710 H 445.576 -3.65382 -4.41779 0
M  V30 4711 H 443.973 -4.37953 -4.10265 0
M  V30 4712 H 445.043 -3.99995 -2.74102 0
M  V30 4713 N 446.386 1.0089 -1.21074 0
M  V30 4714 C 447.349 2.0775 -0.968129 0
M  V30 4715 C 448.349 1.6069 0.0593445 0
M  V30 4716 O 449.539 1.73293 -0.177525 0
M  V30 4717 C 446.671 3.37794 -0.459108 0
M  V30 4718 H 447.864 2.30707 -1.9161 0
M  V30 4719 H 445.417 1.17807 -1.02719 0
M  V30 4720 H 446.152 3.20516 0.49397 0
M  V30 4721 H 445.937 3.7328 -1.20019 0
M  V30 4722 H 447.427 4.16454 -0.309099 0
M  V30 4723 N 447.864 1.01787 1.20321 0
M  V30 4724 C 449.28 0.732951 1.41774 0
M  V30 4725 C 449.48 -0.686883 1.89431 0
M  V30 4726 O 448.536 -1.45446 2.06402 0
M  V30 4727 C 449.849 1.75973 2.43832 0
M  V30 4728 C 451.397 1.77802 2.57596 0
M  V30 4729 C 451.872 2.7941 3.62897 0
M  V30 4730 N 453.363 2.78157 3.70382 0
M  V30 4731 C 454.098 3.53434 4.51521 0
M  V30 4732 N 453.594 4.38392 5.36455 0
M  V30 4733 N 455.387 3.42026 4.46066 0
M  V30 4734 H 447.538 1.93447 0.877035 0
M  V30 4735 H 449.801 0.835712 0.447536 0
M  V30 4736 H 449.507 2.77699 2.15815 0
M  V30 4737 H 449.381 1.57292 3.4284 0
M  V30 4738 H 451.768 0.767602 2.84942 0
M  V30 4739 H 451.849 2.00557 1.58779 0
M  V30 4740 H 451.493 3.80616 3.36295 0
M  V30 4741 H 451.423 2.53916 4.61339 0
M  V30 4742 H 453.914 2.16531 3.09714 0
M  V30 4743 H 454.227 4.92596 5.95457 0
M  V30 4744 H 452.572 4.4247 5.35953 0
M  V30 4745 H 455.763 2.75075 3.78749 0
M  V30 4746 H 455.936 4.00946 5.09064 0
M  V30 4747 N 449.342 -1.36122 0.79427 0
M  V30 4748 C 450.567 -2.03891 0.379871 0
M  V30 4749 C 450.992 -1.59488 -0.997251 0
M  V30 4750 O 450.35 -0.765652 -1.64339 0
M  V30 4751 C 450.398 -3.57687 0.457442 0
M  V30 4752 O 449.502 -4.08931 -0.5338 0
M  V30 4753 H 448.843 -0.6443 0.160541 0
M  V30 4754 H 451.373 -1.73976 1.07673 0
M  V30 4755 H 451.383 -4.06721 0.322792 0
M  V30 4756 H 450.058 -3.89357 1.46199 0
M  V30 4757 H 448.635 -3.71154 -0.360409 0
M  V30 4758 N 450.82 -0.546701 -1.47814 0
M  V30 4759 C 451.75 0.195317 -2.32682 0
M  V30 4760 C 452.731 0.918981 -1.43139 0
M  V30 4761 O 453.916 0.901501 -1.72008 0
M  V30 4762 C 451.046 1.23237 -3.247 0
M  V30 4763 C 450 0.625818 -4.234 0
M  V30 4764 C 449.326 1.76674 -5.04669 0
M  V30 4765 C 450.626 -0.413515 -5.2066 0
M  V30 4766 H 452.32 -0.513184 -2.94969 0
M  V30 4767 H 449.866 -0.248241 -1.41844 0
M  V30 4768 H 451.819 1.75955 -3.82907 0
M  V30 4769 H 450.543 1.97067 -2.60446 0
M  V30 4770 H 449.202 0.120023 -3.66403 0
M  V30 4771 H 448.85 2.49383 -4.36826 0
M  V30 4772 H 448.55 1.36673 -5.71484 0
M  V30 4773 H 450.074 2.29738 -5.65732 0
M  V30 4774 H 451.488 0.0272042 -5.73294 0
M  V30 4775 H 449.885 -0.731825 -5.95621 0
M  V30 4776 H 450.955 -1.31325 -4.66778 0
M  V30 4777 N 452.299 1.55045 -0.282633 0
M  V30 4778 C 453.231 2.2023 0.634924 0
M  V30 4779 C 454.244 1.18931 1.11172 0
M  V30 4780 O 455.433 1.4562 1.03233 0
M  V30 4781 C 452.533 2.82041 1.87899 0
M  V30 4782 C 451.706 4.091 1.54776 0
M  V30 4783 C 450.765 4.54887 2.64507 0
M  V30 4784 O 449.791 5.20496 2.30375 0
M  V30 4785 N 450.993 4.25659 3.94709 0
M  V30 4786 H 453.758 2.99601 0.0769811 0
M  V30 4787 H 451.319 1.61565 -0.104048 0
M  V30 4788 H 453.311 3.09613 2.60619 0
M  V30 4789 H 451.881 2.06618 2.3458 0
M  V30 4790 H 451.101 3.88736 0.654049 0
M  V30 4791 H 452.389 4.9187 1.30158 0
M  V30 4792 H 451.787 3.7306 4.25256 0
M  V30 4793 H 450.344 4.57984 4.63782 0
M  V30 4794 N 453.777 0.010035 1.57597 0
M  V30 4795 C 454.707 -0.976857 2.12084 0
M  V30 4796 C 455.688 -1.35191 1.03235 0
M  V30 4797 O 456.873 -1.43389 1.3097 0
M  V30 4798 C 454.003 -2.26548 2.63236 0
M  V30 4799 C 452.957 -2.03175 3.76701 0
M  V30 4800 C 452.283 -3.38138 4.14206 0
M  V30 4801 C 453.583 -1.38625 5.03568 0
M  V30 4802 H 455.277 -0.523145 2.94794 0
M  V30 4803 H 452.823 -0.250195 1.4181 0
M  V30 4804 H 454.776 -2.95952 2.99984 0
M  V30 4805 H 453.5 -2.74051 1.77661 0
M  V30 4806 H 452.159 -1.36195 3.40362 0
M  V30 4807 H 451.807 -3.83363 3.25641 0
M  V30 4808 H 451.507 -3.23312 4.90656 0
M  V30 4809 H 453.031 -4.08841 4.53521 0
M  V30 4810 H 454.445 -1.98 5.38023 0
M  V30 4811 H 452.842 -1.34256 5.84889 0
M  V30 4812 H 453.912 -0.356722 4.83586 0
M  V30 4813 N 455.255 -1.55392 -0.262866 0
M  V30 4814 C 456.501 -1.76737 -0.99458 0
M  V30 4815 C 456.834 -0.572453 -1.85571 0
M  V30 4816 O 456.109 0.429732 -1.89693 0
M  V30 4817 C 456.392 -3.07824 -1.8686 0
M  V30 4818 C 456.245 -4.3769 -1.03672 0
M  V30 4819 C 457.564 -3.35021 -2.85393 0
M  V30 4820 H 454.683 -0.643005 -0.360157 0
M  V30 4821 H 457.325 -1.88126 -0.266216 0
M  V30 4822 H 455.475 -2.98245 -2.48962 0
M  V30 4823 H 457.147 -4.59238 -0.43563 0
M  V30 4824 H 455.39 -4.32461 -0.340513 0
M  V30 4825 H 456.061 -5.25759 -1.6817 0
M  V30 4826 H 458.537 -3.44458 -2.33426 0
M  V30 4827 H 457.413 -4.27989 -3.43681 0
M  V30 4828 H 457.674 -2.55153 -3.61039 0
M  V30 4829 N 456.733 0.527833 -1.48498 0
M  V30 4830 C 457.979 1.28545 -1.56857 0
M  V30 4831 C 458.312 1.92678 -0.242651 0
M  V30 4832 O 457.587 1.79394 0.751545 0
M  V30 4833 C 457.87 2.37314 -2.70839 0
M  V30 4834 C 457.723 1.77858 -4.13142 0
M  V30 4835 C 459.042 3.39068 -2.80573 0
M  V30 4836 H 456.161 0.466006 -0.570971 0
M  V30 4837 H 458.803 0.587784 -1.8068 0
M  V30 4838 H 456.953 2.96821 -2.50658 0
M  V30 4839 H 458.625 1.22385 -4.44769 0
M  V30 4840 H 456.868 1.08383 -4.20042 0
M  V30 4841 H 457.539 2.56624 -4.88721 0
M  V30 4842 H 460.015 2.89518 -2.98862 0
M  V30 4843 H 458.891 4.12566 -3.6205 0
M  V30 4844 H 459.152 3.9975 -1.88818 0
M  V30 4845 N 458.211 1.37122 0.776871 0
M  V30 4846 C 459.141 1.35164 1.90402 0
M  V30 4847 C 460.122 0.221069 1.68657 0
M  V30 4848 O 461.307 0.420642 1.8959 0
M  V30 4849 C 458.437 1.15274 3.27611 0
M  V30 4850 C 457.391 2.25289 3.63908 0
M  V30 4851 C 456.717 1.90527 4.99603 0
M  V30 4852 C 458.017 3.67446 3.71188 0
M  V30 4853 H 459.711 2.29482 1.92297 0
M  V30 4854 H 457.257 1.10465 0.923773 0
M  V30 4855 H 459.21 1.12536 4.06096 0
M  V30 4856 H 457.934 0.174102 3.26136 0
M  V30 4857 H 456.593 2.27174 2.87728 0
M  V30 4858 H 456.241 0.91206 4.94662 0
M  V30 4859 H 455.941 2.64193 5.24858 0
M  V30 4860 H 457.465 1.89367 5.80493 0
M  V30 4861 H 458.879 3.67719 4.39836 0
M  V30 4862 H 457.276 4.40123 4.07936 0
M  V30 4863 H 458.346 4.01443 2.71977 0
M  V30 4864 N 459.689 -1.00246 1.21608 0
M  V30 4865 C 460.966 -1.71336 0.943568 0
M  V30 4866 C 461.346 -2.03972 -0.543943 0
M  V30 4867 O 460.694 -1.71545 -1.50946 0
M  V30 4868 C 460.904 -2.97094 1.83128 0
M  V30 4869 C 462.252 -3.70071 2.08165 0
M  V30 4870 O 463.276 -3.07081 1.80498 0
M  V30 4871 O 462.135 -4.83376 2.54971 0
M  V30 4872 H 459.229 -0.747386 0.354039 0
M  V30 4873 H 461.775 -1.05967 1.32549 0
M  V30 4874 H 460.547 -2.69407 2.83788 0
M  V30 4875 H 460.17 -3.70204 1.45034 0
M  V30 4876 N 461.167 -1.02423 -1.1978 0
M  V30 4877 C 462.13 -0.605703 -2.21052 0
M  V30 4878 C 463.13 0.328209 -1.57415 0
M  V30 4879 O 464.32 0.115853 -1.73814 0
M  V30 4880 C 461.452 0.114366 -3.40708 0
M  V30 4881 H 462.645 -1.5017 -2.59594 0
M  V30 4882 H 460.198 -0.814888 -1.33376 0
M  V30 4883 H 460.933 1.02492 -3.07678 0
M  V30 4884 H 460.718 -0.556641 -3.88129 0
M  V30 4885 H 462.208 0.394272 -4.15735 0
M  V30 4886 N 462.645 1.35699 -0.801477 0
M  V30 4887 C 463.922 1.9324 -0.302937 0
M  V30 4888 C 464.302 1.73209 1.20672 0
M  V30 4889 O 463.65 1.09809 2.00385 0
M  V30 4890 C 463.86 3.41728 -0.708747 0
M  V30 4891 C 465.208 4.18868 -0.695328 0
M  V30 4892 O 466.232 3.5022 -0.649971 0
M  V30 4893 O 465.091 5.41342 -0.749081 0
M  V30 4894 H 462.185 0.82331 -0.0780367 0
M  V30 4895 H 464.731 1.44806 -0.884832 0
M  V30 4896 H 463.503 3.50015 -1.74944 0
M  V30 4897 H 463.126 3.97471 -0.101384 0
M  V30 4898 N 464.123 0.554532 1.47522 0
M  V30 4899 C 465.351 0.034257 2.06872 0
M  V30 4900 C 465.766 -1.25826 1.40759 0
M  V30 4901 O 465.123 -1.75425 0.503217 0
M  V30 4902 C 465.174 -0.167827 3.6111 0
M  V30 4903 O 464.895 1.07351 4.24744 0
M  V30 4904 C 466.396 -0.72569 4.3732 0
M  V30 4905 H 463.616 0.0446275 0.669514 0
M  V30 4906 H 466.16 0.767181 1.89564 0
M  V30 4907 H 464.315 -0.850872 3.7794 0
M  V30 4908 H 464.729 0.869563 5.17242 0
M  V30 4909 H 466.203 -0.816394 5.45929 0
M  V30 4910 H 466.68 -1.73635 4.0342 0
M  V30 4911 H 467.286 -0.0784292 4.25228 0
M  V30 4912 N 465.601 -1.54893 0.290851 0
M  V30 4913 C 466.85 -1.99111 -0.322113 0
M  V30 4914 C 467.163 -1.18283 -1.55784 0
M  V30 4915 O 468.369 -1.5272 -2.24475 0
M  V30 4916 C 466.825 -3.54442 -0.624438 0
M  V30 4917 C 466.433 -4.44066 0.592373 0
M  V30 4918 C 468.177 -4.07211 -1.19916 0
M  V30 4919 C 466.084 -5.90812 0.263762 0
M  V30 4920 H 465.014 -0.743712 -0.124133 0
M  V30 4921 H 467.665 -1.79132 0.39797 0
M  V30 4922 H 466.047 -3.70281 -1.40384 0
M  V30 4923 H 467.221 -4.39999 1.36886 0
M  V30 4924 H 465.536 -4.02015 1.08502 0
M  V30 4925 H 468.133 -5.14407 -1.45909 0
M  V30 4926 H 468.476 -3.57196 -2.13815 0
M  V30 4927 H 469.009 -3.94873 -0.481687 0
M  V30 4928 H 465.748 -6.44955 1.17105 0
M  V30 4929 H 465.268 -5.97911 -0.475655 0
M  V30 4930 H 466.947 -6.46852 -0.138354 0
M  V30 4931 N 467.08 -0.0183926 -1.57589 0
M  V30 4932 C 468.028 0.985111 -2.10709 0
M  V30 4933 C 469.022 1.34397 -1.0312 0
M  V30 4934 O 470.228 1.32746 -1.21567 0
M  V30 4935 H 466.603 0.335418 -0.673052 0
M  V30 4936 H 468.574 0.511689 -2.9398 0
M  V30 4937 C 467.323 2.26202 -2.64061 0
M  V30 4938 H 466.646 1.9946 -3.4649 0
M  V30 4939 H 468.086 2.94652 -3.04887 0
M  V30 4940 C 466.545 2.98444 -1.5631 0
M  V30 4941 O 467.075 3.90142 -0.956674 0
M  V30 4942 N 465.281 2.6059 -1.28612 0
M  V30 4943 H 464.828 1.86101 -1.78112 0
M  V30 4944 H 464.786 3.09238 -0.567406 0
M  V30 4945 N 468.558 1.5553 0.254621 0
M  V30 4946 C 469.508 1.86057 1.31783 0
M  V30 4947 C 470.492 0.720827 1.4385 0
M  V30 4948 O 471.684 0.982586 1.47222 0
M  V30 4949 C 468.813 2.15203 2.67475 0
M  V30 4950 C 467.899 3.35484 2.59444 0
M  V30 4951 N 468.29 4.54945 2.2104 0
M  V30 4952 C 466.588 3.38441 2.90472 0
M  V30 4953 C 467.289 5.3707 2.23453 0
M  V30 4954 N 466.265 4.75936 2.62652 0
M  V30 4955 H 470.067 2.75953 1.01129 0
M  V30 4956 H 467.581 1.55653 0.463255 0
M  V30 4957 H 469.578 2.35235 3.44195 0
M  V30 4958 H 468.238 1.26601 2.99002 0
M  V30 4959 H 469.249 4.8071 1.92712 0
M  V30 4960 H 465.926 2.60087 3.2659 0
M  V30 4961 H 467.316 6.42626 1.96166 0
M  V30 4962 N 470.036 -0.519951 1.48776 0
M  V30 4963 C 471.447 -1.10177 1.50725 0
M  V30 4964 C 471.798 -1.94153 0.282678 0
M  V30 4965 O 470.923 -2.07645 -0.609298 0
M  V30 4966 C 471.518 -2.00482 2.73116 0
M  V30 4967 C 470.077 -2.53862 2.77905 0
M  V30 4968 C 469.224 -1.31047 2.44381 0
M  V30 4969 H 472.175 -0.30473 1.55747 0
M  V30 4970 H 472.196 -2.8491 2.52203 0
M  V30 4971 H 471.708 -1.39335 3.62225 0
M  V30 4972 H 469.809 -3.18702 1.93029 0
M  V30 4973 H 469.922 -2.9231 3.79594 0
M  V30 4974 H 468.286 -1.62953 1.95751 0
M  V30 4975 H 469.069 -0.71637 3.35743 0
M  V30 4976 N 471.514 -1.37532 -0.769588 0
M  V30 4977 C 472.477 -1.33292 -1.86456 0
M  V30 4978 C 473.477 -0.236537 -1.59051 0
M  V30 4979 O 474.667 -0.492511 -1.67093 0
M  V30 4980 C 471.799 -1.07118 -3.23633 0
M  V30 4981 H 472.992 -2.30692 -1.91628 0
M  V30 4982 H 470.545 -1.22593 -0.969572 0
M  V30 4983 H 471.28 -0.102578 -3.24138 0
M  V30 4984 H 471.065 -1.86479 -3.44917 0
M  V30 4985 H 472.555 -1.06806 -4.03711 0
M  V30 4986 N 472.992 0.995999 -1.22138 0
M  V30 4987 C 473.924 2.08745 -0.946485 0
M  V30 4988 C 474.937 1.62633 0.0737356 0
M  V30 4989 O 476.126 1.77782 -0.159886 0
M  V30 4990 C 473.226 3.36516 -0.401305 0
M  V30 4991 C 472.399 4.11672 -1.47801 0
M  V30 4992 C 471.458 5.17728 -0.940461 0
M  V30 4993 O 470.484 5.45482 -1.62596 0
M  V30 4994 N 471.686 5.80005 0.239723 0
M  V30 4995 H 474.451 2.32908 -1.88611 0
M  V30 4996 H 472.012 1.16152 -1.12785 0
M  V30 4997 H 474.004 4.04691 -0.0270837 0
M  V30 4998 H 472.574 3.0944 0.443354 0
M  V30 4999 H 471.794 3.38171 -2.02568 0
M  V30 5000 H 473.082 4.58657 -2.20253 0
M  V30 5001 H 472.48 5.5982 0.813518 0
M  V30 5002 H 471.037 6.4943 0.555361 0
M  V30 5003 N 474.47 1.03057 1.19235 0
M  V30 5004 C 475.4 0.633497 2.24742 0
M  V30 5005 C 476.381 -0.358335 1.66283 0
M  V30 5006 O 477.566 -0.240676 1.92703 0
M  V30 5007 C 474.696 -0.0147648 3.47297 0
M  V30 5008 C 473.65 0.899527 4.18441 0
M  V30 5009 C 472.976 0.116281 5.34574 0
M  V30 5010 C 474.276 2.21404 4.73051 0
M  V30 5011 H 475.97 1.5155 2.58211 0
M  V30 5012 H 473.516 0.73014 1.24117 0
M  V30 5013 H 475.469 -0.304202 4.20301 0
M  V30 5014 H 474.193 -0.931577 3.13032 0
M  V30 5015 H 472.852 1.17319 3.47321 0
M  V30 5016 H 472.5 -0.802619 4.96555 0
M  V30 5017 H 472.2 0.725293 5.83107 0
M  V30 5018 H 473.724 -0.166376 6.10373 0
M  V30 5019 H 475.138 1.98601 5.37802 0
M  V30 5020 H 473.535 2.77512 5.32078 0
M  V30 5021 H 474.605 2.86752 3.91026 0
M  V30 5022 N 475.948 -1.35272 0.808662 0
M  V30 5023 C 477.197 -1.97963 0.386483 0
M  V30 5024 C 477.51 -1.64866 -1.05255 0
M  V30 5025 O 478.716 -2.20937 -1.57794 0
M  V30 5026 C 477.172 -3.54162 0.640096 0
M  V30 5027 C 476.78 -3.96166 2.0918 0
M  V30 5028 C 478.524 -4.23553 0.283376 0
M  V30 5029 C 476.431 -5.4522 2.29106 0
M  V30 5030 H 475.361 -0.740742 0.140774 0
M  V30 5031 H 478.012 -1.5431 0.993012 0
M  V30 5032 H 476.394 -3.95983 -0.0364117 0
M  V30 5033 H 477.568 -3.65491 2.80629 0
M  V30 5034 H 475.883 -3.3967 2.40859 0
M  V30 5035 H 478.48 -5.33124 0.410273 0
M  V30 5036 H 478.823 -4.09105 -0.770659 0
M  V30 5037 H 479.356 -3.8716 0.913884 0
M  V30 5038 H 476.095 -5.64638 3.32962 0
M  V30 5039 H 475.615 -5.77457 1.62184 0
M  V30 5040 H 477.294 -6.1171 2.1076 0
M  V30 5041 N 477.426 -0.562348 -1.47226 0
M  V30 5042 C 478.373 0.182461 -2.30078 0
M  V30 5043 C 479.343 0.903503 -1.39377 0
M  V30 5044 O 480.528 0.898188 -1.68337 0
M  V30 5045 C 477.668 1.20322 -3.23445 0
M  V30 5046 C 476.781 0.487717 -4.29238 0
M  V30 5047 C 475.916 1.49422 -5.09752 0
M  V30 5048 C 474.955 0.763976 -6.07314 0
M  V30 5049 N 474.092 1.71755 -6.80768 0
M  V30 5050 H 478.932 -0.530169 -2.93246 0
M  V30 5051 H 476.469 -0.273276 -1.44539 0
M  V30 5052 H 478.427 1.80768 -3.76004 0
M  V30 5053 H 477.057 1.88382 -2.6213 0
M  V30 5054 H 476.109 -0.231374 -3.79696 0
M  V30 5055 H 477.421 -0.0841003 -4.98729 0
M  V30 5056 H 476.575 2.17206 -5.66486 0
M  V30 5057 H 475.314 2.09995 -4.40174 0
M  V30 5058 H 474.319 0.0722344 -5.49753 0
M  V30 5059 H 475.544 0.16391 -6.78902 0
M  V30 5060 H 473.49 2.31177 -6.13916 0
M  V30 5061 H 473.407 1.19802 -7.46447 0
M  V30 5062 H 474.675 2.38638 -7.42073 0
M  V30 5063 N 478.904 1.54736 -0.299062 0
M  V30 5064 C 480.132 2.04512 0.313447 0
M  V30 5065 C 480.547 1.17643 1.47667 0
M  V30 5066 O 479.904 0.20164 1.81383 0
M  V30 5067 C 479.955 3.53171 0.771542 0
M  V30 5068 O 479.676 4.36736 -0.345379 0
M  V30 5069 C 481.177 4.18936 1.4494 0
M  V30 5070 H 478.397 0.667507 0.0683784 0
M  V30 5071 H 480.941 1.99752 -0.438129 0
M  V30 5072 H 479.096 3.58298 1.47314 0
M  V30 5073 H 479.51 5.24499 0.0109219 0
M  V30 5074 H 480.984 5.24482 1.72111 0
M  V30 5075 H 481.461 3.68554 2.38883 0
M  V30 5076 H 482.067 4.17879 0.791028 0
M  V30 5077 N 480.382 0.0267497 1.57577 0
M  V30 5078 C 481.607 -0.666227 1.96408 0
M  V30 5079 C 482.032 -1.65004 0.903071 0
M  V30 5080 O 481.39 -1.80787 -0.136263 0
M  V30 5081 C 481.438 -1.35101 3.34335 0
M  V30 5082 O 480.542 -2.46623 3.30531 0
M  V30 5083 H 479.883 -0.175206 0.640468 0
M  V30 5084 H 482.413 0.0878977 2.04411 0
M  V30 5085 H 482.423 -1.70834 3.70513 0
M  V30 5086 H 481.098 -0.629844 4.11103 0
M  V30 5087 H 479.675 -2.13019 3.06068 0
M  V30 5088 N 481.861 -1.55662 -0.24637 0
M  V30 5089 C 482.791 -1.93377 -1.30873 0
M  V30 5090 C 483.772 -0.798773 -1.50179 0
M  V30 5091 O 484.957 -1.0591 -1.62778 0
M  V30 5092 C 482.087 -2.22893 -2.66338 0
M  V30 5093 C 481.041 -3.38649 -2.61727 0
M  V30 5094 C 480.367 -3.53708 -4.00992 0
M  V30 5095 C 481.667 -4.74323 -2.18666 0
M  V30 5096 H 483.361 -2.82363 -0.995552 0
M  V30 5097 H 480.907 -1.35854 -0.477464 0
M  V30 5098 H 482.86 -2.47866 -3.40794 0
M  V30 5099 H 481.584 -1.30733 -2.99293 0
M  V30 5100 H 480.243 -3.13685 -1.89729 0
M  V30 5101 H 479.891 -2.58967 -4.31214 0
M  V30 5102 H 479.591 -4.31551 -3.98795 0
M  V30 5103 H 481.115 -3.81003 -4.77147 0
M  V30 5104 H 482.529 -4.98665 -2.82854 0
M  V30 5105 H 480.926 -5.55273 -2.27579 0
M  V30 5106 H 481.996 -4.71349 -1.13834 0
M  V30 5107 N 483.339 0.512053 -1.4905 0
M  V30 5108 C 484.302 1.59704 -1.64399 0
M  V30 5109 C 485.302 1.52285 -0.516317 0
M  V30 5110 O 486.492 1.55635 -0.782527 0
M  V30 5111 C 483.624 2.9935 -1.63102 0
M  V30 5112 H 484.817 1.47428 -2.61161 0
M  V30 5113 H 482.37 0.735469 -1.37915 0
M  V30 5114 H 483.105 3.17116 -0.678836 0
M  V30 5115 H 482.89 3.06144 -2.44986 0
M  V30 5116 H 484.38 3.782 -1.77072 0
M  V30 5117 N 484.817 1.37938 0.762283 0
M  V30 5118 C 486.228 1.30094 1.33912 0
M  V30 5119 C 486.579 -0.0472026 1.96143 0
M  V30 5120 O 485.704 -0.94917 1.94473 0
M  V30 5121 C 486.299 2.35592 2.43478 0
M  V30 5122 C 484.858 2.31353 2.96905 0
M  V30 5123 C 484.005 2.18919 1.70205 0
M  V30 5124 H 486.956 1.48423 0.561816 0
M  V30 5125 H 486.977 2.00806 3.23199 0
M  V30 5126 H 486.489 3.33701 1.98155 0
M  V30 5127 H 484.59 1.36799 3.46579 0
M  V30 5128 H 484.703 3.25147 3.51875 0
M  V30 5129 H 483.067 1.65624 1.93496 0
M  V30 5130 H 483.85 3.18956 1.26973 0
M  V30 5131 N 486.295 -0.989507 1.22664 0
M  V30 5132 C 487.544 -1.72375 1.04737 0
M  V30 5133 C 487.857 -1.91096 -0.417316 0
M  V30 5134 O 489.063 -2.6188 -0.716334 0
M  V30 5135 C 487.519 -3.10161 1.82561 0
M  V30 5136 C 487.127 -2.99358 3.333 0
M  V30 5137 C 488.871 -3.87607 1.73093 0
M  V30 5138 C 486.778 -4.32319 4.03552 0
M  V30 5139 H 485.708 -0.646326 0.388302 0
M  V30 5140 H 488.359 -1.10437 1.46546 0
M  V30 5141 H 486.741 -3.728 1.33552 0
M  V30 5142 H 487.915 -2.45863 3.89728 0
M  V30 5143 H 486.23 -2.35392 3.43481 0
M  V30 5144 H 488.827 -4.86025 2.22899 0
M  V30 5145 H 489.17 -4.10509 0.691976 0
M  V30 5146 H 489.703 -3.31652 2.19663 0
M  V30 5147 H 486.442 -4.14616 5.07714 0
M  V30 5148 H 485.962 -4.85714 3.51911 0
M  V30 5149 H 487.641 -5.01051 4.09337 0
M  V30 5150 N 487.773 -1.03688 -1.18687 0
M  V30 5151 C 489.022 -0.733235 -1.879 0
M  V30 5152 C 489.335 0.741745 -1.8099 0
M  V30 5153 O 490.541 1.15875 -2.4553 0
M  V30 5154 C 488.997 -1.26127 -3.37076 0
M  V30 5155 C 488.605 -2.76461 -3.52524 0
M  V30 5156 C 490.349 -1.03398 -4.11715 0
M  V30 5157 C 488.256 -3.22642 -4.95637 0
M  V30 5158 H 487.186 -0.270584 -0.703776 0
M  V30 5159 H 489.837 -1.25222 -1.34133 0
M  V30 5160 H 488.219 -0.670165 -3.90288 0
M  V30 5161 H 489.393 -3.41296 -3.09602 0
M  V30 5162 H 487.708 -2.97559 -2.91286 0
M  V30 5163 H 490.305 -1.3542 -5.17267 0
M  V30 5164 H 490.648 0.0289246 -4.1629 0
M  V30 5165 H 491.181 -1.5895 -3.64664 0
M  V30 5166 H 487.92 -4.28296 -4.96228 0
M  V30 5167 H 487.44 -2.62539 -5.39289 0
M  V30 5168 H 489.119 -3.16444 -5.64333 0
M  V30 5169 N 489.251 1.34841 -0.815825 0
M  V30 5170 C 490.497 1.98793 -0.401129 0
M  V30 5171 C 490.83 1.64548 1.03139 0
M  V30 5172 O 490.105 0.913487 1.71714 0
M  V30 5173 C 490.388 3.55143 -0.595409 0
M  V30 5174 C 490.241 3.99155 -2.07352 0
M  V30 5175 C 491.56 4.40092 -0.0268823 0
M  V30 5176 H 488.679 0.722146 -0.14722 0
M  V30 5177 H 491.321 1.59847 -1.02707 0
M  V30 5178 H 489.471 3.8845 -0.0625779 0
M  V30 5179 H 491.143 3.76216 -2.66945 0
M  V30 5180 H 489.386 3.49726 -2.56659 0
M  V30 5181 H 490.057 5.07971 -2.1603 0
M  V30 5182 H 492.533 4.13298 -0.482042 0
M  V30 5183 H 491.409 5.48562 -0.19267 0
M  V30 5184 H 491.67 4.29016 1.06759 0
M  V30 5185 N 490.729 0.570148 1.46925 0
M  V30 5186 C 491.679 -0.190921 2.27199 0
M  V30 5187 C 492.663 -0.873457 1.35128 0
M  V30 5188 O 493.855 -0.769627 1.59392 0
M  V30 5189 C 490.984 -1.21204 3.21192 0
M  V30 5190 C 490.07 -0.532261 4.20747 0
M  V30 5191 N 490.461 0.405038 5.04176 0
M  V30 5192 C 488.759 -0.784582 4.39045 0
M  V30 5193 C 489.46 0.801149 5.76157 0
M  V30 5194 N 488.436 0.153082 5.43384 0
M  V30 5195 H 492.238 0.529535 2.8909 0
M  V30 5196 H 489.752 0.391019 1.57622 0
M  V30 5197 H 491.749 -1.77135 3.77398 0
M  V30 5198 H 490.409 -1.93345 2.6086 0
M  V30 5199 H 491.42 0.779903 5.11994 0
M  V30 5200 H 488.097 -1.49352 3.89872 0
M  V30 5201 H 489.487 1.57208 6.5325 0
M  V30 5202 N 492.207 -1.54576 0.307264 0
M  V30 5203 C 493.453 -2.0056 -0.300612 0
M  V30 5204 C 493.786 -1.1953 -1.53057 0
M  V30 5205 O 493.061 -0.27337 -1.92569 0
M  V30 5206 C 493.344 -3.54167 -0.650987 0
M  V30 5207 C 493.197 -4.45933 0.588539 0
M  V30 5208 C 494.516 -4.14645 -1.47506 0
M  V30 5209 H 491.635 -0.729075 -0.107788 0
M  V30 5210 H 494.277 -1.85286 0.420606 0
M  V30 5211 H 492.427 -3.67313 -1.26544 0
M  V30 5212 H 494.099 -4.44683 1.22697 0
M  V30 5213 H 492.342 -4.16274 1.22058 0
M  V30 5214 H 493.013 -5.51189 0.299153 0
M  V30 5215 H 495.489 -4.04973 -0.955821 0
M  V30 5216 H 494.365 -5.22269 -1.68899 0
M  V30 5217 H 494.626 -3.66921 -2.4662 0
M  V30 5218 N 493.685 -0.035106 -1.57561 0
M  V30 5219 C 494.632 0.94474 -2.10578 0
M  V30 5220 C 495.602 1.3192 -1.00927 0
M  V30 5221 O 496.787 1.41147 -1.28382 0
M  V30 5222 C 493.927 2.21982 -2.64231 0
M  V30 5223 C 493.04 1.90128 -3.87911 0
M  V30 5224 C 492.175 3.11975 -4.29936 0
M  V30 5225 C 491.214 2.75968 -5.46359 0
M  V30 5226 N 490.351 3.90459 -5.83512 0
M  V30 5227 H 495.191 0.485717 -2.94015 0
M  V30 5228 H 492.728 0.228143 -1.4532 0
M  V30 5229 H 494.686 2.96572 -2.9343 0
M  V30 5230 H 493.316 2.6549 -1.83616 0
M  V30 5231 H 492.368 1.05755 -3.65404 0
M  V30 5232 H 493.68 1.59613 -4.72573 0
M  V30 5233 H 492.834 3.9488 -4.60603 0
M  V30 5234 H 491.573 3.45657 -3.44053 0
M  V30 5235 H 490.578 1.91478 -5.1538 0
M  V30 5236 H 491.803 2.43497 -6.33945 0
M  V30 5237 H 489.749 4.23971 -5.00584 0
M  V30 5238 H 489.666 3.63588 -6.62827 0
M  V30 5239 H 490.934 4.7405 -6.18787 0
M  V30 5240 N 495.163 1.55791 0.238111 0
M  V30 5241 C 496.409 1.78297 0.966337 0
M  V30 5242 C 496.742 0.601903 1.84637 0
M  V30 5243 O 496.017 -0.399499 1.90353 0
M  V30 5244 C 496.3 3.10758 1.81939 0
M  V30 5245 C 496.153 4.39283 0.966958 0
M  V30 5246 C 497.472 3.39519 2.80027 0
M  V30 5247 H 494.591 0.648654 0.349882 0
M  V30 5248 H 497.233 1.88525 0.236253 0
M  V30 5249 H 495.383 3.02168 2.44185 0
M  V30 5250 H 497.055 4.59873 0.362514 0
M  V30 5251 H 495.298 4.32948 0.271669 0
M  V30 5252 H 495.969 5.28368 1.59784 0
M  V30 5253 H 498.445 3.48128 2.27917 0
M  V30 5254 H 497.321 4.33402 3.36829 0
M  V30 5255 H 497.582 2.60864 3.56934 0
M  V30 5256 N 496.642 -0.504142 1.49319 0
M  V30 5257 C 497.867 -1.28729 1.62615 0
M  V30 5258 C 498.292 -1.85752 0.296309 0
M  V30 5259 O 497.65 -1.65704 -0.735649 0
M  V30 5260 C 497.698 -2.39561 2.69524 0
M  V30 5261 O 496.802 -3.43324 2.28478 0
M  V30 5262 H 496.143 -0.380172 0.544395 0
M  V30 5263 H 498.673 -0.603872 1.95485 0
M  V30 5264 H 498.683 -2.8537 2.91595 0
M  V30 5265 H 497.358 -1.97423 3.66056 0
M  V30 5266 H 495.935 -3.03455 2.16725 0
M  V30 5267 N 498.12 -1.38341 -0.754957 0
M  V30 5268 C 499.345 -1.37882 -1.5493 0
M  V30 5269 C 499.77 0.0296385 -1.88077 0
M  V30 5270 O 499.128 1.01133 -1.50472 0
M  V30 5271 C 499.176 -2.23996 -2.82592 0
M  V30 5272 O 498.28 -1.65612 -3.77686 0
M  V30 5273 H 497.621 -0.470384 -0.468652 0
M  V30 5274 H 500.151 -1.82084 -0.933082 0
M  V30 5275 H 500.161 -2.37806 -3.3153 0
M  V30 5276 H 498.836 -3.26365 -2.57796 0
M  V30 5277 H 497.413 -1.60936 -3.36384 0
M  V30 5278 N 499.598 0.982988 -1.23187 0
M  V30 5279 C 501.009 1.53847 -1.05773 0
M  V30 5280 C 501.36 1.92568 0.375744 0
M  V30 5281 O 500.485 1.75783 1.26211 0
M  V30 5282 C 501.08 2.79567 -1.91384 0
M  V30 5283 C 499.639 3.31524 -1.78238 0
M  V30 5284 C 498.786 2.04534 -1.87246 0
M  V30 5285 H 501.737 0.802962 -1.36888 0
M  V30 5286 H 501.758 3.52317 -1.43711 0
M  V30 5287 H 501.27 2.51353 -2.95708 0
M  V30 5288 H 499.371 3.64623 -0.766875 0
M  V30 5289 H 499.484 4.01457 -2.61475 0
M  V30 5290 H 497.848 2.1855 -1.30797 0
M  V30 5291 H 498.631 1.78706 -2.9312 0
M  V30 5292 N 501.076 1.04316 1.18135 0
M  V30 5293 C 502.023 0.636398 2.21853 0
M  V30 5294 C 502.993 -0.357039 1.62217 0
M  V30 5295 O 504.178 -0.250453 1.89149 0
M  V30 5296 C 501.318 0.00812779 3.45099 0
M  V30 5297 C 500.431 1.04933 4.19062 0
M  V30 5298 C 499.566 0.389313 5.29771 0
M  V30 5299 C 498.605 1.41544 5.9551 0
M  V30 5300 N 497.742 0.78021 6.97751 0
M  V30 5301 H 502.582 1.52536 2.56002 0
M  V30 5302 H 500.119 0.76304 1.25762 0
M  V30 5303 H 502.077 -0.373497 4.15525 0
M  V30 5304 H 500.707 -0.844336 3.11562 0
M  V30 5305 H 499.759 1.54888 3.47439 0
M  V30 5306 H 501.071 1.82862 4.64072 0
M  V30 5307 H 500.225 -0.0463805 6.06682 0
M  V30 5308 H 498.964 -0.422038 4.8587 0
M  V30 5309 H 497.969 1.86124 5.17337 0
M  V30 5310 H 499.194 2.22854 6.41493 0
M  V30 5311 H 497.14 -0.0107899 6.55999 0
M  V30 5312 H 497.057 1.49716 7.41027 0
M  V30 5313 H 498.325 0.368996 7.78626 0
M  V30 5314 N 502.554 -1.34406 0.822964 0
M  V30 5315 C 503.8 -1.98578 0.411666 0
M  V30 5316 C 504.133 -1.65093 -1.02264 0
M  V30 5317 O 503.408 -0.92258 -1.71227 0
M  V30 5318 C 503.691 -3.54823 0.614235 0
M  V30 5319 C 503.544 -3.9805 2.09466 0
M  V30 5320 C 504.863 -4.40071 0.050221 0
M  V30 5321 H 501.982 -0.721355 0.151047 0
M  V30 5322 H 504.624 -1.59301 1.03554 0
M  V30 5323 H 502.774 -3.88411 0.0831774 0
M  V30 5324 H 504.446 -3.74795 2.68936 0
M  V30 5325 H 502.689 -3.4836 2.5851 0
M  V30 5326 H 503.36 -5.06819 2.18721 0
M  V30 5327 H 505.836 -4.13037 0.503953 0
M  V30 5328 H 504.712 -5.48452 0.221759 0
M  V30 5329 H 504.973 -4.29576 -1.04482 0
M  V30 5330 N 504.032 -0.577932 -1.46621 0
M  V30 5331 C 504.962 0.145917 -2.33044 0
M  V30 5332 C 505.943 0.888412 -1.45056 0
M  V30 5333 O 507.128 0.864812 -1.73881 0
M  V30 5334 C 504.258 1.16322 -3.27241 0
M  V30 5335 C 503.212 0.535868 -4.24632 0
M  V30 5336 C 502.538 1.65929 -5.08303 0
M  V30 5337 C 503.838 -0.523861 -5.19666 0
M  V30 5338 H 505.532 -0.575636 -2.93814 0
M  V30 5339 H 503.078 -0.278272 -1.41286 0
M  V30 5340 H 505.031 1.67793 -3.86553 0
M  V30 5341 H 503.755 1.91498 -2.64567 0
M  V30 5342 H 502.414 0.0422759 -3.66576 0
M  V30 5343 H 502.062 2.40061 -4.42018 0
M  V30 5344 H 501.762 1.2452 -5.74255 0
M  V30 5345 H 503.286 2.17686 -5.70478 0
M  V30 5346 H 504.7 -0.0944059 -5.73222 0
M  V30 5347 H 503.097 -0.858 -5.93935 0
M  V30 5348 H 504.167 -1.41197 -4.63887 0
M  V30 5349 N 505.51 1.54411 -0.315457 0
M  V30 5350 C 506.442 2.21527 0.588067 0
M  V30 5351 C 507.455 1.21263 1.08624 0
M  V30 5352 O 508.644 1.47777 1.00121 0
M  V30 5353 C 505.744 2.85963 1.81875 0
M  V30 5354 C 504.917 4.12291 1.46063 0
M  V30 5355 C 503.976 4.60396 2.54799 0
M  V30 5356 O 503.002 5.25265 2.19283 0
M  V30 5357 N 504.204 4.33935 3.85591 0
M  V30 5358 H 506.969 2.99697 0.013414 0
M  V30 5359 H 504.53 1.61308 -0.138295 0
M  V30 5360 H 506.522 3.15071 2.53993 0
M  V30 5361 H 505.092 2.11548 2.30144 0
M  V30 5362 H 504.312 3.90036 0.571445 0
M  V30 5363 H 505.6 4.9452 1.19695 0
M  V30 5364 H 504.998 3.81996 4.17248 0
M  V30 5365 H 503.555 4.67718 4.53964 0
M  V30 5366 N 506.988 0.0434614 1.5754 0
M  V30 5367 C 508.404 -0.313039 1.565 0
M  V30 5368 C 508.604 -1.71954 1.05043 0
M  V30 5369 O 507.66 -2.425 0.703564 0
M  V30 5370 C 508.973 -0.148544 3.00333 0
M  V30 5371 C 510.521 -0.220231 3.12224 0
M  V30 5372 C 510.996 -0.0843565 4.57922 0
M  V30 5373 N 512.487 -0.140881 4.62986 0
M  V30 5374 C 513.222 -0.0597443 5.73369 0
M  V30 5375 N 512.718 0.0733004 6.92761 0
M  V30 5376 N 514.511 -0.11477 5.61983 0
M  V30 5377 H 506.662 0.96303 1.89313 0
M  V30 5378 H 508.925 0.373164 0.871466 0
M  V30 5379 H 508.631 0.820894 3.41986 0
M  V30 5380 H 508.505 -0.912798 3.65989 0
M  V30 5381 H 510.892 -1.18014 2.70475 0
M  V30 5382 H 510.973 0.574646 2.49262 0
M  V30 5383 H 510.617 0.872192 5.00355 0
M  V30 5384 H 510.547 -0.898281 5.18882 0
M  V30 5385 H 513.038 -0.243273 3.77116 0
M  V30 5386 H 513.351 0.128128 7.72694 0
M  V30 5387 H 511.696 0.10828 6.94916 0
M  V30 5388 H 514.887 -0.217212 4.67596 0
M  V30 5389 H 515.06 -0.0480779 6.47982 0
M  V30 5390 N 508.466 -1.55915 -0.229846 0
M  V30 5391 C 509.396 -1.94754 -1.28815 0
M  V30 5392 C 510.377 -0.814657 -1.49323 0
M  V30 5393 O 511.562 -1.07631 -1.61645 0
M  V30 5394 C 508.692 -2.25705 -2.63959 0
M  V30 5395 C 507.646 -3.41406 -2.5812 0
M  V30 5396 C 506.972 -3.57941 -3.97218 0
M  V30 5397 C 508.272 -4.76616 -2.13623 0
M  V30 5398 H 509.966 -2.83404 -0.965547 0
M  V30 5399 H 507.512 -1.36353 -0.463028 0
M  V30 5400 H 509.465 -2.51467 -3.38146 0
M  V30 5401 H 508.189 -1.339 -2.9789 0
M  V30 5402 H 506.848 -3.1568 -1.86391 0
M  V30 5403 H 506.496 -2.63526 -4.28443 0
M  V30 5404 H 506.196 -4.35757 -3.94195 0
M  V30 5405 H 507.72 -3.86042 -4.73079 0
M  V30 5406 H 509.134 -5.01637 -2.77549 0
M  V30 5407 H 507.531 -5.57655 -2.21677 0
M  V30 5408 H 508.601 -4.7253 -1.08829 0
M  V30 5409 N 509.944 0.496216 -1.49584 0
M  V30 5410 C 511.193 1.24668 -1.58558 0
M  V30 5411 C 511.506 1.9359 -0.279703 0
M  V30 5412 O 512.712 2.70365 -0.248048 0
M  V30 5413 C 511.168 2.26388 -2.79779 0
M  V30 5414 C 510.776 1.63384 -4.17145 0
M  V30 5415 C 512.52 3.02233 -2.98086 0
M  V30 5416 C 510.427 2.63243 -5.29582 0
M  V30 5417 H 509.357 0.468995 -0.590389 0
M  V30 5418 H 512.008 0.519985 -1.75978 0
M  V30 5419 H 510.39 3.02241 -2.55863 0
M  V30 5420 H 511.564 0.93491 -4.51216 0
M  V30 5421 H 509.879 0.999121 -4.04236 0
M  V30 5422 H 512.476 3.76919 -3.79257 0
M  V30 5423 H 512.819 3.60132 -2.08831 0
M  V30 5424 H 513.352 2.33495 -3.22063 0
M  V30 5425 H 510.091 2.10119 -6.20911 0
M  V30 5426 H 509.611 3.31363 -4.99959 0
M  V30 5427 H 511.29 3.25575 -5.59115 0
M  V30 5428 N 511.423 1.38739 0.74761 0
M  V30 5429 C 512.37 1.36449 1.86146 0
M  V30 5430 C 513.34 0.226098 1.64554 0
M  V30 5431 O 514.525 0.41926 1.86137 0
M  V30 5432 C 511.665 1.2013 3.23516 0
M  V30 5433 C 510.778 2.43407 3.56899 0
M  V30 5434 C 509.913 2.19773 4.83605 0
M  V30 5435 C 508.952 3.3879 5.09792 0
M  V30 5436 N 508.089 3.14553 6.27695 0
M  V30 5437 H 512.929 2.3167 1.87438 0
M  V30 5438 H 510.466 1.15094 0.916063 0
M  V30 5439 H 512.424 1.08683 4.02795 0
M  V30 5440 H 511.054 0.285453 3.21535 0
M  V30 5441 H 510.106 2.65504 2.72418 0
M  V30 5442 H 511.418 3.32094 3.72176 0
M  V30 5443 H 510.572 2.05496 5.70838 0
M  V30 5444 H 509.311 1.28461 4.70478 0
M  V30 5445 H 508.316 3.53579 4.21025 0
M  V30 5446 H 509.541 4.30986 5.24812 0
M  V30 5447 H 507.487 2.25893 6.1588 0
M  V30 5448 H 507.404 3.96791 6.435 0
M  V30 5449 H 508.672 3.03943 7.17801 0
M  V30 5450 N 512.901 -0.976442 1.23707 0
M  V30 5451 C 514.126 -1.75875 1.09922 0
M  V30 5452 C 514.551 -1.84911 -0.34489 0
M  V30 5453 O 513.909 -1.31363 -1.24954 0
M  V30 5454 C 513.957 -3.16179 1.73388 0
M  V30 5455 O 513.061 -4.00124 0.99871 0
M  V30 5456 H 512.402 -0.540954 0.385052 0
M  V30 5457 H 514.932 -1.22546 1.6384 0
M  V30 5458 H 514.942 -3.66741 1.78788 0
M  V30 5459 H 513.617 -3.08917 2.78466 0
M  V30 5460 H 512.194 -3.58624 1.02193 0
M  V30 5461 N 514.379 -1.04941 -1.1758 0
M  V30 5462 C 515.795 -0.770282 -1.39781 0
M  V30 5463 C 515.995 0.636417 -1.91186 0
M  V30 5464 O 515.051 1.39923 -2.10185 0
M  V30 5465 C 516.364 -1.82376 -2.3908 0
M  V30 5466 C 517.912 -1.84569 -2.52791 0
M  V30 5467 C 518.387 -2.88933 -3.55361 0
M  V30 5468 N 519.878 -2.8788 -3.62877 0
M  V30 5469 C 520.613 -3.65282 -4.41992 0
M  V30 5470 N 520.109 -4.52461 -5.24643 0
M  V30 5471 N 521.902 -3.53732 -4.36841 0
M  V30 5472 H 514.053 -1.95705 -0.825438 0
M  V30 5473 H 516.316 -0.847284 -0.425222 0
M  V30 5474 H 516.022 -2.83323 -2.08376 0
M  V30 5475 H 515.896 -1.66327 -3.38549 0
M  V30 5476 H 518.283 -0.842879 -2.82807 0
M  V30 5477 H 518.364 -2.04696 -1.53406 0
M  V30 5478 H 518.008 -3.89398 -3.26085 0
M  V30 5479 H 517.938 -2.66059 -4.54445 0
M  V30 5480 H 520.429 -2.24666 -3.03864 0
M  V30 5481 H 520.742 -5.08211 -5.82187 0
M  V30 5482 H 519.087 -4.56524 -5.24033 0
M  V30 5483 H 522.278 -2.85021 -3.71323 0
M  V30 5484 H 522.451 -4.14302 -4.98255 0
M  V30 5485 N 515.857 1.33968 -0.830081 0
M  V30 5486 C 517.105 1.97672 -0.420734 0
M  V30 5487 C 517.426 1.66111 1.02138 0
M  V30 5488 O 516.696 0.955503 1.71017 0
M  V30 5489 H 515.276 0.73125 -0.152587 0
M  V30 5490 H 517.938 1.63483 -1.0611 0
M  V30 5491 H 517.034 3.07294 -0.545588 0
M  V30 5492 N 517.335 0.585699 1.46312 0
M  V30 5493 C 518.282 -0.145835 2.30339 0
M  V30 5494 C 519.252 -0.881215 1.40797 0
M  V30 5495 O 520.437 -0.871293 1.69744 0
M  V30 5496 C 517.577 -1.15161 3.25318 0
M  V30 5497 C 516.69 -0.419367 4.2996 0
M  V30 5498 C 515.825 -1.41293 5.12064 0
M  V30 5499 C 514.864 -0.667261 6.08452 0
M  V30 5500 N 514.001 -1.60903 6.83414 0
M  V30 5501 H 518.841 0.576755 2.92365 0
M  V30 5502 H 516.378 0.296237 1.44086 0
M  V30 5503 H 518.336 -1.74763 3.78832 0
M  V30 5504 H 516.966 -1.84188 2.65094 0
M  V30 5505 H 516.018 0.291751 3.7928 0
M  V30 5506 H 517.33 0.163433 4.98532 0
M  V30 5507 H 516.484 -2.08167 5.6987 0
M  V30 5508 H 515.223 -2.02966 4.43459 0
M  V30 5509 H 514.228 0.0152356 5.49798 0
M  V30 5510 H 515.453 -0.0558817 6.79077 0
M  V30 5511 H 513.399 -2.21381 6.17516 0
M  V30 5512 H 513.316 -1.07911 7.48259 0
M  V30 5513 H 514.584 -2.26802 7.45775 0
M  V30 5514 N 518.813 -1.54241 0.323641 0
M  V30 5515 C 520.038 -2.05452 -0.283605 0
M  V30 5516 C 520.463 -1.19823 -1.44997 0
M  V30 5517 O 519.821 -0.207358 -1.8011 0
M  V30 5518 C 519.869 -3.53823 -0.695795 0
M  V30 5519 O 518.973 -3.71134 -1.79815 0
M  V30 5520 H 518.314 -0.662024 -0.0511917 0
M  V30 5521 H 520.844 -1.99079 0.472073 0
M  V30 5522 H 520.854 -3.96094 -0.978434 0
M  V30 5523 H 519.529 -4.15602 0.157287 0
M  V30 5524 H 518.106 -3.40768 -1.51431 0
M  V30 5525 N 520.291 -0.0518155 -1.57515 0
M  V30 5526 C 521.223 0.951542 -2.08515 0
M  V30 5527 C 522.236 1.27436 -1.01311 0
M  V30 5528 O 523.425 1.23504 -1.28876 0
M  V30 5529 C 520.525 2.27291 -2.5138 0
M  V30 5530 C 519.698 2.13191 -3.81927 0
M  V30 5531 C 518.757 3.28458 -4.11098 0
M  V30 5532 O 517.783 3.04334 -4.81009 0
M  V30 5533 N 518.985 4.52954 -3.63061 0
M  V30 5534 H 521.75 0.516242 -2.9522 0
M  V30 5535 H 519.311 0.13441 -1.61341 0
M  V30 5536 H 521.303 3.03272 -2.67971 0
M  V30 5537 H 519.873 2.62386 -1.69919 0
M  V30 5538 H 519.093 1.21798 -3.74912 0
M  V30 5539 H 520.381 2.00999 -4.67415 0
M  V30 5540 H 519.779 4.75444 -3.06545 0
M  V30 5541 H 518.336 5.26026 -3.84889 0
M  V30 5542 N 521.769 1.56035 0.221574 0
M  V30 5543 C 522.994 1.83476 0.967026 0
M  V30 5544 C 523.419 0.632139 1.7716 0
M  V30 5545 O 522.777 -0.419082 1.7639 0
M  V30 5546 C 522.825 3.08907 1.86034 0
M  V30 5547 O 521.929 2.876 2.95567 0
M  V30 5548 H 521.27 0.604913 0.273817 0
M  V30 5549 H 523.8 2.03247 0.234893 0
M  V30 5550 H 523.81 3.3901 2.27016 0
M  V30 5551 H 522.485 3.96068 1.26898 0
M  V30 5552 H 521.062 2.6873 2.58532 0
M  V30 5553 N 523.247 -0.488276 1.49845 0
M  V30 5554 C 524.194 -1.58836 1.67451 0
M  V30 5555 C 525.164 -1.57886 0.515857 0
M  V30 5556 O 526.349 -1.75679 0.744403 0
M  V30 5557 C 523.489 -2.96915 1.75885 0
M  V30 5558 C 522.602 -3.07784 3.03138 0
M  V30 5559 C 521.737 -4.36673 3.02473 0
M  V30 5560 C 520.776 -4.41222 4.24252 0
M  V30 5561 N 519.913 -5.61557 4.21424 0
M  V30 5562 H 524.753 -1.43131 2.61376 0
M  V30 5563 H 522.29 -0.696186 1.29583 0
M  V30 5564 H 524.248 -3.76965 1.78755 0
M  V30 5565 H 522.878 -3.11295 0.85414 0
M  V30 5566 H 521.93 -2.20717 3.09819 0
M  V30 5567 H 523.242 -3.07005 3.93128 0
M  V30 5568 H 522.396 -5.25055 3.03977 0
M  V30 5569 H 521.135 -4.40037 2.10283 0
M  V30 5570 H 520.14 -3.5124 4.22978 0
M  V30 5571 H 521.365 -4.39564 5.17649 0
M  V30 5572 H 519.311 -5.65738 3.32078 0
M  V30 5573 H 519.228 -5.62447 5.05163 0
M  V30 5574 H 520.496 -6.52111 4.2705 0
M  V30 5575 N 524.725 -1.39134 -0.740242 0
M  V30 5576 C 525.675 -1.33928 -1.84519 0
M  V30 5577 C 526.659 -0.221097 -1.59374 0
M  V30 5578 O 527.851 -0.458195 -1.70967 0
M  V30 5579 C 524.98 -1.17991 -3.22387 0
M  V30 5580 C 524.066 -2.34488 -3.53378 0
M  V30 5581 N 524.457 -3.59954 -3.5534 0
M  V30 5582 C 522.755 -2.27331 -3.83714 0
M  V30 5583 C 523.456 -4.36962 -3.83978 0
M  V30 5584 N 522.432 -3.66482 -4.01487 0
M  V30 5585 H 526.234 -2.28907 -1.84333 0
M  V30 5586 H 523.748 -1.32555 -0.938237 0
M  V30 5587 H 525.745 -1.12345 -4.01478 0
M  V30 5588 H 524.405 -0.23957 -3.23815 0
M  V30 5589 H 525.416 -3.93448 -3.36778 0
M  V30 5590 H 522.093 -1.41531 -3.92779 0
M  V30 5591 H 523.483 -5.45692 -3.92008 0
M  V30 5592 N 526.204 0.969867 -1.24223 0
M  V30 5593 C 527.134 2.08191 -1.05729 0
M  V30 5594 C 528.115 1.70075 0.0290765 0
M  V30 5595 O 529.3 1.93712 -0.137583 0
M  V30 5596 C 526.43 3.40991 -0.658995 0
M  V30 5597 C 525.384 3.93054 -1.69389 0
M  V30 5598 C 524.71 5.22171 -1.15072 0
M  V30 5599 C 526.01 4.21137 -3.08935 0
M  V30 5600 H 527.704 2.23921 -1.98746 0
M  V30 5601 H 525.25 1.07602 -0.956967 0
M  V30 5602 H 527.203 4.18221 -0.51662 0
M  V30 5603 H 525.927 3.25155 0.30686 0
M  V30 5604 H 524.586 3.17977 -1.82444 0
M  V30 5605 H 524.234 5.02694 -0.175539 0
M  V30 5606 H 523.934 5.57973 -1.84229 0
M  V30 5607 H 525.458 6.02013 -1.02042 0
M  V30 5608 H 526.872 4.8908 -2.99121 0
M  V30 5609 H 525.269 4.68163 -3.75425 0
M  V30 5610 H 526.339 3.27996 -3.57137 0
M  V30 5611 N 527.682 1.05563 1.17022 0
M  V30 5612 C 528.63 0.653887 2.2322 0
M  V30 5613 C 529.624 -0.326642 1.66221 0
M  V30 5614 O 530.83 -0.192301 1.7897 0
M  V30 5615 H 527.205 0.193297 0.726733 0
M  V30 5616 H 529.176 1.5596 2.54399 0
M  V30 5617 C 527.925 0.0485434 3.47666 0
M  V30 5618 H 527.248 0.79413 3.91834 0
M  V30 5619 H 528.688 -0.195133 4.23551 0
M  V30 5620 C 527.147 -1.20583 3.14581 0
M  V30 5621 O 527.677 -2.29475 3.29703 0
M  V30 5622 N 525.883 -1.10493 2.68774 0
M  V30 5623 H 525.43 -0.218795 2.56669 0
M  V30 5624 H 525.388 -1.94507 2.47011 0
M  V30 5625 N 529.16 -1.33526 0.837174 0
M  V30 5626 C 530.406 -1.9813 0.432704 0
M  V30 5627 C 530.739 -1.66168 -1.00508 0
M  V30 5628 O 530.014 -0.94069 -1.70239 0
M  V30 5629 C 530.297 -3.54151 0.651834 0
M  V30 5630 C 530.15 -3.95806 2.13676 0
M  V30 5631 C 531.469 -4.39993 0.0968937 0
M  V30 5632 H 528.588 -0.719713 0.15869 0
M  V30 5633 H 531.23 -1.58193 1.05237 0
M  V30 5634 H 529.38 -3.88301 0.124369 0
M  V30 5635 H 531.052 -3.71921 2.72896 0
M  V30 5636 H 529.295 -3.45599 2.62191 0
M  V30 5637 H 529.966 -5.0447 2.24084 0
M  V30 5638 H 532.442 -4.12479 0.547733 0
M  V30 5639 H 531.318 -5.48186 0.279917 0
M  V30 5640 H 531.579 -4.3066 -0.9992 0
M  V30 5641 N 530.638 -0.59345 -1.46 0
M  V30 5642 C 531.57 0.171569 -2.28557 0
M  V30 5643 C 532.583 0.845273 -1.39137 0
M  V30 5644 O 533.772 0.713033 -1.6364 0
M  V30 5645 C 530.872 1.26311 -3.14482 0
M  V30 5646 C 530.045 0.679258 -4.32094 0
M  V30 5647 C 529.104 1.65987 -4.99334 0
M  V30 5648 O 528.13 1.19171 -5.56585 0
M  V30 5649 N 529.332 2.99414 -4.97324 0
M  V30 5650 H 532.097 -0.536771 -2.94854 0
M  V30 5651 H 529.658 -0.431954 -1.56031 0
M  V30 5652 H 531.65 1.91863 -3.5633 0
M  V30 5653 H 530.22 1.87416 -2.50188 0
M  V30 5654 H 529.44 -0.153992 -3.93899 0
M  V30 5655 H 530.728 0.26916 -5.08088 0
M  V30 5656 H 530.126 3.40064 -4.52076 0
M  V30 5657 H 528.683 3.60426 -5.4308 0
M  V30 5658 N 532.116 1.54067 -0.331816 0
M  V30 5659 C 533.046 2.27569 0.522932 0
M  V30 5660 C 534.027 1.28679 1.11247 0
M  V30 5661 O 535.212 1.57504 1.13605 0
M  V30 5662 C 532.342 3.0397 1.67987 0
M  V30 5663 C 531.296 4.10267 1.21924 0
M  V30 5664 C 530.622 4.74555 2.46377 0
M  V30 5665 C 531.922 5.21268 0.32815 0
M  V30 5666 H 533.616 2.99264 -0.0901977 0
M  V30 5667 H 531.162 1.4393 -0.044821 0
M  V30 5668 H 533.115 3.54123 2.28418 0
M  V30 5669 H 531.839 2.29906 2.31971 0
M  V30 5670 H 530.498 3.61009 0.637809 0
M  V30 5671 H 530.146 3.97098 3.08743 0
M  V30 5672 H 529.846 5.46363 2.16243 0
M  V30 5673 H 531.37 5.27487 3.07555 0
M  V30 5674 H 532.784 5.67128 0.838978 0
M  V30 5675 H 531.181 5.99982 0.119228 0
M  V30 5676 H 532.251 4.80673 -0.638839 0
M  V30 5677 N 533.594 0.0601682 1.57485 0
M  V30 5678 C 534.84 -0.612501 1.93329 0
M  V30 5679 C 535.173 -1.6996 0.939526 0
M  V30 5680 O 534.448 -1.94472 -0.0330957 0
M  V30 5681 C 534.731 -1.20025 3.39508 0
M  V30 5682 C 534.584 -0.12059 4.49638 0
M  V30 5683 C 535.903 -2.10923 3.86264 0
M  V30 5684 H 533.022 -0.221185 0.703027 0
M  V30 5685 H 535.664 0.123768 1.89596 0
M  V30 5686 H 533.814 -1.82774 3.42821 0
M  V30 5687 H 535.486 0.51185 4.58452 0
M  V30 5688 H 533.729 0.550251 4.30296 0
M  V30 5689 H 534.4 -0.572019 5.49028 0
M  V30 5690 H 536.876 -1.58124 3.84884 0
M  V30 5691 H 535.752 -2.48987 4.8918 0
M  V30 5692 H 536.013 -3.01292 3.23536 0
M  V30 5693 N 535.072 -1.5615 -0.213296 0
M  V30 5694 C 536.035 -1.92249 -1.24792 0
M  V30 5695 C 537.035 -0.801828 -1.39382 0
M  V30 5696 O 538.225 -1.06948 -1.37506 0
M  V30 5697 C 535.357 -2.18056 -2.62039 0
M  V30 5698 H 536.55 -2.84793 -0.939845 0
M  V30 5699 H 534.103 -1.49559 -0.454062 0
M  V30 5700 H 534.838 -1.2809 -2.97932 0
M  V30 5701 H 534.623 -2.99703 -2.52825 0
M  V30 5702 H 536.113 -2.47051 -3.36683 0
M  V30 5703 N 536.55 0.480323 -1.50102 0
M  V30 5704 C 537.513 1.56181 -1.6775 0
M  V30 5705 C 538.513 1.51156 -0.548503 0
M  V30 5706 O 539.703 1.5394 -0.815363 0
M  V30 5707 C 536.835 2.95823 -1.69415 0
M  V30 5708 H 538.028 1.41855 -2.6423 0
M  V30 5709 H 535.581 0.70605 -1.39444 0
M  V30 5710 H 536.316 3.15604 -0.745948 0
M  V30 5711 H 536.101 3.00878 -2.51425 0
M  V30 5712 H 537.591 3.74359 -1.85054 0
M  V30 5713 N 538.028 1.39524 0.732853 0
M  V30 5714 C 539.305 1.27373 1.48444 0
M  V30 5715 C 539.685 -0.115725 2.10783 0
M  V30 5716 O 539.033 -1.12713 1.98766 0
M  V30 5717 C 539.243 2.39966 2.53412 0
M  V30 5718 C 540.591 2.79384 3.19733 0
M  V30 5719 O 541.615 2.39431 2.63725 0
M  V30 5720 O 540.474 3.48353 4.21085 0
M  V30 5721 H 537.568 0.499272 0.659285 0
M  V30 5722 H 540.114 1.51403 0.766496 0
M  V30 5723 H 538.886 3.32845 2.05742 0
M  V30 5724 H 538.509 2.17612 3.32762 0
M  V30 5725 N 539.506 -0.963266 1.24736 0
M  V30 5726 C 540.453 -2.05857 1.04363 0
M  V30 5727 C 541.423 -1.6604 -0.0444951 0
M  V30 5728 O 542.608 -1.90477 0.110999 0
M  V30 5729 C 539.748 -3.38745 0.659235 0
M  V30 5730 C 538.861 -3.9173 1.82131 0
M  V30 5731 C 537.996 -5.12906 1.38208 0
M  V30 5732 C 537.035 -5.58098 2.51382 0
M  V30 5733 N 536.172 -6.7049 2.08295 0
M  V30 5734 H 541.012 -2.22616 1.98107 0
M  V30 5735 H 538.549 -1.09103 0.986661 0
M  V30 5736 H 540.507 -4.15107 0.417371 0
M  V30 5737 H 539.137 -3.21898 -0.241201 0
M  V30 5738 H 538.189 -3.11966 2.17672 0
M  V30 5739 H 539.501 -4.21225 2.67153 0
M  V30 5740 H 538.655 -5.96657 1.09935 0
M  V30 5741 H 537.394 -4.85105 0.502456 0
M  V30 5742 H 536.399 -4.72917 2.80409 0
M  V30 5743 H 537.624 -5.87911 3.39909 0
M  V30 5744 H 535.57 -6.44416 1.22737 0
M  V30 5745 H 535.487 -6.99458 2.86869 0
M  V30 5746 H 536.755 -7.57672 1.83175 0
M  V30 5747 N 540.985 -1.06182 -1.16461 0
M  V30 5748 C 541.915 -0.692861 -2.22984 0
M  V30 5749 C 542.896 0.314122 -1.67174 0
M  V30 5750 O 544.081 0.189499 -1.93273 0
M  V30 5751 C 541.211 -0.07732 -3.47214 0
M  V30 5752 C 540.165 -1.01015 -4.15909 0
M  V30 5753 C 539.491 -0.257973 -5.34077 0
M  V30 5754 C 540.791 -2.33868 -4.67015 0
M  V30 5755 H 542.485 -1.58343 -2.54102 0
M  V30 5756 H 540.031 -0.76279 -1.22137 0
M  V30 5757 H 541.984 0.19266 -4.20959 0
M  V30 5758 H 540.708 0.848254 -3.15392 0
M  V30 5759 H 539.367 -1.26486 -3.44088 0
M  V30 5760 H 539.015 0.670684 -4.98509 0
M  V30 5761 H 538.715 -0.879638 -5.80979 0
M  V30 5762 H 540.239 0.00448788 -6.106 0
M  V30 5763 H 541.653 -2.1279 -5.32347 0
M  V30 5764 H 540.05 -2.91522 -5.24533 0
M  V30 5765 H 541.12 -2.97019 -3.83286 0
M  V30 5766 N 542.463 1.3308 -0.844243 0
M  V30 5767 C 543.426 2.27403 -0.286485 0
M  V30 5768 C 544.426 1.51179 0.547872 0
M  V30 5769 O 545.616 1.70421 0.360886 0
M  V30 5770 C 542.748 3.35653 0.595813 0
M  V30 5771 H 543.941 2.78248 -1.11885 0
M  V30 5772 H 541.494 1.43574 -0.617749 0
M  V30 5773 H 542.229 2.90058 1.4504 0
M  V30 5774 H 542.014 3.921 -0.00125994 0
M  V30 5775 H 543.504 4.05958 0.979168 0
M  V30 5776 N 543.941 0.601185 1.45683 0
M  V30 5777 C 544.873 -0.159446 2.28645 0
M  V30 5778 C 545.886 -0.837882 1.39583 0
M  V30 5779 O 547.075 -0.704344 1.64016 0
M  V30 5780 C 544.175 -1.24641 3.15147 0
M  V30 5781 C 543.348 -0.656334 4.32448 0
M  V30 5782 C 542.407 -1.63337 5.00208 0
M  V30 5783 O 541.433 -1.16217 5.57209 0
M  V30 5784 N 542.635 -2.96773 4.98905 0
M  V30 5785 H 545.4 0.5524 2.94565 0
M  V30 5786 H 542.961 0.440223 1.558 0
M  V30 5787 H 544.953 -1.8997 3.57342 0
M  V30 5788 H 543.523 -1.86087 2.51178 0
M  V30 5789 H 542.743 0.174879 3.93812 0
M  V30 5790 H 544.031 -0.242211 5.08223 0
M  V30 5791 H 543.429 -3.37662 4.53873 0
M  V30 5792 H 541.986 -3.57541 5.44984 0
M  V30 5793 N 545.419 -1.53889 0.339982 0
M  V30 5794 C 546.659 -2.02765 -0.258011 0
M  V30 5795 C 547.023 -1.22249 -1.48051 0
M  V30 5796 O 548.224 -1.61007 -2.15245 0
M  V30 5797 C 546.495 -3.5286 -0.567872 0
M  V30 5798 S 548.054 -4.23647 -1.14318 0
M  V30 5799 H 544.872 -0.706814 -0.0770389 0
M  V30 5800 H 547.474 -1.89594 0.476917 0
M  V30 5801 H 546.178 -4.09073 0.329745 0
M  V30 5802 H 545.709 -3.70144 -1.33256 0
M  V30 5803 H 547.724 -4.32676 -2.42911 0
M  V30 5804 N 546.897 -0.0685191 -1.57451 0
M  V30 5805 C 548.308 0.464634 -1.80826 0
M  V30 5806 C 548.659 1.69847 -0.982169 0
M  V30 5807 O 547.784 2.15439 -0.203734 0
M  V30 5808 C 548.379 0.849721 -3.27971 0
M  V30 5809 C 546.938 1.32776 -3.52204 0
M  V30 5810 C 546.085 0.311332 -2.75547 0
M  V30 5811 H 549.036 -0.294248 -1.55948 0
M  V30 5812 H 549.057 1.71138 -3.39841 0
M  V30 5813 H 548.569 -0.0484736 -3.8807 0
M  V30 5814 H 546.67 2.24456 -2.97406 0
M  V30 5815 H 546.783 1.30794 -4.60901 0
M  V30 5816 H 545.147 0.787915 -2.42206 0
M  V30 5817 H 545.93 -0.579078 -3.38381 0
M  V30 5818 N 548.375 1.56261 0.205012 0
M  V30 5819 C 549.786 1.70056 0.770574 0
M  V30 5820 C 550.137 0.673398 1.84282 0
M  V30 5821 O 549.262 -0.172196 2.15714 0
M  V30 5822 C 549.857 3.08316 1.40451 0
M  V30 5823 C 548.416 3.2391 1.91727 0
M  V30 5824 C 547.563 2.66001 0.783516 0
M  V30 5825 H 550.514 1.58688 -0.019911 0
M  V30 5826 H 550.535 3.05094 2.27371 0
M  V30 5827 H 550.047 3.83053 0.623882 0
M  V30 5828 H 548.148 2.54072 2.7254 0
M  V30 5829 H 548.261 4.3131 2.08588 0
M  V30 5830 H 546.625 2.24915 1.19521 0
M  V30 5831 H 547.408 3.43297 0.0152883 0
M  V30 5832 N 549.853 -0.472356 1.50355 0
M  V30 5833 C 550.763 -1.59637 1.7191 0
M  V30 5834 C 551.779 -1.63247 0.602195 0
M  V30 5835 O 552.955 -1.81139 0.880369 0
M  V30 5836 C 550.02 -2.9586 1.80742 0
M  V30 5837 C 549.081 -3.02649 3.04471 0
M  V30 5838 C 548.314 -4.32374 3.12872 0
M  V30 5839 O 548.537 -5.22807 2.28099 0
M  V30 5840 O 547.471 -4.44728 4.05587 0
M  V30 5841 H 551.297 -1.44373 2.67189 0
M  V30 5842 H 548.882 -0.651717 1.34436 0
M  V30 5843 H 550.764 -3.7677 1.88739 0
M  V30 5844 H 549.439 -3.11325 0.88647 0
M  V30 5845 H 548.346 -2.20821 3.01975 0
M  V30 5846 H 549.679 -2.92119 3.9614 0
M  V30 5847 N 551.331 -1.39911 -0.725443 0
M  V30 5848 C 552.264 -1.33788 -1.84867 0
M  V30 5849 C 553.242 -0.209907 -1.61239 0
M  V30 5850 O 554.426 -0.391943 -1.8438 0
M  V30 5851 C 551.553 -1.07975 -3.21028 0
M  V30 5852 C 550.599 -2.23092 -3.635 0
M  V30 5853 S 551.432 -3.85431 -3.71757 0
M  V30 5854 C 552.588 -3.61862 -5.10692 0
M  V30 5855 H 552.821 -2.28848 -1.89779 0
M  V30 5856 H 550.354 -1.26079 -0.891254 0
M  V30 5857 H 552.312 -0.937669 -3.99647 0
M  V30 5858 H 550.973 -0.145865 -3.13761 0
M  V30 5859 H 550.166 -2.00647 -4.62338 0
M  V30 5860 H 549.768 -2.33553 -2.92112 0
M  V30 5861 H 552.06 -3.19719 -5.97316 0
M  V30 5862 H 553.003 -4.60196 -5.38169 0
M  V30 5863 H 553.411 -2.95757 -4.8082 0
M  V30 5864 N 552.809 0.956637 -1.25245 0
M  V30 5865 C 554.056 1.701 -1.09874 0
M  V30 5866 C 554.384 1.91128 0.36062 0
M  V30 5867 O 553.639 1.47837 1.28229 0
M  V30 5868 C 553.938 3.08996 -1.79601 0
M  V30 5869 C 553.604 3.07774 -3.29523 0
M  V30 5870 C 552.266 3.07149 -3.70423 0
M  V30 5871 C 554.618 3.01257 -4.25316 0
M  V30 5872 C 551.946 2.97752 -5.0553 0
M  V30 5873 C 554.298 2.93403 -5.60444 0
M  V30 5874 C 552.962 2.91111 -6.00675 0
M  V30 5875 H 552.232 0.62244 -0.402056 0
M  V30 5876 H 554.879 1.1178 -1.55491 0
M  V30 5877 H 553.184 3.70848 -1.26408 0
M  V30 5878 H 554.881 3.65407 -1.65162 0
M  V30 5879 H 551.471 3.09032 -2.9698 0
M  V30 5880 H 555.655 3.00861 -3.9471 0
M  V30 5881 H 550.911 2.94346 -5.35883 0
M  V30 5882 H 555.085 2.87321 -6.34366 0
M  V30 5883 H 552.712 2.83586 -7.05325 0
M  V30 5884 N 554.287 1.06798 1.15896 0
M  V30 5885 C 555.564 0.701057 1.82605 0
M  V30 5886 C 555.944 -0.817066 1.94646 0
M  V30 5887 O 555.292 -1.72933 1.49353 0
M  V30 5888 C 555.502 1.40895 3.19296 0
M  V30 5889 C 556.85 1.55744 3.95005 0
M  V30 5890 O 557.874 1.36927 3.28831 0
M  V30 5891 O 556.733 1.86658 5.13635 0
M  V30 5892 H 553.827 0.248791 0.78869 0
M  V30 5893 H 556.373 1.16857 1.23055 0
M  V30 5894 H 555.145 2.4439 3.05596 0
M  V30 5895 H 554.768 0.931847 3.86526 0
M  V30 5896 N 555.766 -1.3263 0.851289 0
M  V30 5897 C 557.012 -1.9766 0.453694 0
M  V30 5898 C 557.345 -1.67225 -0.987396 0
M  V30 5899 O 556.62 -0.958693 -1.69232 0
M  V30 5900 C 556.903 -3.5344 0.68936 0
M  V30 5901 C 556.756 -3.93517 2.17862 0
M  V30 5902 C 558.075 -4.39866 0.143555 0
M  V30 5903 H 555.194 -0.717989 0.166314 0
M  V30 5904 H 557.836 -1.57068 1.06909 0
M  V30 5905 H 555.986 -3.88147 0.165546 0
M  V30 5906 H 557.658 -3.69006 2.76826 0
M  V30 5907 H 555.901 -3.42798 2.65841 0
M  V30 5908 H 556.572 -5.02065 2.29422 0
M  V30 5909 H 559.048 -4.11875 0.591451 0
M  V30 5910 H 557.924 -5.47858 0.338043 0
M  V30 5911 H 558.185 -4.31696 -0.953466 0
M  V30 5912 N 557.244 -0.608902 -1.45362 0
M  V30 5913 C 558.493 -0.10218 -2.01441 0
M  V30 5914 C 558.806 1.27546 -1.48295 0
M  V30 5915 O 560.012 1.87498 -1.96359 0
M  V30 5916 C 558.468 -0.131985 -3.59658 0
M  V30 5917 C 558.076 -1.50956 -4.21801 0
M  V30 5918 C 559.82 0.319427 -4.23296 0
M  V30 5919 C 557.727 -1.49568 -5.72174 0
M  V30 5920 H 556.657 -0.0344314 -0.753213 0
M  V30 5921 H 559.308 -0.764426 -1.6682 0
M  V30 5922 H 557.69 0.596939 -3.91475 0
M  V30 5923 H 558.864 -2.26029 -4.01556 0
M  V30 5924 H 557.179 -1.90318 -3.70362 0
M  V30 5925 H 559.776 0.349013 -5.3356 0
M  V30 5926 H 560.119 1.34237 -3.94064 0
M  V30 5927 H 560.652 -0.356273 -3.96201 0
M  V30 5928 H 557.391 -2.49626 -6.06108 0
M  V30 5929 H 556.911 -0.787542 -5.94607 0
M  V30 5930 H 558.59 -1.21989 -6.35396 0
M  V30 5931 N 558.722 1.53707 -0.348139 0
M  V30 5932 C 559.652 2.28111 0.498766 0
M  V30 5933 C 560.633 1.29851 1.09876 0
M  V30 5934 O 561.818 1.587 1.11928 0
M  V30 5935 C 558.948 3.05735 1.64753 0
M  V30 5936 C 557.902 4.11537 1.17565 0
M  V30 5937 C 557.228 4.77142 2.4133 0
M  V30 5938 C 558.528 5.21587 0.272844 0
M  V30 5939 H 560.222 2.99152 -0.121934 0
M  V30 5940 H 557.768 1.43875 -0.0600842 0
M  V30 5941 H 559.721 3.56526 2.24649 0
M  V30 5942 H 558.445 2.32354 2.2952 0
M  V30 5943 H 557.104 3.61665 0.599483 0
M  V30 5944 H 556.752 4.0035 3.04514 0
M  V30 5945 H 556.452 5.48626 2.10436 0
M  V30 5946 H 557.976 5.30719 3.01943 0
M  V30 5947 H 559.39 5.67986 0.778779 0
M  V30 5948 H 557.787 6.00074 0.0555849 0
M  V30 5949 H 558.857 4.79969 -0.689785 0
M  V30 5950 N 560.2 0.0768682 1.57412 0
M  V30 5951 C 561.477 -0.632359 1.85096 0
M  V30 5952 C 561.857 -1.87479 0.9703 0
M  V30 5953 O 561.205 -2.28469 0.0379062 0
M  V30 5954 C 561.415 -0.965174 3.35388 0
M  V30 5955 C 562.763 -1.33648 4.03018 0
M  V30 5956 O 563.787 -1.05675 3.40164 0
M  V30 5957 O 562.646 -1.85959 5.13889 0
M  V30 5958 H 559.74 -0.314574 0.764835 0
M  V30 5959 H 562.286 0.108184 1.69355 0
M  V30 5960 H 561.058 -0.0829745 3.91212 0
M  V30 5961 H 560.681 -1.76231 3.5641 0
M  V30 5962 N 561.678 -1.56367 -0.196722 0
M  V30 5963 C 562.588 -1.97617 -1.2643 0
M  V30 5964 C 563.604 -0.883598 -1.49895 0
M  V30 5965 O 564.78 -1.18921 -1.62541 0
M  V30 5966 C 561.845 -2.30595 -2.58895 0
M  V30 5967 C 560.906 -3.53551 -2.43516 0
M  V30 5968 C 560.139 -3.84946 -3.69665 0
M  V30 5969 O 560.362 -3.17655 -4.73763 0
M  V30 5970 O 559.296 -4.78379 -3.65291 0
M  V30 5971 H 563.122 -2.88648 -0.944233 0
M  V30 5972 H 560.707 -1.43901 -0.401592 0
M  V30 5973 H 562.589 -2.52889 -3.37083 0
M  V30 5974 H 561.264 -1.42732 -2.90533 0
M  V30 5975 H 560.171 -3.36507 -1.63445 0
M  V30 5976 H 561.504 -4.41875 -2.16812 0
M  V30 5977 N 563.156 0.464375 -1.50603 0
M  V30 5978 C 564.104 1.58224 -1.70493 0
M  V30 5979 C 565.098 1.59492 -0.570836 0
M  V30 5980 O 566.304 1.63561 -0.751517 0
M  V30 5981 H 562.679 0.525161 -0.538247 0
M  V30 5982 H 564.65 1.38613 -2.64252 0
M  V30 5983 C 563.399 2.96113 -1.82243 0
M  V30 5984 H 562.722 2.95858 -2.68901 0
M  V30 5985 H 564.162 3.73769 -2.00182 0
M  V30 5986 C 562.621 3.31946 -0.575628 0
M  V30 5987 O 563.151 4.00708 0.282152 0
M  V30 5988 N 561.357 2.87436 -0.427665 0
M  V30 5989 H 560.904 2.31652 -1.12674 0
M  V30 5990 H 560.862 3.11776 0.405379 0
M  V30 5991 N 564.634 1.40294 0.718013 0
M  V30 5992 C 565.566 1.36281 1.84283 0
M  V30 5993 C 566.579 0.268621 1.60569 0
M  V30 5994 O 567.768 0.528798 1.70487 0
M  V30 5995 C 564.868 1.09741 3.2064 0
M  V30 5996 C 564.041 2.30767 3.71571 0
M  V30 5997 C 563.1 2.00424 4.86535 0
M  V30 5998 O 562.126 2.73268 4.99313 0
M  V30 5999 N 563.328 0.980724 5.72156 0
M  V30 6000 H 566.093 2.3322 1.88225 0
M  V30 6001 H 563.654 1.34616 0.899453 0
M  V30 6002 H 565.646 0.874322 3.95143 0
M  V30 6003 H 564.216 0.214771 3.11861 0
M  V30 6004 H 563.436 2.68921 2.88228 0
M  V30 6005 H 564.724 3.11455 4.02335 0
M  V30 6006 H 564.122 0.377375 5.6444 0
M  V30 6007 H 562.679 0.817538 6.46653 0
M  V30 6008 N 566.112 -0.949982 1.2575 0
M  V30 6009 C 567.042 -2.06483 1.09028 0
M  V30 6010 C 568.023 -1.701 -0.00201532 0
M  V30 6011 O 569.208 -1.93469 0.168383 0
M  V30 6012 C 566.338 -3.39899 0.71316 0
M  V30 6013 C 565.292 -3.90309 1.75621 0
M  V30 6014 C 564.618 -5.20274 1.23365 0
M  V30 6015 C 565.918 -4.16169 3.15596 0
M  V30 6016 H 567.612 -2.20731 2.02283 0
M  V30 6017 H 565.158 -1.06066 0.973964 0
M  V30 6018 H 567.111 -4.17346 0.58309 0
M  V30 6019 H 565.835 -3.25602 -0.255091 0
M  V30 6020 H 564.494 -3.15035 1.8748 0
M  V30 6021 H 564.142 -5.02351 0.255491 0
M  V30 6022 H 563.842 -5.54971 1.93082 0
M  V30 6023 H 565.366 -6.00314 1.11607 0
M  V30 6024 H 566.78 -4.84259 3.06864 0
M  V30 6025 H 565.177 -4.62131 3.82825 0
M  V30 6026 H 566.247 -3.22273 3.6231 0
M  V30 6027 N 567.59 -1.07411 -1.15328 0
M  V30 6028 C 568.5 -0.706438 -2.23711 0
M  V30 6029 C 569.516 0.282586 -1.7169 0
M  V30 6030 O 570.692 0.129066 -2.00986 0
M  V30 6031 C 567.757 -0.11048 -3.46524 0
M  V30 6032 C 566.818 -1.15282 -4.13532 0
M  V30 6033 C 566.051 -0.585205 -5.30482 0
M  V30 6034 O 566.274 0.598549 -5.67251 0
M  V30 6035 O 565.208 -1.33039 -5.87013 0
M  V30 6036 H 569.034 -1.61031 -2.57493 0
M  V30 6037 H 566.619 -0.847113 -1.23062 0
M  V30 6038 H 568.501 0.21957 -4.20828 0
M  V30 6039 H 567.176 0.766703 -3.14489 0
M  V30 6040 H 566.083 -1.53523 -3.41147 0
M  V30 6041 H 567.416 -2.00192 -4.49649 0
M  V30 6042 N 569.068 1.32177 -0.85831 0
M  V30 6043 C 570.345 1.91781 -0.384624 0
M  V30 6044 C 570.725 1.78171 1.13217 0
M  V30 6045 O 570.073 1.18209 1.95548 0
M  V30 6046 C 570.283 3.38414 -0.853047 0
M  V30 6047 C 571.631 4.15542 -0.872359 0
M  V30 6048 O 572.655 3.47148 -0.797926 0
M  V30 6049 O 571.514 5.37678 -0.978009 0
M  V30 6050 H 568.608 0.819259 -0.112886 0
M  V30 6051 H 571.154 1.40923 -0.945453 0
M  V30 6052 H 569.926 3.4228 -1.89632 0
M  V30 6053 H 569.549 3.96683 -0.269874 0
M  V30 6054 N 570.547 0.616602 1.45037 0
M  V30 6055 C 571.51 -0.0871112 2.29034 0
M  V30 6056 C 572.51 -0.786414 1.40258 0
M  V30 6057 O 573.7 -0.633207 1.62284 0
M  V30 6058 C 570.832 -1.13369 3.21497 0
M  V30 6059 H 572.025 0.651497 2.92738 0
M  V30 6060 H 569.578 0.376058 1.51709 0
M  V30 6061 H 570.313 -1.90277 2.62612 0
M  V30 6062 H 570.098 -0.636358 3.86902 0
M  V30 6063 H 571.588 -1.62627 3.84633 0
M  V30 6064 N 572.025 -1.5352 0.356285 0
M  V30 6065 C 573.265 -2.03027 -0.23649 0
M  V30 6066 C 573.629 -1.23813 -1.46746 0
M  V30 6067 O 574.83 -1.63281 -2.13525 0
M  V30 6068 C 573.101 -3.53442 -0.530415 0
M  V30 6069 S 574.66 -4.24836 -1.09819 0
M  V30 6070 H 571.478 -0.707591 -0.0695378 0
M  V30 6071 H 574.08 -1.89077 0.496999 0
M  V30 6072 H 572.784 -4.087 0.373114 0
M  V30 6073 H 572.315 -3.71536 -1.29323 0
M  V30 6074 H 574.33 -4.35228 -2.38309 0
M  V30 6075 N 573.503 -0.0852151 -1.57369 0
M  V30 6076 C 574.413 0.891712 -2.16992 0
M  V30 6077 C 575.429 1.3174 -1.13669 0
M  V30 6078 O 576.605 1.38735 -1.45995 0
M  V30 6079 C 573.67 2.13635 -2.73059 0
M  V30 6080 C 572.731 1.7658 -3.91303 0
M  V30 6081 C 571.964 2.95111 -4.44686 0
M  V30 6082 O 572.187 4.09539 -3.97032 0
M  V30 6083 O 571.121 2.74149 -5.35841 0
M  V30 6084 H 574.947 0.414477 -3.00858 0
M  V30 6085 H 572.532 0.138598 -1.48756 0
M  V30 6086 H 574.414 2.86595 -3.08935 0
M  V30 6087 H 573.089 2.6043 -1.92244 0
M  V30 6088 H 571.996 1.00831 -3.60255 0
M  V30 6089 H 573.329 1.34557 -4.7345 0
M  V30 6090 N 574.981 1.5647 0.188427 0
M  V30 6091 C 575.931 1.91479 1.23774 0
M  V30 6092 C 576.915 0.78119 1.40664 0
M  V30 6093 O 578.107 1.04414 1.42922 0
M  V30 6094 C 575.236 2.26354 2.58106 0
M  V30 6095 C 574.322 3.46186 2.44981 0
M  V30 6096 N 574.713 4.63911 2.01546 0
M  V30 6097 C 573.011 3.50456 2.75856 0
M  V30 6098 C 573.712 5.46064 2.00472 0
M  V30 6099 N 572.688 4.86648 2.42229 0
M  V30 6100 H 576.49 2.79994 0.893339 0
M  V30 6101 H 574.004 1.57477 0.39682 0
M  V30 6102 H 576.001 2.49622 3.33908 0
M  V30 6103 H 574.661 1.39168 2.93364 0
M  V30 6104 H 575.672 4.88451 1.7215 0
M  V30 6105 H 572.349 2.73704 3.15265 0
M  V30 6106 H 573.739 6.50368 1.68734 0
M  V30 6107 N 576.459 -0.456382 1.50847 0
M  V30 6108 C 577.389 -1.56025 1.73719 0
M  V30 6109 C 578.37 -1.5967 0.586473 0
M  V30 6110 O 579.555 -1.75702 0.827185 0
M  V30 6111 C 576.685 -2.94251 1.84483 0
M  V30 6112 C 575.639 -3.05471 2.99786 0
M  V30 6113 C 574.965 -4.45489 2.95709 0
M  V30 6114 C 576.265 -2.81318 4.40065 0
M  V30 6115 H 577.959 -1.37138 2.66146 0
M  V30 6116 H 575.505 -0.658299 1.28072 0
M  V30 6117 H 577.458 -3.71417 1.99067 0
M  V30 6118 H 576.182 -3.14328 0.886891 0
M  V30 6119 H 574.841 -2.30741 2.84876 0
M  V30 6120 H 574.489 -4.62505 1.97732 0
M  V30 6121 H 574.189 -4.53929 3.73125 0
M  V30 6122 H 575.713 -5.24655 3.12362 0
M  V30 6123 H 577.127 -3.48226 4.55425 0
M  V30 6124 H 575.524 -3.01188 5.19043 0
M  V30 6125 H 576.594 -1.7706 4.51418 0
M  V30 6126 N 577.937 -1.40673 -0.710563 0
M  V30 6127 C 579.185 -1.38947 -1.46759 0
M  V30 6128 C 579.506 0.00572879 -1.94999 0
M  V30 6129 O 578.776 0.961358 -1.70689 0
M  V30 6130 H 577.356 -0.5114 -0.544499 0
M  V30 6131 H 580.018 -1.75773 -0.842012 0
M  V30 6132 H 579.114 -2.06745 -2.33801 0
M  V30 6133 N 579.415 0.9433 -1.26252 0
M  V30 6134 C 580.325 2.07532 -1.09397 0
M  V30 6135 C 581.341 1.73977 -0.0280449 0
M  V30 6136 O 582.517 2.00067 -0.231337 0
M  V30 6137 C 579.582 3.39002 -0.726523 0
M  V30 6138 C 578.643 3.86353 -1.87163 0
M  V30 6139 C 577.876 5.11549 -1.52162 0
M  V30 6140 O 578.099 5.68834 -0.422385 0
M  V30 6141 O 577.033 5.53889 -2.35565 0
M  V30 6142 H 580.859 2.24658 -2.04359 0
M  V30 6143 H 578.444 1.05988 -1.05295 0
M  V30 6144 H 580.326 4.18 -0.534236 0
M  V30 6145 H 579.001 3.2312 0.193721 0
M  V30 6146 H 577.908 3.0831 -2.11886 0
M  V30 6147 H 579.241 4.06752 -2.77152 0
M  V30 6148 N 580.893 1.08022 1.14757 0
M  V30 6149 C 582.123 0.827646 1.89298 0
M  V30 6150 C 582.531 -0.623506 1.78631 0
M  V30 6151 O 581.874 -1.43991 1.14071 0
M  V30 6152 C 581.936 1.16553 3.40082 0
M  V30 6153 C 581.6 2.61866 3.74533 0
M  V30 6154 C 582.597 3.60116 3.74984 0
M  V30 6155 C 580.282 2.97619 4.04633 0
M  V30 6156 C 582.276 4.92151 4.05051 0
M  V30 6157 C 579.963 4.2985 4.34364 0
M  V30 6158 C 580.961 5.26926 4.34555 0
M  V30 6159 O 580.649 6.5678 4.63568 0
M  V30 6160 H 580.381 0.298396 0.606577 0
M  V30 6161 H 582.935 1.44187 1.46285 0
M  V30 6162 H 581.165 0.494296 3.83528 0
M  V30 6163 H 582.854 0.894407 3.95923 0
M  V30 6164 H 583.62 3.33837 3.51821 0
M  V30 6165 H 579.499 2.22702 4.03639 0
M  V30 6166 H 583.043 5.67915 4.05115 0
M  V30 6167 H 578.94 4.55879 4.56995 0
M  V30 6168 H 579.708 6.62035 4.81303 0
M  V30 6169 N 582.371 -1.3172 0.865308 0
M  V30 6170 C 583.301 -2.31109 0.333302 0
M  V30 6171 C 584.282 -1.60148 -0.573301 0
M  V30 6172 O 585.467 -1.87882 -0.491305 0
M  V30 6173 C 582.597 -3.44104 -0.470078 0
M  V30 6174 C 581.551 -4.26623 0.343021 0
M  V30 6175 C 580.877 -5.31482 -0.585756 0
M  V30 6176 C 582.177 -4.98001 1.57456 0
M  V30 6177 H 583.871 -2.75855 1.1638 0
M  V30 6178 H 581.417 -1.3262 0.561069 0
M  V30 6179 H 583.37 -4.12682 -0.852752 0
M  V30 6180 H 582.094 -2.98112 -1.33404 0
M  V30 6181 H 580.753 -3.59707 0.707583 0
M  V30 6182 H 580.401 -4.81741 -1.44686 0
M  V30 6183 H 580.101 -5.87582 -0.0456494 0
M  V30 6184 H 581.625 -6.0292 -0.965375 0
M  V30 6185 H 583.039 -5.59201 1.26359 0
M  V30 6186 H 581.436 -5.63876 2.05339 0
M  V30 6187 H 582.506 -4.25253 2.32997 0
M  V30 6188 N 583.85 -0.624285 -1.44708 0
M  V30 6189 C 584.76 0.0861083 -2.34442 0
M  V30 6190 C 585.776 0.84291 -1.5222 0
M  V30 6191 O 586.952 0.796723 -1.84971 0
M  V30 6192 C 584.017 1.05999 -3.30099 0
M  V30 6193 C 583.077 0.303316 -4.28227 0
M  V30 6194 C 582.311 1.23081 -5.19314 0
M  V30 6195 O 582.534 2.46929 -5.14181 0
M  V30 6196 O 581.468 0.71883 -5.97592 0
M  V30 6197 H 585.293 -0.651756 -2.96624 0
M  V30 6198 H 582.879 -0.384493 -1.44368 0
M  V30 6199 H 584.76 1.62046 -3.88997 0
M  V30 6200 H 583.436 1.77859 -2.70459 0
M  V30 6201 H 582.343 -0.300033 -3.72895 0
M  V30 6202 H 583.676 -0.375123 -4.90768 0
M  V30 6203 N 585.328 1.53329 -0.364422 0
M  V30 6204 C 586.291 2.24323 0.470292 0
M  V30 6205 C 587.291 1.25068 1.01067 0
M  V30 6206 O 588.481 1.49354 0.896605 0
M  V30 6207 C 585.613 2.97908 1.65722 0
M  V30 6208 H 586.806 2.9952 -0.150917 0
M  V30 6209 H 584.359 1.55868 -0.116092 0
M  V30 6210 H 585.094 2.2695 2.31655 0
M  V30 6211 H 584.879 3.70732 1.27671 0
M  V30 6212 H 586.369 3.5188 2.24878 0
M  V30 6213 N 586.806 0.0935595 1.57322 0
M  V30 6214 C 588.036 -0.578095 1.98347 0
M  V30 6215 C 588.444 -1.62357 0.971441 0
M  V30 6216 O 587.787 -1.83639 -0.0473959 0
M  V30 6217 C 587.849 -1.28525 3.3574 0
M  V30 6218 C 587.513 -0.390714 4.55327 0
M  V30 6219 C 588.51 0.360522 5.18648 0
M  V30 6220 C 586.195 -0.309221 5.01347 0
M  V30 6221 C 588.189 1.18125 6.26359 0
M  V30 6222 C 585.876 0.515157 6.08925 0
M  V30 6223 C 586.874 1.25904 6.71295 0
M  V30 6224 O 586.562 2.06978 7.76798 0
M  V30 6225 H 586.294 -0.159767 0.656849 0
M  V30 6226 H 588.848 0.169058 2.04703 0
M  V30 6227 H 587.078 -2.07894 3.26063 0
M  V30 6228 H 588.767 -1.85128 3.61223 0
M  V30 6229 H 589.533 0.307285 4.84026 0
M  V30 6230 H 585.412 -0.877881 4.52564 0
M  V30 6231 H 588.956 1.76236 6.74971 0
M  V30 6232 H 584.853 0.56988 6.42979 0
M  V30 6233 H 585.621 1.99644 7.93779 0
M  V30 6234 N 588.284 -1.56567 -0.180126 0
M  V30 6235 C 589.53 -1.82658 -0.894859 0
M  V30 6236 C 589.885 -0.672826 -1.80252 0
M  V30 6237 O 589.178 0.331227 -1.88715 0
M  V30 6238 C 589.372 -3.1252 -1.73395 0
M  V30 6239 C 589.201 -4.40417 -0.909028 0
M  V30 6240 C 587.971 -5.01872 -0.587562 0
M  V30 6241 C 590.169 -5.13669 -0.254698 0
M  V30 6242 N 588.151 -6.13373 0.254428 0
M  V30 6243 C 589.522 -6.18373 0.448837 0
M  V30 6244 C 591.577 -4.97603 -0.171958 0
M  V30 6245 C 590.28 -7.08753 1.22725 0
M  V30 6246 C 592.306 -5.88418 0.593101 0
M  V30 6247 C 591.668 -6.92579 1.28503 0
M  V30 6248 H 587.767 -0.719493 -0.306356 0
M  V30 6249 H 590.351 -1.94021 -0.16247 0
M  V30 6250 H 588.522 -3.02365 -2.43783 0
M  V30 6251 H 590.254 -3.2664 -2.38931 0
M  V30 6252 H 587.009 -4.64666 -0.915557 0
M  V30 6253 H 587.433 -6.73721 0.665474 0
M  V30 6254 H 592.075 -4.17089 -0.692555 0
M  V30 6255 H 589.793 -7.88718 1.75923 0
M  V30 6256 H 593.379 -5.78059 0.658674 0
M  V30 6257 H 592.259 -7.61638 1.86754 0
M  V30 6258 N 589.762 0.448376 -1.51087 0
M  V30 6259 C 591.178 0.783984 -1.39017 0
M  V30 6260 C 591.378 1.96087 -0.463904 0
M  V30 6261 O 590.434 2.52357 0.0850534 0
M  V30 6262 C 591.747 1.07471 -2.80839 0
M  V30 6263 C 593.295 1.17981 -2.89913 0
M  V30 6264 C 593.77 1.50354 -4.32617 0
M  V30 6265 N 595.261 1.57301 -4.35673 0
M  V30 6266 C 595.996 1.839 -5.4311 0
M  V30 6267 N 595.492 2.08365 -6.60724 0
M  V30 6268 N 597.285 1.8559 -5.30578 0
M  V30 6269 H 589.436 -0.326881 -2.0987 0
M  V30 6270 H 591.699 -0.0838006 -0.944289 0
M  V30 6271 H 591.405 0.282768 -3.50561 0
M  V30 6272 H 591.279 2.00519 -3.19487 0
M  V30 6273 H 593.666 1.9624 -2.20395 0
M  V30 6274 H 593.747 0.228603 -2.54776 0
M  V30 6275 H 593.391 0.726273 -5.0268 0
M  V30 6276 H 593.321 2.46663 -4.65258 0
M  V30 6277 H 595.812 1.40342 -3.50874 0
M  V30 6278 H 596.125 2.27999 -7.38401 0
M  V30 6279 H 594.47 2.0571 -6.63859 0
M  V30 6280 H 597.661 1.65989 -4.37682 0
M  V30 6281 H 597.834 2.05983 -6.1439 0
M  V30 6282 N 591.24 1.41047 0.703093 0
M  V30 6283 C 592.203 1.42036 1.79884 0
M  V30 6284 C 593.203 0.312153 1.57741 0
M  V30 6285 O 594.393 0.571672 1.64553 0
M  V30 6286 C 591.525 1.22437 3.18154 0
M  V30 6287 H 592.718 2.39572 1.80403 0
M  V30 6288 H 590.271 1.27079 0.909977 0
M  V30 6289 H 591.006 0.257112 3.23279 0
M  V30 6290 H 590.791 2.02723 3.35627 0
M  V30 6291 H 592.281 1.25946 3.98155 0
M  V30 6292 N 592.718 -0.936591 1.26751 0
M  V30 6293 C 593.946 -1.71758 1.15355 0
M  V30 6294 C 594.361 -1.86549 -0.290683 0
M  V30 6295 O 593.718 -1.37616 -1.19868 0
M  V30 6296 C 593.769 -3.12193 1.82258 0
M  V30 6297 O 593.49 -2.98105 3.21038 0
M  V30 6298 C 594.991 -4.06485 1.76875 0
M  V30 6299 H 592.211 -0.537636 0.401483 0
M  V30 6300 H 594.755 -1.17382 1.67457 0
M  V30 6301 H 592.91 -3.63456 1.34083 0
M  V30 6302 H 593.324 -3.86824 3.54214 0
M  V30 6303 H 594.798 -5.02569 2.28316 0
M  V30 6304 H 595.275 -4.32986 0.736216 0
M  V30 6305 H 595.881 -3.61144 2.24623 0
M  V30 6306 N 594.196 -1.08629 -1.14182 0
M  V30 6307 C 595.146 -0.687882 -2.17376 0
M  V30 6308 C 596.13 0.293632 -1.58198 0
M  V30 6309 O 597.322 0.105292 -1.76687 0
M  V30 6310 C 594.451 -0.101184 -3.43151 0
M  V30 6311 C 593.537 -1.10862 -4.09354 0
M  V30 6312 N 593.928 -2.29285 -4.50846 0
M  V30 6313 C 592.226 -0.944897 -4.35876 0
M  V30 6314 C 592.927 -2.93305 -5.02342 0
M  V30 6315 N 591.903 -2.20903 -4.96692 0
M  V30 6316 H 595.705 -1.58963 -2.472 0
M  V30 6317 H 593.219 -0.961329 -1.3089 0
M  V30 6318 H 595.216 0.202209 -4.16409 0
M  V30 6319 H 593.876 0.795522 -3.14804 0
M  V30 6320 H 594.887 -2.66927 -4.43813 0
M  V30 6321 H 591.564 -0.102186 -4.17375 0
M  V30 6322 H 592.954 -3.93932 -5.44304 0
M  V30 6323 N 595.674 1.31259 -0.872281 0
M  V30 6324 C 596.902 2.00795 -0.498907 0
M  V30 6325 C 597.317 1.65464 0.909238 0
M  V30 6326 O 596.674 0.885073 1.59602 0
M  V30 6327 C 596.725 3.55625 -0.649092 0
M  V30 6328 O 596.446 3.89692 -2.00179 0
M  V30 6329 C 597.947 4.42434 -0.277034 0
M  V30 6330 H 595.167 0.642299 -0.194145 0
M  V30 6331 H 597.711 1.67438 -1.17408 0
M  V30 6332 H 595.866 3.87394 -0.0214402 0
M  V30 6333 H 596.28 4.84407 -2.01122 0
M  V30 6334 H 597.754 5.50299 -0.433064 0
M  V30 6335 H 598.231 4.32146 0.783989 0
M  V30 6336 H 598.837 4.16086 -0.880483 0
M  V30 6337 N 597.152 0.631951 1.44375 0
M  V30 6338 C 598.38 0.143867 2.06399 0
M  V30 6339 C 598.795 -1.18188 1.47231 0
M  V30 6340 O 598.152 -1.72511 0.595498 0
M  V30 6341 C 598.203 0.0238253 3.61492 0
M  V30 6342 O 597.924 1.29715 4.18456 0
M  V30 6343 C 599.425 -0.492856 4.40552 0
M  V30 6344 H 596.645 0.0800542 0.666207 0
M  V30 6345 H 599.189 0.866586 1.85231 0
M  V30 6346 H 597.344 -0.649338 3.81919 0
M  V30 6347 H 597.758 1.14252 5.11905 0
M  V30 6348 H 599.232 -0.525861 5.49489 0
M  V30 6349 H 599.709 -1.52006 4.12057 0
M  V30 6350 H 600.315 0.147085 4.25046 0
M  V30 6351 N 598.631 -1.53133 0.372548 0
M  V30 6352 C 599.856 -2.0625 -0.218098 0
M  V30 6353 C 600.281 -1.24375 -1.41111 0
M  V30 6354 O 599.639 -0.264554 -1.79359 0
M  V30 6355 C 599.687 -3.55858 -0.582876 0
M  V30 6356 O 598.791 -3.76667 -1.67917 0
M  V30 6357 H 598.132 -0.663317 -0.030104 0
M  V30 6358 H 600.662 -1.97477 0.535169 0
M  V30 6359 H 600.672 -3.99007 -0.851925 0
M  V30 6360 H 599.347 -4.14892 0.289428 0
M  V30 6361 H 597.924 -3.45413 -1.40513 0
M  V30 6362 N 600.109 -0.101901 -1.5727 0
M  V30 6363 C 601.334 0.571759 -1.99363 0
M  V30 6364 C 601.759 1.60507 -0.980768 0
M  V30 6365 O 601.117 1.81231 0.0498517 0
M  V30 6366 C 601.165 1.18996 -3.404 0
M  V30 6367 O 600.269 2.30572 -3.41922 0
M  V30 6368 H 599.61 0.144449 -0.648098 0
M  V30 6369 H 602.14 -0.185325 -2.03759 0
M  V30 6370 H 602.15 1.52962 -3.78241 0
M  V30 6371 H 600.825 0.432984 -4.1364 0
M  V30 6372 H 599.402 1.98173 -3.15883 0
M  V30 6373 N 601.587 1.56661 0.17182 0
M  V30 6374 C 602.815 1.861 0.904115 0
M  V30 6375 C 603.23 0.687227 1.75848 0
M  V30 6376 O 602.587 -0.343671 1.79235 0
M  V30 6377 C 602.638 3.14568 1.78127 0
M  V30 6378 O 602.359 4.27422 0.961366 0
M  V30 6379 C 603.86 3.5735 2.62327 0
M  V30 6380 H 601.08 0.617445 0.262684 0
M  V30 6381 H 603.624 2.03775 0.172068 0
M  V30 6382 H 601.779 2.98721 2.46666 0
M  V30 6383 H 602.193 5.00725 1.56123 0
M  V30 6384 H 603.667 4.50144 3.1949 0
M  V30 6385 H 604.144 2.81445 3.37173 0
M  V30 6386 H 604.75 3.75807 1.99121 0
M  V30 6387 N 603.065 -0.440357 1.51323 0
M  V30 6388 C 604.476 -1.02032 1.56353 0
M  V30 6389 C 604.827 -1.92382 0.385197 0
M  V30 6390 O 603.952 -2.10583 -0.498373 0
M  V30 6391 C 604.547 -1.85723 2.83359 0
M  V30 6392 C 603.106 -2.38774 2.90971 0
M  V30 6393 C 602.253 -1.17908 2.50984 0
M  V30 6394 H 605.204 -0.221744 1.57143 0
M  V30 6395 H 605.225 -2.71141 2.66951 0
M  V30 6396 H 604.737 -1.19939 3.69102 0
M  V30 6397 H 602.838 -3.08021 2.09651 0
M  V30 6398 H 602.951 -2.71778 3.94555 0
M  V30 6399 H 601.315 -1.52347 2.04114 0
M  V30 6400 H 602.098 -0.537393 3.39068 0
M  V30 6401 N 604.543 -1.41418 -0.695603 0
M  V30 6402 C 605.476 -1.3768 -1.81988 0
M  V30 6403 C 606.454 -0.244061 -1.60758 0
M  V30 6404 O 607.638 -0.430965 -1.83507 0
M  V30 6405 C 604.765 -1.1476 -3.18666 0
M  V30 6406 C 603.811 -2.30752 -3.58686 0
M  V30 6407 S 604.644 -3.9323 -3.63498 0
M  V30 6408 C 605.8 -3.72613 -5.02902 0
M  V30 6409 H 606.033 -2.32822 -1.84882 0
M  V30 6410 H 603.566 -1.27942 -0.86431 0
M  V30 6411 H 605.524 -1.02223 -3.97569 0
M  V30 6412 H 604.185 -0.212385 -3.13381 0
M  V30 6413 H 603.378 -2.10409 -4.57978 0
M  V30 6414 H 602.98 -2.39696 -2.87092 0
M  V30 6415 H 605.272 -3.32317 -5.904 0
M  V30 6416 H 606.215 -4.71507 -5.28286 0
M  V30 6417 H 606.623 -3.0589 -4.74438 0
M  V30 6418 N 606.021 0.929856 -1.27246 0
M  V30 6419 C 607.249 1.71144 -1.16265 0
M  V30 6420 C 607.664 1.867 0.280786 0
M  V30 6421 O 607.021 1.38249 1.19136 0
M  V30 6422 C 607.072 3.11222 -1.83911 0
M  V30 6423 O 606.793 2.96398 -3.22614 0
M  V30 6424 C 608.294 4.05541 -1.79028 0
M  V30 6425 H 605.514 0.535499 -0.404328 0
M  V30 6426 H 608.058 1.16492 -1.68077 0
M  V30 6427 H 606.213 3.6274 -1.36009 0
M  V30 6428 H 606.627 3.8494 -3.56261 0
M  V30 6429 H 608.101 5.01351 -2.30978 0
M  V30 6430 H 608.578 4.32589 -0.759168 0
M  V30 6431 H 609.184 3.59947 -2.26535 0
M  V30 6432 N 607.499 1.09233 1.13605 0
M  V30 6433 C 608.91 0.846839 1.6639 0
M  V30 6434 C 609.261 -0.625031 1.85978 0
M  V30 6435 O 608.386 -1.48173 1.57714 0
M  V30 6436 C 608.981 1.5307 3.0225 0
M  V30 6437 C 607.54 1.33223 3.52035 0
M  V30 6438 C 606.687 1.58806 2.27323 0
M  V30 6439 H 609.638 1.25175 0.975541 0
M  V30 6440 H 609.659 0.96267 3.68121 0
M  V30 6441 H 609.171 2.60192 2.87961 0
M  V30 6442 H 607.272 0.282091 3.71531 0
M  V30 6443 H 607.385 2.0657 4.32279 0
M  V30 6444 H 605.749 1.01007 2.33815 0
M  V30 6445 H 606.532 2.67153 2.15602 0
M  V30 6446 N 608.977 -1.30795 0.87923 0
M  V30 6447 C 609.907 -2.30742 0.357796 0
M  V30 6448 C 610.888 -1.60747 -0.556283 0
M  V30 6449 O 612.073 -1.88393 -0.47135 0
M  V30 6450 C 609.203 -3.44583 -0.433555 0
M  V30 6451 C 608.157 -4.26235 0.388251 0
M  V30 6452 C 607.483 -5.32073 -0.529352 0
M  V30 6453 C 608.783 -4.96303 1.62729 0
M  V30 6454 H 610.477 -2.74605 1.19299 0
M  V30 6455 H 608.023 -1.32017 0.575104 0
M  V30 6456 H 609.976 -4.13563 -0.808934 0
M  V30 6457 H 608.7 -2.99511 -1.30234 0
M  V30 6458 H 607.359 -3.58936 0.745695 0
M  V30 6459 H 607.007 -4.83249 -1.39569 0
M  V30 6460 H 606.707 -5.87598 0.0166741 0
M  V30 6461 H 608.231 -6.0391 -0.901373 0
M  V30 6462 H 609.645 -5.5783 1.32283 0
M  V30 6463 H 608.042 -5.61666 2.11309 0
M  V30 6464 H 609.112 -4.22758 2.37494 0
M  V30 6465 N 610.455 -0.639598 -1.44038 0
M  V30 6466 C 611.385 0.0469443 -2.33453 0
M  V30 6467 C 612.366 0.82609 -1.48694 0
M  V30 6468 O 613.551 0.790285 -1.77393 0
M  V30 6469 C 610.681 1.02338 -3.3188 0
M  V30 6470 C 609.635 0.355284 -4.26523 0
M  V30 6471 C 608.961 1.44221 -5.14883 0
M  V30 6472 C 610.261 -0.743798 -5.16977 0
M  V30 6473 H 611.955 -0.699735 -2.91108 0
M  V30 6474 H 609.501 -0.337946 -1.39978 0
M  V30 6475 H 611.454 1.51247 -3.93322 0
M  V30 6476 H 610.178 1.80105 -2.72451 0
M  V30 6477 H 608.837 -0.113239 -3.66425 0
M  V30 6478 H 608.485 2.21097 -4.51802 0
M  V30 6479 H 608.185 1.00052 -5.79019 0
M  V30 6480 H 609.709 1.93295 -5.79197 0
M  V30 6481 H 611.123 -0.337444 -5.72306 0
M  V30 6482 H 609.52 -1.10914 -5.89761 0
M  V30 6483 H 610.59 -1.60745 -4.57481 0
M  V30 6484 N 611.933 1.52934 -0.380664 0
M  V30 6485 C 613.181 2.01069 0.203874 0
M  V30 6486 C 613.502 1.26922 1.4804 0
M  V30 6487 O 612.772 0.386787 1.92044 0
M  V30 6488 H 611.352 0.742882 0.0783279 0
M  V30 6489 H 614.014 1.88099 -0.510368 0
M  V30 6490 H 613.11 3.09258 0.42021 0
M  V30 6491 N 613.412 0.11024 1.57214 0
M  V30 6492 C 614.828 -0.24638 1.57687 0
M  V30 6493 C 615.028 -1.67344 1.12241 0
M  V30 6494 O 614.084 -2.39298 0.805783 0
M  V30 6495 C 615.397 -0.0210288 3.00693 0
M  V30 6496 C 616.945 -0.0876077 3.12877 0
M  V30 6497 C 617.42 0.10994 4.57868 0
M  V30 6498 N 618.911 0.0556135 4.63167 0
M  V30 6499 C 619.646 0.183495 5.73106 0
M  V30 6500 N 619.142 0.367058 6.91827 0
M  V30 6501 N 620.935 0.123689 5.61964 0
M  V30 6502 H 613.086 1.04246 1.85058 0
M  V30 6503 H 615.349 0.40979 0.854854 0
M  V30 6504 H 615.055 0.965203 3.38196 0
M  V30 6505 H 614.929 -0.756748 3.69531 0
M  V30 6506 H 617.316 -1.06436 2.75237 0
M  V30 6507 H 617.397 0.67985 2.466 0
M  V30 6508 H 617.041 1.08362 4.96206 0
M  V30 6509 H 616.971 -0.677397 5.22225 0
M  V30 6510 H 619.462 -0.0831062 3.77809 0
M  V30 6511 H 619.775 0.455739 7.71455 0
M  V30 6512 H 618.12 0.40292 6.93831 0
M  V30 6513 H 621.311 -0.0186928 4.68096 0
M  V30 6514 H 621.484 0.226797 6.47603 0
M  V30 6515 N 614.89 -1.56749 -0.16351 0
M  V30 6516 C 615.838 -1.97939 -1.22159 0
M  V30 6517 C 616.832 -0.869288 -1.45395 0
M  V30 6518 O 618.038 -1.05443 -1.45883 0
M  V30 6519 H 614.413 -0.629869 -0.410815 0
M  V30 6520 H 616.384 -2.86115 -0.847381 0
M  V30 6521 C 615.133 -2.36206 -2.55151 0
M  V30 6522 H 614.456 -3.2117 -2.38097 0
M  V30 6523 H 615.896 -2.68863 -3.27854 0
M  V30 6524 C 614.355 -1.20841 -3.14482 0
M  V30 6525 O 614.885 -0.500258 -3.98573 0
M  V30 6526 N 613.091 -0.976943 -2.73686 0
M  V30 6527 H 612.638 -1.55457 -2.05404 0
M  V30 6528 H 612.596 -0.206912 -3.13718 0
M  V30 6529 N 616.368 0.432326 -1.51554 0
M  V30 6530 C 617.298 1.53242 -1.76179 0
M  V30 6531 C 618.279 1.58717 -0.611801 0
M  V30 6532 O 619.464 1.74364 -0.855033 0
M  V30 6533 C 616.594 2.91278 -1.89141 0
M  V30 6534 C 615.548 3.00663 -3.04608 0
M  V30 6535 C 614.874 4.40728 -3.02759 0
M  V30 6536 C 616.174 2.74281 -4.44485 0
M  V30 6537 H 617.868 1.32886 -2.68294 0
M  V30 6538 H 615.414 0.637841 -1.29103 0
M  V30 6539 H 617.367 3.68203 -2.04951 0
M  V30 6540 H 616.091 3.12877 -0.936785 0
M  V30 6541 H 614.75 2.26179 -2.88511 0
M  V30 6542 H 614.398 4.59301 -2.05065 0
M  V30 6543 H 614.098 4.47936 -3.80299 0
M  V30 6544 H 615.622 5.19619 -3.20669 0
M  V30 6545 H 617.036 3.40936 -4.60907 0
M  V30 6546 H 615.433 2.92893 -5.23769 0
M  V30 6547 H 616.503 1.69856 -4.54177 0
M  V30 6548 N 617.846 1.41785 0.688094 0
M  V30 6549 C 619.094 1.41264 1.4453 0
M  V30 6550 C 619.415 0.0252946 1.94984 0
M  V30 6551 O 618.685 -0.934081 1.72197 0
M  V30 6552 H 617.265 0.519998 0.536294 0
M  V30 6553 H 619.927 1.7709 0.813941 0
M  V30 6554 H 619.023 2.10439 2.30482 0
M  V30 6555 N 619.324 -0.923095 1.27737 0
M  V30 6556 C 620.549 -1.71054 1.17283 0
M  V30 6557 C 620.974 -1.86208 -0.266153 0
M  V30 6558 O 620.332 -1.36545 -1.1927 0
M  V30 6559 C 620.38 -3.0854 1.86642 0
M  V30 6560 O 619.484 -3.95528 1.16752 0
M  V30 6561 H 618.825 -0.524136 0.407649 0
M  V30 6562 H 621.355 -1.15487 1.6889 0
M  V30 6563 H 621.365 -3.58828 1.94182 0
M  V30 6564 H 620.04 -2.96828 2.91317 0
M  V30 6565 H 618.617 -3.53967 1.17312 0
M  V30 6566 N 620.802 -1.09834 -1.13024 0
M  V30 6567 C 622.03 -0.858902 -1.8823 0
M  V30 6568 C 622.445 0.590164 -1.79339 0
M  V30 6569 O 621.802 1.4065 -1.16292 0
M  V30 6570 C 621.853 -1.29066 -3.37675 0
M  V30 6571 O 621.574 -2.6829 -3.46341 0
M  V30 6572 C 623.075 -1.08421 -4.29837 0
M  V30 6573 H 620.295 -0.308713 -0.595766 0
M  V30 6574 H 622.839 -1.4614 -1.4305 0
M  V30 6575 H 620.994 -0.731961 -3.80422 0
M  V30 6576 H 621.408 -2.86598 -4.39274 0
M  V30 6577 H 622.882 -1.43553 -5.33007 0
M  V30 6578 H 623.359 -0.0223315 -4.39194 0
M  V30 6579 H 623.965 -1.62907 -3.92863 0
M  V30 6580 N 622.28 1.30327 -0.886154 0
M  V30 6581 C 623.243 2.26376 -0.358687 0
M  V30 6582 C 624.243 1.52845 0.499498 0
M  V30 6583 O 625.433 1.71483 0.306485 0
M  V30 6584 C 622.565 3.37379 0.488726 0
M  V30 6585 H 623.758 2.74547 -1.20681 0
M  V30 6586 H 621.311 1.41536 -0.663113 0
M  V30 6587 H 622.046 2.94526 1.35739 0
M  V30 6588 H 621.831 3.91897 -0.126003 0
M  V30 6589 H 623.321 4.08868 0.84952 0
M  V30 6590 N 623.758 0.647228 1.43697 0
M  V30 6591 C 624.688 -0.0345631 2.33474 0
M  V30 6592 C 625.669 -0.818193 1.4913 0
M  V30 6593 O 626.854 -0.780867 1.77809 0
M  V30 6594 C 623.984 -1.00576 3.32418 0
M  V30 6595 C 622.938 -0.33266 4.26705 0
M  V30 6596 C 622.264 -1.41489 5.1564 0
M  V30 6597 C 623.564 0.771204 5.16575 0
M  V30 6598 H 625.258 0.715163 2.90733 0
M  V30 6599 H 622.804 0.345364 1.39797 0
M  V30 6600 H 624.757 -1.49159 3.94119 0
M  V30 6601 H 623.481 -1.78657 2.73403 0
M  V30 6602 H 622.14 0.13267 3.6636 0
M  V30 6603 H 621.788 -2.18698 4.52968 0
M  V30 6604 H 621.488 -0.969799 5.79542 0
M  V30 6605 H 623.012 -1.9022 5.80214 0
M  V30 6606 H 624.426 0.36779 5.72119 0
M  V30 6607 H 622.823 1.1404 5.89165 0
M  V30 6608 H 623.893 1.63169 4.56622 0
M  V30 6609 N 625.236 -1.5273 0.388769 0
M  V30 6610 C 626.461 -2.0647 -0.19621 0
M  V30 6611 C 626.886 -1.25865 -1.39784 0
M  V30 6612 O 626.244 -0.283562 -1.79069 0
M  V30 6613 C 626.292 -3.56456 -0.5451 0
M  V30 6614 O 625.396 -3.78426 -1.63912 0
M  V30 6615 H 624.737 -0.663599 -0.023067 0
M  V30 6616 H 627.267 -1.96898 0.556084 0
M  V30 6617 H 627.277 -3.99888 -0.809557 0
M  V30 6618 H 625.952 -4.14561 0.333417 0
M  V30 6619 H 624.529 -3.46884 -1.36842 0
M  V30 6620 N 626.714 -0.118576 -1.57153 0
M  V30 6621 C 628.125 0.40687 -1.82213 0
M  V30 6622 C 628.476 1.66636 -1.03571 0
M  V30 6623 O 627.601 2.14682 -0.272171 0
M  V30 6624 C 628.196 0.744949 -3.30509 0
M  V30 6625 C 626.755 1.21503 -3.5625 0
M  V30 6626 C 625.902 0.223511 -2.76398 0
M  V30 6627 H 628.853 -0.343712 -1.54933 0
M  V30 6628 H 628.874 1.6024 -3.45114 0
M  V30 6629 H 628.386 -0.171911 -3.87719 0
M  V30 6630 H 626.487 2.1488 -3.04396 0
M  V30 6631 H 626.6 1.16065 -4.64829 0
M  V30 6632 H 624.964 0.71046 -2.44591 0
M  V30 6633 H 625.747 -0.686439 -3.36367 0
M  V30 6634 N 628.193 1.56834 0.155195 0
M  V30 6635 C 629.423 1.86778 0.883044 0
M  V30 6636 C 629.831 0.703824 1.75622 0
M  V30 6637 O 629.174 -0.33581 1.80605 0
M  V30 6638 C 629.236 3.1133 1.79761 0
M  V30 6639 C 628.9 4.43504 1.10242 0
M  V30 6640 C 629.897 5.17859 0.460204 0
M  V30 6641 C 627.582 4.90233 1.09437 0
M  V30 6642 C 629.576 6.37144 -0.180782 0
M  V30 6643 C 627.263 6.09444 0.449569 0
M  V30 6644 C 628.261 6.82744 -0.186888 0
M  V30 6645 O 627.949 7.99692 -0.821486 0
M  V30 6646 H 627.681 0.62352 0.261149 0
M  V30 6647 H 630.235 2.04813 0.155204 0
M  V30 6648 H 628.465 2.89282 2.56618 0
M  V30 6649 H 630.154 3.27587 2.39669 0
M  V30 6650 H 630.92 4.8283 0.458289 0
M  V30 6651 H 626.799 4.33109 1.57917 0
M  V30 6652 H 630.343 6.94296 -0.678154 0
M  V30 6653 H 626.24 6.43936 0.449123 0
M  V30 6654 H 627.008 8.15306 -0.722337 0
M  V30 6655 N 629.671 -0.424282 1.51781 0
M  V30 6656 C 631.082 -1.00368 1.57427 0
M  V30 6657 C 631.433 -1.91962 0.40558 0
M  V30 6658 O 630.558 -2.111 -0.47601 0
M  V30 6659 C 631.153 -1.82707 2.85313 0
M  V30 6660 C 629.712 -2.35675 2.93487 0
M  V30 6661 C 628.859 -1.1524 2.5222 0
M  V30 6662 H 631.81 -0.205064 1.5737 0
M  V30 6663 H 631.831 -2.68294 2.69812 0
M  V30 6664 H 631.343 -1.16017 3.70353 0
M  V30 6665 H 629.444 -3.05781 2.12906 0
M  V30 6666 H 629.557 -2.67578 3.97415 0
M  V30 6667 H 627.921 -1.50174 2.05718 0
M  V30 6668 H 628.704 -0.5014 3.39619 0
M  V30 6669 N 631.149 -1.42148 -0.680565 0
M  V30 6670 C 632.377 -1.45696 -1.46902 0
M  V30 6671 C 632.792 -0.0665858 -1.88683 0
M  V30 6672 O 632.149 0.917436 -1.57764 0
M  V30 6673 C 632.2 -2.37898 -2.72188 0
M  V30 6674 O 631.921 -3.71526 -2.32163 0
M  V30 6675 C 633.422 -2.50407 -3.65802 0
M  V30 6676 H 630.642 -0.495729 -0.45221 0
M  V30 6677 H 633.186 -1.866 -0.836709 0
M  V30 6678 H 631.341 -2.00263 -3.31622 0
M  V30 6679 H 631.755 -4.20849 -3.13027 0
M  V30 6680 H 633.229 -3.19056 -4.50452 0
M  V30 6681 H 633.706 -1.5401 -4.11312 0
M  V30 6682 H 634.312 -2.8874 -3.12265 0
M  V30 6683 N 632.627 0.916307 -1.28225 0
M  V30 6684 C 633.59 1.99996 -1.11957 0
M  V30 6685 C 634.59 1.60688 -0.0600152 0
M  V30 6686 O 635.78 1.71499 -0.30558 0
M  V30 6687 C 632.912 3.33458 -0.708411 0
M  V30 6688 H 634.105 2.15858 -2.08196 0
M  V30 6689 H 631.658 1.09863 -1.11175 0
M  V30 6690 H 632.393 3.23297 0.254859 0
M  V30 6691 H 632.178 3.63349 -1.47377 0
M  V30 6692 H 633.668 4.13014 -0.617164 0
M  V30 6693 N 634.105 1.10431 1.1244 0
M  V30 6694 C 635.354 0.841539 1.83306 0
M  V30 6695 C 635.667 -0.634961 1.85007 0
M  V30 6696 O 636.873 -1.01363 2.51869 0
M  V30 6697 C 635.329 1.45565 3.29149 0
M  V30 6698 C 634.937 2.96544 3.35806 0
M  V30 6699 C 636.681 1.27227 4.04986 0
M  V30 6700 C 634.588 3.5099 4.75983 0
M  V30 6701 H 633.518 0.311156 0.686803 0
M  V30 6702 H 636.169 1.32829 1.26604 0
M  V30 6703 H 634.551 0.896574 3.85717 0
M  V30 6704 H 635.725 3.58766 2.89177 0
M  V30 6705 H 634.04 3.14036 2.73442 0
M  V30 6706 H 636.637 1.65348 5.08492 0
M  V30 6707 H 636.98 0.213834 4.1575 0
M  V30 6708 H 637.513 1.79941 3.54776 0
M  V30 6709 H 634.252 4.56499 4.70413 0
M  V30 6710 H 633.772 2.93535 5.23065 0
M  V30 6711 H 635.451 3.48808 5.44924 0
M  V30 6712 N 635.583 -1.29855 0.893053 0
M  V30 6713 C 636.808 -2.00512 0.530066 0
M  V30 6714 C 637.233 -1.66446 -0.876199 0
M  V30 6715 O 636.591 -0.885446 -1.58207 0
M  V30 6716 C 636.639 -3.53308 0.721505 0
M  V30 6717 O 635.743 -4.11764 -0.228994 0
M  V30 6718 H 635.084 -0.630617 0.207891 0
M  V30 6719 H 637.614 -1.6551 1.20282 0
M  V30 6720 H 637.624 -4.03206 0.623599 0
M  V30 6721 H 636.299 -3.77439 1.74678 0
M  V30 6722 H 634.876 -3.72805 -0.0841034 0
M  V30 6723 N 637.061 -0.65484 -1.43351 0
M  V30 6724 C 638.309 -0.168559 -2.01396 0
M  V30 6725 C 638.63 1.22235 -1.51933 0
M  V30 6726 O 637.9 1.81685 -0.732627 0
M  V30 6727 H 636.48 -0.0593244 -0.744641 0
M  V30 6728 H 639.142 -0.846871 -1.75539 0
M  V30 6729 H 638.238 -0.154428 -3.11718 0
M  V30 6730 N 638.539 1.52521 -0.396863 0
M  V30 6731 C 639.469 2.29582 0.425941 0
M  V30 6732 C 640.45 1.33281 1.05689 0
M  V30 6733 O 641.635 1.62181 1.06823 0
M  V30 6734 C 638.765 3.10821 1.54943 0
M  V30 6735 C 637.719 4.15069 1.04413 0
M  V30 6736 C 637.045 4.84578 2.26028 0
M  V30 6737 C 638.345 5.22191 0.106767 0
M  V30 6738 H 640.039 2.98612 -0.217045 0
M  V30 6739 H 637.585 1.43611 -0.105826 0
M  V30 6740 H 639.538 3.63492 2.13193 0
M  V30 6741 H 638.262 2.39538 2.22011 0
M  V30 6742 H 636.921 3.63389 0.484118 0
M  V30 6743 H 636.569 4.09835 2.91623 0
M  V30 6744 H 636.269 5.55043 1.92876 0
M  V30 6745 H 637.793 5.40056 2.84906 0
M  V30 6746 H 639.207 5.70176 0.597685 0
M  V30 6747 H 637.604 5.99947 -0.135352 0
M  V30 6748 H 638.674 4.77531 -0.842134 0
M  V30 6749 N 640.017 0.126909 1.57088 0
M  V30 6750 C 640.949 -0.850973 2.12817 0
M  V30 6751 C 641.962 -1.22457 1.07276 0
M  V30 6752 O 643.151 -1.17215 1.34622 0
M  V30 6753 C 640.251 -2.15039 2.61938 0
M  V30 6754 C 639.424 -1.94726 3.91664 0
M  V30 6755 C 638.483 -3.0847 4.26301 0
M  V30 6756 O 637.509 -2.81038 4.94981 0
M  V30 6757 N 638.711 -4.35116 3.84259 0
M  V30 6758 H 641.476 -0.3748 2.97347 0
M  V30 6759 H 639.037 -0.0572793 1.61799 0
M  V30 6760 H 641.029 -2.90141 2.82135 0
M  V30 6761 H 639.599 -2.5398 1.82244 0
M  V30 6762 H 638.819 -1.03772 3.80296 0
M  V30 6763 H 640.107 -1.78469 4.76473 0
M  V30 6764 H 639.505 -4.60276 3.2888 0
M  V30 6765 H 638.062 -5.07064 4.09548 0
M  V30 6766 N 641.495 -1.56914 -0.146875 0
M  V30 6767 C 642.72 -1.87881 -0.878386 0
M  V30 6768 C 643.145 -0.715945 -1.73942 0
M  V30 6769 O 642.503 0.334447 -1.78189 0
M  V30 6770 C 642.551 -3.17431 -1.71084 0
M  V30 6771 O 641.655 -3.01374 -2.81509 0
M  V30 6772 H 640.996 -0.617289 -0.244644 0
M  V30 6773 H 643.526 -2.04136 -0.137654 0
M  V30 6774 H 643.536 -3.49455 -2.10582 0
M  V30 6775 H 642.211 -4.01671 -1.07856 0
M  V30 6776 H 640.788 -2.80758 -2.45416 0
M  V30 6777 N 642.974 0.416227 -1.52004 0
M  V30 6778 C 643.906 1.52552 -1.71058 0
M  V30 6779 C 644.919 1.51693 -0.59102 0
M  V30 6780 O 646.108 1.56087 -0.865973 0
M  V30 6781 C 643.208 2.91455 -1.72937 0
M  V30 6782 C 642.381 3.16584 -3.01816 0
M  V30 6783 C 641.44 4.35322 -2.95603 0
M  V30 6784 O 640.466 4.32947 -3.6952 0
M  V30 6785 N 641.668 5.40049 -2.12903 0
M  V30 6786 H 644.433 1.36604 -2.66757 0
M  V30 6787 H 641.994 0.60544 -1.50153 0
M  V30 6788 H 643.986 3.68944 -1.66321 0
M  V30 6789 H 642.556 3.00895 -0.847418 0
M  V30 6790 H 641.776 2.27203 -3.22137 0
M  V30 6791 H 643.064 3.30213 -3.87088 0
M  V30 6792 H 642.462 5.44823 -1.52265 0
M  V30 6793 H 641.019 6.16308 -2.1215 0
M  V30 6794 N 644.452 1.42507 0.673017 0
M  V30 6795 C 645.868 1.25472 0.986355 0
M  V30 6796 C 646.068 0.160181 2.00862 0
M  V30 6797 O 645.124 -0.467993 2.48125 0
M  V30 6798 C 646.437 2.61219 1.48947 0
M  V30 6799 C 647.985 2.68589 1.60715 0
M  V30 6800 C 648.46 4.04707 2.14422 0
M  V30 6801 N 649.951 4.0667 2.21752 0
M  V30 6802 C 650.686 5.0881 2.64386 0
M  V30 6803 N 650.182 6.21332 3.0646 0
M  V30 6804 N 651.975 4.96166 2.64151 0
M  V30 6805 H 644.126 2.124 -0.00378532 0
M  V30 6806 H 646.389 0.946046 0.0608367 0
M  V30 6807 H 646.095 3.42179 0.812812 0
M  V30 6808 H 645.969 2.85261 2.46791 0
M  V30 6809 H 648.356 1.87974 2.27486 0
M  V30 6810 H 648.437 2.48333 0.613552 0
M  V30 6811 H 648.081 4.8578 1.48258 0
M  V30 6812 H 648.011 4.22315 3.14575 0
M  V30 6813 H 650.502 3.25438 1.92089 0
M  V30 6814 H 650.815 6.95118 3.37684 0
M  V30 6815 H 649.16 6.24835 3.04313 0
M  V30 6816 H 652.351 4.07334 2.30644 0
M  V30 6817 H 652.524 5.759 2.97057 0
M  V30 6818 N 645.93 -0.909495 1.28709 0
M  V30 6819 C 646.863 -2.01388 1.07323 0
M  V30 6820 C 647.841 -1.62596 -0.0119757 0
M  V30 6821 O 649.025 -1.88003 0.136796 0
M  V30 6822 C 646.152 -3.32755 0.631797 0
M  V30 6823 C 645.198 -3.90532 1.71428 0
M  V30 6824 S 646.031 -4.20853 3.31124 0
M  V30 6825 C 647.187 -5.55276 2.88825 0
M  V30 6826 H 647.42 -2.19219 2.00824 0
M  V30 6827 H 644.953 -1.05489 1.12745 0
M  V30 6828 H 646.911 -4.08702 0.38381 0
M  V30 6829 H 645.572 -3.12818 -0.283451 0
M  V30 6830 H 644.765 -4.85385 1.35712 0
M  V30 6831 H 644.367 -3.21237 1.91528 0
M  V30 6832 H 646.659 -6.35341 2.3526 0
M  V30 6833 H 647.602 -5.95907 3.82492 0
M  V30 6834 H 648.01 -5.16666 2.27412 0
M  V30 6835 N 647.408 -1.11026 -1.11852 0
M  V30 6836 C 648.824 -0.843294 -1.35502 0
M  V30 6837 C 649.024 0.534179 -1.9429 0
M  V30 6838 O 648.08 1.28585 -2.17307 0
M  V30 6839 C 649.393 -1.94793 -2.29077 0
M  V30 6840 C 650.941 -1.97709 -2.42652 0
M  V30 6841 C 651.416 -3.07364 -3.39546 0
M  V30 6842 N 652.907 -3.0671 -3.47107 0
M  V30 6843 C 653.642 -3.88197 -4.22008 0
M  V30 6844 N 653.138 -4.79635 -4.99922 0
M  V30 6845 N 654.931 -3.76391 -4.17476 0
M  V30 6846 H 647.082 -1.99805 -0.720538 0
M  V30 6847 H 649.345 -0.868633 -0.379711 0
M  V30 6848 H 649.051 -2.93971 -1.93065 0
M  V30 6849 H 648.925 -1.84039 -3.29256 0
M  V30 6850 H 651.312 -0.991604 -2.77941 0
M  V30 6851 H 651.393 -2.1254 -1.4234 0
M  V30 6852 H 651.037 -4.06136 -3.04985 0
M  V30 6853 H 650.967 -2.89774 -4.39703 0
M  V30 6854 H 653.458 -2.40457 -2.91528 0
M  V30 6855 H 653.771 -5.38357 -5.54429 0
M  V30 6856 H 652.116 -4.8366 -4.99097 0
M  V30 6857 H 655.307 -3.04303 -3.55693 0
M  V30 6858 H 655.48 -4.40131 -4.75593 0
M  V30 6859 N 648.886 1.2938 -0.899927 0
M  V30 6860 C 649.836 2.25311 -0.349165 0
M  V30 6861 C 650.82 1.51889 0.530892 0
M  V30 6862 O 652.012 1.73028 0.372872 0
M  V30 6863 C 649.141 3.40696 0.422055 0
M  V30 6864 C 648.227 4.21455 -0.472935 0
M  V30 6865 N 648.618 4.8048 -1.58026 0
M  V30 6866 C 646.916 4.45177 -0.270767 0
M  V30 6867 C 647.617 5.41117 -2.13465 0
M  V30 6868 N 646.593 5.24518 -1.42766 0
M  V30 6869 H 650.395 2.68507 -1.19505 0
M  V30 6870 H 647.909 1.43992 -0.751006 0
M  V30 6871 H 649.906 4.08486 0.833369 0
M  V30 6872 H 648.566 2.99037 1.2652 0
M  V30 6873 H 649.577 4.79257 -1.96299 0
M  V30 6874 H 646.254 4.14071 0.533988 0
M  V30 6875 H 647.644 5.979 -3.06537 0
M  V30 6876 N 650.364 0.662433 1.43002 0
M  V30 6877 C 651.589 0.186003 2.06564 0
M  V30 6878 C 652.014 -1.14314 1.49379 0
M  V30 6879 O 651.372 -1.70824 0.607346 0
M  V30 6880 C 651.42 0.118269 3.60406 0
M  V30 6881 O 650.524 -0.916859 4.02079 0
M  V30 6882 H 649.865 0.0990981 0.656563 0
M  V30 6883 H 652.395 0.907958 1.8335 0
M  V30 6884 H 652.405 -0.0619981 4.07953 0
M  V30 6885 H 651.08 1.08849 4.01403 0
M  V30 6886 H 649.657 -0.708635 3.66105 0
M  V30 6887 N 651.842 -1.52309 0.404946 0
M  V30 6888 C 652.79 -2.28452 -0.437321 0
M  V30 6889 C 653.784 -1.32975 -1.04948 0
M  V30 6890 O 654.99 -1.50451 -0.988159 0
M  V30 6891 H 651.365 -0.734824 -0.159805 0
M  V30 6892 H 653.336 -2.97542 0.22615 0
M  V30 6893 C 652.085 -3.11536 -1.54404 0
M  V30 6894 H 651.408 -3.84871 -1.08233 0
M  V30 6895 H 652.848 -3.67926 -2.10729 0
M  V30 6896 C 651.307 -2.24833 -2.50902 0
M  V30 6897 O 651.837 -1.88574 -3.54687 0
M  V30 6898 N 650.043 -1.88685 -2.21012 0
M  V30 6899 H 649.59 -2.18371 -1.36646 0
M  V30 6900 H 649.548 -1.30966 -2.85824 0
M  V30 6901 N 653.32 -0.135238 -1.57019 0
M  V30 6902 C 654.27 0.820408 -2.12728 0
M  V30 6903 C 655.254 1.21735 -1.05211 0
M  V30 6904 O 656.446 1.18574 -1.31413 0
M  V30 6905 C 653.575 2.06414 -2.74314 0
M  V30 6906 C 652.661 1.69083 -3.88937 0
M  V30 6907 N 653.052 1.0251 -4.95303 0
M  V30 6908 C 651.35 1.98434 -3.99425 0
M  V30 6909 C 652.051 0.846749 -5.75504 0
M  V30 6910 N 651.027 1.3769 -5.25873 0
M  V30 6911 H 654.829 0.302426 -2.9234 0
M  V30 6912 H 652.343 0.0667009 -1.62263 0
M  V30 6913 H 654.34 2.75863 -3.12579 0
M  V30 6914 H 653 2.58741 -1.96171 0
M  V30 6915 H 654.011 0.687207 -5.1332 0
M  V30 6916 H 650.688 2.52693 -3.32344 0
M  V30 6917 H 652.078 0.322949 -6.71123 0
M  V30 6918 N 654.798 1.5699 0.138552 0
M  V30 6919 C 656.023 1.88344 0.86841 0
M  V30 6920 C 656.448 0.725159 1.7356 0
M  V30 6921 O 655.806 -0.324992 1.78363 0
M  V30 6922 C 655.854 3.18334 1.69398 0
M  V30 6923 O 654.958 3.02863 2.79907 0
M  V30 6924 H 654.299 0.618577 0.241367 0
M  V30 6925 H 656.829 2.04207 0.126826 0
M  V30 6926 H 656.839 3.50567 2.08726 0
M  V30 6927 H 655.514 4.02238 1.05725 0
M  V30 6928 H 654.091 2.82056 2.43924 0
M  V30 6929 N 656.276 -0.40816 1.52223 0
M  V30 6930 C 657.504 -1.17672 1.70179 0
M  V30 6931 C 657.919 -1.84257 0.411696 0
M  V30 6932 O 657.276 -1.7192 -0.612354 0
M  V30 6933 C 657.327 -2.23911 2.83806 0
M  V30 6934 O 657.048 -1.60044 4.0782 0
M  V30 6935 C 658.549 -3.1364 3.13281 0
M  V30 6936 H 655.769 -0.353562 0.570293 0
M  V30 6937 H 658.313 -0.480083 1.98785 0
M  V30 6938 H 656.468 -2.89242 2.57717 0
M  V30 6939 H 656.882 -2.30484 4.71145 0
M  V30 6940 H 658.356 -3.84255 3.96298 0
M  V30 6941 H 658.833 -3.76066 2.26872 0
M  V30 6942 H 659.439 -2.53977 3.41139 0
M  V30 6943 N 657.755 -1.42862 -0.66545 0
M  V30 6944 C 658.665 -1.49491 -1.80803 0
M  V30 6945 C 659.681 -0.382914 -1.69734 0
M  V30 6946 O 660.857 -0.635223 -1.9112 0
M  V30 6947 C 657.922 -1.40383 -3.17007 0
M  V30 6948 C 656.983 -2.62152 -3.39963 0
M  V30 6949 C 656.216 -2.53469 -4.69669 0
M  V30 6950 O 656.439 -1.57568 -5.48205 0
M  V30 6951 O 655.373 -3.43763 -4.94075 0
M  V30 6952 H 659.199 -2.45949 -1.78165 0
M  V30 6953 H 656.784 -1.24728 -0.822387 0
M  V30 6954 H 658.666 -1.377 -3.98267 0
M  V30 6955 H 657.341 -0.470546 -3.20262 0
M  V30 6956 H 656.248 -2.70409 -2.58515 0
M  V30 6957 H 657.581 -3.54411 -3.41546 0
M  V30 6958 N 659.233 0.902656 -1.29189 0
M  V30 6959 C 660.181 2.0278 -1.13943 0
M  V30 6960 C 661.175 1.69308 -0.055787 0
M  V30 6961 O 662.381 1.78707 -0.215371 0
M  V30 6962 H 658.756 0.664595 -0.351877 0
M  V30 6963 H 660.727 2.12778 -2.09208 0
M  V30 6964 C 659.476 3.37657 -0.82966 0
M  V30 6965 H 658.799 3.63913 -1.65551 0
M  V30 6966 H 660.239 4.17078 -0.762998 0
M  V30 6967 C 658.698 3.33648 0.466991 0
M  V30 6968 O 659.228 3.72886 1.49395 0
M  V30 6969 N 657.434 2.86745 0.471761 0
M  V30 6970 H 656.981 2.55009 -0.364406 0
M  V30 6971 H 656.939 2.84446 1.33933 0
M  V30 6972 N 660.711 1.11618 1.11262 0
M  V30 6973 C 661.936 0.889013 1.8738 0
M  V30 6974 C 662.361 -0.555884 1.79698 0
M  V30 6975 O 661.719 -1.39272 1.16073 0
M  V30 6976 C 661.767 1.35759 3.34069 0
M  V30 6977 O 660.871 0.530499 4.08974 0
M  V30 6978 H 660.212 0.320082 0.581759 0
M  V30 6979 H 662.742 1.48611 1.40627 0
M  V30 6980 H 662.752 1.35291 3.84916 0
M  V30 6981 H 661.427 2.40973 3.38976 0
M  V30 6982 H 660.004 0.601439 3.68018 0
M  V30 6983 N 662.189 -1.289 0.906776 0
M  V30 6984 C 663.6 -1.77336 0.58384 0
M  V30 6985 C 663.951 -1.74304 -0.900697 0
M  V30 6986 O 663.076 -1.33335 -1.70443 0
M  V30 6987 C 663.671 -3.22019 1.05304 0
M  V30 6988 C 662.23 -3.68205 0.781148 0
M  V30 6989 C 661.377 -2.48837 1.22373 0
M  V30 6990 H 664.328 -1.15462 1.08877 0
M  V30 6991 H 664.349 -3.78481 0.391414 0
M  V30 6992 H 663.861 -3.24194 2.13353 0
M  V30 6993 H 661.962 -3.71497 -0.28643 0
M  V30 6994 H 662.075 -4.58675 1.384 0
M  V30 6995 H 660.439 -2.46461 0.642594 0
M  V30 6996 H 661.222 -2.53736 2.31242 0
M  V30 6997 N 663.667 -0.670007 -1.42649 0
M  V30 6998 C 664.916 -0.187526 -2.00826 0
M  V30 6999 C 665.229 1.21142 -1.53571 0
M  V30 7000 O 666.435 1.79001 -2.04134 0
M  V30 7001 C 664.891 -0.284409 -3.58774 0
M  V30 7002 C 664.499 -1.6871 -4.15019 0
M  V30 7003 C 666.243 0.139605 -4.2427 0
M  V30 7004 C 664.15 -1.73701 -5.65316 0
M  V30 7005 H 663.08 -0.0663468 -0.751075 0
M  V30 7006 H 665.731 -0.834492 -1.63427 0
M  V30 7007 H 664.113 0.430364 -3.93655 0
M  V30 7008 H 665.287 -2.42857 -3.91608 0
M  V30 7009 H 663.602 -2.05855 -3.61957 0
M  V30 7010 H 666.199 0.122398 -5.3456 0
M  V30 7011 H 666.542 1.17403 -3.99402 0
M  V30 7012 H 667.075 -0.523995 -3.94334 0
M  V30 7013 H 663.814 -2.75109 -5.94975 0
M  V30 7014 H 663.334 -1.03903 -5.90732 0
M  V30 7015 H 665.013 -1.48829 -6.2965 0
M  V30 7016 N 665.145 1.52092 -0.413018 0
M  V30 7017 C 666.055 2.30858 0.417318 0
M  V30 7018 C 667.071 1.38746 1.05003 0
M  V30 7019 O 668.247 1.71821 1.05069 0
M  V30 7020 C 665.312 3.11756 1.51687 0
M  V30 7021 C 664.373 4.19613 0.906825 0
M  V30 7022 C 663.606 4.96644 1.95399 0
M  V30 7023 O 663.829 4.7402 3.17271 0
M  V30 7024 O 662.763 5.81385 1.55805 0
M  V30 7025 H 666.589 3.02865 -0.225028 0
M  V30 7026 H 664.174 1.48358 -0.176126 0
M  V30 7027 H 666.056 3.62122 2.15512 0
M  V30 7028 H 664.731 2.42539 2.14375 0
M  V30 7029 H 663.638 3.73385 0.231183 0
M  V30 7030 H 664.971 4.91134 0.323814 0
M  V30 7031 N 666.623 0.143563 1.56945 0
M  V30 7032 C 668.039 -0.212877 1.58174 0
M  V30 7033 C 668.239 -1.64926 1.15766 0
M  V30 7034 O 667.295 -2.37535 0.856361 0
M  V30 7035 C 668.608 0.0427573 3.0067 0
M  V30 7036 C 670.156 -0.0212221 3.12993 0
M  V30 7037 C 670.631 0.207036 4.57532 0
M  V30 7038 N 672.122 0.153845 4.62944 0
M  V30 7039 C 672.857 0.305018 5.72588 0
M  V30 7040 N 672.353 0.513722 6.90893 0
M  V30 7041 N 674.146 0.242862 5.61575 0
M  V30 7042 H 666.297 1.08148 1.82805 0
M  V30 7043 H 668.56 0.427831 0.84597 0
M  V30 7044 H 668.266 1.03672 3.36073 0
M  V30 7045 H 668.14 -0.678195 3.71053 0
M  V30 7046 H 670.527 -1.00574 2.77433 0
M  V30 7047 H 670.608 0.732004 2.45103 0
M  V30 7048 H 670.252 1.18863 4.93795 0
M  V30 7049 H 670.182 -0.566473 5.23544 0
M  V30 7050 H 672.673 -0.00294866 3.779 0
M  V30 7051 H 672.986 0.619273 7.70315 0
M  V30 7052 H 671.331 0.550001 6.9282 0
M  V30 7053 H 674.522 0.0806015 4.68031 0
M  V30 7054 H 674.695 0.364112 6.46976 0
M  V30 7055 N 668.101 -1.57061 -0.130224 0
M  V30 7056 C 669.517 -1.52103 -0.483413 0
M  V30 7057 C 669.717 -0.854752 -1.82473 0
M  V30 7058 O 668.773 -0.432342 -2.48771 0
M  V30 7059 C 670.086 -2.96872 -0.47825 0
M  V30 7060 C 671.634 -3.07902 -0.562592 0
M  V30 7061 C 672.109 -4.54211 -0.587929 0
M  V30 7062 N 673.6 -4.58621 -0.649684 0
M  V30 7063 C 674.335 -5.69227 -0.690551 0
M  V30 7064 N 673.831 -6.89358 -0.689743 0
M  V30 7065 N 675.624 -5.57304 -0.732708 0
M  V30 7066 H 667.775 -1.98764 0.748779 0
M  V30 7067 H 670.038 -0.907248 0.274965 0
M  V30 7068 H 669.744 -3.48944 0.439444 0
M  V30 7069 H 669.618 -3.53716 -1.31013 0
M  V30 7070 H 672.005 -2.5584 -1.47071 0
M  V30 7071 H 672.086 -2.54073 0.296764 0
M  V30 7072 H 671.73 -5.06915 0.316096 0
M  V30 7073 H 671.66 -5.0584 -1.46401 0
M  V30 7074 H 674.151 -3.72146 -0.656927 0
M  V30 7075 H 674.464 -7.69408 -0.723239 0
M  V30 7076 H 672.809 -6.91884 -0.657347 0
M  V30 7077 H 676 -4.62363 -0.730625 0
M  V30 7078 H 676.173 -6.43515 -0.76109 0
M  V30 7079 N 669.579 0.400081 -1.52437 0
M  V30 7080 C 670.804 1.17221 -1.71096 0
M  V30 7081 C 671.229 1.83269 -0.423565 0
M  V30 7082 O 670.587 1.70378 0.619751 0
M  V30 7083 C 670.635 2.20425 -2.85386 0
M  V30 7084 O 669.739 3.26769 -2.51586 0
M  V30 7085 H 669.08 0.341766 -0.569291 0
M  V30 7086 H 671.61 0.467772 -1.99181 0
M  V30 7087 H 671.62 2.64605 -3.10561 0
M  V30 7088 H 670.295 1.71737 -3.78786 0
M  V30 7089 H 668.872 2.87804 -2.37114 0
M  V30 7090 N 671.057 1.43213 0.657864 0
M  V30 7091 C 671.987 1.50815 1.78262 0
M  V30 7092 C 672.968 0.363211 1.66177 0
M  V30 7093 O 674.153 0.579806 1.85343 0
M  V30 7094 C 671.283 1.42625 3.16663 0
M  V30 7095 C 670.237 2.5532 3.43505 0
M  V30 7096 C 669.563 2.32184 4.81658 0
M  V30 7097 C 670.863 3.97583 3.38711 0
M  V30 7098 H 672.557 2.44954 1.72157 0
M  V30 7099 H 670.103 1.17896 0.82683 0
M  V30 7100 H 672.056 1.46548 3.95097 0
M  V30 7101 H 670.78 0.449877 3.23487 0
M  V30 7102 H 669.439 2.50742 2.6744 0
M  V30 7103 H 669.087 1.32801 4.85153 0
M  V30 7104 H 668.787 3.07724 5.00579 0
M  V30 7105 H 670.311 2.37883 5.62356 0
M  V30 7106 H 671.725 4.03673 4.07089 0
M  V30 7107 H 670.122 4.73112 3.69168 0
M  V30 7108 H 671.192 4.23049 2.36976 0
M  V30 7109 N 672.536 -0.895792 1.29666 0
M  V30 7110 C 673.469 -2.00238 1.09453 0
M  V30 7111 C 674.447 -1.62599 0.00527044 0
M  V30 7112 O 675.631 -1.87847 0.156729 0
M  V30 7113 C 672.758 -3.32066 0.667054 0
M  V30 7114 C 671.804 -3.88691 1.7556 0
M  V30 7115 S 672.637 -4.17317 3.35569 0
M  V30 7116 C 673.793 -5.52181 2.94698 0
M  V30 7117 H 674.026 -2.17076 2.03138 0
M  V30 7118 H 671.559 -1.04287 1.13858 0
M  V30 7119 H 673.517 -4.08272 0.427136 0
M  V30 7120 H 672.178 -3.13101 -0.250256 0
M  V30 7121 H 671.371 -4.83918 1.40853 0
M  V30 7122 H 670.973 -3.19187 1.94924 0
M  V30 7123 H 673.265 -6.3281 2.41986 0
M  V30 7124 H 674.208 -5.91817 3.88791 0
M  V30 7125 H 674.616 -5.14225 2.32879 0
M  V30 7126 N 674.014 -1.12206 -1.10668 0
M  V30 7127 C 675.242 -0.898635 -1.86366 0
M  V30 7128 C 675.657 0.551991 -1.80551 0
M  V30 7129 O 675.014 1.38152 -1.19249 0
M  V30 7130 C 675.065 -1.36199 -3.34861 0
M  V30 7131 O 674.786 -2.75576 -3.40573 0
M  V30 7132 C 676.287 -1.17515 -4.2744 0
M  V30 7133 H 673.507 -0.321281 -0.589084 0
M  V30 7134 H 676.051 -1.49142 -1.39918 0
M  V30 7135 H 674.206 -0.81249 -3.78784 0
M  V30 7136 H 674.62 -2.95851 -4.33096 0
M  V30 7137 H 676.094 -1.54827 -5.29842 0
M  V30 7138 H 676.571 -0.115486 -4.39048 0
M  V30 7139 H 677.177 -1.71203 -3.89319 0
M  V30 7140 N 675.492 1.28418 -0.913599 0
M  V30 7141 C 676.717 1.99643 -0.561899 0
M  V30 7142 C 677.142 1.67819 0.849608 0
M  V30 7143 O 676.5 0.910503 1.56779 0
M  V30 7144 C 676.548 3.52116 -0.777622 0
M  V30 7145 O 675.652 4.12076 0.163457 0
M  V30 7146 H 674.993 0.627229 -0.217898 0
M  V30 7147 H 677.523 1.63575 -1.229 0
M  V30 7148 H 677.533 4.02163 -0.687666 0
M  V30 7149 H 676.208 3.74613 -1.8066 0
M  V30 7150 H 674.785 3.72892 0.0247827 0
M  V30 7151 N 676.97 0.677563 1.42291 0
M  V30 7152 C 678.247 0.129803 1.95169 0
M  V30 7153 C 678.627 -1.35605 1.61786 0
M  V30 7154 O 677.975 -2.09361 0.915444 0
M  V30 7155 C 678.185 0.401889 3.46678 0
M  V30 7156 C 679.533 0.319889 4.23393 0
M  V30 7157 O 680.557 0.33579 3.54614 0
M  V30 7158 O 679.416 0.264459 5.4586 0
M  V30 7159 H 676.51 0.00447433 0.826988 0
M  V30 7160 H 679.056 0.752483 1.52105 0
M  V30 7161 H 677.828 1.43108 3.64192 0
M  V30 7162 H 677.451 -0.252662 3.96796 0
M  V30 7163 N 678.448 -1.51871 0.421078 0
M  V30 7164 C 679.358 -2.31077 -0.405069 0
M  V30 7165 C 680.374 -1.39301 -1.04265 0
M  V30 7166 O 681.55 -1.72376 -1.04157 0
M  V30 7167 C 678.615 -3.12556 -1.50032 0
M  V30 7168 C 677.676 -4.20088 -0.884559 0
M  V30 7169 C 676.909 -4.97673 -1.92762 0
M  V30 7170 O 677.132 -4.75696 -3.14753 0
M  V30 7171 O 676.066 -5.82203 -1.52719 0
M  V30 7172 H 679.892 -3.02742 0.241086 0
M  V30 7173 H 677.477 -1.48263 0.183991 0
M  V30 7174 H 679.359 -3.6326 -2.13589 0
M  V30 7175 H 678.034 -2.43672 -2.13086 0
M  V30 7176 H 676.941 -3.73502 -0.211379 0
M  V30 7177 H 678.274 -4.91298 -0.297763 0
M  V30 7178 N 679.926 -0.151884 -1.56866 0
M  V30 7179 C 680.874 0.80299 -2.183 0
M  V30 7180 C 681.868 1.25174 -1.14139 0
M  V30 7181 O 683.074 1.21966 -1.3238 0
M  V30 7182 H 679.449 0.277169 -0.699057 0
M  V30 7183 H 681.42 0.260699 -2.97259 0
M  V30 7184 C 680.169 2.03009 -2.82281 0
M  V30 7185 H 679.492 1.69377 -3.62148 0
M  V30 7186 H 680.932 2.67753 -3.28762 0
M  V30 7187 C 679.391 2.84123 -1.81041 0
M  V30 7188 O 679.921 3.8063 -1.28388 0
M  V30 7189 N 678.127 2.48753 -1.50234 0
M  V30 7190 H 677.674 1.70337 -1.93244 0
M  V30 7191 H 677.632 3.03316 -0.827445 0
M  V30 7192 N 681.404 1.57128 0.121893 0
M  V30 7193 C 682.634 1.88609 0.843227 0
M  V30 7194 C 683.042 0.740917 1.74089 0
M  V30 7195 O 682.385 -0.297426 1.81276 0
M  V30 7196 C 682.447 3.15073 1.73117 0
M  V30 7197 C 682.111 4.45742 1.0081 0
M  V30 7198 C 683.108 5.18719 0.350255 0
M  V30 7199 C 680.793 4.92444 0.99014 0
M  V30 7200 C 682.787 6.36617 -0.315889 0
M  V30 7201 C 680.474 6.10261 0.320196 0
M  V30 7202 C 681.472 6.82194 -0.331666 0
M  V30 7203 O 681.16 7.97769 -0.990927 0
M  V30 7204 H 680.892 0.628919 0.247865 0
M  V30 7205 H 683.446 2.05096 0.111725 0
M  V30 7206 H 681.676 2.9466 2.50424 0
M  V30 7207 H 683.365 3.32597 2.32667 0
M  V30 7208 H 684.131 4.83693 0.35577 0
M  V30 7209 H 680.01 4.36361 1.48695 0
M  V30 7210 H 683.554 6.92701 -0.825272 0
M  V30 7211 H 679.451 6.44743 0.312433 0
M  V30 7212 H 680.219 8.13591 -0.895113 0
M  V30 7213 N 682.882 -0.391992 1.52647 0
M  V30 7214 C 683.832 -1.47815 1.73594 0
M  V30 7215 C 684.816 -1.49693 0.589979 0
M  V30 7216 O 686.008 -1.5538 0.847701 0
M  V30 7217 C 683.137 -2.85561 1.90551 0
M  V30 7218 C 682.223 -2.88264 3.1107 0
M  V30 7219 N 682.614 -2.60642 4.33474 0
M  V30 7220 C 680.912 -3.19432 3.11254 0
M  V30 7221 C 681.613 -2.70351 5.15058 0
M  V30 7222 N 680.589 -3.03956 4.50679 0
M  V30 7223 H 684.391 -1.2528 2.65861 0
M  V30 7224 H 681.905 -0.599907 1.50913 0
M  V30 7225 H 683.902 -3.63759 2.03678 0
M  V30 7226 H 682.562 -3.09081 0.994952 0
M  V30 7227 H 683.573 -2.34718 4.61658 0
M  V30 7228 H 680.25 -3.48436 2.29997 0
M  V30 7229 H 681.64 -2.52565 6.22624 0
M  V30 7230 N 684.36 -1.4356 -0.65026 0
M  V30 7231 C 685.308 -1.49219 -1.78427 0
M  V30 7232 C 686.302 -0.365528 -1.65409 0
M  V30 7233 O 687.508 -0.539649 -1.7172 0
M  V30 7234 H 683.883 -0.467858 -0.588738 0
M  V30 7235 H 685.854 -2.44701 -1.70774 0
M  V30 7236 C 684.603 -1.43519 -3.16698 0
M  V30 7237 H 683.926 -2.2952 -3.27354 0
M  V30 7238 H 685.366 -1.5154 -3.95995 0
M  V30 7239 C 683.825 -0.153197 -3.36552 0
M  V30 7240 O 684.355 0.784317 -3.93969 0
M  V30 7241 N 682.561 -0.0624402 -2.90533 0
M  V30 7242 H 682.108 -0.826172 -2.43992 0
M  V30 7243 H 682.066 0.794616 -3.04193 0
M  V30 7244 N 685.838 0.888903 -1.30139 0
M  V30 7245 C 686.748 2.02705 -1.18101 0
M  V30 7246 C 687.764 1.73702 -0.101809 0
M  V30 7247 O 688.94 1.98906 -0.315984 0
M  V30 7248 C 686.005 3.35616 -0.869651 0
M  V30 7249 C 685.066 3.78067 -2.03381 0
M  V30 7250 C 684.299 5.04635 -1.73721 0
M  V30 7251 O 684.522 5.66531 -0.663267 0
M  V30 7252 O 683.456 5.43399 -2.58845 0
M  V30 7253 H 687.282 2.15788 -2.13704 0
M  V30 7254 H 684.867 1.01426 -1.09695 0
M  V30 7255 H 686.749 4.15358 -0.711043 0
M  V30 7256 H 685.424 3.23651 0.0565002 0
M  V30 7257 H 684.331 2.99046 -2.24772 0
M  V30 7258 H 685.664 3.94631 -2.94155 0
M  V30 7259 N 687.317 1.12792 1.10072 0
M  V30 7260 C 688.733 0.864745 1.34143 0
M  V30 7261 C 688.933 -0.503201 1.95116 0
M  V30 7262 O 687.989 -1.25111 2.19325 0
M  V30 7263 C 689.302 1.98413 2.25949 0
M  V30 7264 C 690.85 2.01545 2.39476 0
M  V30 7265 C 691.325 3.12727 3.34613 0
M  V30 7266 N 692.816 3.12194 3.42183 0
M  V30 7267 C 693.551 3.94862 4.15779 0
M  V30 7268 N 693.047 4.87528 4.92228 0
M  V30 7269 N 694.84 3.82985 4.11435 0
M  V30 7270 H 686.991 2.00926 0.68866 0
M  V30 7271 H 689.254 0.874564 0.365844 0
M  V30 7272 H 688.96 2.97005 1.88364 0
M  V30 7273 H 688.834 1.89254 3.26287 0
M  V30 7274 H 691.221 1.0357 2.76328 0
M  V30 7275 H 691.302 2.14777 1.3894 0
M  V30 7276 H 690.946 4.10936 2.98486 0
M  V30 7277 H 690.876 2.96732 4.35037 0
M  V30 7278 H 693.367 2.45065 2.87666 0
M  V30 7279 H 693.68 5.47109 5.45794 0
M  V30 7280 H 692.025 4.91539 4.9134 0
M  V30 7281 H 695.216 3.09923 3.50807 0
M  V30 7282 H 695.389 4.47641 4.68531 0
M  V30 7283 N 688.795 -1.27931 0.920396 0
M  V30 7284 C 689.758 -2.25345 0.41858 0
M  V30 7285 C 690.758 -1.54116 -0.458798 0
M  V30 7286 O 691.948 -1.72235 -0.260912 0
M  V30 7287 C 689.08 -3.38556 -0.399104 0
M  V30 7288 H 690.273 -2.71251 1.27918 0
M  V30 7289 H 687.826 -1.39728 0.700406 0
M  V30 7290 H 688.561 -2.98021 -1.27882 0
M  V30 7291 H 688.346 -3.91426 0.229863 0
M  V30 7292 H 689.836 -4.10976 -0.740817 0
M  V30 7293 N 690.273 -0.685099 -1.4193 0
M  V30 7294 C 691.689 -0.355632 -1.55587 0
M  V30 7295 C 691.889 1.13823 -1.66273 0
M  V30 7296 O 690.945 1.92387 -1.63534 0
M  V30 7297 C 692.258 -1.09498 -2.80055 0
M  V30 7298 C 693.806 -1.07831 -2.93839 0
M  V30 7299 C 694.281 -1.79919 -4.21181 0
M  V30 7300 N 695.772 -1.76837 -4.28115 0
M  V30 7301 C 696.507 -2.29463 -5.25485 0
M  V30 7302 N 696.003 -2.90516 -6.28945 0
M  V30 7303 N 697.796 -2.19779 -5.17353 0
M  V30 7304 H 689.947 -1.65412 -1.33239 0
M  V30 7305 H 692.21 -0.697453 -0.642078 0
M  V30 7306 H 691.916 -2.14997 -2.78333 0
M  V30 7307 H 691.79 -0.666813 -3.71259 0
M  V30 7308 H 694.177 -0.0316152 -2.95083 0
M  V30 7309 H 694.258 -1.54545 -2.03837 0
M  V30 7310 H 693.902 -2.84562 -4.20698 0
M  V30 7311 H 693.832 -1.30647 -5.10136 0
M  V30 7312 H 696.323 -1.32315 -3.53979 0
M  V30 7313 H 696.636 -3.28266 -6.99615 0
M  V30 7314 H 694.981 -2.94589 -6.29478 0
M  V30 7315 H 698.172 -1.71763 -4.35448 0
M  V30 7316 H 698.345 -2.61097 -5.9307 0
M  V30 7317 N 691.751 1.51645 -0.429126 0
M  V30 7318 C 692.698 2.27542 0.386446 0
M  V30 7319 C 693.668 1.30786 1.02393 0
M  V30 7320 O 694.853 1.59678 1.0444 0
M  V30 7321 C 691.993 3.11457 1.48623 0
M  V30 7322 C 691.106 4.23196 0.867691 0
M  V30 7323 C 690.241 4.94435 1.94183 0
M  V30 7324 C 689.28 5.98108 1.30129 0
M  V30 7325 N 688.417 6.62786 2.31644 0
M  V30 7326 H 693.257 2.968 -0.267155 0
M  V30 7327 H 690.794 1.46397 -0.143591 0
M  V30 7328 H 692.752 3.58429 2.13506 0
M  V30 7329 H 691.382 2.44329 2.10957 0
M  V30 7330 H 690.434 3.80248 0.107373 0
M  V30 7331 H 691.746 4.97499 0.35997 0
M  V30 7332 H 690.9 5.44914 2.66747 0
M  V30 7333 H 689.639 4.19744 2.48326 0
M  V30 7334 H 688.644 5.4693 0.561082 0
M  V30 7335 H 689.869 6.74751 0.767303 0
M  V30 7336 H 687.815 5.90913 2.84883 0
M  V30 7337 H 687.732 7.32828 1.85741 0
M  V30 7338 H 689 7.17897 3.03717 0
M  V30 7339 N 693.229 0.160201 1.56784 0
M  V30 7340 C 694.454 -0.497373 2.01348 0
M  V30 7341 C 694.879 -1.56757 1.03966 0
M  V30 7342 O 694.237 -1.81292 0.0174455 0
M  V30 7343 C 694.285 -1.0628 3.44582 0
M  V30 7344 O 693.389 -2.17723 3.50244 0
M  V30 7345 H 692.73 -0.120295 0.653012 0
M  V30 7346 H 695.26 0.260821 2.02931 0
M  V30 7347 H 695.27 -1.38819 3.83658 0
M  V30 7348 H 693.945 -0.279166 4.14962 0
M  V30 7349 H 692.522 -1.86313 3.2302 0
M  V30 7350 N 694.707 -1.5719 -0.113559 0
M  V30 7351 C 696.123 -1.52607 -0.467253 0
M  V30 7352 C 696.323 -0.874058 -1.81556 0
M  V30 7353 O 695.379 -0.458703 -2.48299 0
M  V30 7354 C 696.692 -2.97363 -0.446736 0
M  V30 7355 C 698.24 -3.08482 -0.529903 0
M  V30 7356 C 698.715 -4.54809 -0.539721 0
M  V30 7357 N 700.206 -4.59284 -0.601005 0
M  V30 7358 C 700.941 -5.69927 -0.630138 0
M  V30 7359 N 700.437 -6.90051 -0.616589 0
M  V30 7360 N 702.23 -5.5805 -0.673558 0
M  V30 7361 H 694.381 -1.97958 0.769819 0
M  V30 7362 H 696.644 -0.90428 0.284572 0
M  V30 7363 H 696.35 -3.48458 0.47643 0
M  V30 7364 H 696.224 -3.55086 -1.27254 0
M  V30 7365 H 698.611 -2.57386 -1.44349 0
M  V30 7366 H 698.692 -2.53744 0.323695 0
M  V30 7367 H 698.336 -5.06552 0.369843 0
M  V30 7368 H 698.266 -5.07364 -1.41028 0
M  V30 7369 H 700.757 -3.72822 -0.617419 0
M  V30 7370 H 701.07 -7.70132 -0.641592 0
M  V30 7371 H 699.415 -6.92543 -0.583927 0
M  V30 7372 H 702.606 -4.63112 -0.681544 0
M  V30 7373 H 702.779 -6.44286 -0.692794 0
M  V30 7374 N 696.185 0.383891 -1.52853 0
M  V30 7375 C 697.133 1.48965 -1.7864 0
M  V30 7376 C 698.127 1.56242 -0.654577 0
M  V30 7377 O 699.333 1.59347 -0.83716 0
M  V30 7378 H 695.708 0.495892 -0.565328 0
M  V30 7379 H 697.679 1.24411 -2.71228 0
M  V30 7380 C 696.428 2.86036 -1.97683 0
M  V30 7381 H 695.751 2.81188 -2.84206 0
M  V30 7382 H 697.191 3.62632 -2.19713 0
M  V30 7383 C 695.65 3.28428 -0.750776 0
M  V30 7384 O 696.18 4.0164 0.0693491 0
M  V30 7385 N 694.386 2.84765 -0.579427 0
M  V30 7386 H 693.933 2.25353 -1.24795 0
M  V30 7387 H 693.891 3.13486 0.239544 0
M  V30 7388 N 697.663 1.43903 0.642637 0
M  V30 7389 C 699.079 1.27536 0.959519 0
M  V30 7390 C 699.279 0.202751 2.00477 0
M  V30 7391 O 698.335 -0.415256 2.49062 0
M  V30 7392 C 699.648 2.6432 1.43372 0
M  V30 7393 C 701.196 2.71937 1.54981 0
M  V30 7394 C 701.671 4.09164 2.05789 0
M  V30 7395 N 703.162 4.11282 2.13076 0
M  V30 7396 C 703.897 5.14303 2.53534 0
M  V30 7397 N 703.393 6.27693 2.93212 0
M  V30 7398 N 705.186 5.01657 2.53567 0
M  V30 7399 H 697.337 2.12344 -0.0488376 0
M  V30 7400 H 699.6 0.947124 0.0407559 0
M  V30 7401 H 699.306 3.43826 0.740048 0
M  V30 7402 H 699.18 2.90432 2.40685 0
M  V30 7403 H 701.567 1.92757 2.23448 0
M  V30 7404 H 701.648 2.49578 0.560739 0
M  V30 7405 H 701.292 4.88815 1.37921 0
M  V30 7406 H 701.222 4.28893 3.05546 0
M  V30 7407 H 703.713 3.2944 1.85143 0
M  V30 7408 H 704.026 7.02125 3.22863 0
M  V30 7409 H 702.371 6.31149 2.90991 0
M  V30 7410 H 705.562 4.12134 2.21952 0
M  V30 7411 H 705.735 5.82072 2.84774 0
M  V30 7412 N 699.141 -0.881989 1.30609 0
M  V30 7413 C 700.071 -2.00413 1.1982 0
M  V30 7414 C 701.052 -1.69871 0.0881538 0
M  V30 7415 O 702.237 -1.92304 0.2707 0
M  V30 7416 C 699.367 -3.35641 0.89233 0
M  V30 7417 C 698.321 -3.80451 1.96064 0
M  V30 7418 C 697.647 -5.13003 1.5077 0
M  V30 7419 C 698.947 -3.98855 3.37213 0
M  V30 7420 H 700.641 -2.09698 2.13699 0
M  V30 7421 H 698.187 -1.00754 1.02882 0
M  V30 7422 H 700.14 -4.13669 0.803497 0
M  V30 7423 H 698.864 -3.26497 -0.0821381 0
M  V30 7424 H 697.523 -3.04654 2.03916 0
M  V30 7425 H 697.171 -5.0029 0.521417 0
M  V30 7426 H 696.871 -5.43956 2.22229 0
M  V30 7427 H 698.395 -5.93554 1.43271 0
M  V30 7428 H 699.809 -4.67312 3.32103 0
M  V30 7429 H 698.206 -4.41188 4.06784 0
M  V30 7430 H 699.276 -3.02614 3.78883 0
M  V30 7431 N 700.619 -1.13374 -1.09472 0
M  V30 7432 C 701.844 -0.918711 -1.85942 0
M  V30 7433 C 702.269 0.527225 -1.8056 0
M  V30 7434 O 701.627 1.37408 -1.18274 0
M  V30 7435 C 701.675 -1.41056 -3.31867 0
M  V30 7436 O 700.779 -0.595496 -4.08078 0
M  V30 7437 H 700.12 -0.329297 -0.576593 0
M  V30 7438 H 702.65 -1.50829 -1.38245 0
M  V30 7439 H 702.66 -1.41398 -3.82715 0
M  V30 7440 H 701.335 -2.46335 -3.35099 0
M  V30 7441 H 699.912 -0.659911 -3.67014 0
M  V30 7442 N 702.098 1.27442 -0.927168 0
M  V30 7443 C 703.323 1.99036 -0.583042 0
M  V30 7444 C 703.748 1.68711 0.83176 0
M  V30 7445 O 703.106 0.927081 1.55804 0
M  V30 7446 C 703.154 3.51271 -0.814925 0
M  V30 7447 O 702.258 4.12226 0.119742 0
M  V30 7448 H 701.599 0.624883 -0.224538 0
M  V30 7449 H 704.129 1.62263 -1.24628 0
M  V30 7450 H 704.139 4.01411 -0.730282 0
M  V30 7451 H 702.814 3.72676 -1.84623 0
M  V30 7452 H 701.391 3.72897 -0.0147688 0
M  V30 7453 N 703.576 0.692616 1.41565 0
M  V30 7454 C 704.801 0.229776 2.06123 0
M  V30 7455 C 705.226 -1.11119 1.5177 0
M  V30 7456 O 704.584 -1.69498 0.643444 0
M  V30 7457 C 704.632 0.19469 3.60074 0
M  V30 7458 O 703.736 -0.831366 4.03933 0
M  V30 7459 H 703.077 0.113002 0.654314 0
M  V30 7460 H 705.607 0.946645 1.81383 0
M  V30 7461 H 705.617 0.0245487 4.07993 0
M  V30 7462 H 704.292 1.17339 3.99004 0
M  V30 7463 H 702.869 -0.630819 3.67526 0
M  V30 7464 N 705.054 -1.51416 0.437162 0
M  V30 7465 C 706.279 -2.0699 -0.130424 0
M  V30 7466 C 706.704 -1.30249 -1.35709 0
M  V30 7467 O 706.062 -0.340388 -1.78076 0
M  V30 7468 C 706.11 -3.5801 -0.43142 0
M  V30 7469 O 705.214 -3.8345 -1.5179 0
M  V30 7470 H 704.555 -0.663997 -0.00194339 0
M  V30 7471 H 707.085 -1.95029 0.618445 0
M  V30 7472 H 707.095 -4.02261 -0.681926 0
M  V30 7473 H 705.77 -4.13291 0.465137 0
M  V30 7474 H 704.347 -3.51062 -1.25737 0
M  V30 7475 N 706.532 -0.168513 -1.56696 0
M  V30 7476 C 707.464 0.794249 -2.14998 0
M  V30 7477 C 708.477 1.1957 -1.10485 0
M  V30 7478 O 709.666 1.13604 -1.37682 0
M  V30 7479 C 706.766 2.08018 -2.67547 0
M  V30 7480 C 705.939 1.84274 -3.96689 0
M  V30 7481 C 704.998 2.97059 -4.3433 0
M  V30 7482 O 704.024 2.67815 -5.02259 0
M  V30 7483 N 705.226 4.24775 -3.9566 0
M  V30 7484 H 707.991 0.295832 -2.98236 0
M  V30 7485 H 705.552 0.0143611 -1.61894 0
M  V30 7486 H 707.544 2.82559 -2.89729 0
M  V30 7487 H 706.114 2.49059 -1.88914 0
M  V30 7488 H 705.334 0.936528 -3.82914 0
M  V30 7489 H 706.622 1.65773 -4.81037 0
M  V30 7490 H 706.02 4.51395 -3.40968 0
M  V30 7491 H 704.577 4.96027 -4.22848 0
M  V30 7492 N 708.01 1.57248 0.105221 0
M  V30 7493 C 708.96 1.9777 1.1345 0
M  V30 7494 C 709.944 0.854654 1.36325 0
M  V30 7495 O 711.136 1.11844 1.37186 0
M  V30 7496 C 708.265 2.39717 2.45745 0
M  V30 7497 C 707.351 3.58686 2.26286 0
M  V30 7498 N 707.742 4.73942 1.76671 0
M  V30 7499 C 706.04 3.64586 2.56891 0
M  V30 7500 C 706.741 5.55923 1.71245 0
M  V30 7501 N 705.717 4.98803 2.16093 0
M  V30 7502 H 709.519 2.84336 0.743664 0
M  V30 7503 H 707.033 1.59359 0.312787 0
M  V30 7504 H 709.03 2.66971 3.20206 0
M  V30 7505 H 707.69 1.54523 2.85574 0
M  V30 7506 H 708.701 4.9689 1.46016 0
M  V30 7507 H 705.378 2.90031 3.00314 0
M  V30 7508 H 706.768 6.58398 1.34022 0
M  V30 7509 N 709.488 -0.375779 1.53054 0
M  V30 7510 C 710.713 -1.14484 1.7294 0
M  V30 7511 C 711.138 -1.82572 0.452668 0
M  V30 7512 O 710.496 -1.71343 -0.592567 0
M  V30 7513 C 710.544 -2.15857 2.88857 0
M  V30 7514 O 709.648 -3.22725 2.56753 0
M  V30 7515 H 708.989 -0.332666 0.574656 0
M  V30 7516 H 711.519 -0.436025 1.999 0
M  V30 7517 H 711.529 -2.59631 3.14731 0
M  V30 7518 H 710.204 -1.65689 3.81471 0
M  V30 7519 H 708.781 -2.83996 2.41663 0
M  V30 7520 N 710.966 -1.44241 -0.634997 0
M  V30 7521 C 712.382 -1.28043 -0.952742 0
M  V30 7522 C 712.582 -0.21338 -2.00367 0
M  V30 7523 O 711.638 0.402042 -2.49279 0
M  V30 7524 C 712.951 -2.65076 -1.41968 0
M  V30 7525 C 714.499 -2.72755 -1.53537 0
M  V30 7526 C 714.974 -4.10249 -2.03616 0
M  V30 7527 N 716.465 -4.12406 -2.10892 0
M  V30 7528 C 717.2 -5.15641 -2.50803 0
M  V30 7529 N 716.696 -6.29239 -2.89879 0
M  V30 7530 N 718.489 -5.02995 -2.50903 0
M  V30 7531 H 710.64 -2.12315 0.060098 0
M  V30 7532 H 712.903 -0.947326 -0.0357325 0
M  V30 7533 H 712.609 -3.44213 -0.721804 0
M  V30 7534 H 712.483 -2.91704 -2.39141 0
M  V30 7535 H 714.87 -1.93939 -2.22422 0
M  V30 7536 H 714.951 -2.49872 -0.547496 0
M  V30 7537 H 714.595 -4.8954 -1.35327 0
M  V30 7538 H 714.525 -4.30507 -3.03268 0
M  V30 7539 H 717.016 -3.30417 -1.83393 0
M  V30 7540 H 717.329 -7.03827 -3.19135 0
M  V30 7541 H 715.674 -6.32683 -2.8764 0
M  V30 7542 H 718.865 -4.13306 -2.19763 0
M  V30 7543 H 719.038 -5.83574 -2.81683 0
M  V30 7544 N 712.444 0.87505 -1.31075 0
M  V30 7545 C 713.721 1.60976 -1.11113 0
M  V30 7546 C 714.101 2.08409 0.336006 0
M  V30 7547 O 713.449 1.85858 1.32924 0
M  V30 7548 C 713.659 2.77166 -2.12085 0
M  V30 7549 C 715.007 3.47254 -2.44335 0
M  V30 7550 O 716.031 2.87367 -2.10472 0
M  V30 7551 O 714.89 4.55276 -3.02301 0
M  V30 7552 H 711.984 0.707982 -0.427424 0
M  V30 7553 H 714.53 0.920957 -1.42536 0
M  V30 7554 H 713.302 2.39494 -3.09449 0
M  V30 7555 H 712.925 3.53737 -1.81538 0
M  V30 7556 N 713.922 1.13953 1.08869 0
M  V30 7557 C 714.872 0.790812 2.13846 0
M  V30 7558 C 715.856 -0.217819 1.59419 0
M  V30 7559 O 717.048 -0.0208723 1.76988 0
M  V30 7560 C 714.177 0.26479 3.42277 0
M  V30 7561 C 713.263 1.30267 4.03598 0
M  V30 7562 N 713.654 2.50535 4.39393 0
M  V30 7563 C 711.952 1.15178 4.30871 0
M  V30 7564 C 712.653 3.16938 4.87776 0
M  V30 7565 N 711.629 2.44349 4.85587 0
M  V30 7566 H 715.431 1.70577 2.39334 0
M  V30 7567 H 712.945 1.02268 1.26154 0
M  V30 7568 H 714.942 -0.00330398 4.169 0
M  V30 7569 H 713.602 -0.644419 3.18241 0
M  V30 7570 H 714.613 2.87798 4.30572 0
M  V30 7571 H 711.29 0.301204 4.16412 0
M  V30 7572 H 712.68 4.19453 5.2489 0
M  V30 7573 N 715.4 -1.26948 0.933913 0
M  V30 7574 C 716.63 -1.97898 0.593279 0
M  V30 7575 C 717.038 -1.69806 -0.834412 0
M  V30 7576 O 716.381 -0.958704 -1.56699 0
M  V30 7577 C 716.443 -3.51657 0.746825 0
M  V30 7578 C 716.107 -4.03384 2.14779 0
M  V30 7579 C 717.104 -4.15682 3.12257 0
M  V30 7580 C 714.789 -4.37577 2.46641 0
M  V30 7581 C 716.783 -4.61455 4.39702 0
M  V30 7582 C 714.47 -4.8304 3.7432 0
M  V30 7583 C 715.468 -4.94939 4.70664 0
M  V30 7584 O 715.156 -5.39403 5.96071 0
M  V30 7585 H 714.888 -0.63814 0.223055 0
M  V30 7586 H 717.442 -1.62608 1.2549 0
M  V30 7587 H 715.672 -3.8669 0.0280889 0
M  V30 7588 H 717.361 -4.03821 0.410328 0
M  V30 7589 H 718.127 -3.89519 2.88964 0
M  V30 7590 H 714.006 -4.27554 1.72391 0
M  V30 7591 H 717.55 -4.70658 5.14905 0
M  V30 7592 H 713.447 -5.08646 3.97429 0
M  V30 7593 H 714.215 -5.57641 5.99148 0
M  V30 7594 N 716.879 -0.700114 -1.41195 0
M  V30 7595 C 718.29 -0.307249 -1.84154 0
M  V30 7596 C 718.641 1.15539 -1.58572 0
M  V30 7597 O 717.766 1.88744 -1.05852 0
M  V30 7598 C 718.361 -0.550872 -3.34292 0
M  V30 7599 C 716.92 -0.211877 -3.75803 0
M  V30 7600 C 716.067 -0.830915 -2.64558 0
M  V30 7601 H 719.018 -0.900431 -1.30683 0
M  V30 7602 H 719.039 0.188954 -3.80031 0
M  V30 7603 H 718.551 -1.61548 -3.5288 0
M  V30 7604 H 716.652 0.848283 -3.62815 0
M  V30 7605 H 716.765 -0.67007 -4.74391 0
M  V30 7606 H 715.129 -0.260155 -2.53368 0
M  V30 7607 H 715.912 -1.89948 -2.85963 0
M  V30 7608 N 718.357 1.51182 -0.445186 0
M  V30 7609 C 719.287 2.30821 0.352686 0
M  V30 7610 C 720.268 1.36576 1.01395 0
M  V30 7611 O 721.453 1.65497 1.01609 0
M  V30 7612 C 718.583 3.15593 1.44976 0
M  V30 7613 C 717.537 4.1818 0.911553 0
M  V30 7614 C 716.863 4.91523 2.10497 0
M  V30 7615 C 718.163 5.22266 -0.059418 0
M  V30 7616 H 719.857 2.97771 -0.311936 0
M  V30 7617 H 717.403 1.43201 -0.151461 0
M  V30 7618 H 719.356 3.70091 2.01521 0
M  V30 7619 H 718.08 2.4648 2.14278 0
M  V30 7620 H 716.739 3.64746 0.368264 0
M  V30 7621 H 716.387 4.18906 2.78437 0
M  V30 7622 H 716.087 5.60898 1.7512 0
M  V30 7623 H 717.611 5.48847 2.6758 0
M  V30 7624 H 719.025 5.71789 0.415985 0
M  V30 7625 H 717.422 5.99213 -0.326152 0
M  V30 7626 H 718.492 4.7461 -0.993631 0
M  V30 7627 N 719.835 0.176821 1.56605 0
M  V30 7628 C 721.081 -0.467406 1.9734 0
M  V30 7629 C 721.414 -1.62523 1.06301 0
M  V30 7630 O 720.689 -1.94182 0.11125 0
M  V30 7631 C 720.972 -0.945106 3.47476 0
M  V30 7632 C 720.825 0.213273 4.49294 0
M  V30 7633 C 722.144 -1.8169 4.00845 0
M  V30 7634 H 719.263 -0.168426 0.717497 0
M  V30 7635 H 721.905 0.264065 1.88156 0
M  V30 7636 H 720.055 -1.56841 3.55434 0
M  V30 7637 H 721.727 0.850508 4.53392 0
M  V30 7638 H 719.97 0.867918 4.25029 0
M  V30 7639 H 720.641 -0.163187 5.51759 0
M  V30 7640 H 723.117 -1.29139 3.95553 0
M  V30 7641 H 721.993 -2.12015 5.06301 0
M  V30 7642 H 722.254 -2.76463 3.44994 0
M  V30 7643 N 721.313 -1.57302 -0.09688 0
M  V30 7644 C 722.223 -2.05258 -1.13606 0
M  V30 7645 C 723.239 -0.977137 -1.43972 0
M  V30 7646 O 724.415 -1.29018 -1.54649 0
M  V30 7647 C 721.48 -2.46593 -2.43706 0
M  V30 7648 C 720.541 -3.68322 -2.20538 0
M  V30 7649 C 719.774 -4.07676 -3.44435 0
M  V30 7650 O 719.997 -3.47141 -4.52603 0
M  V30 7651 O 718.931 -5.00641 -3.34129 0
M  V30 7652 H 722.757 -2.94069 -0.758752 0
M  V30 7653 H 720.342 -1.46164 -0.309263 0
M  V30 7654 H 722.224 -2.73814 -3.20318 0
M  V30 7655 H 720.899 -1.6092 -2.80867 0
M  V30 7656 H 719.806 -3.4622 -1.41713 0
M  V30 7657 H 721.139 -4.54769 -1.88271 0
M  V30 7658 N 722.791 0.367657 -1.53252 0
M  V30 7659 C 723.701 1.47415 -1.82499 0
M  V30 7660 C 724.717 1.58711 -0.713222 0
M  V30 7661 O 725.893 1.74644 -1.00306 0
M  V30 7662 C 722.958 2.82706 -2.00694 0
M  V30 7663 C 722.019 2.80955 -3.24596 0
M  V30 7664 C 721.252 4.09793 -3.41914 0
M  V30 7665 O 721.475 5.05852 -2.63572 0
M  V30 7666 O 720.409 4.15731 -4.3526 0
M  V30 7667 H 724.235 1.25624 -2.765 0
M  V30 7668 H 721.82 0.557559 -1.38606 0
M  V30 7669 H 723.702 3.62873 -2.14246 0
M  V30 7670 H 722.377 3.04479 -1.09883 0
M  V30 7671 H 721.284 1.99494 -3.16469 0
M  V30 7672 H 722.617 2.64136 -4.15323 0
M  V30 7673 N 724.269 1.44576 0.627338 0
M  V30 7674 C 725.546 1.38033 1.38586 0
M  V30 7675 C 725.926 0.0409468 2.1106 0
M  V30 7676 O 725.274 -0.976582 2.0658 0
M  V30 7677 C 725.484 2.58102 2.34913 0
M  V30 7678 C 726.832 3.02332 2.98129 0
M  V30 7679 O 727.856 2.58334 2.45238 0
M  V30 7680 O 726.715 3.78628 3.94085 0
M  V30 7681 H 723.809 0.546801 0.620434 0
M  V30 7682 H 726.355 1.56672 0.652077 0
M  V30 7683 H 725.127 3.4719 1.80485 0
M  V30 7684 H 724.75 2.41696 3.15703 0
M  V30 7685 N 725.747 -0.868086 1.31537 0
M  V30 7686 C 726.977 -1.65162 1.24118 0
M  V30 7687 C 727.385 -1.88187 -0.195558 0
M  V30 7688 O 726.728 -1.44154 -1.13866 0
M  V30 7689 C 726.79 -3.04119 1.91708 0
M  V30 7690 C 726.454 -3.04194 3.4105 0
M  V30 7691 C 727.451 -2.82016 4.36764 0
M  V30 7692 C 725.136 -3.25256 3.82772 0
M  V30 7693 C 727.13 -2.80881 5.72175 0
M  V30 7694 C 724.817 -3.23749 5.18295 0
M  V30 7695 C 725.815 -3.01589 6.12808 0
M  V30 7696 O 725.503 -2.9993 7.45853 0
M  V30 7697 H 725.235 -0.521597 0.430015 0
M  V30 7698 H 727.789 -1.09165 1.73989 0
M  V30 7699 H 726.019 -3.61849 1.36389 0
M  V30 7700 H 727.708 -3.64701 1.78179 0
M  V30 7701 H 728.474 -2.65525 4.05859 0
M  V30 7702 H 724.353 -3.41534 3.09638 0
M  V30 7703 H 727.897 -2.63503 6.45919 0
M  V30 7704 H 723.794 -3.39781 5.48834 0
M  V30 7705 H 724.562 -3.15979 7.55049 0
M  V30 7706 N 727.225 -1.14528 -1.08264 0
M  V30 7707 C 728.636 -0.925261 -1.6216 0
M  V30 7708 C 728.987 0.535587 -1.88748 0
M  V30 7709 O 728.112 1.4048 -1.64604 0
M  V30 7710 C 728.707 -1.67316 -2.94603 0
M  V30 7711 C 727.266 -1.49868 -3.45278 0
M  V30 7712 C 726.413 -1.69471 -2.19487 0
M  V30 7713 H 729.364 -1.29687 -0.914707 0
M  V30 7714 H 729.385 -1.13721 -3.63109 0
M  V30 7715 H 728.897 -2.73635 -2.75219 0
M  V30 7716 H 726.998 -0.459032 -3.69762 0
M  V30 7717 H 727.111 -2.2696 -4.21931 0
M  V30 7718 H 725.475 -1.12048 -2.2873 0
M  V30 7719 H 726.258 -2.77136 -2.0261 0
M  V30 7720 N 728.703 1.26451 -0.940633 0
M  V30 7721 C 729.98 1.88947 -0.505811 0
M  V30 7722 C 730.36 1.85011 1.01657 0
M  V30 7723 O 729.708 1.30406 1.87634 0
M  V30 7724 C 729.918 3.32304 -1.06654 0
M  V30 7725 C 731.266 4.09153 -1.13486 0
M  V30 7726 O 732.29 3.41371 -1.01708 0
M  V30 7727 O 731.149 5.30369 -1.31797 0
M  V30 7728 H 728.243 0.810422 -0.164759 0
M  V30 7729 H 730.789 1.34625 -1.03316 0
M  V30 7730 H 729.561 3.29527 -2.11015 0
M  V30 7731 H 729.184 3.94164 -0.521603 0
M  V30 7732 N 730.181 0.707592 1.40822 0
M  V30 7733 C 731.406 0.251626 2.05868 0
M  V30 7734 C 731.831 -1.09503 1.5294 0
M  V30 7735 O 731.189 -1.68806 0.661385 0
M  V30 7736 C 731.237 0.23287 3.59847 0
M  V30 7737 O 730.341 -0.788477 4.04792 0
M  V30 7738 H 729.682 0.119936 0.653078 0
M  V30 7739 H 732.212 0.96583 1.80369 0
M  V30 7740 H 732.222 0.0678204 4.07944 0
M  V30 7741 H 730.897 1.21565 3.97737 0
M  V30 7742 H 729.474 -0.591802 3.68174 0
M  V30 7743 N 731.66 -1.50943 0.453197 0
M  V30 7744 C 732.89 -2.06328 -0.105981 0
M  V30 7745 C 733.298 -1.31909 -1.35634 0
M  V30 7746 O 732.641 -0.376607 -1.79798 0
M  V30 7747 C 732.703 -3.5631 -0.477868 0
M  V30 7748 C 732.367 -4.52093 0.667925 0
M  V30 7749 C 733.364 -4.96421 1.54475 0
M  V30 7750 C 731.049 -4.95001 0.853168 0
M  V30 7751 C 733.043 -5.82346 2.59138 0
M  V30 7752 C 730.73 -5.80713 1.90305 0
M  V30 7753 C 731.728 -6.24284 2.77053 0
M  V30 7754 O 731.416 -7.08291 3.80236 0
M  V30 7755 H 731.148 -0.675986 -0.00427247 0
M  V30 7756 H 733.702 -1.95314 0.635738 0
M  V30 7757 H 731.932 -3.65163 -1.27252 0
M  V30 7758 H 733.621 -3.94138 -0.970039 0
M  V30 7759 H 734.387 -4.63953 1.41324 0
M  V30 7760 H 730.266 -4.60619 0.187482 0
M  V30 7761 H 733.81 -6.16276 3.2688 0
M  V30 7762 H 729.707 -6.12593 2.03469 0
M  V30 7763 H 730.475 -7.26504 3.77007 0
M  V30 7764 N 733.138 -0.185124 -1.56509 0
M  V30 7765 C 734.07 0.771401 -2.15829 0
M  V30 7766 C 735.083 1.18392 -1.11747 0
M  V30 7767 O 736.272 1.12137 -1.38879 0
M  V30 7768 C 733.372 2.05169 -2.69739 0
M  V30 7769 C 732.545 1.80056 -3.98621 0
M  V30 7770 C 731.604 2.92435 -4.37456 0
M  V30 7771 O 730.63 2.62473 -5.05071 0
M  V30 7772 N 731.832 4.20554 -4.00143 0
M  V30 7773 H 734.597 0.264184 -2.98533 0
M  V30 7774 H 732.158 -0.00281069 -1.619 0
M  V30 7775 H 734.15 2.7947 -2.92709 0
M  V30 7776 H 732.72 2.47041 -1.91545 0
M  V30 7777 H 731.94 0.895862 -3.83885 0
M  V30 7778 H 733.228 1.60662 -4.82768 0
M  V30 7779 H 732.626 4.47753 -3.45736 0
M  V30 7780 H 731.183 4.91514 -4.28085 0
M  V30 7781 N 734.616 1.57351 0.0885366 0
M  V30 7782 C 735.893 1.77449 0.822873 0
M  V30 7783 C 736.273 0.768463 1.96616 0
M  V30 7784 O 735.621 -0.201757 2.27608 0
M  V30 7785 C 735.831 3.23425 1.31137 0
M  V30 7786 C 737.179 3.86791 1.75152 0
M  V30 7787 O 738.203 3.27215 1.40745 0
M  V30 7788 O 737.062 4.91568 2.38794 0
M  V30 7789 H 734.156 0.727653 0.393002 0
M  V30 7790 H 736.702 1.69556 0.0699095 0
M  V30 7791 H 735.474 3.88188 0.49254 0
M  V30 7792 H 735.097 3.35977 2.12615 0
M  V30 7793 N 736.094 -0.359525 1.53444 0
M  V30 7794 C 737.322 -1.12198 1.73837 0
M  V30 7795 C 737.737 -1.82854 0.470107 0
M  V30 7796 O 737.094 -1.73781 -0.557349 0
M  V30 7797 C 737.145 -2.14769 2.90786 0
M  V30 7798 O 736.866 -1.46989 4.12706 0
M  V30 7799 C 738.367 -3.03514 3.231 0
M  V30 7800 H 735.587 -0.33524 0.581253 0
M  V30 7801 H 738.131 -0.416598 2.00212 0
M  V30 7802 H 736.286 -2.80896 2.66788 0
M  V30 7803 H 736.7 -2.15378 4.78239 0
M  V30 7804 H 738.174 -3.71453 4.08322 0
M  V30 7805 H 738.651 -3.68658 2.38721 0
M  V30 7806 H 739.257 -2.42996 3.49046 0
M  V30 7807 N 737.572 -1.44907 -0.619662 0
M  V30 7808 C 738.802 -1.51575 -1.40387 0
M  V30 7809 C 739.21 -0.14309 -1.88658 0
M  V30 7810 O 738.553 0.863403 -1.62145 0
M  V30 7811 C 738.615 -2.42858 -2.65067 0
M  V30 7812 C 738.279 -3.8982 -2.38515 0
M  V30 7813 C 739.276 -4.80047 -1.99627 0
M  V30 7814 C 736.961 -4.34628 -2.51801 0
M  V30 7815 C 738.955 -6.13086 -1.74369 0
M  V30 7816 C 736.642 -5.67712 -2.26156 0
M  V30 7817 C 737.64 -6.56759 -1.875 0
M  V30 7818 O 737.328 -7.87377 -1.62148 0
M  V30 7819 H 737.06 -0.51612 -0.436573 0
M  V30 7820 H 739.614 -1.90664 -0.763959 0
M  V30 7821 H 737.844 -1.98717 -3.31735 0
M  V30 7822 H 739.533 -2.40346 -3.27091 0
M  V30 7823 H 740.299 -4.46697 -1.8891 0
M  V30 7824 H 736.178 -3.65568 -2.80857 0
M  V30 7825 H 739.722 -6.8255 -1.44122 0
M  V30 7826 H 735.619 -6.0062 -2.36486 0
M  V30 7827 H 736.387 -7.99288 -1.763 0
M  V30 7828 N 739.05 0.861098 -1.31996 0
M  V30 7829 C 739.997 1.96912 -1.20392 0
M  V30 7830 C 740.967 1.65869 -0.0875899 0
M  V30 7831 O 742.152 1.88992 -0.262011 0
M  V30 7832 C 739.292 3.32435 -0.926335 0
M  V30 7833 C 738.405 3.76018 -2.12684 0
M  V30 7834 C 737.54 5.00301 -1.78529 0
M  V30 7835 C 736.579 5.36357 -2.94937 0
M  V30 7836 N 735.716 6.51818 -2.60917 0
M  V30 7837 H 740.556 2.06169 -2.1517 0
M  V30 7838 H 738.093 1.00917 -1.07024 0
M  V30 7839 H 740.051 4.10478 -0.745917 0
M  V30 7840 H 738.681 3.22796 -0.0153578 0
M  V30 7841 H 737.733 2.93683 -2.41774 0
M  V30 7842 H 739.045 3.98664 -2.99781 0
M  V30 7843 H 738.199 5.86034 -1.57001 0
M  V30 7844 H 736.938 4.79578 -0.886356 0
M  V30 7845 H 735.943 4.49139 -3.17103 0
M  V30 7846 H 737.168 5.59041 -3.85552 0
M  V30 7847 H 735.114 6.32624 -1.73558 0
M  V30 7848 H 735.031 6.7445 -3.41544 0
M  V30 7849 H 736.299 7.4072 -2.42804 0
M  V30 7850 N 740.528 1.15101 1.07655 0
M  V30 7851 C 741.939 0.933848 1.61667 0
M  V30 7852 C 742.29 -0.525569 1.8903 0
M  V30 7853 O 741.415 -1.39605 1.65346 0
M  V30 7854 C 742.01 1.68876 2.93711 0
M  V30 7855 C 740.569 1.51697 3.44478 0
M  V30 7856 C 739.716 1.70633 2.18586 0
M  V30 7857 H 742.667 1.30171 0.907816 0
M  V30 7858 H 742.688 1.15645 3.625 0
M  V30 7859 H 742.2 2.7509 2.73764 0
M  V30 7860 H 740.301 0.478635 3.69513 0
M  V30 7861 H 740.414 2.29194 4.20722 0
M  V30 7862 H 738.778 1.13259 2.28132 0
M  V30 7863 H 739.561 2.78206 2.01137 0
M  V30 7864 N 742.006 -1.2595 0.947325 0
M  V30 7865 C 742.956 -2.23859 0.432547 0
M  V30 7866 C 743.94 -1.53755 -0.474154 0
M  V30 7867 O 745.132 -1.74293 -0.308397 0
M  V30 7868 C 742.261 -3.42027 -0.295318 0
M  V30 7869 C 741.347 -4.19409 0.62903 0
M  V30 7870 N 741.738 -4.74284 1.7575 0
M  V30 7871 C 740.036 -4.43866 0.435805 0
M  V30 7872 C 740.737 -5.32821 2.33401 0
M  V30 7873 N 739.713 -5.18858 1.62135 0
M  V30 7874 H 743.515 -2.63886 1.29388 0
M  V30 7875 H 741.029 -1.41105 0.80393 0
M  V30 7876 H 743.026 -4.11297 -0.681188 0
M  V30 7877 H 741.686 -3.03526 -1.15334 0
M  V30 7878 H 742.697 -4.71641 2.13952 0
M  V30 7879 H 739.374 -4.15768 -0.37994 0
M  V30 7880 H 740.764 -5.86111 3.28517 0
M  V30 7881 N 743.484 -0.715051 -1.40445 0
M  V30 7882 C 744.9 -0.388555 -1.54798 0
M  V30 7883 C 745.1 1.10271 -1.68649 0
M  V30 7884 O 744.156 1.88875 -1.67578 0
M  V30 7885 C 745.469 -1.15414 -2.77669 0
M  V30 7886 C 747.017 -1.14039 -2.91486 0
M  V30 7887 C 747.492 -1.88812 -4.1727 0
M  V30 7888 N 748.983 -1.85878 -4.24268 0
M  V30 7889 C 749.718 -2.40558 -5.20499 0
M  V30 7890 N 749.214 -3.03791 -6.22642 0
M  V30 7891 N 751.007 -2.30703 -5.12574 0
M  V30 7892 H 743.158 -1.68201 -1.297 0
M  V30 7893 H 745.421 -0.710915 -0.627139 0
M  V30 7894 H 745.127 -2.20853 -2.7371 0
M  V30 7895 H 745.001 -0.745412 -3.69761 0
M  V30 7896 H 747.388 -0.0941996 -2.9495 0
M  V30 7897 H 747.469 -1.58834 -2.00513 0
M  V30 7898 H 747.113 -2.93422 -4.14568 0
M  V30 7899 H 747.043 -1.41438 -5.0725 0
M  V30 7900 H 749.534 -1.39794 -3.51093 0
M  V30 7901 H 749.847 -3.43032 -6.92495 0
M  V30 7902 H 748.192 -3.07875 -6.23087 0
M  V30 7903 H 751.383 -1.80961 -4.31707 0
M  V30 7904 H 751.556 -2.73618 -5.87398 0
M  V30 7905 N 744.962 1.50701 -0.461195 0
M  V30 7906 C 745.91 2.29918 0.352231 0
M  V30 7907 C 746.904 1.36778 0.999403 0
M  V30 7908 O 748.11 1.54015 0.931639 0
M  V30 7909 H 744.485 0.740249 0.132423 0
M  V30 7910 H 746.456 2.96497 -0.336424 0
M  V30 7911 C 745.205 3.17052 1.42736 0
M  V30 7912 H 744.528 3.88623 0.938747 0
M  V30 7913 H 745.968 3.75493 1.96928 0
M  V30 7914 C 744.427 2.3399 2.42384 0
M  V30 7915 O 744.957 2.01608 3.47444 0
M  V30 7916 N 743.163 1.96758 2.13857 0
M  V30 7917 H 742.71 2.23292 1.28447 0
M  V30 7918 H 742.668 1.41484 2.80766 0
M  V30 7919 N 746.441 0.193421 1.56409 0
M  V30 7920 C 747.857 -0.162447 1.58771 0
M  V30 7921 C 748.057 -1.6116 1.20954 0
M  V30 7922 O 747.113 -2.3469 0.931497 0
M  V30 7923 C 748.426 0.138391 3.00381 0
M  V30 7924 C 749.974 0.0783649 3.12902 0
M  V30 7925 C 750.449 0.352491 4.56642 0
M  V30 7926 N 751.94 0.30105 4.62221 0
M  V30 7927 C 752.675 0.487028 5.71328 0
M  V30 7928 N 752.171 0.733265 6.88909 0
M  V30 7929 N 753.964 0.4214 5.60518 0
M  V30 7930 H 746.115 1.13909 1.79272 0
M  V30 7931 H 748.378 0.454528 0.83193 0
M  V30 7932 H 748.084 1.14312 3.32604 0
M  V30 7933 H 747.958 -0.559804 3.73023 0
M  V30 7934 H 750.345 -0.916963 2.80492 0
M  V30 7935 H 750.426 0.809611 2.4265 0
M  V30 7936 H 750.07 1.34513 4.89764 0
M  V30 7937 H 750 -0.399624 5.25081 0
M  V30 7938 H 752.491 0.117279 3.77718 0
M  V30 7939 H 752.804 0.86403 7.67955 0
M  V30 7940 H 751.149 0.770138 6.9072 0
M  V30 7941 H 754.34 0.229461 4.67537 0
M  V30 7942 H 754.513 0.569758 6.4549 0
M  V30 7943 N 747.919 -1.57396 -0.0801906 0
M  V30 7944 C 749.167 -1.86467 -0.779384 0
M  V30 7945 C 749.488 -0.784243 -1.78535 0
M  V30 7946 O 748.758 0.187986 -1.94996 0
M  V30 7947 H 747.338 -0.68806 -0.29083 0
M  V30 7948 H 750 -1.94813 -0.0582749 0
M  V30 7949 H 749.096 -2.83701 -1.30078 0
M  V30 7950 N 749.397 0.351382 -1.53633 0
M  V30 7951 C 750.622 1.11718 -1.74739 0
M  V30 7952 C 751.047 1.81829 -0.481657 0
M  V30 7953 O 750.405 1.72264 0.565233 0
M  V30 7954 C 750.453 2.11234 -2.92254 0
M  V30 7955 O 749.557 3.186 -2.61855 0
M  V30 7956 H 748.898 0.323482 -0.579875 0
M  V30 7957 H 751.428 0.404167 -2.00568 0
M  V30 7958 H 751.438 2.54591 -3.18822 0
M  V30 7959 H 750.113 1.59599 -3.84058 0
M  V30 7960 H 748.69 2.80115 -2.4615 0
M  V30 7961 N 750.875 1.45233 0.611969 0
M  V30 7962 C 752.286 1.4354 1.19387 0
M  V30 7963 C 752.637 0.160713 1.95541 0
M  V30 7964 O 751.762 -0.737954 2.03429 0
M  V30 7965 C 752.357 2.60045 2.17169 0
M  V30 7966 C 750.916 2.61486 2.70744 0
M  V30 7967 C 750.063 2.35708 1.46072 0
M  V30 7968 H 753.014 1.53536 0.401529 0
M  V30 7969 H 753.035 2.33893 3.00124 0
M  V30 7970 H 752.547 3.52803 1.61714 0
M  V30 7971 H 750.648 1.72721 3.30149 0
M  V30 7972 H 750.761 3.60572 3.15476 0
M  V30 7973 H 749.125 1.85178 1.74875 0
M  V30 7974 H 749.908 3.30606 0.924922 0
M  V30 7975 N 752.353 -0.854086 1.3245 0
M  V30 7976 C 753.601 -1.60513 1.228 0
M  V30 7977 C 753.922 -1.93865 -0.210073 0
M  V30 7978 O 753.192 -1.59673 -1.13496 0
M  V30 7979 H 751.772 -0.595099 0.451516 0
M  V30 7980 H 754.434 -1.0216 1.6598 0
M  V30 7981 H 753.53 -2.54182 1.81102 0
M  V30 7982 N 753.831 -1.1567 -1.07043 0
M  V30 7983 C 755.079 -0.931673 -1.79344 0
M  V30 7984 C 755.4 0.542421 -1.87304 0
M  V30 7985 O 754.67 1.39418 -1.37621 0
M  V30 7986 H 753.25 -0.34171 -0.664262 0
M  V30 7987 H 755.912 -1.45795 -1.29344 0
M  V30 7988 H 755.008 -1.34379 -2.81689 0
M  V30 7989 N 755.309 1.25446 -0.953992 0
M  V30 7990 C 756.539 1.96929 -0.624688 0
M  V30 7991 C 756.947 1.71112 0.807292 0
M  V30 7992 O 756.29 0.983512 1.55154 0
M  V30 7993 C 756.352 3.50425 -0.802676 0
M  V30 7994 C 756.016 3.99916 -2.21169 0
M  V30 7995 C 757.013 4.10662 -3.18831 0
M  V30 7996 C 754.698 4.33598 -2.53571 0
M  V30 7997 C 756.692 4.54401 -4.46988 0
M  V30 7998 C 754.379 4.77024 -3.81958 0
M  V30 7999 C 755.377 4.87388 -4.78478 0
M  V30 8000 O 755.065 5.29851 -6.04577 0
M  V30 8001 H 754.797 0.634511 -0.233179 0
M  V30 8002 H 757.351 1.60591 -1.28061 0
M  V30 8003 H 755.581 3.86596 -0.0896044 0
M  V30 8004 H 757.27 4.03117 -0.47452 0
M  V30 8005 H 758.036 3.84872 -2.95124 0
M  V30 8006 H 753.915 4.24757 -1.79171 0
M  V30 8007 H 757.459 4.62406 -5.22328 0
M  V30 8008 H 753.356 5.02258 -4.05471 0
M  V30 8009 H 754.124 5.48039 -6.07944 0
M  V30 8010 N 756.787 0.722489 1.40064 0
M  V30 8011 C 758.012 0.273446 2.05589 0
M  V30 8012 C 758.437 -1.07875 1.54093 0
M  V30 8013 O 757.795 -1.68095 0.679252 0
M  V30 8014 C 757.843 0.271023 3.5958 0
M  V30 8015 O 756.947 -0.745499 4.05606 0
M  V30 8016 H 756.288 0.126856 0.65177 0
M  V30 8017 H 758.818 0.984906 1.79334 0
M  V30 8018 H 758.828 0.111084 4.07849 0
M  V30 8019 H 757.503 1.25776 3.96425 0
M  V30 8020 H 756.08 -0.552719 3.68781 0
M  V30 8021 N 758.265 -1.50454 0.469181 0
M  V30 8022 C 759.215 -2.25381 -0.344582 0
M  V30 8023 C 760.199 -1.28892 -0.963098 0
M  V30 8024 O 761.391 -1.53805 -0.875964 0
M  V30 8025 C 758.52 -3.12232 -1.4271 0
M  V30 8026 C 757.606 -4.16168 -0.816411 0
M  V30 8027 N 757.997 -5.05762 0.0621424 0
M  V30 8028 C 756.295 -4.32712 -1.08056 0
M  V30 8029 C 756.996 -5.80264 0.408519 0
M  V30 8030 N 755.972 -5.43171 -0.215827 0
M  V30 8031 H 759.774 -2.92016 0.332237 0
M  V30 8032 H 757.288 -1.59911 0.283209 0
M  V30 8033 H 759.285 -3.64514 -2.02324 0
M  V30 8034 H 757.945 -2.47145 -2.10593 0
M  V30 8035 H 758.956 -5.16105 0.430841 0
M  V30 8036 H 755.633 -3.78844 -1.75452 0
M  V30 8037 H 757.023 -6.62408 1.12539 0
M  V30 8038 N 759.743 -0.201713 -1.56304 0
M  V30 8039 C 761.02 0.483273 -1.89536 0
M  V30 8040 C 761.4 1.79176 -1.11621 0
M  V30 8041 O 760.748 2.27445 -0.219339 0
M  V30 8042 C 760.958 0.695604 -3.41998 0
M  V30 8043 C 762.306 1.012 -4.12364 0
M  V30 8044 O 763.33 0.783094 -3.47485 0
M  V30 8045 O 762.189 1.44534 -5.27041 0
M  V30 8046 H 759.283 0.252801 -0.787414 0
M  V30 8047 H 761.829 -0.24242 -1.6796 0
M  V30 8048 H 760.601 -0.228165 -3.90634 0
M  V30 8049 H 760.224 1.47351 -3.69288 0
M  V30 8050 N 761.222 1.57436 0.0718424 0
M  V30 8051 C 762.447 1.91858 0.787745 0
M  V30 8052 C 762.872 0.798119 1.70328 0
M  V30 8053 O 762.23 -0.24905 1.79581 0
M  V30 8054 C 762.278 3.25232 1.55744 0
M  V30 8055 O 761.382 3.14462 2.6681 0
M  V30 8056 H 760.723 0.628258 0.214914 0
M  V30 8057 H 763.253 2.04561 0.0401012 0
M  V30 8058 H 763.263 3.59105 1.9367 0
M  V30 8059 H 761.938 4.0636 0.885691 0
M  V30 8060 H 760.515 2.92148 2.31741 0
M  V30 8061 N 762.7 -0.34323 1.53817 0
M  V30 8062 C 764.116 -0.686355 1.44088 0
M  V30 8063 C 764.316 -1.92426 0.597882 0
M  V30 8064 O 763.372 -2.52343 0.0889918 0
M  V30 8065 C 764.685 -0.878698 2.87575 0
M  V30 8066 C 766.233 -0.977296 2.97352 0
M  V30 8067 C 766.708 -1.20195 4.41947 0
M  V30 8068 N 768.199 -1.26915 4.45474 0
M  V30 8069 C 768.934 -1.46049 5.54488 0
M  V30 8070 N 768.43 -1.62354 6.73508 0
M  V30 8071 N 770.223 -1.48599 5.42102 0
M  V30 8072 H 762.374 0.470679 2.07119 0
M  V30 8073 H 764.637 0.148652 0.936273 0
M  V30 8074 H 764.343 -0.040602 3.51677 0
M  V30 8075 H 764.217 -1.78034 3.32541 0
M  V30 8076 H 766.604 -1.80591 2.3339 0
M  V30 8077 H 766.685 -0.0525498 2.55746 0
M  V30 8078 H 766.329 -0.378262 5.06489 0
M  V30 8079 H 766.259 -2.14027 4.81145 0
M  V30 8080 H 768.75 -1.15837 3.59708 0
M  V30 8081 H 769.063 -1.76591 7.52353 0
M  V30 8082 H 767.408 -1.5949 6.76453 0
M  V30 8083 H 770.599 -1.35443 4.48077 0
M  V30 8084 H 770.772 -1.6317 6.2712 0
M  V30 8085 N 764.178 -1.45556 -0.604258 0
M  V30 8086 C 765.128 -1.50906 -1.70913 0
M  V30 8087 C 766.112 -0.371996 -1.56541 0
M  V30 8088 O 767.304 -0.619064 -1.65821 0
M  V30 8089 C 764.433 -1.48181 -3.09673 0
M  V30 8090 C 763.519 -2.67102 -3.2942 0
M  V30 8091 N 763.91 -3.92184 -3.19414 0
M  V30 8092 C 762.208 -2.6287 -3.60299 0
M  V30 8093 C 762.909 -4.71571 -3.40581 0
M  V30 8094 N 761.885 -4.03081 -3.64728 0
M  V30 8095 H 765.687 -2.45435 -1.61675 0
M  V30 8096 H 763.201 -1.40894 -0.807622 0
M  V30 8097 H 765.198 -1.501 -3.88942 0
M  V30 8098 H 763.858 -0.54712 -3.20057 0
M  V30 8099 H 764.869 -4.23756 -2.97743 0
M  V30 8100 H 761.546 -1.78324 -3.77501 0
M  V30 8101 H 762.936 -5.80571 -3.38211 0
M  V30 8102 N 765.656 0.84705 -1.32902 0
M  V30 8103 C 767.072 1.13645 -1.12058 0
M  V30 8104 C 767.272 2.01281 0.093937 0
M  V30 8105 O 766.328 2.4026 0.776608 0
M  V30 8106 C 767.641 1.80644 -2.40392 0
M  V30 8107 C 769.189 1.93246 -2.46221 0
M  V30 8108 C 769.664 2.6366 -3.74496 0
M  V30 8109 N 771.155 2.71179 -3.75521 0
M  V30 8110 C 771.89 3.26332 -4.71482 0
M  V30 8111 N 771.386 3.82236 -5.77813 0
M  V30 8112 N 773.179 3.24507 -4.58968 0
M  V30 8113 H 765.33 0.263612 -2.10758 0
M  V30 8114 H 767.593 0.17944 -0.930863 0
M  V30 8115 H 767.299 1.23708 -3.29225 0
M  V30 8116 H 767.173 2.80736 -2.51926 0
M  V30 8117 H 769.56 2.49338 -1.57843 0
M  V30 8118 H 769.641 0.921272 -2.38634 0
M  V30 8119 H 769.285 2.08229 -4.63253 0
M  V30 8120 H 769.215 3.65234 -3.79357 0
M  V30 8121 H 771.706 2.31527 -2.9867 0
M  V30 8122 H 772.019 4.22499 -6.47082 0
M  V30 8123 H 770.364 3.80546 -5.81558 0
M  V30 8124 H 773.555 2.80085 -3.7506 0
M  V30 8125 H 773.728 3.67188 -5.33926 0
M  V30 8126 N 767.134 1.16236 1.06428 0
M  V30 8127 C 768.064 0.890807 2.1584 0
M  V30 8128 C 769.045 -0.162333 1.69324 0
M  V30 8129 O 770.23 -0.0147191 1.94194 0
M  V30 8130 C 767.36 0.389615 3.45108 0
M  V30 8131 C 766.314 1.38051 4.05125 0
M  V30 8132 C 765.64 0.737773 5.29586 0
M  V30 8133 C 766.94 2.74965 4.44062 0
M  V30 8134 H 768.634 1.80577 2.38814 0
M  V30 8135 H 766.18 0.869657 1.14774 0
M  V30 8136 H 768.133 0.187127 4.20984 0
M  V30 8137 H 766.857 -0.560851 3.21748 0
M  V30 8138 H 765.516 1.56952 3.31303 0
M  V30 8139 H 765.164 -0.219135 5.02522 0
M  V30 8140 H 764.864 1.39914 5.70699 0
M  V30 8141 H 766.388 0.545275 6.0816 0
M  V30 8142 H 767.802 2.59855 5.11027 0
M  V30 8143 H 766.199 3.37563 4.96156 0
M  V30 8144 H 767.269 3.30321 3.54987 0
M  V30 8145 O 768.651 -1.1913 1.09043 0
M  V30 8146 H 769.342 -1.77084 0.784907 0
M  V30 END ATOM
M  V30 BEGIN BOND
M  V30 END BOND
M  V30 END CTAB
M  END
$$$$
