drugbank_target|Q7L0J3 Synaptic vesicle glycoprotein 2A (DB01202; DB05541; DB05885)
 OpenBabel12092119453D

  0  0  0     0  0            999 V3000
M  V30 BEGIN CTAB
M  V30 COUNTS 11481 11628 0 0 0
M  V30 BEGIN ATOM
M  V30 1 H -0.908 1.98254 -0.117106 0
M  V30 2 N 0 1.576 0 0
M  V30 3 C 0.933 2.03868 1.02534 0
M  V30 4 C 1.911 0.928543 1.3348 0
M  V30 5 O 3.095 1.19667 1.45644 0
M  V30 6 C 0.222 2.43627 2.35294 0
M  V30 7 C -0.732 3.65373 2.2001 0
M  V30 8 S 0.101 5.13292 1.52614 0
M  V30 9 C 1.257 5.56322 2.86805 0
M  V30 10 H 1.49 2.90518 0.631377 0
M  V30 11 H -0.977 1.52953 0.210867 0
M  V30 12 H 0.981 2.67203 3.11629 0
M  V30 13 H -0.358 1.57376 2.7183 0
M  V30 14 H -1.165 3.90944 3.18086 0
M  V30 15 H -1.563 3.418 1.51819 0
M  V30 16 H 0.729 5.58782 3.83104 0
M  V30 17 H 1.672 6.56266 2.65933 0
M  V30 18 H 2.08 4.83886 2.90714 0
M  V30 19 N 1.4781 -0.272755 1.55222 0
M  V30 20 C 2.3881 -1.35918 1.91216 0
M  V30 21 C 3.4041 -1.54026 0.809436 0
M  V30 22 O 4.5801 -1.68148 1.10852 0
M  V30 23 C 1.6451 -2.69834 2.17693 0
M  V30 24 C 0.7061 -2.6047 3.41253 0
M  V30 25 C -0.0609 -3.88 3.66458 0
M  V30 26 O 0.1621 -4.88693 2.94169 0
M  V30 27 O -0.9039 -3.88189 4.59992 0
M  V30 28 H 2.9221 -1.0839 2.83699 0
M  V30 29 H 0.5071 -0.471301 1.41771 0
M  V30 30 H 2.3891 -3.49017 2.36147 0
M  V30 31 H 1.0641 -2.97148 1.28392 0
M  V30 32 H -0.0289 -1.79663 3.28134 0
M  V30 33 H 1.3041 -2.38106 4.30774 0
M  V30 34 N 2.9562 -1.48159 -0.537278 0
M  V30 35 C 3.8662 -1.64807 -1.6696 0
M  V30 36 C 4.8822 -0.530651 -1.65711 0
M  V30 37 O 6.0582 -0.800784 -1.84796 0
M  V30 38 C 3.1232 -1.67708 -3.03438 0
M  V30 39 C 2.1842 -2.91025 -3.156 0
M  V30 40 C 1.4172 -2.93778 -4.45567 0
M  V30 41 O 1.6402 -2.05153 -5.3223 0
M  V30 42 O 0.5742 -3.85868 -4.61941 0
M  V30 43 H 4.4002 -2.6066 -1.55853 0
M  V30 44 H 1.9852 -1.31475 -0.709549 0
M  V30 45 H 3.8672 -1.7218 -3.84619 0
M  V30 46 H 2.5422 -0.750278 -3.14885 0
M  V30 47 H 1.4492 -2.92089 -2.33741 0
M  V30 48 H 2.7822 -3.83065 -3.09066 0
M  V30 49 N 4.4343 0.785586 -1.36625 0
M  V30 50 C 5.6823 1.54057 -1.30808 0
M  V30 51 C 6.0033 1.94683 0.111157 0
M  V30 52 O 5.2733 1.65241 1.05224 0
M  V30 53 H 3.8533 0.571354 -0.481211 0
M  V30 54 H 6.5153 0.935821 -1.70963 0
M  V30 55 H 5.6113 2.44637 -1.93801 0
M  V30 56 N 5.9124 1.20967 1.01018 0
M  V30 57 C 7.1594 1.02374 1.74716 0
M  V30 58 C 7.4874 -0.443375 1.89379 0
M  V30 59 O 6.7424 -1.34535 1.42123 0
M  V30 60 C 7.0414 1.65997 3.16512 0
M  V30 61 C 6.7074 3.15831 3.2181 0
M  V30 62 C 5.3694 3.56719 3.22963 0
M  V30 63 C 7.7214 4.11816 3.19464 0
M  V30 64 C 5.0494 4.92107 3.19449 0
M  V30 65 C 7.4014 5.47158 3.17491 0
M  V30 66 C 6.0654 5.87451 3.16951 0
M  V30 67 H 5.3354 0.374614 0.639332 0
M  V30 68 H 7.9824 1.50485 1.18434 0
M  V30 69 H 6.2874 1.10166 3.75993 0
M  V30 70 H 7.9844 1.49119 3.72242 0
M  V30 71 H 4.5744 2.83263 3.21652 0
M  V30 72 H 8.7584 3.81257 3.17737 0
M  V30 73 H 4.0144 5.22579 3.17366 0
M  V30 74 H 8.1884 6.21274 3.14629 0
M  V30 75 H 5.8154 6.92329 3.13983 0
M  V30 76 N 7.3905 -1.2043 1.01659 0
M  V30 77 C 8.8065 -1.41852 0.731442 0
M  V30 78 C 9.0065 -1.89358 -0.688898 0
M  V30 79 O 8.0625 -2.06247 -1.45666 0
M  V30 80 C 9.3755 -2.44019 1.75714 0
M  V30 81 C 10.9235 -2.57785 1.77527 0
M  V30 82 C 11.3985 -3.63194 2.79023 0
M  V30 83 N 12.8895 -3.70678 2.77763 0
M  V30 84 C 13.6245 -4.51897 3.52954 0
M  V30 85 N 13.1205 -5.36921 4.37821 0
M  V30 86 N 14.9135 -4.4643 3.41551 0
M  V30 87 H 7.0645 -0.879093 1.93354 0
M  V30 88 H 9.3275 -0.448425 0.835236 0
M  V30 89 H 9.0335 -2.1611 2.77469 0
M  V30 90 H 8.9075 -3.43007 1.56927 0
M  V30 91 H 11.2945 -2.85023 0.764569 0
M  V30 92 H 11.3755 -1.58992 2.00387 0
M  V30 93 H 11.0195 -3.36699 3.80258 0
M  V30 94 H 10.9495 -4.61609 2.53425 0
M  V30 95 H 13.4405 -3.09944 2.16201 0
M  V30 96 H 13.7535 -5.95981 4.91962 0
M  V30 97 H 12.0985 -5.36424 4.41899 0
M  V30 98 H 15.2895 -3.79042 2.74672 0
M  V30 99 H 15.4625 -5.09491 4.00404 0
M  V30 100 N 8.8686 -0.792821 -1.36206 0
M  V30 101 C 10.1456 -0.290627 -1.93429 0
M  V30 102 C 10.5256 1.21773 -1.72437 0
M  V30 103 O 9.8736 2.0108 -1.08531 0
M  V30 104 C 10.0836 -0.686973 -3.42172 0
M  V30 105 C 11.4316 -0.668643 -4.19302 0
M  V30 106 O 12.4556 -0.627658 -3.50626 0
M  V30 107 O 11.3146 -0.714597 -5.41808 0
M  V30 108 H 8.4086 -0.0727927 -0.82379 0
M  V30 109 H 10.9546 -0.875593 -1.45367 0
M  V30 110 H 9.7266 -1.72711 -3.51122 0
M  V30 111 H 9.3496 -0.0760733 -3.97527 0
M  V30 112 N 10.3467 1.47872 -0.545128 0
M  V30 113 C 11.7627 1.5829 -0.204032 0
M  V30 114 C 11.9627 1.54529 1.29317 0
M  V30 115 O 11.0187 1.44232 2.07252 0
M  V30 116 C 12.3317 2.89304 -0.819987 0
M  V30 117 C 13.8797 3.02864 -0.790105 0
M  V30 118 C 14.3547 4.3656 -1.38491 0
M  V30 119 N 15.8457 4.43165 -1.34755 0
M  V30 120 C 16.5807 5.45153 -1.77753 0
M  V30 121 N 16.0767 6.54016 -2.2855 0
M  V30 122 N 17.8697 5.36125 -1.68897 0
M  V30 123 H 10.0207 1.4856 -1.51802 0
M  V30 124 H 12.2837 0.706305 -0.632327 0
M  V30 125 H 11.9897 2.97757 -1.87173 0
M  V30 126 H 11.8637 3.75957 -0.305915 0
M  V30 127 H 14.2507 2.94014 0.252913 0
M  V30 128 H 14.3317 2.17782 -1.34181 0
M  V30 129 H 13.9757 4.46164 -2.42693 0
M  V30 130 H 13.9057 5.20353 -0.808754 0
M  V30 131 H 16.3967 3.65083 -0.975855 0
M  V30 132 H 16.7097 7.27994 -2.59314 0
M  V30 133 H 15.0547 6.54938 -2.32553 0
M  V30 134 H 18.2457 4.49975 -1.28998 0
M  V30 135 H 18.4187 6.15472 -2.02726 0
M  V30 136 N 11.8248 0.280983 1.55075 0
M  V30 137 C 12.7878 -0.590896 2.21452 0
M  V30 138 C 13.7878 -1.07682 1.19421 0
M  V30 139 O 14.9778 -0.97605 1.44288 0
M  V30 140 C 12.1098 -1.81587 2.88511 0
M  V30 141 H 13.3028 -0.0112554 2.99898 0
M  V30 142 H 10.8558 0.0316438 1.56268 0
M  V30 143 H 11.5908 -2.43587 2.14093 0
M  V30 144 H 11.3758 -1.4753 3.63287 0
M  V30 145 H 12.8658 -2.43575 3.39206 0
M  V30 146 N 13.3029 -1.57598 0.00835791 0
M  V30 147 C 14.2659 -2.07884 -0.965242 0
M  V30 148 C 15.2659 -0.989825 -1.26725 0
M  V30 149 O 16.4559 -1.25218 -1.21104 0
M  V30 150 C 13.5879 -2.52731 -2.28779 0
M  V30 151 H 14.7809 -2.95178 -0.530112 0
M  V30 152 H 12.3339 -1.54458 -0.239283 0
M  V30 153 H 13.0689 -1.68705 -2.76964 0
M  V30 154 H 12.8539 -3.32272 -2.08177 0
M  V30 155 H 14.3439 -2.91933 -2.98605 0
M  V30 156 N 14.781 0.264519 -1.55364 0
M  V30 157 C 16.028 0.994986 -1.7637 0
M  V30 158 C 16.356 1.85976 -0.5695 0
M  V30 159 O 15.611 1.90509 0.44776 0
M  V30 160 C 15.91 1.9004 -3.02687 0
M  V30 161 C 15.576 1.19243 -4.34847 0
M  V30 162 C 14.238 0.996709 -4.70764 0
M  V30 163 C 16.59 0.689296 -5.16622 0
M  V30 164 C 13.918 0.285261 -5.86006 0
M  V30 165 C 16.27 -0.00860079 -6.32599 0
M  V30 166 C 14.934 -0.215963 -6.67151 0
M  V30 167 H 14.204 0.364091 -0.645383 0
M  V30 168 H 16.851 0.266543 -1.89636 0
M  V30 169 H 15.156 2.69533 -2.84357 0
M  V30 170 H 16.853 2.46695 -3.16137 0
M  V30 171 H 13.443 1.3549 -4.06621 0
M  V30 172 H 17.627 0.828108 -4.89342 0
M  V30 173 H 12.883 0.113961 -6.11294 0
M  V30 174 H 17.057 -0.406186 -6.95214 0
M  V30 175 H 14.684 -0.769217 -7.56298 0
M  V30 176 N 16.2591 1.48442 0.529413 0
M  V30 177 C 17.5081 1.55742 1.28169 0
M  V30 178 C 17.8211 0.236511 1.94165 0
M  V30 179 O 19.0271 0.187761 2.7085 0
M  V30 180 C 17.4831 2.74667 2.32564 0
M  V30 181 C 17.0911 4.13402 1.72636 0
M  V30 182 C 18.8351 2.9128 3.08798 0
M  V30 183 C 16.7421 5.23587 2.74975 0
M  V30 184 H 15.6721 0.579796 0.48203 0
M  V30 185 H 18.3231 1.74776 0.559056 0
M  V30 186 H 16.7051 2.49067 3.07866 0
M  V30 187 H 17.8791 4.49022 1.03519 0
M  V30 188 H 16.1941 4.0191 1.08892 0
M  V30 189 H 18.7911 3.70767 3.85274 0
M  V30 190 H 19.1341 2.00757 3.64695 0
M  V30 191 H 19.6671 3.16782 2.40611 0
M  V30 192 H 16.4061 6.16076 2.23897 0
M  V30 193 H 15.9261 4.92454 3.42417 0
M  V30 194 H 17.6051 5.51724 3.37949 0
M  V30 195 N 17.7372 -0.778329 1.37039 0
M  V30 196 C 19.1532 -1.07796 1.17695 0
M  V30 197 C 19.3532 -2.01498 0.00860115 0
M  V30 198 O 18.4092 -2.43901 -0.653352 0
M  V30 199 C 19.7222 -1.68178 2.49272 0
M  V30 200 C 21.2702 -1.80467 2.55735 0
M  V30 201 C 21.7452 -2.44263 3.87427 0
M  V30 202 N 23.2362 -2.51721 3.88833 0
M  V30 203 C 23.9712 -3.01919 4.87476 0
M  V30 204 N 23.4672 -3.5234 5.96513 0
M  V30 205 N 25.2602 -3.00733 4.74885 0
M  V30 206 H 17.4112 -0.156032 2.11826 0
M  V30 207 H 19.6742 -0.131844 0.938787 0
M  V30 208 H 19.3802 -1.06796 3.35093 0
M  V30 209 H 19.2542 -2.67554 2.65885 0
M  V30 210 H 21.6412 -2.40984 1.70325 0
M  V30 211 H 21.7222 -0.798656 2.43013 0
M  V30 212 H 21.3662 -1.84388 4.73248 0
M  V30 213 H 21.2962 -3.45458 3.9745 0
M  V30 214 H 23.7872 -2.1603 3.10063 0
M  V30 215 H 24.1002 -3.89027 6.67741 0
M  V30 216 H 22.4452 -3.50462 6.00168 0
M  V30 217 H 25.6362 -2.60638 3.88826 0
M  V30 218 H 25.8092 -3.39545 5.51918 0
M  V30 219 N 19.2153 -1.21501 -1.00376 0
M  V30 220 C 20.4633 -1.03095 -1.73827 0
M  V30 221 C 20.7843 0.436341 -1.90055 0
M  V30 222 O 20.0543 1.31466 -1.45236 0
M  V30 223 H 18.6343 -0.378487 -0.644016 0
M  V30 224 H 21.2963 -1.52831 -1.20949 0
M  V30 225 H 20.3923 -1.49991 -2.73695 0
M  V30 226 N 20.6934 1.19889 -1.02296 0
M  V30 227 C 21.6564 2.21116 -0.603351 0
M  V30 228 C 22.6564 1.5738 0.329884 0
M  V30 229 O 23.8464 1.73802 0.117702 0
M  V30 230 C 20.9784 3.40696 0.117992 0
M  V30 231 H 22.1714 2.59754 -1.49893 0
M  V30 232 H 19.7244 1.33463 -0.813468 0
M  V30 233 H 20.4594 3.07569 1.0282 0
M  V30 234 H 20.2444 3.88188 -0.552511 0
M  V30 235 H 21.7344 4.15692 0.398696 0
M  V30 236 N 22.1715 0.800033 1.35784 0
M  V30 237 C 23.1185 0.203848 2.29898 0
M  V30 238 C 24.0885 -0.658375 1.52495 0
M  V30 239 O 25.2735 -0.604832 1.8096 0
M  V30 240 C 22.4135 -0.64688 3.38983 0
M  V30 241 C 21.5265 0.235054 4.3136 0
M  V30 242 C 20.6615 -0.623054 5.27533 0
M  V30 243 C 19.7005 0.259682 6.11549 0
M  V30 244 N 18.8375 -0.558019 6.99879 0
M  V30 245 H 23.6775 1.01186 2.80295 0
M  V30 246 H 21.2145 0.51053 1.37957 0
M  V30 247 H 23.1725 -1.15521 4.00887 0
M  V30 248 H 21.8025 -1.42021 2.89879 0
M  V30 249 H 20.8545 0.861438 3.70518 0
M  V30 250 H 22.1665 0.914768 4.9034 0
M  V30 251 H 21.3205 -1.19678 5.94779 0
M  V30 252 H 20.0595 -1.33636 4.69034 0
M  V30 253 H 19.0645 0.845726 5.43256 0
M  V30 254 H 20.2895 0.970748 6.72126 0
M  V30 255 H 18.2355 -1.25542 6.43875 0
M  V30 256 H 18.1525 0.0637872 7.55973 0
M  V30 257 H 19.4205 -1.11523 7.71481 0
M  V30 258 N 23.6496 -1.47581 0.552962 0
M  V30 259 C 24.9266 -1.95563 -0.0381515 0
M  V30 260 C 25.3066 -1.49552 -1.48988 0
M  V30 261 O 24.6546 -0.732414 -2.16444 0
M  V30 262 C 24.8646 -3.48848 0.102919 0
M  V30 263 C 26.2126 -4.24577 -0.0446082 0
M  V30 264 O 27.2366 -3.56187 0.0302548 0
M  V30 265 O 26.0956 -5.46116 -0.204923 0
M  V30 266 H 23.1896 -0.824321 -0.0665067 0
M  V30 267 H 25.7356 -1.58001 0.619186 0
M  V30 268 H 24.5076 -3.75129 1.11328 0
M  V30 269 H 24.1306 -3.93165 -0.592224 0
M  V30 270 N 25.1277 -0.289203 -1.54924 0
M  V30 271 C 26.3767 0.324231 -1.99077 0
M  V30 272 C 26.6897 1.5591 -1.18117 0
M  V30 273 O 27.8957 2.24637 -1.52481 0
M  V30 274 C 26.3517 0.628209 -3.54375 0
M  V30 275 C 25.9597 -0.587647 -4.44129 0
M  V30 276 C 27.7037 1.20349 -4.07083 0
M  V30 277 C 25.6107 -0.257475 -5.90839 0
M  V30 278 H 24.5407 0.124924 -0.743579 0
M  V30 279 H 27.1917 -0.396063 -1.79175 0
M  V30 280 H 25.5737 1.40778 -3.70132 0
M  V30 281 H 26.7477 -1.36418 -4.40144 0
M  V30 282 H 25.0627 -1.08074 -4.0213 0
M  V30 283 H 27.6597 1.46456 -5.14252 0
M  V30 284 H 28.0027 2.14195 -3.56968 0
M  V30 285 H 28.5357 0.485889 -3.94821 0
M  V30 286 H 25.2747 -1.16419 -6.45079 0
M  V30 287 H 24.7947 0.482018 -5.9786 0
M  V30 288 H 26.4737 0.145238 -6.46837 0
M  V30 289 N 26.6058 1.57591 -0.0167156 0
M  V30 290 C 27.5688 2.08393 0.954204 0
M  V30 291 C 28.5688 0.996531 1.26198 0
M  V30 292 O 29.7588 1.25858 1.20438 0
M  V30 293 C 26.8908 2.5394 2.27436 0
M  V30 294 H 28.0838 2.95455 0.514451 0
M  V30 295 H 25.6368 1.54582 0.231089 0
M  V30 296 H 26.3718 1.70171 2.76066 0
M  V30 297 H 26.1568 3.33371 2.06412 0
M  V30 298 H 27.6468 2.93512 2.97053 0
M  V30 299 N 28.0839 -0.256276 1.55502 0
M  V30 300 C 29.0309 -1.31714 1.89526 0
M  V30 301 C 30.0009 -1.4828 0.748479 0
M  V30 302 O 31.1859 -1.62416 1.00128 0
M  V30 303 C 28.3259 -2.66933 2.18725 0
M  V30 304 C 27.4389 -2.58452 3.4616 0
M  V30 305 C 26.5739 -3.85961 3.64976 0
M  V30 306 C 25.6129 -3.72059 4.86044 0
M  V30 307 N 24.7499 -4.9144 5.01429 0
M  V30 308 H 29.5899 -1.01998 2.80001 0
M  V30 309 H 27.1269 -0.492413 1.38613 0
M  V30 310 H 29.0849 -3.4563 2.33657 0
M  V30 311 H 27.7149 -2.94816 1.31466 0
M  V30 312 H 26.7669 -1.71374 3.3961 0
M  V30 313 H 28.0789 -2.44085 4.34999 0
M  V30 314 H 27.2329 -4.73101 3.79816 0
M  V30 315 H 25.9719 -4.03215 2.74353 0
M  V30 316 H 24.9769 -2.83302 4.7119 0
M  V30 317 H 26.2019 -3.56309 5.78118 0
M  V30 318 H 24.1479 -5.09072 4.13741 0
M  V30 319 H 24.0649 -4.79668 5.84341 0
M  V30 320 H 25.3329 -5.80104 5.20672 0
M  V30 321 N 29.562 -1.4872 -0.521534 0
M  V30 322 C 30.472 -1.66569 -1.65203 0
M  V30 323 C 31.488 -0.548197 -1.65139 0
M  V30 324 O 32.664 -0.820339 -1.83936 0
M  V30 325 C 29.729 -1.70917 -3.01642 0
M  V30 326 C 28.79 -2.94356 -3.12495 0
M  V30 327 C 28.023 -2.98487 -4.42426 0
M  V30 328 O 28.246 -2.10786 -5.30024 0
M  V30 329 O 27.18 -3.90746 -4.57822 0
M  V30 330 H 31.006 -2.62298 -1.5308 0
M  V30 331 H 28.591 -1.3222 -0.695565 0
M  V30 332 H 30.473 -1.7625 -3.82771 0
M  V30 333 H 29.148 -0.783633 -3.14071 0
M  V30 334 H 28.055 -2.94552 -2.3063 0
M  V30 335 H 29.388 -3.86322 -3.04986 0
M  V30 336 N 31.0401 0.771051 -1.3745 0
M  V30 337 C 32.2861 1.5319 -1.32894 0
M  V30 338 C 32.6191 1.94008 0.0862511 0
M  V30 339 O 31.8941 1.64124 1.04373 0
M  V30 340 C 32.1771 2.79648 -2.26868 0
M  V30 341 C 32.0301 2.45079 -3.77169 0
M  V30 342 C 33.3491 3.81583 -2.19277 0
M  V30 343 H 30.4681 0.555744 -0.484064 0
M  V30 344 H 33.1101 0.884492 -1.68157 0
M  V30 345 H 31.2601 3.34891 -1.96926 0
M  V30 346 H 32.9321 1.95745 -4.1771 0
M  V30 347 H 31.1751 1.77767 -3.95704 0
M  V30 348 H 31.8461 3.35478 -4.38359 0
M  V30 349 H 34.3221 3.35835 -2.45671 0
M  V30 350 H 33.1981 4.67787 -2.87171 0
M  V30 351 H 33.4591 4.25897 -1.18592 0
M  V30 352 N 32.5182 1.22032 0.997298 0
M  V30 353 C 33.4652 0.986467 2.08656 0
M  V30 354 C 34.4352 -0.0902671 1.65855 0
M  V30 355 O 35.6202 0.0584294 1.90711 0
M  V30 356 C 32.7602 0.565569 3.40434 0
M  V30 357 C 31.8732 1.71259 3.96604 0
M  V30 358 C 31.0082 1.24011 5.16522 0
M  V30 359 C 30.0472 2.35896 5.64818 0
M  V30 360 N 29.1842 1.89726 6.7598 0
M  V30 361 H 34.0242 1.91892 2.27994 0
M  V30 362 H 31.5612 0.956199 1.11782 0
M  V30 363 H 33.5192 0.302738 4.161 0
M  V30 364 H 32.1492 -0.329879 3.2111 0
M  V30 365 H 31.2012 2.08986 3.17851 0
M  V30 366 H 32.5132 2.55436 4.28432 0
M  V30 367 H 31.6672 0.934395 5.99461 0
M  V30 368 H 30.4062 0.368487 4.86306 0
M  V30 369 H 29.4112 2.67261 4.8047 0
M  V30 370 H 30.6362 3.23567 5.97061 0
M  V30 371 H 28.5822 1.0492 6.47555 0
M  V30 372 H 28.4992 2.67471 7.07103 0
M  V30 373 H 29.7672 1.62211 7.62435 0
M  V30 374 N 33.9963 -1.19345 1.0293 0
M  V30 375 C 34.9433 -2.2258 0.610464 0
M  V30 376 C 35.9133 -1.6179 -0.375946 0
M  V30 377 O 37.0983 -1.88844 -0.272511 0
M  V30 378 C 34.2383 -3.45085 -0.0321473 0
M  V30 379 C 33.3513 -4.20258 1.00035 0
M  V30 380 C 32.4863 -5.3019 0.32746 0
M  V30 381 C 31.5253 -5.97121 1.34584 0
M  V30 382 N 30.6623 -6.98615 0.698726 0
M  V30 383 H 35.5023 -2.57764 1.49538 0
M  V30 384 H 33.0393 -1.26644 0.748311 0
M  V30 385 H 34.9973 -4.15061 -0.421966 0
M  V30 386 H 33.6273 -3.10555 -0.88064 0
M  V30 387 H 32.6793 -3.49223 1.50823 0
M  V30 388 H 33.9913 -4.66175 1.77433 0
M  V30 389 H 33.1453 -6.06587 -0.11718 0
M  V30 390 H 31.8843 -4.85345 -0.478713 0
M  V30 391 H 30.8893 -5.19474 1.80074 0
M  V30 392 H 32.1143 -6.4405 2.15352 0
M  V30 393 H 30.0603 -6.55942 -0.0873471 0
M  V30 394 H 29.9773 -7.42724 1.41058 0
M  V30 395 H 31.2453 -7.79004 0.278102 0
M  V30 396 N 35.4744 -0.807222 -1.35358 0
M  V30 397 C 36.4244 -0.190706 -2.27201 0
M  V30 398 C 37.4084 0.635838 -1.47804 0
M  V30 399 O 38.6004 0.492991 -1.69996 0
M  V30 400 C 35.7294 0.659337 -3.36909 0
M  V30 401 C 34.8154 -0.176971 -4.23731 0
M  V30 402 N 35.2064 -1.24029 -4.90357 0
M  V30 403 C 33.5044 0.0412953 -4.45981 0
M  V30 404 C 34.2054 -1.75092 -5.54723 0
M  V30 405 N 33.1814 -1.05727 -5.33219 0
M  V30 406 H 36.9834 -1.0043 -2.76208 0
M  V30 407 H 34.4974 -0.648445 -1.48892 0
M  V30 408 H 36.4944 1.11706 -4.01656 0
M  V30 409 H 35.1544 1.47127 -2.89454 0
M  V30 410 H 36.1654 -1.62295 -4.91814 0
M  V30 411 H 32.8424 0.82232 -4.09322 0
M  V30 412 H 34.2324 -2.63963 -6.17878 0
M  V30 413 N 36.9525 1.47285 -0.560781 0
M  V30 414 C 37.9155 2.28535 0.174488 0
M  V30 415 C 38.9155 1.37153 0.839388 0
M  V30 416 O 40.1055 1.59748 0.694702 0
M  V30 417 C 37.2375 3.16934 1.25561 0
M  V30 418 H 38.4305 2.95012 -0.539262 0
M  V30 419 H 35.9835 1.53034 -0.317865 0
M  V30 420 H 36.7185 2.55157 2.00164 0
M  V30 421 H 36.5035 3.8419 0.783604 0
M  V30 422 H 37.9935 3.78143 1.77193 0
M  V30 423 N 38.4306 0.297415 1.54768 0
M  V30 424 C 39.3936 -0.567375 2.22066 0
M  V30 425 C 40.3936 -1.06409 1.20556 0
M  V30 426 O 41.5836 -0.960691 1.45315 0
M  V30 427 C 38.7156 -1.78517 2.90421 0
M  V30 428 H 39.9086 0.0205534 2.99893 0
M  V30 429 H 37.4616 0.0482163 1.56226 0
M  V30 430 H 38.1966 -2.41303 2.16664 0
M  V30 431 H 37.9816 -1.43669 3.64831 0
M  V30 432 H 39.4716 -2.39964 3.41771 0
M  V30 433 N 39.9087 -1.5758 0.0250728 0
M  V30 434 C 40.8557 -2.09973 -0.958129 0
M  V30 435 C 41.8257 -1.00085 -1.3256 0
M  V30 436 O 43.0107 -1.27481 -1.41962 0
M  V30 437 C 40.1507 -2.62812 -2.2366 0
M  V30 438 C 39.2637 -3.86693 -1.92594 0
M  V30 439 C 38.3987 -4.27941 -3.14707 0
M  V30 440 C 37.4377 -5.44591 -2.79442 0
M  V30 441 N 36.5747 -5.81014 -3.94167 0
M  V30 442 H 41.4147 -2.937 -0.504428 0
M  V30 443 H 38.9517 -1.45172 -0.237392 0
M  V30 444 H 40.9097 -2.91536 -2.98434 0
M  V30 445 H 39.5397 -1.81922 -2.66654 0
M  V30 446 H 38.5917 -3.64723 -1.0808 0
M  V30 447 H 39.9037 -4.71547 -1.62619 0
M  V30 448 H 39.0577 -4.58079 -3.97804 0
M  V30 449 H 37.7967 -3.41845 -3.4784 0
M  V30 450 H 36.8017 -5.1415 -1.94755 0
M  V30 451 H 38.0267 -6.32382 -2.47528 0
M  V30 452 H 35.9727 -4.97874 -4.2715 0
M  V30 453 H 35.8897 -6.60498 -3.67801 0
M  V30 454 H 37.1577 -6.15756 -4.7798 0
M  V30 455 N 41.3868 0.248026 -1.55636 0
M  V30 456 C 42.3338 1.30707 -1.90222 0
M  V30 457 C 43.3038 1.47881 -0.756332 0
M  V30 458 O 44.4888 1.61883 -1.00988 0
M  V30 459 C 41.6288 2.65769 -2.20138 0
M  V30 460 C 40.7418 2.56612 -3.47526 0
M  V30 461 C 39.8768 3.8402 -3.67017 0
M  V30 462 C 38.9158 3.69476 -4.8801 0
M  V30 463 N 38.0528 4.88774 -5.04029 0
M  V30 464 H 42.8928 1.00512 -2.80538 0
M  V30 465 H 40.4298 0.485055 -1.38873 0
M  V30 466 H 42.3878 3.44386 -2.35487 0
M  V30 467 H 41.0178 2.94115 -1.33027 0
M  V30 468 H 40.0698 1.69571 -3.40514 0
M  V30 469 H 41.3818 2.41774 -4.36287 0
M  V30 470 H 40.5358 4.7108 -3.8232 0
M  V30 471 H 39.2748 4.01754 -2.76487 0
M  V30 472 H 38.2798 2.80799 -4.72686 0
M  V30 473 H 39.5048 3.53238 -5.8 0
M  V30 474 H 37.4508 5.0687 -4.16435 0
M  V30 475 H 37.3678 4.76562 -5.86877 0
M  V30 476 H 38.6358 5.77335 -5.23741 0
M  V30 477 N 42.8649 1.48995 0.513639 0
M  V30 478 C 44.1109 1.58076 1.27042 0
M  V30 479 C 44.4439 0.261026 1.92438 0
M  V30 480 O 43.7189 -0.734393 1.80103 0
M  V30 481 C 44.0019 2.73091 2.34719 0
M  V30 482 C 43.8549 4.14821 1.73907 0
M  V30 483 C 45.1739 2.83796 3.36375 0
M  V30 484 H 42.2929 0.575391 0.460536 0
M  V30 485 H 44.9349 1.81232 0.570516 0
M  V30 486 H 43.0849 2.53479 2.94416 0
M  V30 487 H 44.7569 4.45917 1.18135 0
M  V30 488 H 42.9999 4.21058 1.0437 0
M  V30 489 H 43.6709 4.91147 2.51949 0
M  V30 490 H 46.1469 3.01611 2.86653 0
M  V30 491 H 45.0229 3.65971 4.09093 0
M  V30 492 H 45.2839 1.92624 3.9793 0
M  V30 493 N 44.343 -0.763751 1.37857 0
M  V30 494 C 45.589 -1.52483 1.33704 0
M  V30 495 C 45.922 -1.94051 -0.0759612 0
M  V30 496 O 45.197 -1.64675 -1.03501 0
M  V30 497 C 45.48 -2.78441 2.28348 0
M  V30 498 C 45.333 -2.43075 3.78463 0
M  V30 499 C 46.652 -3.80415 2.21298 0
M  V30 500 H 43.771 -0.553169 0.487005 0
M  V30 501 H 46.413 -0.875562 1.68624 0
M  V30 502 H 44.563 -3.33842 1.987 0
M  V30 503 H 46.235 -1.93527 4.18742 0
M  V30 504 H 44.478 -1.75666 3.96641 0
M  V30 505 H 45.149 -3.33149 4.40132 0
M  V30 506 H 47.625 -3.34527 2.47449 0
M  V30 507 H 46.501 -4.66257 2.89647 0
M  V30 508 H 46.762 -4.25262 1.20849 0
M  V30 509 N 45.8211 -1.22559 -0.990812 0
M  V30 510 C 46.7681 -0.997519 -2.0813 0
M  V30 511 C 47.7381 0.0814702 -1.659 0
M  V30 512 O 48.9231 -0.0685424 -1.90677 0
M  V30 513 C 46.0631 -0.583615 -3.40129 0
M  V30 514 C 45.1761 -1.7336 -3.9569 0
M  V30 515 C 44.3111 -1.26748 -5.15857 0
M  V30 516 C 43.3501 -2.38888 -5.63559 0
M  V30 517 N 42.4871 -1.93308 -6.74964 0
M  V30 518 H 47.3271 -1.93099 -2.26973 0
M  V30 519 H 44.8641 -0.962114 -1.11273 0
M  V30 520 H 46.8221 -0.324801 -4.15934 0
M  V30 521 H 45.4521 0.312845 -3.2128 0
M  V30 522 H 44.5041 -2.10669 -3.16738 0
M  V30 523 H 45.8161 -2.57704 -4.27071 0
M  V30 524 H 44.9701 -0.966173 -5.98957 0
M  V30 525 H 43.7091 -0.394272 -4.86104 0
M  V30 526 H 42.7141 -2.69805 -4.79046 0
M  V30 527 H 43.9391 -3.26728 -5.95336 0
M  V30 528 H 41.8851 -1.08352 -6.4699 0
M  V30 529 H 41.8021 -2.71217 -7.05675 0
M  V30 530 H 43.0701 -1.66252 -7.61564 0
M  V30 531 N 47.2992 1.18797 -1.03562 0
M  V30 532 C 48.5472 1.88278 -0.734569 0
M  V30 533 C 48.8682 1.8043 0.739586 0
M  V30 534 O 48.1382 1.21925 1.53333 0
M  V30 535 H 46.7182 0.696991 -0.268725 0
M  V30 536 H 49.3802 1.44192 -1.31129 0
M  V30 537 H 48.4762 2.94443 -1.03489 0
M  V30 538 N 48.7773 0.814389 1.34928 0
M  V30 539 C 49.7073 0.244827 2.32213 0
M  V30 540 C 50.6883 -0.634024 1.57842 0
M  V30 541 O 51.8733 -0.562676 1.8587 0
M  V30 542 C 49.0033 -0.601106 3.42058 0
M  V30 543 C 47.9573 0.179896 4.27622 0
M  V30 544 C 47.2833 -0.788237 5.28858 0
M  V30 545 C 48.5833 1.38329 5.03649 0
M  V30 546 H 50.2773 1.05763 2.80097 0
M  V30 547 H 47.8233 0.510029 1.34665 0
M  V30 548 H 49.7763 -1.00968 4.09125 0
M  V30 549 H 48.5003 -1.44688 2.92802 0
M  V30 550 H 47.1593 0.569739 3.62146 0
M  V30 551 H 46.8073 -1.62973 4.75866 0
M  V30 552 H 46.5073 -0.269942 5.8698 0
M  V30 553 H 48.0313 -1.19485 5.98795 0
M  V30 554 H 49.4453 1.04918 5.63618 0
M  V30 555 H 47.8423 1.83662 5.71304 0
M  V30 556 H 48.9123 2.16592 4.33839 0
M  V30 557 N 50.2554 -1.46986 0.568584 0
M  V30 558 C 51.5324 -1.95592 -0.0174074 0
M  V30 559 C 51.9124 -1.51124 -1.47393 0
M  V30 560 O 51.2604 -0.755329 -2.15655 0
M  V30 561 C 51.4704 -3.48719 0.139913 0
M  V30 562 C 52.8184 -4.246 0.000426376 0
M  V30 563 O 53.8424 -3.56135 0.0680316 0
M  V30 564 O 52.7014 -5.46302 -0.146988 0
M  V30 565 H 49.7954 -0.82498 -0.0577599 0
M  V30 566 H 52.3414 -1.57335 0.635909 0
M  V30 567 H 51.1134 -3.73927 1.15301 0
M  V30 568 H 50.7364 -3.93771 -0.550491 0
M  V30 569 N 51.7335 -0.305618 -1.54608 0
M  V30 570 C 53.1495 0.0476228 -1.59529 0
M  V30 571 C 53.3495 1.52025 -1.32252 0
M  V30 572 O 52.4055 2.27368 -1.09818 0
M  V30 573 C 53.7185 -0.354471 -2.98603 0
M  V30 574 C 55.2665 -0.303622 -3.11524 0
M  V30 575 C 55.7415 -0.680608 -4.52915 0
M  V30 576 N 57.2325 -0.63332 -4.5885 0
M  V30 577 C 57.9675 -0.897432 -5.66334 0
M  V30 578 N 57.4635 -1.22775 -6.81834 0
M  V30 579 N 59.2565 -0.824186 -5.56025 0
M  V30 580 H 51.4075 -1.2653 -1.70599 0
M  V30 581 H 53.6705 -0.513291 -0.797017 0
M  V30 582 H 53.3765 -1.3798 -3.23503 0
M  V30 583 H 53.2505 0.289568 -3.76087 0
M  V30 584 H 55.6375 0.712472 -2.8637 0
M  V30 585 H 55.7185 -0.982348 -2.36185 0
M  V30 586 H 55.3625 -1.69453 -4.78799 0
M  V30 587 H 55.2925 0.0202385 -5.26596 0
M  V30 588 H 57.7835 -0.389138 -3.75891 0
M  V30 589 H 58.0965 -1.41513 -7.59733 0
M  V30 590 H 56.4415 -1.26583 -6.83375 0
M  V30 591 H 59.6325 -0.565748 -4.64669 0
M  V30 592 H 59.8055 -1.03338 -6.39707 0
M  V30 593 N 53.2116 1.57565 -0.0334293 0
M  V30 594 C 54.4576 1.92262 0.645226 0
M  V30 595 C 54.7906 0.910543 1.71531 0
M  V30 596 O 54.0656 -0.066099 1.94388 0
M  V30 597 C 54.3486 3.37422 1.2577 0
M  V30 598 C 54.2016 4.49369 0.196891 0
M  V30 599 C 55.5206 3.82628 2.17449 0
M  V30 600 H 52.6396 0.699171 0.233085 0
M  V30 601 H 55.2816 1.89779 -0.0915694 0
M  V30 602 H 53.4316 3.39669 1.88566 0
M  V30 603 H 55.1036 4.59254 -0.433962 0
M  V30 604 H 53.3466 4.31168 -0.477137 0
M  V30 605 H 54.0176 5.47978 0.665124 0
M  V30 606 H 56.4936 3.82145 1.64634 0
M  V30 607 H 55.3696 4.84883 2.57254 0
M  V30 608 H 55.6306 3.18376 3.0674 0
M  V30 609 N 54.6897 -0.239769 1.55765 0
M  V30 610 C 55.6217 -1.32001 1.87372 0
M  V30 611 C 56.6347 -1.43944 0.760522 0
M  V30 612 O 57.8237 -1.45167 1.0387 0
M  V30 613 C 54.9237 -2.69779 2.05115 0
M  V30 614 C 54.0967 -2.80014 3.36022 0
M  V30 615 C 53.1557 -3.98684 3.4342 0
M  V30 616 O 52.1817 -3.87877 4.16582 0
M  V30 617 N 53.3837 -5.12176 2.73232 0
M  V30 618 H 56.1487 -1.0522 2.80622 0
M  V30 619 H 53.7097 -0.429857 1.56089 0
M  V30 620 H 55.7017 -3.47517 2.07399 0
M  V30 621 H 54.2717 -2.89237 1.18577 0
M  V30 622 H 53.4917 -1.88896 3.45994 0
M  V30 623 H 54.7797 -2.83808 4.22292 0
M  V30 624 H 54.1777 -5.2385 2.13536 0
M  V30 625 H 52.7347 -5.88022 2.81199 0
M  V30 626 N 56.1678 -1.49265 -0.50573 0
M  V30 627 C 57.4448 -1.49012 -1.26707 0
M  V30 628 C 57.8248 -0.215205 -2.1 0
M  V30 629 O 57.1728 0.802547 -2.13943 0
M  V30 630 C 57.3828 -2.7663 -2.12783 0
M  V30 631 C 58.7308 -3.25932 -2.72127 0
M  V30 632 O 59.7548 -2.77715 -2.23054 0
M  V30 633 O 58.6138 -4.09897 -3.61451 0
M  V30 634 H 55.7078 -0.596197 -0.57313 0
M  V30 635 H 58.2538 -1.61524 -0.52039 0
M  V30 636 H 57.0258 -3.60916 -1.5118 0
M  V30 637 H 56.6488 -2.66956 -2.94653 0
M  V30 638 N 57.6459 0.756429 -1.3826 0
M  V30 639 C 58.5559 1.9009 -1.37488 0
M  V30 640 C 59.5719 1.71855 -0.272366 0
M  V30 641 O 60.7479 1.94827 -0.510318 0
M  V30 642 C 57.8129 3.25421 -1.19592 0
M  V30 643 C 56.8739 3.56202 -2.39622 0
M  V30 644 C 56.1069 4.85075 -2.2257 0
M  V30 645 O 56.3299 5.57246 -1.21793 0
M  V30 646 O 55.2639 5.15269 -3.11098 0
M  V30 647 H 59.0899 1.93695 -2.33914 0
M  V30 648 H 56.6749 0.901313 -1.1915 0
M  V30 649 H 58.5569 4.06337 -1.11661 0
M  V30 650 H 57.2319 3.22634 -0.262486 0
M  V30 651 H 56.1389 2.75458 -2.53128 0
M  V30 652 H 57.4719 3.63747 -3.31586 0
M  V30 653 N 59.124 1.23083 0.984299 0
M  V30 654 C 60.354 1.08556 1.75781 0
M  V30 655 C 60.762 -0.366171 1.85623 0
M  V30 656 O 60.105 -1.26524 1.33182 0
M  V30 657 C 60.167 1.63208 3.20318 0
M  V30 658 C 59.831 3.11922 3.33997 0
M  V30 659 C 60.828 4.09259 3.2063 0
M  V30 660 C 58.513 3.51552 3.58771 0
M  V30 661 C 60.507 5.4421 3.31835 0
M  V30 662 C 58.194 4.86649 3.69616 0
M  V30 663 C 59.192 5.82787 3.56157 0
M  V30 664 O 58.88 7.15431 3.66626 0
M  V30 665 H 58.612 0.380713 0.5586 0
M  V30 666 H 61.166 1.63321 1.2456 0
M  V30 667 H 59.396 1.0286 3.72769 0
M  V30 668 H 61.085 1.44216 3.79416 0
M  V30 669 H 61.851 3.79984 3.01392 0
M  V30 670 H 57.73 2.77239 3.6832 0
M  V30 671 H 61.274 6.1923 3.21247 0
M  V30 672 H 57.171 5.15601 3.88363 0
M  V30 673 H 57.939 7.23127 3.83445 0
M  V30 674 N 60.6021 -1.18246 1.0419 0
M  V30 675 C 61.8271 -1.92736 0.765996 0
M  V30 676 C 62.2521 -1.75728 -0.67091 0
M  V30 677 O 61.6101 -1.06825 -1.46486 0
M  V30 678 C 61.6581 -3.42148 1.13875 0
M  V30 679 O 60.7621 -4.11548 0.264954 0
M  V30 680 H 60.1031 -0.601238 0.281797 0
M  V30 681 H 62.6331 -1.49942 1.39207 0
M  V30 682 H 62.6431 -3.92858 1.1012 0
M  V30 683 H 61.3181 -3.53848 2.18551 0
M  V30 684 H 59.8951 -3.71137 0.362226 0
M  V30 685 N 62.0802 -0.821533 -1.34494 0
M  V30 686 C 63.4962 -0.507117 -1.51329 0
M  V30 687 C 63.6962 0.968964 -1.76673 0
M  V30 688 O 62.7522 1.75348 -1.81685 0
M  V30 689 C 64.0652 -1.36544 -2.67911 0
M  V30 690 C 65.6132 -1.36242 -2.81793 0
M  V30 691 C 66.0882 -2.2052 -4.01416 0
M  V30 692 N 67.5792 -2.18136 -4.08621 0
M  V30 693 C 68.3142 -2.80095 -5.00334 0
M  V30 694 N 67.8102 -3.51039 -5.9728 0
M  V30 695 N 69.6032 -2.69656 -4.93196 0
M  V30 696 H 61.7542 -1.77729 -1.16302 0
M  V30 697 H 64.0172 -0.757291 -0.570276 0
M  V30 698 H 63.7232 -2.41361 -2.55808 0
M  V30 699 H 63.5972 -1.02917 -3.62888 0
M  V30 700 H 65.9842 -0.322041 -2.93338 0
M  V30 701 H 66.0652 -1.73866 -1.87628 0
M  V30 702 H 65.7092 -3.24607 -3.90631 0
M  V30 703 H 65.6392 -1.80247 -4.94791 0
M  V30 704 H 68.1302 -1.6653 -3.39229 0
M  V30 705 H 68.4432 -3.95565 -6.63889 0
M  V30 706 H 66.7882 -3.55145 -5.97409 0
M  V30 707 H 69.9792 -2.13808 -4.16418 0
M  V30 708 H 70.1522 -3.1823 -5.64476 0
M  V30 709 N 63.5583 1.46682 -0.576371 0
M  V30 710 C 64.9743 1.57822 -0.237562 0
M  V30 711 C 65.1743 1.57237 1.26011 0
M  V30 712 O 64.2303 1.48596 2.04146 0
M  V30 713 C 65.5433 2.87499 -0.881168 0
M  V30 714 C 67.0913 3.01119 -0.85417 0
M  V30 715 C 67.5663 4.33524 -1.4772 0
M  V30 716 N 69.0573 4.40207 -1.44125 0
M  V30 717 C 69.7923 5.4126 -1.89276 0
M  V30 718 N 69.2883 6.49021 -2.42371 0
M  V30 719 N 71.0813 5.32422 -1.80231 0
M  V30 720 H 63.2323 1.45306 -1.54919 0
M  V30 721 H 65.4953 0.692733 -0.647167 0
M  V30 722 H 65.2013 2.9372 -1.93447 0
M  V30 723 H 65.0753 3.75224 -0.385592 0
M  V30 724 H 67.4623 2.94485 0.190491 0
M  V30 725 H 67.5433 2.14887 -1.3877 0
M  V30 726 H 67.1873 4.40916 -2.52103 0
M  V30 727 H 67.1173 5.1852 -0.918947 0
M  V30 728 H 69.6083 3.62931 -1.05307 0
M  V30 729 H 69.9213 7.2233 -2.74698 0
M  V30 730 H 68.2663 6.49858 -2.46393 0
M  V30 731 H 71.4573 4.47137 -1.38514 0
M  V30 732 H 71.6303 6.11034 -2.15735 0
M  V30 733 N 65.0364 0.313813 1.54444 0
M  V30 734 C 66.2614 -0.296681 2.05267 0
M  V30 735 C 66.6864 -1.45757 1.18897 0
M  V30 736 O 66.0444 -1.80239 0.195886 0
M  V30 737 C 66.0924 -0.71831 3.53373 0
M  V30 738 O 65.1964 -1.82175 3.69981 0
M  V30 739 H 64.5374 -0.0554061 0.661684 0
M  V30 740 H 67.0674 0.459387 1.99376 0
M  V30 741 H 67.0774 -1.00364 3.95463 0
M  V30 742 H 65.7524 0.130821 4.15694 0
M  V30 743 H 64.3294 -1.53598 3.39797 0
M  V30 744 N 66.5145 -1.57545 0.0417849 0
M  V30 745 C 67.7445 -1.96339 -0.642995 0
M  V30 746 C 68.1525 -0.917536 -1.65463 0
M  V30 747 O 67.4955 0.107747 -1.83384 0
M  V30 748 C 67.5575 -3.31333 -1.39494 0
M  V30 749 C 67.2215 -4.53796 -0.540204 0
M  V30 750 C 68.2185 -5.19553 0.189806 0
M  V30 751 C 65.9035 -5.0006 -0.473886 0
M  V30 752 C 67.8975 -6.29904 0.974674 0
M  V30 753 C 65.5845 -6.10289 0.314677 0
M  V30 754 C 66.5825 -6.75072 1.03765 0
M  V30 755 O 66.2705 -7.83183 1.81327 0
M  V30 756 H 66.0025 -0.651241 -0.181277 0
M  V30 757 H 68.5565 -2.05148 0.101665 0
M  V30 758 H 66.7865 -3.19052 -2.18502 0
M  V30 759 H 68.4755 -3.54942 -1.96904 0
M  V30 760 H 69.2415 -4.84774 0.147981 0
M  V30 761 H 65.1205 -4.49433 -1.0262 0
M  V30 762 H 68.6645 -6.80401 1.5395 0
M  V30 763 H 64.5615 -6.44506 0.358174 0
M  V30 764 H 65.3295 -7.99913 1.73438 0
M  V30 765 N 67.9926 0.231505 -1.5589 0
M  V30 766 C 69.2176 0.978689 -1.82856 0
M  V30 767 C 69.6426 1.77559 -0.620846 0
M  V30 768 O 69.0006 1.76119 0.430305 0
M  V30 769 C 69.0486 1.87997 -3.07716 0
M  V30 770 O 68.1526 2.97393 -2.85712 0
M  V30 771 H 67.4936 0.277663 -0.603158 0
M  V30 772 H 70.0236 0.24783 -2.03093 0
M  V30 773 H 70.0336 2.2917 -3.37558 0
M  V30 774 H 68.7086 1.29417 -3.95252 0
M  V30 775 H 67.2856 2.60238 -2.67078 0
M  V30 776 N 69.4707 1.49531 0.497807 0
M  V30 777 C 70.8867 1.36365 0.829266 0
M  V30 778 C 71.0867 0.399184 1.97506 0
M  V30 779 O 70.1427 -0.167977 2.51941 0
M  V30 780 C 71.4557 2.77153 1.16647 0
M  V30 781 C 73.0037 2.85877 1.27449 0
M  V30 782 C 73.4787 4.2744 1.64497 0
M  V30 783 N 74.9697 4.30265 1.7154 0
M  V30 784 C 75.7047 5.3677 2.01656 0
M  V30 785 N 75.2007 6.53516 2.29976 0
M  V30 786 N 76.9937 5.24189 2.02934 0
M  V30 787 H 69.1447 2.10831 -0.257703 0
M  V30 788 H 71.4077 0.946534 -0.0527091 0
M  V30 789 H 71.1137 3.49442 0.397872 0
M  V30 790 H 70.9877 3.12722 2.10915 0
M  V30 791 H 73.3747 2.13824 2.0338 0
M  V30 792 H 73.4557 2.53887 0.312244 0
M  V30 793 H 73.0997 5.00021 0.891151 0
M  V30 794 H 73.0297 4.56896 2.61827 0
M  V30 795 H 75.5207 3.4607 1.51802 0
M  V30 796 H 75.8337 7.30506 2.52153 0
M  V30 797 H 74.1787 6.56737 2.27425 0
M  V30 798 H 77.3697 4.31988 1.80289 0
M  V30 799 H 77.5427 6.07286 2.26071 0
M  V30 800 N 70.9488 -0.749086 1.3866 0
M  V30 801 C 72.1958 -1.50833 1.35114 0
M  V30 802 C 72.5238 -1.94415 -0.0574049 0
M  V30 803 O 71.7788 -1.66065 -1.03541 0
M  V30 804 C 72.0778 -2.7712 2.25697 0
M  V30 805 C 71.7438 -2.52477 3.73585 0
M  V30 806 C 70.4058 -2.45466 4.13884 0
M  V30 807 C 72.7578 -2.31066 4.67181 0
M  V30 808 C 70.0858 -2.15064 5.45861 0
M  V30 809 C 72.4378 -2.02183 5.9942 0
M  V30 810 C 71.1018 -1.93631 6.38798 0
M  V30 811 H 70.3718 -0.551936 0.494416 0
M  V30 812 H 73.0188 -0.860979 1.71054 0
M  V30 813 H 71.3238 -3.46528 1.82827 0
M  V30 814 H 73.0208 -3.35096 2.20254 0
M  V30 815 H 69.6108 -2.58807 3.41638 0
M  V30 816 H 73.7948 -2.35459 4.3689 0
M  V30 817 H 69.0508 -2.06954 5.75308 0
M  V30 818 H 73.2248 -1.8462 6.71482 0
M  V30 819 H 70.8518 -1.69839 7.40985 0
M  V30 820 N 72.4269 -1.23603 -0.977757 0
M  V30 821 C 73.3369 -1.03632 -2.1047 0
M  V30 822 C 74.3529 0.0199435 -1.73989 0
M  V30 823 O 75.5289 -0.176076 -2.00629 0
M  V30 824 C 72.5939 -0.63276 -3.40877 0
M  V30 825 C 71.6549 -1.76437 -3.91367 0
M  V30 826 C 70.8879 -1.37997 -5.15551 0
M  V30 827 O 71.1109 -0.265357 -5.69782 0
M  V30 828 O 70.0449 -2.20201 -5.60174 0
M  V30 829 H 73.8709 -1.98086 -2.30208 0
M  V30 830 H 71.4559 -1.02332 -1.08851 0
M  V30 831 H 73.3379 -0.418761 -4.19314 0
M  V30 832 H 72.0129 0.282754 -3.22463 0
M  V30 833 H 70.9199 -2.03304 -3.14036 0
M  V30 834 H 72.2529 -2.6583 -4.14241 0
M  V30 835 N 73.905 1.17692 -1.04816 0
M  V30 836 C 74.815 2.25229 -0.65643 0
M  V30 837 C 75.831 1.71018 0.320761 0
M  V30 838 O 77.007 2.00649 0.173805 0
M  V30 839 C 74.072 3.46684 -0.0332629 0
M  V30 840 C 73.133 4.15997 -1.06042 0
M  V30 841 C 72.366 5.31654 -0.466893 0
M  V30 842 O 72.589 5.65777 0.724758 0
M  V30 843 O 71.523 5.89831 -1.1993 0
M  V30 844 H 75.349 2.61016 -1.55255 0
M  V30 845 H 72.934 1.24919 -0.81949 0
M  V30 846 H 74.816 4.20234 0.313256 0
M  V30 847 H 73.491 3.12703 0.836566 0
M  V30 848 H 72.398 3.44482 -1.45886 0
M  V30 849 H 73.731 4.53996 -1.90127 0
M  V30 850 N 75.3831 0.828654 1.34056 0
M  V30 851 C 76.2931 0.256725 2.33191 0
M  V30 852 C 77.3091 -0.611898 1.62886 0
M  V30 853 O 78.4851 -0.51844 1.94613 0
M  V30 854 C 75.5501 -0.567238 3.42028 0
M  V30 855 C 74.6111 0.324458 4.28072 0
M  V30 856 C 73.8441 -0.460274 5.31712 0
M  V30 857 O 74.0671 -1.693 5.44696 0
M  V30 858 O 73.0011 0.160391 6.01686 0
M  V30 859 H 76.8271 1.07739 2.83947 0
M  V30 860 H 74.4121 0.59093 1.37217 0
M  V30 861 H 76.2941 -1.03582 4.08471 0
M  V30 862 H 74.9691 -1.36513 2.93506 0
M  V30 863 H 73.8761 0.840659 3.64532 0
M  V30 864 H 75.2091 1.08685 4.8005 0
M  V30 865 N 76.8612 -1.46375 0.584142 0
M  V30 866 C 78.1382 -1.956 0.0033388 0
M  V30 867 C 78.5182 -1.52679 -1.45782 0
M  V30 868 O 77.8662 -0.77816 -2.14842 0
M  V30 869 C 78.0762 -3.48551 0.176891 0
M  V30 870 C 79.4242 -4.24576 0.0454609 0
M  V30 871 O 80.4482 -3.56043 0.105801 0
M  V30 872 O 79.3072 -5.46427 -0.0890376 0
M  V30 873 H 76.4012 -0.825547 -0.0490066 0
M  V30 874 H 78.9472 -1.56652 0.65256 0
M  V30 875 H 77.7192 -3.72683 1.1926 0
M  V30 876 H 77.3422 -3.94332 -0.508695 0
M  V30 877 N 78.3393 -0.321999 -1.54275 0
M  V30 878 C 79.6163 0.335232 -1.92706 0
M  V30 879 C 79.9963 1.70006 -1.25145 0
M  V30 880 O 79.3443 2.25067 -0.394596 0
M  V30 881 C 79.5543 0.429008 -3.46353 0
M  V30 882 C 80.9023 0.690029 -4.18956 0
M  V30 883 O 81.9263 0.511992 -3.52501 0
M  V30 884 O 80.7853 1.03338 -5.36641 0
M  V30 885 H 77.8793 0.191143 -0.804608 0
M  V30 886 H 80.4253 -0.3716 -1.65581 0
M  V30 887 H 79.1973 -0.529611 -3.87699 0
M  V30 888 H 78.8203 1.18348 -3.79578 0
M  V30 889 N 79.8174 1.5752 -0.0501392 0
M  V30 890 C 81.0944 1.83996 0.663685 0
M  V30 891 C 81.4744 0.938339 1.89099 0
M  V30 892 O 80.8224 -0.00087759 2.285 0
M  V30 893 C 81.0324 3.33702 1.02196 0
M  V30 894 C 82.3804 4.00691 1.40469 0
M  V30 895 O 83.4044 3.38321 1.11433 0
M  V30 896 O 82.2634 5.10658 1.94654 0
M  V30 897 H 79.3574 0.759385 0.32751 0
M  V30 898 H 81.9034 1.69514 -0.0794238 0
M  V30 899 H 80.6754 3.91015 0.149364 0
M  V30 900 H 80.2984 3.53368 1.82255 0
M  V30 901 N 81.2955 -0.223234 1.56011 0
M  V30 902 C 82.5725 -0.972108 1.69733 0
M  V30 903 C 82.9525 -2.02485 0.59691 0
M  V30 904 O 82.3005 -2.25037 -0.396324 0
M  V30 905 C 82.5105 -1.58407 3.10979 0
M  V30 906 C 83.8585 -2.07696 3.70334 0
M  V30 907 O 84.8825 -1.68304 3.1393 0
M  V30 908 O 83.7415 -2.80096 4.69264 0
M  V30 909 H 80.8355 -0.453993 0.691245 0
M  V30 910 H 83.3815 -0.215149 1.68331 0
M  V30 911 H 82.1535 -0.823831 3.82529 0
M  V30 912 H 81.7765 -2.40661 3.16493 0
M  V30 913 N 82.7736 -1.49793 -0.48987 0
M  V30 914 C 84.0506 -1.50348 -1.25119 0
M  V30 915 C 84.4306 -0.237466 -2.0976 0
M  V30 916 O 83.7786 0.77981 -2.14782 0
M  V30 917 C 83.9886 -2.78872 -2.09837 0
M  V30 918 C 85.3366 -3.288 -2.68655 0
M  V30 919 O 86.3606 -2.80065 -2.20096 0
M  V30 920 O 85.2196 -4.13707 -3.57083 0
M  V30 921 H 82.3136 -0.602242 -0.566775 0
M  V30 922 H 84.8596 -1.62067 -0.503229 0
M  V30 923 H 83.6316 -3.62499 -1.47343 0
M  V30 924 H 83.2546 -2.70066 -2.91805 0
M  V30 925 N 84.2517 0.741722 -1.39055 0
M  V30 926 C 85.4987 1.50114 -1.35912 0
M  V30 927 C 85.8267 1.94443 0.0470937 0
M  V30 928 O 85.0817 1.66612 1.02659 0
M  V30 929 C 85.3807 2.7592 -2.27163 0
M  V30 930 C 85.0467 2.50493 -3.74919 0
M  V30 931 C 83.7087 2.43267 -4.1518 0
M  V30 932 C 86.0607 2.28585 -4.684 0
M  V30 933 C 83.3887 2.12166 -5.46994 0
M  V30 934 C 85.7407 1.99002 -6.00484 0
M  V30 935 C 84.4047 1.90241 -6.39816 0
M  V30 936 H 83.6747 0.549306 -0.497336 0
M  V30 937 H 86.3217 0.851896 -1.71508 0
M  V30 938 H 84.6267 3.45553 -1.84663 0
M  V30 939 H 86.3237 3.33923 -2.22028 0
M  V30 940 H 82.9137 2.56992 -3.43006 0
M  V30 941 H 87.0977 2.33139 -4.38132 0
M  V30 942 H 82.3537 2.03901 -5.76398 0
M  V30 943 H 86.5277 1.81057 -6.72452 0
M  V30 944 H 84.1547 1.65907 -7.41875 0
M  V30 945 N 85.7298 1.2412 0.971189 0
M  V30 946 C 87.1408 1.07236 1.52831 0
M  V30 947 C 87.4918 -0.357352 1.92918 0
M  V30 948 O 86.6168 -1.24528 1.76979 0
M  V30 949 C 87.2118 1.94043 2.77728 0
M  V30 950 C 85.7708 1.81394 3.29808 0
M  V30 951 C 84.9178 1.89189 2.02738 0
M  V30 952 H 87.8688 1.37648 0.789864 0
M  V30 953 H 87.8898 1.47066 3.5093 0
M  V30 954 H 87.4018 2.98093 2.4852 0
M  V30 955 H 85.5028 0.801634 3.63874 0
M  V30 956 H 85.6158 2.65294 3.98944 0
M  V30 957 H 83.9798 1.32877 2.17292 0
M  V30 958 H 84.7628 2.94812 1.759 0
M  V30 959 N 87.2079 -1.17134 1.05439 0
M  V30 960 C 88.1709 -2.19439 0.661764 0
M  V30 961 C 89.1709 -1.58199 -0.288042 0
M  V30 962 O 90.3609 -1.74053 -0.0715803 0
M  V30 963 C 87.4929 -3.40889 -0.0276209 0
M  V30 964 H 88.6859 -2.55688 1.56728 0
M  V30 965 H 86.2389 -1.31259 0.848567 0
M  V30 966 H 86.9739 -3.10187 -0.94629 0
M  V30 967 H 86.7589 -3.86586 0.655238 0
M  V30 968 H 88.2489 -4.16603 -0.288342 0
M  V30 969 N 88.686 -0.835752 -1.33615 0
M  V30 970 C 90.097 -0.487099 -1.80234 0
M  V30 971 C 90.448 0.993627 -1.69179 0
M  V30 972 O 89.573 1.77403 -1.23924 0
M  V30 973 C 90.168 -0.877385 -3.27242 0
M  V30 974 C 88.727 -0.580915 -3.7189 0
M  V30 975 C 87.874 -1.0874 -2.5509 0
M  V30 976 H 90.825 -1.02474 -1.2118 0
M  V30 977 H 90.846 -0.186195 -3.80044 0
M  V30 978 H 90.358 -1.95512 -3.35256 0
M  V30 979 H 88.459 0.486881 -3.69405 0
M  V30 980 H 88.572 -1.13396 -4.65487 0
M  V30 981 H 86.936 -0.508392 -2.49575 0
M  V30 982 H 87.719 -2.17184 -2.65868 0
M  V30 983 N 90.1641 1.46063 -0.591896 0
M  V30 984 C 91.3891 2.07226 -0.0850314 0
M  V30 985 C 91.8141 1.43625 1.21463 0
M  V30 986 O 91.1721 0.523305 1.73583 0
M  V30 987 C 91.2201 3.60554 0.0576567 0
M  V30 988 O 90.3241 3.97128 1.11188 0
M  V30 989 H 89.6651 0.660615 -0.0669568 0
M  V30 990 H 92.1951 1.8756 -0.81745 0
M  V30 991 H 92.2051 4.07165 0.2609 0
M  V30 992 H 90.8801 4.06235 -0.891416 0
M  V30 993 H 89.4571 3.62213 0.886356 0
M  V30 994 N 91.6422 0.330177 1.54103 0
M  V30 995 C 92.9192 -0.325007 1.92881 0
M  V30 996 C 93.2992 -1.6934 1.26045 0
M  V30 997 O 92.6472 -2.24855 0.406526 0
M  V30 998 C 92.8572 -0.410634 3.46576 0
M  V30 999 C 94.2052 -0.667801 4.19316 0
M  V30 1000 O 95.2292 -0.49329 3.52768 0
M  V30 1001 O 94.0882 -1.00491 5.37181 0
M  V30 1002 H 91.1822 -0.186873 0.80561 0
M  V30 1003 H 93.7282 0.380376 1.65382 0
M  V30 1004 H 92.5002 0.550164 3.87413 0
M  V30 1005 H 92.1232 -1.16333 3.802 0
M  V30 1006 N 93.1203 -1.57491 0.0584922 0
M  V30 1007 C 94.3683 -1.92597 -0.612436 0
M  V30 1008 C 94.6893 -0.938162 -1.70949 0
M  V30 1009 O 93.9593 0.0158301 -1.95894 0
M  V30 1010 H 92.5393 -0.710964 -0.229214 0
M  V30 1011 H 95.2013 -1.94571 0.113218 0
M  V30 1012 H 94.2973 -2.94038 -1.04633 0
M  V30 1013 N 94.5984 0.214957 -1.56127 0
M  V30 1014 C 95.8284 0.953707 -1.8327 0
M  V30 1015 C 96.2364 1.78181 -0.636262 0
M  V30 1016 O 95.5794 1.79191 0.404516 0
M  V30 1017 C 95.6414 1.91516 -3.0424 0
M  V30 1018 C 95.3054 1.27094 -4.38972 0
M  V30 1019 C 96.3024 0.657575 -5.15725 0
M  V30 1020 C 93.9874 1.28073 -4.85698 0
M  V30 1021 C 95.9814 0.0625968 -6.37369 0
M  V30 1022 C 93.6684 0.681914 -6.07283 0
M  V30 1023 C 94.6664 0.0739046 -6.8296 0
M  V30 1024 O 94.3544 -0.515582 -8.02245 0
M  V30 1025 H 94.0864 0.284764 -0.613095 0
M  V30 1026 H 96.6404 0.233283 -2.04071 0
M  V30 1027 H 94.8704 2.67475 -2.79274 0
M  V30 1028 H 96.5594 2.52001 -3.18198 0
M  V30 1029 H 97.3254 0.642288 -4.80728 0
M  V30 1030 H 93.2044 1.74337 -4.26764 0
M  V30 1031 H 96.7484 -0.412593 -6.96379 0
M  V30 1032 H 92.6454 0.694636 -6.41752 0
M  V30 1033 H 93.4134 -0.410544 -8.1747 0
M  V30 1034 N 96.0765 1.50051 0.48192 0
M  V30 1035 C 97.3065 1.63999 1.2565 0
M  V30 1036 C 97.7145 0.318288 1.86504 0
M  V30 1037 O 97.0575 -0.708534 1.69486 0
M  V30 1038 C 97.1195 2.66504 2.4128 0
M  V30 1039 C 96.7835 4.10352 2.01148 0
M  V30 1040 C 97.7805 4.96562 1.54021 0
M  V30 1041 C 95.4655 4.56203 2.10199 0
M  V30 1042 C 97.4595 6.26668 1.16473 0
M  V30 1043 C 95.1465 5.86318 1.72264 0
M  V30 1044 C 96.1445 6.71375 1.25477 0
M  V30 1045 O 95.8325 7.99062 0.880626 0
M  V30 1046 H 95.5645 0.55456 0.386574 0
M  V30 1047 H 98.1185 1.96954 0.582944 0
M  V30 1048 H 96.3485 2.28769 3.11772 0
M  V30 1049 H 98.0375 2.69783 3.03268 0
M  V30 1050 H 98.8035 4.62358 1.46458 0
M  V30 1051 H 94.6825 3.90152 2.45566 0
M  V30 1052 H 98.2265 6.93011 0.798841 0
M  V30 1053 H 94.1235 6.20046 1.79482 0
M  V30 1054 H 94.8915 8.12239 1.01043 0
M  V30 1055 N 97.5546 -0.734337 1.39446 0
M  V30 1056 C 98.9706 -1.03997 1.21065 0
M  V30 1057 C 99.1706 -2.01369 0.0727019 0
M  V30 1058 O 98.2266 -2.45856 -0.575426 0
M  V30 1059 C 99.5396 -1.60163 2.54496 0
M  V30 1060 C 101.088 -1.7224 2.61347 0
M  V30 1061 C 101.563 -2.31814 3.95002 0
M  V30 1062 N 103.054 -2.39223 3.96644 0
M  V30 1063 C 103.789 -2.86258 4.96834 0
M  V30 1064 N 103.285 -3.33184 6.07421 0
M  V30 1065 N 105.078 -2.85473 4.84213 0
M  V30 1066 H 97.2286 -0.0885624 2.12215 0
M  V30 1067 H 99.4916 -0.10191 0.942506 0
M  V30 1068 H 99.1976 -0.960811 3.38321 0
M  V30 1069 H 99.0716 -2.5896 2.74262 0
M  V30 1070 H 101.459 -2.35443 1.77906 0
M  V30 1071 H 101.54 -0.720939 2.4543 0
M  V30 1072 H 101.184 -1.69238 4.78875 0
M  V30 1073 H 101.114 -3.32638 4.08239 0
M  V30 1074 H 103.605 -2.06057 3.16779 0
M  V30 1075 H 103.918 -3.67586 6.7978 0
M  V30 1076 H 102.263 -3.31191 6.11013 0
M  V30 1077 H 105.454 -2.48136 3.96921 0
M  V30 1078 H 105.627 -3.21814 5.62441 0
M  V30 1079 N 99.0327 -1.24633 -0.964593 0
M  V30 1080 C 100.281 -1.08573 -1.70459 0
M  V30 1081 C 100.602 0.375655 -1.91347 0
M  V30 1082 O 99.8717 1.26779 -1.49345 0
M  V30 1083 H 98.4517 -0.398784 -0.631649 0
M  V30 1084 H 101.114 -1.56601 -1.16026 0
M  V30 1085 H 100.21 -1.58623 -2.68785 0
M  V30 1086 N 100.511 1.16574 -1.06058 0
M  V30 1087 C 101.421 2.2452 -0.680282 0
M  V30 1088 C 102.437 1.71348 0.302604 0
M  V30 1089 O 103.613 2.00822 0.152513 0
M  V30 1090 C 100.678 3.46629 -0.0700315 0
M  V30 1091 C 99.7388 4.14849 -1.10448 0
M  V30 1092 C 98.9718 5.31129 -0.523256 0
M  V30 1093 O 99.1948 5.66514 0.664709 0
M  V30 1094 O 98.1288 5.88526 -1.26179 0
M  V30 1095 H 101.955 2.59355 -1.58015 0
M  V30 1096 H 99.5398 1.24043 -0.832694 0
M  V30 1097 H 101.422 4.20543 0.268667 0
M  V30 1098 H 100.097 3.13573 0.803353 0
M  V30 1099 H 99.0038 3.42916 -1.49532 0
M  V30 1100 H 100.337 4.51954 -1.94931 0
M  V30 1101 N 101.989 0.842826 1.3317 0
M  V30 1102 C 103.237 0.439577 1.97262 0
M  V30 1103 C 103.558 -1.00548 1.67078 0
M  V30 1104 O 102.828 -1.70098 0.971779 0
M  V30 1105 H 101.408 0.159558 0.72976 0
M  V30 1106 H 104.07 1.07665 1.62463 0
M  V30 1107 H 103.166 0.574886 3.0676 0
M  V30 1108 N 103.467 -1.45747 0.599634 0
M  V30 1109 C 104.695 -2.06668 0.0978551 0
M  V30 1110 C 105.11 -1.44562 -1.21439 0
M  V30 1111 O 104.467 -0.556923 -1.73795 0
M  V30 1112 C 104.518 -3.61456 -0.0567044 0
M  V30 1113 O 104.239 -4.21242 1.20361 0
M  V30 1114 C 105.74 -4.39345 -0.590869 0
M  V30 1115 H 102.96 -0.667825 0.0651943 0
M  V30 1116 H 105.504 -1.87115 0.82511 0
M  V30 1117 H 103.659 -3.80378 -0.734251 0
M  V30 1118 H 104.073 -5.14323 1.02821 0
M  V30 1119 H 105.547 -5.48182 -0.648131 0
M  V30 1120 H 106.024 -4.08568 -1.61147 0
M  V30 1121 H 106.63 -4.25268 0.0523679 0
M  V30 1122 N 104.945 -0.338344 -1.53925 0
M  V30 1123 C 105.877 0.555117 -2.22376 0
M  V30 1124 C 106.89 1.06812 -1.22862 0
M  V30 1125 O 108.079 0.979163 -1.49247 0
M  V30 1126 C 105.179 1.77609 -2.88631 0
M  V30 1127 C 104.352 1.39927 -4.14414 0
M  V30 1128 C 103.411 2.47936 -4.64127 0
M  V30 1129 O 102.437 2.11461 -5.28463 0
M  V30 1130 N 103.639 3.79107 -4.39612 0
M  V30 1131 H 106.404 -0.0310778 -2.99684 0
M  V30 1132 H 103.965 -0.162226 -1.61085 0
M  V30 1133 H 105.957 2.49287 -3.18807 0
M  V30 1134 H 104.527 2.26978 -2.14941 0
M  V30 1135 H 103.747 0.513481 -3.90841 0
M  V30 1136 H 105.035 1.12341 -4.96243 0
M  V30 1137 H 104.433 4.11531 -3.88148 0
M  V30 1138 H 102.99 4.4697 -4.74406 0
M  V30 1139 N 106.423 1.57458 -0.0668435 0
M  V30 1140 C 107.7 1.8469 0.644132 0
M  V30 1141 C 108.08 0.958343 1.88093 0
M  V30 1142 O 107.428 0.0233579 2.28488 0
M  V30 1143 C 107.638 3.34767 0.986509 0
M  V30 1144 C 108.986 4.02159 1.36212 0
M  V30 1145 O 110.01 3.39484 1.07839 0
M  V30 1146 O 108.869 5.12694 1.89227 0
M  V30 1147 H 105.963 0.762816 0.319437 0
M  V30 1148 H 108.509 1.6942 -0.0973986 0
M  V30 1149 H 107.281 3.91151 0.107883 0
M  V30 1150 H 106.904 3.55281 1.78497 0
M  V30 1151 N 107.901 -0.206675 1.56239 0
M  V30 1152 C 108.811 -1.27686 1.96808 0
M  V30 1153 C 109.827 -1.50455 0.874035 0
M  V30 1154 O 111.003 -1.63295 1.17884 0
M  V30 1155 C 108.068 -2.60358 2.28942 0
M  V30 1156 C 107.129 -2.45762 3.51994 0
M  V30 1157 C 106.362 -3.72108 3.82585 0
M  V30 1158 O 106.585 -4.75776 3.14631 0
M  V30 1159 O 105.519 -3.6833 4.76043 0
M  V30 1160 H 109.345 -0.962593 2.88041 0
M  V30 1161 H 106.93 -0.410746 1.43643 0
M  V30 1162 H 108.812 -3.38687 2.50737 0
M  V30 1163 H 107.487 -2.91435 1.4088 0
M  V30 1164 H 106.394 -1.65584 3.35459 0
M  V30 1165 H 107.727 -2.19621 4.40486 0
M  V30 1166 N 109.379 -1.50304 -0.473955 0
M  V30 1167 C 110.289 -1.7174 -1.5982 0
M  V30 1168 C 111.305 -0.600457 -1.63311 0
M  V30 1169 O 112.481 -0.878441 -1.81233 0
M  V30 1170 C 109.546 -1.80427 -2.96052 0
M  V30 1171 C 108.607 -3.04148 -3.02972 0
M  V30 1172 C 107.84 -3.12411 -4.32706 0
M  V30 1173 O 108.063 -2.27542 -5.23049 0
M  V30 1174 O 106.997 -4.05113 -4.45159 0
M  V30 1175 H 110.823 -2.67035 -1.44657 0
M  V30 1176 H 108.408 -1.34366 -0.653148 0
M  V30 1177 H 110.29 -1.88338 -3.7697 0
M  V30 1178 H 108.965 -0.883156 -3.11419 0
M  V30 1179 H 107.872 -3.0174 -2.21142 0
M  V30 1180 H 109.205 -3.95829 -2.92541 0
M  V30 1181 N 110.857 0.726932 -1.39834 0
M  V30 1182 C 111.767 1.87131 -1.41489 0
M  V30 1183 C 112.783 1.71239 -0.308757 0
M  V30 1184 O 113.959 1.93701 -0.551529 0
M  V30 1185 C 111.024 3.22811 -1.26468 0
M  V30 1186 C 110.085 3.51039 -2.47124 0
M  V30 1187 C 109.318 4.80245 -2.3281 0
M  V30 1188 O 109.541 5.54537 -1.33585 0
M  V30 1189 O 108.475 5.08554 -3.21957 0
M  V30 1190 H 112.301 1.8869 -2.3797 0
M  V30 1191 H 109.886 0.875837 -1.21035 0
M  V30 1192 H 111.768 4.03877 -1.20255 0
M  V30 1193 H 110.443 3.22005 -0.330862 0
M  V30 1194 H 109.35 2.70027 -2.58914 0
M  V30 1195 H 110.683 3.56632 -3.39227 0
M  V30 1196 N 112.336 1.25143 0.95797 0
M  V30 1197 C 113.584 1.09476 1.69881 0
M  V30 1198 C 113.905 -0.365502 1.91544 0
M  V30 1199 O 113.175 -1.25985 1.50015 0
M  V30 1200 H 111.755 0.402128 0.629525 0
M  V30 1201 H 114.417 1.57214 1.15194 0
M  V30 1202 H 113.513 1.60046 2.6794 0
M  V30 1203 N 113.814 -1.1601 1.06675 0
M  V30 1204 C 115.062 -1.86264 0.784229 0
M  V30 1205 C 115.383 -1.82328 -0.691488 0
M  V30 1206 O 114.653 -1.25947 -1.50047 0
M  V30 1207 H 113.233 -0.689621 0.28711 0
M  V30 1208 H 115.895 -1.40664 1.34906 0
M  V30 1209 H 114.991 -2.91595 1.11259 0
M  V30 1210 N 115.292 -0.849877 -1.32721 0
M  V30 1211 C 116.255 -0.296122 -2.27279 0
M  V30 1212 C 117.255 0.541458 -1.5141 0
M  V30 1213 O 118.445 0.353658 -1.70572 0
M  V30 1214 C 115.577 0.581579 -3.35902 0
M  V30 1215 H 116.77 -1.13064 -2.77771 0
M  V30 1216 H 114.323 -0.62383 -1.43311 0
M  V30 1217 H 115.058 1.43809 -2.9067 0
M  V30 1218 H 114.843 -0.0178814 -3.92096 0
M  V30 1219 H 116.333 0.961951 -4.0637 0
M  V30 1220 N 116.77 1.45427 -0.607355 0
M  V30 1221 C 117.995 2.07124 -0.107006 0
M  V30 1222 C 118.42 1.44906 1.19933 0
M  V30 1223 O 117.778 0.541687 1.73019 0
M  V30 1224 C 117.826 3.60595 0.0194119 0
M  V30 1225 O 116.93 3.98285 1.0697 0
M  V30 1226 H 116.271 0.659868 -0.0739597 0
M  V30 1227 H 118.801 1.86683 -0.837297 0
M  V30 1228 H 118.811 4.07419 0.2177 0
M  V30 1229 H 117.486 4.05266 -0.934453 0
M  V30 1230 H 116.063 3.63133 0.847889 0
M  V30 1231 N 118.248 0.346503 1.53744 0
M  V30 1232 C 119.473 -0.253074 2.0585 0
M  V30 1233 C 119.898 -1.43202 1.21962 0
M  V30 1234 O 119.256 -1.79783 0.234073 0
M  V30 1235 C 119.304 -0.643193 3.54817 0
M  V30 1236 O 118.408 -1.74286 3.73762 0
M  V30 1237 H 117.749 -0.0413583 0.662711 0
M  V30 1238 H 120.279 0.501574 1.98357 0
M  V30 1239 H 120.289 -0.919526 3.97503 0
M  V30 1240 H 118.964 0.218966 4.15323 0
M  V30 1241 H 117.541 -1.46356 3.42979 0
M  V30 1242 N 119.726 -1.57421 0.075193 0
M  V30 1243 C 121.003 -1.85029 -0.634329 0
M  V30 1244 C 121.383 -0.968305 -1.87582 0
M  V30 1245 O 120.731 -0.0354749 -2.28472 0
M  V30 1246 C 120.941 -3.35286 -0.968742 0
M  V30 1247 C 122.289 -4.02875 -1.34077 0
M  V30 1248 O 123.313 -3.40051 -1.06037 0
M  V30 1249 O 122.172 -5.13691 -1.86506 0
M  V30 1250 H 119.266 -0.7645 -0.315387 0
M  V30 1251 H 121.812 -1.69366 0.106382 0
M  V30 1252 H 120.584 -3.91203 -0.0871376 0
M  V30 1253 H 120.207 -3.56223 -1.7661 0
M  V30 1254 N 121.204 0.198386 -1.56346 0
M  V30 1255 C 122.167 1.22952 -1.93431 0
M  V30 1256 C 123.167 1.38611 -0.815092 0
M  V30 1257 O 124.357 1.36479 -1.08255 0
M  V30 1258 C 121.489 2.59946 -2.20546 0
M  V30 1259 H 122.682 0.912626 -2.85677 0
M  V30 1260 H 120.235 0.43977 -1.49986 0
M  V30 1261 H 120.97 2.96696 -1.30927 0
M  V30 1262 H 120.755 2.49953 -3.02102 0
M  V30 1263 H 122.245 3.3431 -2.50253 0
M  V30 1264 N 122.682 1.50554 0.465978 0
M  V30 1265 C 123.91 1.65563 1.24083 0
M  V30 1266 C 124.325 0.341051 1.85694 0
M  V30 1267 O 123.682 -0.677543 1.69457 0
M  V30 1268 C 123.733 2.75051 2.34583 0
M  V30 1269 O 123.454 4.01413 1.75497 0
M  V30 1270 C 124.955 3.01078 3.25372 0
M  V30 1271 H 122.175 0.55638 0.375077 0
M  V30 1272 H 124.719 1.96807 0.555624 0
M  V30 1273 H 122.874 2.46486 2.9887 0
M  V30 1274 H 123.288 4.62002 2.48303 0
M  V30 1275 H 124.762 3.81339 3.99105 0
M  V30 1276 H 125.239 2.12349 3.84453 0
M  V30 1277 H 125.845 3.31194 2.66816 0
M  V30 1278 N 124.16 -0.719506 1.40217 0
M  V30 1279 C 125.07 -1.86378 1.42479 0
M  V30 1280 C 126.086 -1.71073 0.317834 0
M  V30 1281 O 127.262 -1.93406 0.561794 0
M  V30 1282 C 124.327 -3.22136 1.28178 0
M  V30 1283 C 123.388 -3.49723 2.48982 0
M  V30 1284 C 122.621 -4.79004 2.35353 0
M  V30 1285 O 122.844 -5.53821 1.36524 0
M  V30 1286 O 121.778 -5.06839 3.2465 0
M  V30 1287 H 125.604 -1.87425 2.38968 0
M  V30 1288 H 123.189 -0.869405 1.21498 0
M  V30 1289 H 125.071 -4.03234 1.22395 0
M  V30 1290 H 123.746 -3.21825 0.347934 0
M  V30 1291 H 122.653 -2.6865 2.60342 0
M  V30 1292 H 123.986 -3.54828 3.41113 0
M  V30 1293 N 125.638 -1.25649 -0.95132 0
M  V30 1294 C 126.886 -1.10375 -1.69298 0
M  V30 1295 C 127.207 0.355339 -1.91735 0
M  V30 1296 O 126.477 1.25188 -1.50681 0
M  V30 1297 H 125.057 -0.405461 -0.627384 0
M  V30 1298 H 127.719 -1.57823 -1.14358 0
M  V30 1299 H 126.815 -1.61465 -2.67087 0
M  V30 1300 N 127.117 1.15442 -1.07289 0
M  V30 1301 C 128.067 2.18164 -0.662467 0
M  V30 1302 C 129.051 1.57845 0.312074 0
M  V30 1303 O 130.243 1.76552 0.125905 0
M  V30 1304 C 127.372 3.43246 -0.0611295 0
M  V30 1305 C 126.458 4.1062 -1.06077 0
M  V30 1306 N 126.849 4.53491 -2.24008 0
M  V30 1307 C 125.147 4.36949 -0.893964 0
M  V30 1308 C 125.848 5.05731 -2.87422 0
M  V30 1309 N 124.824 4.99236 -2.15091 0
M  V30 1310 H 128.626 2.49038 -1.56068 0
M  V30 1311 H 126.14 1.32003 -0.945988 0
M  V30 1312 H 128.137 4.16145 0.250792 0
M  V30 1313 H 126.797 3.13854 0.832207 0
M  V30 1314 H 127.808 4.46898 -2.6173 0
M  V30 1315 H 124.485 4.17466 -0.0534693 0
M  V30 1316 H 125.875 5.48865 -3.87553 0
M  V30 1317 N 128.595 0.856903 1.32268 0
M  V30 1318 C 129.872 0.382583 1.91822 0
M  V30 1319 C 130.252 -1.13407 1.78051 0
M  V30 1320 O 129.6 -1.95673 1.18001 0
M  V30 1321 C 129.81 0.849446 3.38505 0
M  V30 1322 C 131.158 0.867936 4.15634 0
M  V30 1323 O 132.182 0.794232 3.47232 0
M  V30 1324 O 131.041 0.972286 5.37781 0
M  V30 1325 H 128.135 0.112014 0.819379 0
M  V30 1326 H 130.681 0.943952 1.41024 0
M  V30 1327 H 129.453 1.89267 3.42482 0
M  V30 1328 H 129.076 0.265652 3.96712 0
M  V30 1329 N 130.073 -1.45103 0.615059 0
M  V30 1330 C 130.983 -2.34382 -0.101034 0
M  V30 1331 C 131.999 -1.51681 -0.852585 0
M  V30 1332 O 133.175 -1.8446 -0.808484 0
M  V30 1333 C 130.24 -3.29417 -1.08099 0
M  V30 1334 C 129.301 -4.28025 -0.330577 0
M  V30 1335 C 128.534 -5.1852 -1.26385 0
M  V30 1336 O 128.757 -5.12598 -2.50198 0
M  V30 1337 O 127.691 -5.97122 -0.756866 0
M  V30 1338 H 131.517 -2.97033 0.632855 0
M  V30 1339 H 129.102 -1.4461 0.375293 0
M  V30 1340 H 130.984 -3.87958 -1.6452 0
M  V30 1341 H 129.659 -2.69321 -1.79577 0
M  V30 1342 H 128.566 -3.73078 0.276283 0
M  V30 1343 H 129.899 -4.90997 0.343866 0
M  V30 1344 N 131.551 -0.354651 -1.53558 0
M  V30 1345 C 132.828 0.294281 -1.93374 0
M  V30 1346 C 133.208 1.67313 -1.28723 0
M  V30 1347 O 132.556 2.24179 -0.442247 0
M  V30 1348 C 132.766 0.355445 -3.47185 0
M  V30 1349 C 134.114 0.601007 -4.20325 0
M  V30 1350 O 135.138 0.437106 -3.53508 0
M  V30 1351 O 133.997 0.919322 -5.38712 0
M  V30 1352 H 131.091 0.174033 -0.808481 0
M  V30 1353 H 133.637 -0.406638 -1.64756 0
M  V30 1354 H 132.409 -0.611729 -3.86489 0
M  V30 1355 H 132.032 1.1027 -3.82003 0
M  V30 1356 N 133.029 1.57378 -0.0835403 0
M  V30 1357 C 134.306 1.85363 0.624507 0
M  V30 1358 C 134.686 0.978239 1.87066 0
M  V30 1359 O 134.034 0.0475908 2.2845 0
M  V30 1360 C 134.244 3.35795 0.950947 0
M  V30 1361 C 135.592 4.03581 1.31939 0
M  V30 1362 O 136.616 3.40609 1.04232 0
M  V30 1363 O 135.475 5.14672 1.83779 0
M  V30 1364 H 132.569 0.766162 0.311329 0
M  V30 1365 H 135.115 1.69307 -0.115362 0
M  V30 1366 H 133.887 3.91244 0.0663899 0
M  V30 1367 H 133.51 3.57154 1.74719 0
M  V30 1368 N 134.507 -0.190092 1.56449 0
M  V30 1369 C 135.417 -1.25591 1.98152 0
M  V30 1370 C 136.433 -1.49519 0.889944 0
M  V30 1371 O 137.609 -1.62036 1.19609 0
M  V30 1372 C 134.674 -2.57916 2.3169 0
M  V30 1373 C 133.735 -2.42015 3.5458 0
M  V30 1374 C 132.968 -3.6803 3.8651 0
M  V30 1375 O 133.191 -4.72413 3.1966 0
M  V30 1376 O 132.125 -3.6326 4.79923 0
M  V30 1377 H 135.951 -0.931988 2.89046 0
M  V30 1378 H 133.536 -0.395488 1.4407 0
M  V30 1379 H 135.418 -3.36008 2.54316 0
M  V30 1380 H 134.093 -2.89925 1.43963 0
M  V30 1381 H 133 -1.62017 3.37196 0
M  V30 1382 H 134.333 -2.14937 4.4279 0
M  V30 1383 N 135.985 -1.50799 -0.457987 0
M  V30 1384 C 137.234 -1.6168 -1.20593 0
M  V30 1385 C 137.547 -0.32888 -1.92815 0
M  V30 1386 O 138.753 -0.316773 -2.69646 0
M  V30 1387 C 137.209 -2.8545 -2.19195 0
M  V30 1388 C 136.817 -4.21168 -1.52715 0
M  V30 1389 C 138.561 -3.05681 -2.94549 0
M  V30 1390 C 136.468 -5.3611 -2.4968 0
M  V30 1391 H 135.398 -0.602134 -0.453818 0
M  V30 1392 H 138.049 -1.77245 -0.475031 0
M  V30 1393 H 136.431 -2.63472 -2.95632 0
M  V30 1394 H 137.605 -4.53449 -0.819775 0
M  V30 1395 H 135.92 -4.06648 -0.895922 0
M  V30 1396 H 138.517 -3.88727 -3.67145 0
M  V30 1397 H 138.86 -2.17929 -3.54701 0
M  V30 1398 H 139.393 -3.27901 -2.25223 0
M  V30 1399 H 136.132 -6.26057 -1.94249 0
M  V30 1400 H 135.652 -5.0823 -3.18532 0
M  V30 1401 H 137.331 -5.6722 -3.11241 0
M  V30 1402 N 137.463 0.71206 -1.40597 0
M  V30 1403 C 138.693 1.49894 -1.42181 0
M  V30 1404 C 139.101 1.89189 -0.0208078 0
M  V30 1405 O 138.444 1.56223 0.966436 0
M  V30 1406 C 138.506 2.80215 -2.25211 0
M  V30 1407 C 138.17 2.63221 -3.73582 0
M  V30 1408 C 139.167 2.30249 -4.66135 0
M  V30 1409 C 136.852 2.79376 -4.17438 0
M  V30 1410 C 138.846 2.13645 -6.00529 0
M  V30 1411 C 136.533 2.6239 -5.51901 0
M  V30 1412 C 137.531 2.29573 -6.43262 0
M  V30 1413 O 137.219 2.12719 -7.75246 0
M  V30 1414 H 136.951 0.469031 -0.486812 0
M  V30 1415 H 139.505 0.88564 -1.85326 0
M  V30 1416 H 137.735 3.4389 -1.76852 0
M  V30 1417 H 139.424 3.41947 -2.18694 0
M  V30 1418 H 140.19 2.17398 -4.33547 0
M  V30 1419 H 136.069 3.03906 -3.46644 0
M  V30 1420 H 139.613 1.87953 -6.71803 0
M  V30 1421 H 135.51 2.74826 -5.84073 0
M  V30 1422 H 136.278 2.27611 -7.86216 0
M  V30 1423 N 138.941 1.26152 0.944643 0
M  V30 1424 C 139.851 1.09176 2.07648 0
M  V30 1425 C 140.867 0.0261935 1.7398 0
M  V30 1426 O 142.043 0.229208 2.00091 0
M  V30 1427 C 139.108 0.722915 3.39079 0
M  V30 1428 C 138.169 1.86752 3.86552 0
M  V30 1429 C 137.402 1.51617 5.11711 0
M  V30 1430 O 137.625 0.416331 5.68879 0
M  V30 1431 O 136.559 2.34975 5.54139 0
M  V30 1432 H 140.385 2.0412 2.24875 0
M  V30 1433 H 137.97 1.05182 1.061 0
M  V30 1434 H 139.852 0.529787 4.18056 0
M  V30 1435 H 138.527 -0.197159 3.23099 0
M  V30 1436 H 137.434 2.11558 3.08535 0
M  V30 1437 H 138.767 2.76719 4.07047 0
M  V30 1438 N 140.419 -1.14872 1.07899 0
M  V30 1439 C 141.667 -1.85422 0.803941 0
M  V30 1440 C 141.988 -1.83051 -0.67211 0
M  V30 1441 O 141.258 -1.27532 -1.48703 0
M  V30 1442 H 139.838 -0.686537 0.294408 0
M  V30 1443 H 142.5 -1.39226 1.3639 0
M  V30 1444 H 141.596 -2.90399 1.14346 0
M  V30 1445 N 141.898 -0.863906 -1.31812 0
M  V30 1446 C 142.808 -0.318461 -2.32428 0
M  V30 1447 C 143.824 0.568496 -1.64451 0
M  V30 1448 O 145 0.46666 -1.95919 0
M  V30 1449 C 142.065 0.476355 -3.43412 0
M  V30 1450 C 141.126 -0.43784 -4.27061 0
M  V30 1451 C 140.359 0.319138 -5.32745 0
M  V30 1452 O 140.582 1.54799 -5.48993 0
M  V30 1453 O 139.516 -0.319861 -6.01049 0
M  V30 1454 H 143.342 -1.15229 -2.80991 0
M  V30 1455 H 140.927 -0.627103 -1.35602 0
M  V30 1456 H 142.809 0.927156 -4.11074 0
M  V30 1457 H 141.484 1.28683 -2.97022 0
M  V30 1458 H 140.391 -0.937013 -3.62175 0
M  V30 1459 H 141.724 -1.21375 -4.77 0
M  V30 1460 N 143.376 1.44774 -0.622745 0
M  V30 1461 C 144.606 2.06187 -0.130532 0
M  V30 1462 C 145.014 1.46547 1.19669 0
M  V30 1463 O 144.357 0.579636 1.74316 0
M  V30 1464 C 144.419 3.59437 0.0674983 0
M  V30 1465 C 144.083 4.41496 -1.18026 0
M  V30 1466 C 145.08 4.75512 -2.102 0
M  V30 1467 C 142.765 4.82007 -1.41333 0
M  V30 1468 C 144.759 5.48912 -3.23998 0
M  V30 1469 C 142.446 5.55157 -2.55429 0
M  V30 1470 C 143.444 5.88528 -3.46589 0
M  V30 1471 O 143.132 6.60191 -4.58697 0
M  V30 1472 H 142.864 0.672045 -0.0730162 0
M  V30 1473 H 145.418 1.86768 -0.854802 0
M  V30 1474 H 143.648 3.77314 0.846825 0
M  V30 1475 H 145.337 4.02642 0.513209 0
M  V30 1476 H 146.103 4.4476 -1.93425 0
M  V30 1477 H 141.982 4.55457 -0.712709 0
M  V30 1478 H 145.526 5.74877 -3.95174 0
M  V30 1479 H 141.423 5.85324 -2.72151 0
M  V30 1480 H 142.191 6.78654 -4.57571 0
M  V30 1481 N 144.854 0.36279 1.53368 0
M  V30 1482 C 145.786 -0.519668 2.23231 0
M  V30 1483 C 146.799 -1.04844 1.24546 0
M  V30 1484 O 147.988 -0.955296 1.50786 0
M  V30 1485 C 145.088 -1.72995 2.9142 0
M  V30 1486 C 144.261 -1.33316 4.16588 0
M  V30 1487 C 143.32 -2.40521 4.68013 0
M  V30 1488 O 142.346 -2.03027 5.3176 0
M  V30 1489 N 143.548 -3.72065 4.45587 0
M  V30 1490 H 146.313 0.078751 2.99597 0
M  V30 1491 H 143.874 0.187833 1.60807 0
M  V30 1492 H 145.866 -2.44184 3.22733 0
M  V30 1493 H 144.436 -2.2353 2.18525 0
M  V30 1494 H 143.656 -0.451236 3.91609 0
M  V30 1495 H 144.944 -1.04432 4.97967 0
M  V30 1496 H 144.342 -4.05304 3.94646 0
M  V30 1497 H 142.899 -4.39366 4.81457 0
M  V30 1498 N 146.332 -1.57332 0.0918853 0
M  V30 1499 C 147.58 -1.93853 -0.571446 0
M  V30 1500 C 147.901 -0.974212 -1.6892 0
M  V30 1501 O 147.171 -0.0257254 -1.95883 0
M  V30 1502 H 145.751 -0.715666 -0.214082 0
M  V30 1503 H 148.413 -1.94287 0.154464 0
M  V30 1504 H 147.509 -2.96191 -0.983729 0
M  V30 1505 N 147.81 0.181792 -1.56548 0
M  V30 1506 C 149.059 0.898348 -1.8059 0
M  V30 1507 C 149.372 1.83862 -0.667379 0
M  V30 1508 O 150.578 2.59678 -0.792446 0
M  V30 1509 C 149.034 1.64791 -3.19956 0
M  V30 1510 C 148.642 0.751789 -4.41647 0
M  V30 1511 C 150.386 2.35331 -3.53298 0
M  V30 1512 C 148.293 1.50098 -5.72035 0
M  V30 1513 H 147.223 0.339194 -0.673397 0
M  V30 1514 H 149.874 0.151413 -1.82874 0
M  V30 1515 H 148.256 2.43921 -3.11959 0
M  V30 1516 H 149.43 -0.0018076 -4.608 0
M  V30 1517 H 147.745 0.156562 -4.16106 0
M  V30 1518 H 150.342 2.91958 -4.47956 0
M  V30 1519 H 150.685 3.10164 -2.77676 0
M  V30 1520 H 151.218 1.63154 -3.62803 0
M  V30 1521 H 147.957 0.795175 -6.50659 0
M  V30 1522 H 147.477 2.22817 -5.56878 0
M  V30 1523 H 149.156 2.05125 -6.13622 0
M  V30 1524 N 149.288 1.51039 0.449983 0
M  V30 1525 C 150.699 1.557 1.03026 0
M  V30 1526 C 151.05 0.372939 1.92623 0
M  V30 1527 O 150.175 -0.511771 2.10261 0
M  V30 1528 C 150.77 2.82171 1.87523 0
M  V30 1529 C 149.329 2.89444 2.40622 0
M  V30 1530 C 148.476 2.50228 1.19504 0
M  V30 1531 H 151.427 1.56999 0.231745 0
M  V30 1532 H 151.448 2.65219 2.72835 0
M  V30 1533 H 150.96 3.68331 1.22286 0
M  V30 1534 H 149.061 2.07685 3.0935 0
M  V30 1535 H 149.174 3.92816 2.74285 0
M  V30 1536 H 147.538 2.03139 1.53644 0
M  V30 1537 H 148.321 3.38719 0.558972 0
M  V30 1538 N 150.766 -0.704594 1.40972 0
M  V30 1539 C 152.182 -1.01406 1.23244 0
M  V30 1540 C 152.382 -2.01169 0.115399 0
M  V30 1541 O 151.438 -2.47021 -0.523147 0
M  V30 1542 C 152.751 -1.54728 2.57836 0
M  V30 1543 C 154.299 -1.66658 2.64942 0
M  V30 1544 C 154.774 -2.23383 3.9983 0
M  V30 1545 N 156.265 -2.30756 4.01629 0
M  V30 1546 C 157 -2.75655 5.02794 0
M  V30 1547 N 156.496 -3.20225 6.14352 0
M  V30 1548 N 158.289 -2.75138 4.90159 0
M  V30 1549 H 150.44 -0.0435285 2.12355 0
M  V30 1550 H 152.703 -0.0818951 0.944456 0
M  V30 1551 H 152.409 -0.888832 3.40283 0
M  V30 1552 H 152.283 -2.53084 2.79693 0
M  V30 1553 H 154.67 -2.31617 1.8286 0
M  V30 1554 H 154.751 -0.668717 2.46904 0
M  V30 1555 H 154.395 -1.59043 4.82357 0
M  V30 1556 H 154.325 -3.23904 4.15203 0
M  V30 1557 H 156.816 -1.99291 3.21079 0
M  V30 1558 H 157.129 -3.53084 6.87424 0
M  V30 1559 H 155.474 -3.18156 6.17901 0
M  V30 1560 H 158.665 -2.39661 4.02095 0
M  V30 1561 H 158.838 -3.09812 5.6914 0
M  V30 1562 N 152.244 -1.26651 -0.937939 0
M  V30 1563 C 153.207 -1.08546 -2.01867 0
M  V30 1564 C 154.207 -0.0327327 -1.60767 0
M  V30 1565 O 155.397 -0.276427 -1.71993 0
M  V30 1566 C 152.529 -0.651711 -3.34613 0
M  V30 1567 H 153.722 -2.04502 -2.1936 0
M  V30 1568 H 151.275 -1.09294 -1.11734 0
M  V30 1569 H 152.01 0.309696 -3.22818 0
M  V30 1570 H 151.795 -1.41189 -3.65798 0
M  V30 1571 H 153.285 -0.546973 -4.14002 0
M  V30 1572 N 153.722 1.14298 -1.08507 0
M  V30 1573 C 154.632 2.23027 -0.727753 0
M  V30 1574 C 155.648 1.71952 0.26619 0
M  V30 1575 O 156.824 2.011 0.109882 0
M  V30 1576 C 153.889 3.46403 -0.143541 0
M  V30 1577 C 152.95 4.12413 -1.19223 0
M  V30 1578 C 152.183 5.29899 -0.635798 0
M  V30 1579 O 152.406 5.67796 0.544393 0
M  V30 1580 O 151.34 5.85717 -1.38634 0
M  V30 1581 H 155.166 2.55945 -1.63481 0
M  V30 1582 H 152.751 1.22248 -0.858817 0
M  V30 1583 H 154.633 4.21018 0.179404 0
M  V30 1584 H 153.308 3.15206 0.736659 0
M  V30 1585 H 152.215 3.39667 -1.56772 0
M  V30 1586 H 153.548 4.47718 -2.04474 0
M  V30 1587 N 155.201 0.870884 1.31352 0
M  V30 1588 C 156.426 0.495957 2.01383 0
M  V30 1589 C 156.851 -0.904324 1.64935 0
M  V30 1590 O 156.209 -1.59687 0.858466 0
M  V30 1591 C 156.257 0.661433 3.54482 0
M  V30 1592 O 155.361 -0.298851 4.11316 0
M  V30 1593 H 154.702 0.197158 0.634054 0
M  V30 1594 H 157.232 1.17455 1.67527 0
M  V30 1595 H 157.242 0.555072 4.04207 0
M  V30 1596 H 155.917 1.68246 3.8035 0
M  V30 1597 H 154.494 -0.147368 3.72609 0
M  V30 1598 N 156.679 -1.44442 0.630414 0
M  V30 1599 C 157.927 -2.01653 0.134351 0
M  V30 1600 C 158.248 -1.49836 -1.24796 0
M  V30 1601 O 157.518 -0.701684 -1.82902 0
M  V30 1602 H 156.098 -0.74554 0.0466769 0
M  V30 1603 H 158.76 -1.76952 0.816955 0
M  V30 1604 H 157.856 -3.11935 0.101498 0
M  V30 1605 N 158.157 -0.370918 -1.53173 0
M  V30 1606 C 159.405 0.216673 -2.00935 0
M  V30 1607 C 159.726 1.48845 -1.25977 0
M  V30 1608 O 158.996 1.92286 -0.374551 0
M  V30 1609 H 157.576 0.0830565 -0.742368 0
M  V30 1610 H 160.238 -0.49838 -1.8842 0
M  V30 1611 H 159.334 0.439893 -3.08984 0
M  V30 1612 N 159.635 1.57281 -0.100228 0
M  V30 1613 C 160.582 2.14305 0.856858 0
M  V30 1614 C 161.552 1.06296 1.27634 0
M  V30 1615 O 162.737 1.34109 1.35718 0
M  V30 1616 C 159.877 2.73184 2.10866 0
M  V30 1617 C 158.99 3.95442 1.73925 0
M  V30 1618 C 158.125 4.42468 2.93931 0
M  V30 1619 C 157.164 5.57303 2.5314 0
M  V30 1620 N 156.301 5.99158 3.65997 0
M  V30 1621 H 161.141 2.95772 0.363726 0
M  V30 1622 H 158.678 1.46139 0.167858 0
M  V30 1623 H 160.636 3.05442 2.84185 0
M  V30 1624 H 159.266 1.94437 2.57671 0
M  V30 1625 H 158.318 3.69464 0.905554 0
M  V30 1626 H 159.63 4.78769 1.39935 0
M  V30 1627 H 158.784 4.76537 3.75496 0
M  V30 1628 H 157.523 3.58052 3.31134 0
M  V30 1629 H 156.528 5.22857 1.70003 0
M  V30 1630 H 157.753 6.43471 2.17075 0
M  V30 1631 H 155.699 5.17687 4.02909 0
M  V30 1632 H 155.616 6.77295 3.35869 0
M  V30 1633 H 156.884 6.3786 4.48057 0
M  V30 1634 N 161.113 -0.173488 1.56642 0
M  V30 1635 C 162.361 -0.888706 1.81512 0
M  V30 1636 C 162.682 -1.82875 0.676872 0
M  V30 1637 O 161.952 -1.93536 -0.303414 0
M  V30 1638 H 160.532 -0.331164 0.669582 0
M  V30 1639 H 163.194 -0.173823 1.94123 0
M  V30 1640 H 162.29 -1.46691 2.75478 0
M  V30 1641 N 162.591 -1.51276 -0.441967 0
M  V30 1642 C 163.501 -1.75092 -1.56141 0
M  V30 1643 C 164.517 -0.634963 -1.62001 0
M  V30 1644 O 165.693 -0.916686 -1.79329 0
M  V30 1645 C 162.758 -1.86666 -2.92158 0
M  V30 1646 C 161.819 -3.10506 -2.96453 0
M  V30 1647 C 161.052 -3.21519 -4.25982 0
M  V30 1648 O 161.275 -2.38586 -5.18105 0
M  V30 1649 O 160.209 -4.14465 -4.36466 0
M  V30 1650 H 164.035 -2.70044 -1.38961 0
M  V30 1651 H 161.62 -1.35722 -0.624499 0
M  V30 1652 H 163.502 -1.96292 -3.72891 0
M  V30 1653 H 162.177 -0.949014 -3.09476 0
M  V30 1654 H 161.084 -3.06363 -2.14692 0
M  V30 1655 H 162.417 -4.01945 -2.84079 0
M  V30 1656 N 164.069 0.697108 -1.41344 0
M  V30 1657 C 165.485 1.00751 -1.2378 0
M  V30 1658 C 165.685 2.01105 -0.126066 0
M  V30 1659 O 164.741 2.47295 0.51004 0
M  V30 1660 C 166.054 1.53359 -2.58653 0
M  V30 1661 C 167.602 1.6525 -2.65822 0
M  V30 1662 C 168.077 2.2126 -4.01009 0
M  V30 1663 N 169.568 2.28622 -4.02847 0
M  V30 1664 C 170.303 2.72984 -5.04249 0
M  V30 1665 N 169.799 3.16962 -6.16041 0
M  V30 1666 N 171.592 2.72534 -4.91611 0
M  V30 1667 H 163.743 0.0322662 -2.12375 0
M  V30 1668 H 166.006 0.0768853 -0.944877 0
M  V30 1669 H 165.712 0.870773 -3.4075 0
M  V30 1670 H 165.586 2.51597 -2.81032 0
M  V30 1671 H 167.973 2.30644 -1.84086 0
M  V30 1672 H 168.054 0.655614 -2.47256 0
M  V30 1673 H 167.698 1.56482 -4.83193 0
M  V30 1674 H 167.628 3.21698 -4.16915 0
M  V30 1675 H 170.119 1.97585 -3.22131 0
M  V30 1676 H 170.432 3.49434 -6.89287 0
M  V30 1677 H 168.777 3.14875 -6.1958 0
M  V30 1678 H 171.968 2.37525 -4.0336 0
M  V30 1679 H 172.141 3.06789 -5.70775 0
M  V30 1680 N 165.547 1.27147 0.931209 0
M  V30 1681 C 166.48 1.0389 2.0318 0
M  V30 1682 C 167.458 -0.0395716 1.62552 0
M  V30 1683 O 168.642 0.104867 1.88208 0
M  V30 1684 C 165.769 0.575227 3.3378 0
M  V30 1685 C 164.815 1.64774 3.93385 0
M  V30 1686 S 165.648 3.23933 4.26413 0
M  V30 1687 C 166.804 2.79358 5.60098 0
M  V30 1688 H 167.037 1.97075 2.22596 0
M  V30 1689 H 164.57 1.10938 1.07387 0
M  V30 1690 H 166.528 0.314385 4.09294 0
M  V30 1691 H 165.189 -0.336505 3.12292 0
M  V30 1692 H 164.382 1.27454 4.87618 0
M  V30 1693 H 163.984 1.86048 3.24441 0
M  V30 1694 H 166.276 2.24443 6.39243 0
M  V30 1695 H 167.219 3.72322 6.02314 0
M  V30 1696 H 167.627 2.1861 5.20452 0
M  V30 1697 N 167.025 -1.13721 1.09112 0
M  V30 1698 C 167.988 -2.17222 0.731241 0
M  V30 1699 C 168.988 -1.59035 -0.237566 0
M  V30 1700 O 170.178 -1.74192 -0.0161704 0
M  V30 1701 C 167.31 -3.40804 0.0808443 0
M  V30 1702 H 168.503 -2.50573 1.64783 0
M  V30 1703 H 166.056 -1.28493 0.889897 0
M  V30 1704 H 166.791 -3.1304 -0.847127 0
M  V30 1705 H 166.576 -3.84306 0.777896 0
M  V30 1706 H 168.066 -4.1731 -0.155657 0
M  V30 1707 N 168.503 -0.877838 -1.30888 0
M  V30 1708 C 169.78 -0.413052 -1.91189 0
M  V30 1709 C 170.16 1.1056 -1.79832 0
M  V30 1710 O 169.508 1.93771 -1.21099 0
M  V30 1711 C 169.718 -0.903191 -3.3711 0
M  V30 1712 C 171.066 -0.93395 -4.14201 0
M  V30 1713 O 172.09 -0.849373 -3.45925 0
M  V30 1714 O 170.949 -1.05772 -5.36167 0
M  V30 1715 H 168.043 -0.125035 -0.817493 0
M  V30 1716 H 170.589 -0.966269 -1.39504 0
M  V30 1717 H 169.361 -1.94692 -3.39427 0
M  V30 1718 H 168.984 -0.328732 -3.96239 0
M  V30 1719 N 169.982 1.44106 -0.638065 0
M  V30 1720 C 171.23 2.01579 -0.145043 0
M  V30 1721 C 171.551 1.50496 1.24 0
M  V30 1722 O 170.821 0.711374 1.82527 0
M  V30 1723 H 169.401 0.745282 -0.05063 0
M  V30 1724 H 172.063 1.76516 -0.826327 0
M  V30 1725 H 171.159 3.11877 -0.118039 0
M  V30 1726 N 171.46 0.379036 1.52974 0
M  V30 1727 C 172.423 -0.448865 2.24762 0
M  V30 1728 C 173.423 -0.998689 1.26027 0
M  V30 1729 O 174.613 -0.882313 1.50203 0
M  V30 1730 C 171.745 -1.62872 2.99476 0
M  V30 1731 H 172.938 0.179491 2.99362 0
M  V30 1732 H 170.491 0.13096 1.5575 0
M  V30 1733 H 171.226 -2.29479 2.29151 0
M  V30 1734 H 171.011 -1.24128 3.71934 0
M  V30 1735 H 172.501 -2.2151 3.5401 0
M  V30 1736 N 172.938 -1.57226 0.108567 0
M  V30 1737 C 174.349 -1.8195 -0.418464 0
M  V30 1738 C 174.7 -1.02508 -1.67292 0
M  V30 1739 O 173.825 -0.258496 -2.14851 0
M  V30 1740 C 174.42 -3.30028 -0.765979 0
M  V30 1741 C 172.979 -3.55469 -1.23769 0
M  V30 1742 C 172.126 -2.7625 -0.241106 0
M  V30 1743 H 175.077 -1.55149 0.33384 0
M  V30 1744 H 175.098 -3.44086 -1.62434 0
M  V30 1745 H 174.61 -3.87821 0.147219 0
M  V30 1746 H 172.711 -3.03022 -2.16814 0
M  V30 1747 H 172.824 -4.6408 -1.19022 0
M  V30 1748 H 171.188 -2.44133 -0.72602 0
M  V30 1749 H 171.971 -3.36797 0.665007 0
M  V30 1750 N 174.416 0.165178 -1.56732 0
M  V30 1751 C 175.346 1.20651 -1.99914 0
M  V30 1752 C 176.327 1.45827 -0.875705 0
M  V30 1753 O 177.512 1.57057 -1.14223 0
M  V30 1754 C 174.642 2.54401 -2.36427 0
M  V30 1755 C 173.596 2.43782 -3.51787 0
M  V30 1756 C 172.922 3.82078 -3.7406 0
M  V30 1757 C 174.222 1.93732 -4.85041 0
M  V30 1758 H 175.916 0.847534 -2.87154 0
M  V30 1759 H 173.462 0.40625 -1.38151 0
M  V30 1760 H 175.415 3.27458 -2.65234 0
M  V30 1761 H 174.139 2.92098 -1.46103 0
M  V30 1762 H 172.798 1.73178 -3.23117 0
M  V30 1763 H 172.446 4.17179 -2.81017 0
M  V30 1764 H 172.146 3.7584 -4.51684 0
M  V30 1765 H 173.67 4.56712 -4.05274 0
M  V30 1766 H 175.084 2.56569 -5.12684 0
M  V30 1767 H 173.481 1.98428 -5.66345 0
M  V30 1768 H 174.551 0.891962 -4.76626 0
M  V30 1769 N 175.894 1.51508 0.433938 0
M  V30 1770 C 176.857 1.72473 1.50949 0
M  V30 1771 C 177.857 0.594725 1.49398 0
M  V30 1772 O 179.047 0.862315 1.5136 0
M  V30 1773 C 176.179 1.78431 2.90474 0
M  V30 1774 H 177.372 2.68467 1.33662 0
M  V30 1775 H 174.925 1.41549 0.662836 0
M  V30 1776 H 175.66 0.842645 3.13161 0
M  V30 1777 H 175.445 2.60558 2.93005 0
M  V30 1778 H 176.935 1.96479 3.68491 0
M  V30 1779 N 177.372 -0.689602 1.41712 0
M  V30 1780 C 178.62 -1.4468 1.4111 0
M  V30 1781 C 178.941 -1.94986 0.0232196 0
M  V30 1782 O 178.211 -1.72097 -0.935913 0
M  V30 1783 H 176.791 -0.536847 0.519427 0
M  V30 1784 H 179.453 -0.815825 1.77004 0
M  V30 1785 H 178.549 -2.30706 2.10193 0
M  V30 1786 N 178.85 -1.27639 -0.924453 0
M  V30 1787 C 180.096 -1.14336 -1.67497 0
M  V30 1788 C 180.429 0.309465 -1.91718 0
M  V30 1789 O 179.704 1.22608 -1.50989 0
M  V30 1790 C 179.987 -1.93096 -3.0395 0
M  V30 1791 C 179.84 -3.46381 -2.8695 0
M  V30 1792 C 181.159 -1.73798 -4.0433 0
M  V30 1793 H 178.278 -0.416728 -0.607871 0
M  V30 1794 H 180.92 -1.56832 -1.07256 0
M  V30 1795 H 179.07 -1.56982 -3.55372 0
M  V30 1796 H 180.742 -3.92343 -2.42621 0
M  V30 1797 H 178.985 -3.72557 -2.22225 0
M  V30 1798 H 179.656 -3.96735 -3.83804 0
M  V30 1799 H 182.132 -2.05293 -3.61931 0
M  V30 1800 H 181.008 -2.31294 -4.97789 0
M  V30 1801 H 181.269 -0.686725 -4.36734 0
M  V30 1802 N 180.328 1.1314 -1.09713 0
M  V30 1803 C 181.744 1.36477 -0.827423 0
M  V30 1804 C 181.944 1.93654 0.556817 0
M  V30 1805 O 181 2.15791 1.31112 0
M  V30 1806 C 182.313 2.31334 -1.92106 0
M  V30 1807 C 183.861 2.44943 -1.94864 0
M  V30 1808 C 184.336 3.4311 -3.0338 0
M  V30 1809 N 185.827 3.50662 -3.02639 0
M  V30 1810 C 186.562 4.2651 -3.83246 0
M  V30 1811 N 186.058 5.05485 -4.73768 0
M  V30 1812 N 187.851 4.2184 -3.71493 0
M  V30 1813 H 180.002 0.743807 -1.9895 0
M  V30 1814 H 182.265 0.389823 -0.864143 0
M  V30 1815 H 181.971 1.96483 -2.91698 0
M  V30 1816 H 181.845 3.31381 -1.80184 0
M  V30 1817 H 184.232 2.79079 -0.959099 0
M  V30 1818 H 184.313 1.4481 -2.10864 0
M  V30 1819 H 183.957 3.09704 -4.02549 0
M  V30 1820 H 183.887 4.43055 -2.84622 0
M  V30 1821 H 186.378 2.94315 -2.37039 0
M  V30 1822 H 186.691 5.60675 -5.3185 0
M  V30 1823 H 185.036 5.04708 -4.77802 0
M  V30 1824 H 188.227 3.5922 -3.00131 0
M  V30 1825 H 188.4 4.80697 -4.3455 0
M  V30 1826 N 181.806 0.884767 1.30421 0
M  V30 1827 C 183.054 0.502112 1.95763 0
M  V30 1828 C 183.375 -0.951815 1.70192 0
M  V30 1829 O 182.645 -1.6692 1.0254 0
M  V30 1830 H 181.225 0.182694 0.724315 0
M  V30 1831 H 183.887 1.1278 1.58955 0
M  V30 1832 H 182.983 0.672188 3.04775 0
M  V30 1833 N 183.284 -1.43765 0.645699 0
M  V30 1834 C 184.532 -2.01499 0.155731 0
M  V30 1835 C 184.853 -1.51151 -1.232 0
M  V30 1836 O 184.123 -0.721044 -1.82148 0
M  V30 1837 H 182.703 -0.745003 0.0545817 0
M  V30 1838 H 185.365 -1.76075 0.835677 0
M  V30 1839 H 184.461 -3.1181 0.134577 0
M  V30 1840 N 184.763 -0.387143 -1.52771 0
M  V30 1841 C 185.693 0.440551 -2.29306 0
M  V30 1842 C 186.674 1.06535 -1.32606 0
M  V30 1843 O 187.859 1.07853 -1.61497 0
M  V30 1844 C 184.989 1.56919 -3.09829 0
M  V30 1845 C 183.943 1.07054 -4.14395 0
M  V30 1846 C 183.269 2.29109 -4.83129 0
M  V30 1847 C 184.569 0.140015 -5.22112 0
M  V30 1848 H 186.263 -0.198026 -2.98744 0
M  V30 1849 H 183.809 -0.09668 -1.43675 0
M  V30 1850 H 185.762 2.15503 -3.62128 0
M  V30 1851 H 184.486 2.23532 -2.3812 0
M  V30 1852 H 183.145 0.507247 -3.63074 0
M  V30 1853 H 182.793 2.94227 -4.0797 0
M  V30 1854 H 182.493 1.96406 -5.53804 0
M  V30 1855 H 184.017 2.88339 -5.38231 0
M  V30 1856 H 185.431 0.633978 -5.69784 0
M  V30 1857 H 183.828 -0.0971485 -6.00021 0
M  V30 1858 H 184.898 -0.811711 -4.78058 0
M  V30 1859 N 186.241 1.57166 -0.116904 0
M  V30 1860 C 187.466 1.999 0.55271 0
M  V30 1861 C 187.891 0.996039 1.59564 0
M  V30 1862 O 187.249 -0.032556 1.81271 0
M  V30 1863 C 187.297 3.4152 1.15742 0
M  V30 1864 O 186.401 3.44106 2.27299 0
M  V30 1865 H 185.742 0.649447 0.138258 0
M  V30 1866 H 188.272 2.03573 -0.204759 0
M  V30 1867 H 188.282 3.79684 1.49346 0
M  V30 1868 H 186.957 4.14034 0.393493 0
M  V30 1869 H 185.534 3.17759 1.9515 0
M  V30 1870 N 187.719 -0.156864 1.56817 0
M  V30 1871 C 188.996 -0.899244 1.73704 0
M  V30 1872 C 189.376 -1.99771 0.682254 0
M  V30 1873 O 188.724 -2.26515 -0.300522 0
M  V30 1874 C 188.934 -1.45075 3.17418 0
M  V30 1875 C 190.282 -1.91802 3.7881 0
M  V30 1876 O 191.306 -1.54838 3.20786 0
M  V30 1877 O 190.165 -2.5994 4.80722 0
M  V30 1878 H 187.259 -0.424267 0.709878 0
M  V30 1879 H 189.805 -0.143561 1.69092 0
M  V30 1880 H 188.577 -0.660846 3.85679 0
M  V30 1881 H 188.2 -2.27021 3.26416 0
M  V30 1882 N 189.197 -1.51736 -0.425897 0
M  V30 1883 C 190.445 -1.64644 -1.17204 0
M  V30 1884 C 190.766 -0.370486 -1.91448 0
M  V30 1885 O 190.036 0.614088 -1.86026 0
M  V30 1886 H 188.616 -0.606819 -0.435638 0
M  V30 1887 H 191.278 -1.88713 -0.487177 0
M  V30 1888 H 190.374 -2.47958 -1.89534 0
M  V30 1889 N 190.675 0.682077 -1.42076 0
M  V30 1890 C 191.585 1.82535 -1.47371 0
M  V30 1891 C 192.601 1.7017 -0.363079 0
M  V30 1892 O 193.777 1.91848 -0.612875 0
M  V30 1893 C 190.842 3.18624 -1.36674 0
M  V30 1894 C 189.903 3.42999 -2.58167 0
M  V30 1895 C 189.136 4.72595 -2.4797 0
M  V30 1896 O 189.359 5.50006 -1.5116 0
M  V30 1897 O 188.293 4.98054 -3.37974 0
M  V30 1898 H 192.119 1.81023 -2.43853 0
M  V30 1899 H 189.704 0.836887 -1.2376 0
M  V30 1900 H 191.586 3.99847 -1.33043 0
M  V30 1901 H 190.261 3.20789 -0.433138 0
M  V30 1902 H 189.168 2.61653 -2.67373 0
M  V30 1903 H 190.501 3.45659 -3.50401 0
M  V30 1904 N 192.153 1.28127 0.917671 0
M  V30 1905 C 193.401 1.14825 1.66312 0
M  V30 1906 C 193.722 -0.304379 1.9261 0
M  V30 1907 O 192.992 -1.21149 1.53947 0
M  V30 1908 H 191.572 0.421953 0.616413 0
M  V30 1909 H 194.234 1.608 1.10134 0
M  V30 1910 H 193.33 1.68489 2.62712 0
M  V30 1911 N 193.631 -1.12557 1.10312 0
M  V30 1912 C 195.042 -1.65574 0.862678 0
M  V30 1913 C 195.393 -1.86566 -0.607256 0
M  V30 1914 O 194.518 -1.59121 -1.46662 0
M  V30 1915 C 195.113 -3.00776 1.55947 0
M  V30 1916 C 193.672 -3.50748 1.36576 0
M  V30 1917 C 192.819 -2.25797 1.60968 0
M  V30 1918 H 195.77 -0.963552 1.26101 0
M  V30 1919 H 195.791 -3.67185 0.997753 0
M  V30 1920 H 195.303 -2.85465 2.62928 0
M  V30 1921 H 193.404 -3.71245 0.317531 0
M  V30 1922 H 193.517 -4.30289 2.10686 0
M  V30 1923 H 191.881 -2.32841 1.03234 0
M  V30 1924 H 192.664 -2.13043 2.69198 0
M  V30 1925 N 195.109 -0.891671 -1.2995 0
M  V30 1926 C 196.52 -0.563104 -1.78006 0
M  V30 1927 C 196.871 0.920978 -1.73241 0
M  V30 1928 O 195.996 1.71987 -1.31337 0
M  V30 1929 C 196.591 -1.01539 -3.23226 0
M  V30 1930 C 195.15 -0.738124 -3.69092 0
M  V30 1931 C 194.297 -1.19461 -2.50249 0
M  V30 1932 H 197.248 -1.07522 -1.16725 0
M  V30 1933 H 197.269 -0.347217 -3.78912 0
M  V30 1934 H 196.781 -2.09555 -3.26662 0
M  V30 1935 H 194.882 0.329766 -3.71138 0
M  V30 1936 H 194.995 -1.33037 -4.60259 0
M  V30 1937 H 193.359 -0.613787 -2.47194 0
M  V30 1938 H 194.142 -2.28265 -2.56417 0
M  V30 1939 N 196.587 1.43421 -0.653314 0
M  V30 1940 C 197.835 2.01414 -0.166415 0
M  V30 1941 C 198.156 1.51803 1.22397 0
M  V30 1942 O 197.426 0.730693 1.81763 0
M  V30 1943 H 196.006 0.744703 -0.0585319 0
M  V30 1944 H 198.668 1.75629 -0.845003 0
M  V30 1945 H 197.764 3.11734 -0.151111 0
M  V30 1946 N 198.065 0.39524 1.52563 0
M  V30 1947 C 199.313 -0.184678 2.01254 0
M  V30 1948 C 199.634 -1.46822 1.28329 0
M  V30 1949 O 198.904 -1.91666 0.405094 0
M  V30 1950 H 197.484 -0.0712355 0.743596 0
M  V30 1951 H 200.146 0.528293 1.87603 0
M  V30 1952 H 199.242 -0.390681 3.09645 0
M  V30 1953 N 199.544 -1.57102 0.125237 0
M  V30 1954 C 200.96 -1.57915 -0.231322 0
M  V30 1955 C 201.16 -1.13833 -1.66266 0
M  V30 1956 O 200.216 -0.828581 -2.38518 0
M  V30 1957 C 201.529 -3.00699 0.00766489 0
M  V30 1958 C 203.077 -3.12947 -0.0577483 0
M  V30 1959 C 203.552 -4.57742 0.153626 0
M  V30 1960 N 205.043 -4.63092 0.0998073 0
M  V30 1961 C 205.778 -5.72905 0.238174 0
M  V30 1962 N 205.274 -6.91445 0.433057 0
M  V30 1963 N 207.067 -5.6182 0.177308 0
M  V30 1964 H 199.218 -1.84055 1.06007 0
M  V30 1965 H 201.481 -0.850905 0.417929 0
M  V30 1966 H 201.187 -3.3726 0.997431 0
M  V30 1967 H 201.061 -3.70236 -0.721452 0
M  V30 1968 H 203.448 -2.7624 -1.03804 0
M  V30 1969 H 203.529 -2.4594 0.70335 0
M  V30 1970 H 203.173 -4.95149 1.13092 0
M  V30 1971 H 203.103 -5.22848 -0.627534 0
M  V30 1972 H 205.594 -3.77871 -0.047051 0
M  V30 1973 H 205.907 -7.70985 0.529332 0
M  V30 1974 H 204.252 -6.93415 0.469109 0
M  V30 1975 H 207.443 -4.68093 0.0259748 0
M  V30 1976 H 207.616 -6.47357 0.288582 0
M  V30 1977 N 201.022 0.148545 -1.56898 0
M  V30 1978 C 202.27 0.859717 -1.82902 0
M  V30 1979 C 202.591 1.81775 -0.70588 0
M  V30 1980 O 201.861 1.93994 0.272586 0
M  V30 1981 H 200.441 0.320469 -0.674766 0
M  V30 1982 H 203.103 0.142918 -1.94375 0
M  V30 1983 H 202.199 1.4229 -2.77777 0
M  V30 1984 N 202.5 1.5196 0.417844 0
M  V30 1985 C 203.41 1.77554 1.53336 0
M  V30 1986 C 204.426 0.660655 1.6097 0
M  V30 1987 O 205.602 0.945099 1.77848 0
M  V30 1988 C 202.667 1.91291 2.89152 0
M  V30 1989 C 201.728 3.15183 2.91475 0
M  V30 1990 C 200.961 3.28256 4.20813 0
M  V30 1991 O 201.184 2.46798 5.14244 0
M  V30 1992 O 200.118 4.21356 4.29817 0
M  V30 1993 H 203.944 2.7222 1.34647 0
M  V30 1994 H 201.529 1.36698 0.602828 0
M  V30 1995 H 203.411 2.02199 3.69721 0
M  V30 1996 H 202.086 0.998129 3.07927 0
M  V30 1997 H 200.993 3.09739 2.09791 0
M  V30 1998 H 202.326 4.06414 2.77648 0
M  V30 1999 N 203.978 -0.674533 1.42435 0
M  V30 2000 C 204.941 -1.76986 1.45632 0
M  V30 2001 C 205.941 -1.5708 0.343871 0
M  V30 2002 O 207.131 -1.63367 0.604709 0
M  V30 2003 C 204.263 -3.15623 1.28822 0
M  V30 2004 H 205.456 -1.75539 2.43158 0
M  V30 2005 H 203.009 -0.884189 1.28887 0
M  V30 2006 H 203.744 -3.22696 0.322193 0
M  V30 2007 H 203.529 -3.31475 2.09444 0
M  V30 2008 H 205.019 -3.95537 1.33942 0
M  V30 2009 N 205.456 -1.28612 -0.910864 0
M  V30 2010 C 206.388 -1.08589 -2.01844 0
M  V30 2011 C 207.401 -0.0367419 -1.62759 0
M  V30 2012 O 208.59 -0.280101 -1.76289 0
M  V30 2013 C 205.69 -0.628626 -3.33019 0
M  V30 2014 C 204.863 -1.75382 -4.00699 0
M  V30 2015 C 203.922 -1.28945 -5.10156 0
M  V30 2016 O 202.948 -1.9922 -5.33198 0
M  V30 2017 N 204.15 -0.154224 -5.80295 0
M  V30 2018 H 206.915 -2.03973 -2.19579 0
M  V30 2019 H 204.476 -1.20403 -1.08234 0
M  V30 2020 H 206.468 -0.301508 -4.03575 0
M  V30 2021 H 205.038 0.232451 -3.11735 0
M  V30 2022 H 204.258 -2.25039 -3.23653 0
M  V30 2023 H 205.546 -2.50854 -4.42662 0
M  V30 2024 H 204.944 0.43194 -5.64049 0
M  V30 2025 H 203.501 0.113599 -6.51701 0
M  V30 2026 N 206.934 1.1197 -1.10907 0
M  V30 2027 C 208.35 1.35591 -0.841852 0
M  V30 2028 C 208.55 1.94233 0.536246 0
M  V30 2029 O 207.606 2.1717 1.28816 0
M  V30 2030 C 208.919 2.29284 -1.94549 0
M  V30 2031 C 210.467 2.42862 -1.97451 0
M  V30 2032 C 210.942 3.39873 -3.07002 0
M  V30 2033 N 212.433 3.47433 -3.06341 0
M  V30 2034 C 213.168 4.22421 -3.87748 0
M  V30 2035 N 212.664 5.00432 -4.79103 0
M  V30 2036 N 214.457 4.17876 -3.75946 0
M  V30 2037 H 206.608 0.722664 -1.99728 0
M  V30 2038 H 208.871 0.380635 -0.868229 0
M  V30 2039 H 208.577 1.93378 -2.93765 0
M  V30 2040 H 208.451 3.29452 -1.83688 0
M  V30 2041 H 210.838 2.78046 -0.988645 0
M  V30 2042 H 210.919 1.42566 -2.12388 0
M  V30 2043 H 210.563 3.05417 -4.05811 0
M  V30 2044 H 210.493 4.40011 -2.89306 0
M  V30 2045 H 212.984 2.91784 -2.40147 0
M  V30 2046 H 213.297 5.55002 -5.37766 0
M  V30 2047 H 211.642 4.99612 -4.83128 0
M  V30 2048 H 214.833 3.56016 -3.03924 0
M  V30 2049 H 215.006 4.76061 -4.39624 0
M  V30 2050 N 208.412 0.89855 1.29475 0
M  V30 2051 C 209.828 0.594483 1.48115 0
M  V30 2052 C 210.028 -0.86431 1.82022 0
M  V30 2053 O 209.084 -1.64457 1.91599 0
M  V30 2054 C 210.397 1.51932 2.59494 0
M  V30 2055 C 211.945 1.5244 2.7337 0
M  V30 2056 C 212.42 2.43548 3.87877 0
M  V30 2057 N 213.911 2.41589 3.95208 0
M  V30 2058 C 214.646 3.08789 4.83153 0
M  V30 2059 N 214.142 3.85265 5.75798 0
M  V30 2060 N 215.935 2.97952 4.76635 0
M  V30 2061 H 208.086 1.84207 1.05742 0
M  V30 2062 H 210.349 0.789251 0.525154 0
M  V30 2063 H 210.055 2.55865 2.41301 0
M  V30 2064 H 209.929 1.23899 3.56271 0
M  V30 2065 H 212.316 0.492518 2.90961 0
M  V30 2066 H 212.397 1.8451 1.77172 0
M  V30 2067 H 212.041 3.46829 3.71041 0
M  V30 2068 H 211.971 2.08788 4.83441 0
M  V30 2069 H 214.462 1.86025 3.28943 0
M  V30 2070 H 214.775 4.33598 6.39697 0
M  V30 2071 H 213.12 3.89371 5.75687 0
M  V30 2072 H 216.311 2.37723 4.03244 0
M  V30 2073 H 216.484 3.50599 5.44962 0
M  V30 2074 N 209.89 -1.43072 0.660911 0
M  V30 2075 C 210.837 -2.30785 -0.0259884 0
M  V30 2076 C 211.807 -1.45184 -0.806888 0
M  V30 2077 O 212.992 -1.74041 -0.781943 0
M  V30 2078 C 210.132 -3.30861 -0.981067 0
M  V30 2079 C 209.245 -4.31558 -0.195458 0
M  V30 2080 C 208.38 -5.18712 -1.14503 0
M  V30 2081 C 207.419 -6.11097 -0.350299 0
M  V30 2082 N 206.556 -6.90849 -1.25186 0
M  V30 2083 H 211.396 -2.88975 0.727846 0
M  V30 2084 H 208.933 -1.42353 0.370682 0
M  V30 2085 H 210.891 -3.87399 -1.54849 0
M  V30 2086 H 209.521 -2.74304 -1.70169 0
M  V30 2087 H 208.573 -3.77252 0.488374 0
M  V30 2088 H 209.885 -4.9701 0.422176 0
M  V30 2089 H 209.039 -5.79914 -1.78284 0
M  V30 2090 H 207.778 -4.53404 -1.79656 0
M  V30 2091 H 206.783 -5.48976 0.300808 0
M  V30 2092 H 208.008 -6.7845 0.296941 0
M  V30 2093 H 205.954 -6.28182 -1.89005 0
M  V30 2094 H 205.871 -7.52854 -0.688971 0
M  V30 2095 H 207.139 -7.5655 -1.87757 0
M  V30 2096 N 211.368 -0.403325 -1.52352 0
M  V30 2097 C 212.278 0.432009 -2.30588 0
M  V30 2098 C 213.294 1.05884 -1.38075 0
M  V30 2099 O 214.47 1.06161 -1.71148 0
M  V30 2100 C 211.535 1.53669 -3.10784 0
M  V30 2101 C 210.596 0.933525 -4.19027 0
M  V30 2102 C 209.829 1.98557 -4.9539 0
M  V30 2103 O 210.052 3.20283 -4.71991 0
M  V30 2104 O 208.986 1.59504 -5.80381 0
M  V30 2105 H 212.812 -0.205739 -3.03002 0
M  V30 2106 H 210.397 -0.166675 -1.48467 0
M  V30 2107 H 212.279 2.17814 -3.60742 0
M  V30 2108 H 210.954 2.15915 -2.41169 0
M  V30 2109 H 209.861 0.254954 -3.7323 0
M  V30 2110 H 211.194 0.35508 -4.90918 0
M  V30 2111 N 212.846 1.57033 -0.133567 0
M  V30 2112 C 214.262 1.58035 0.222944 0
M  V30 2113 C 214.462 1.14713 1.6566 0
M  V30 2114 O 213.518 0.841218 2.38075 0
M  V30 2115 C 214.831 3.00691 -0.0236116 0
M  V30 2116 C 216.379 3.12973 0.0411512 0
M  V30 2117 C 216.854 4.57654 -0.177899 0
M  V30 2118 N 218.345 4.63033 -0.124365 0
M  V30 2119 C 219.08 5.72771 -0.268553 0
M  V30 2120 N 218.576 6.91206 -0.46972 0
M  V30 2121 N 220.369 5.61718 -0.2071 0
M  V30 2122 H 212.52 1.8349 -1.06981 0
M  V30 2123 H 214.783 0.848677 -0.422436 0
M  V30 2124 H 214.489 3.36726 -1.0153 0
M  V30 2125 H 214.363 3.70614 0.701808 0
M  V30 2126 H 216.75 2.76787 1.02338 0
M  V30 2127 H 216.831 2.45564 -0.716383 0
M  V30 2128 H 216.475 4.94542 -1.15717 0
M  V30 2129 H 216.405 5.23173 0.599797 0
M  V30 2130 H 218.896 3.7789 0.027011 0
M  V30 2131 H 219.209 7.70693 -0.570212 0
M  V30 2132 H 217.554 6.93156 -0.505876 0
M  V30 2133 H 220.745 4.68072 -0.0507986 0
M  V30 2134 H 220.918 6.47195 -0.322909 0
M  V30 2135 N 214.325 -0.140222 1.56975 0
M  V30 2136 C 215.235 -1.19223 2.02047 0
M  V30 2137 C 216.251 -1.46612 0.937062 0
M  V30 2138 O 217.427 -1.58148 1.24704 0
M  V30 2139 C 214.492 -2.50414 2.39778 0
M  V30 2140 C 213.553 -2.30612 3.621 0
M  V30 2141 C 212.786 -3.55547 3.98023 0
M  V30 2142 O 213.009 -4.62004 3.34528 0
M  V30 2143 O 211.943 -3.47808 4.91237 0
M  V30 2144 H 215.769 -0.839559 2.91865 0
M  V30 2145 H 213.354 -0.349453 1.45256 0
M  V30 2146 H 215.236 -3.27747 2.64877 0
M  V30 2147 H 213.911 -2.85198 1.53114 0
M  V30 2148 H 212.818 -1.51207 3.4218 0
M  V30 2149 H 214.151 -2.00741 4.49404 0
M  V30 2150 N 215.803 -1.52179 -0.40978 0
M  V30 2151 C 216.713 -1.78364 -1.52392 0
M  V30 2152 C 217.729 -0.669183 -1.60617 0
M  V30 2153 O 218.905 -0.954518 -1.77344 0
M  V30 2154 C 215.97 -1.92822 -2.88133 0
M  V30 2155 C 215.031 -3.16725 -2.898 0
M  V30 2156 C 214.264 -3.30483 -4.19067 0
M  V30 2157 O 214.487 -2.49522 -5.12928 0
M  V30 2158 O 213.421 -4.2363 -4.27576 0
M  V30 2159 H 217.247 -2.72931 -1.33201 0
M  V30 2160 H 214.832 -1.37016 -0.59557 0
M  V30 2161 H 216.714 -2.04157 -3.68643 0
M  V30 2162 H 215.389 -1.01444 -3.07393 0
M  V30 2163 H 214.296 -3.10848 -2.08146 0
M  V30 2164 H 215.629 -4.07881 -2.75489 0
M  V30 2165 N 217.281 0.66697 -1.42791 0
M  V30 2166 C 218.211 1.79218 -1.49677 0
M  V30 2167 C 219.192 1.66405 -0.352623 0
M  V30 2168 O 220.377 1.85708 -0.567993 0
M  V30 2169 C 217.507 3.17565 -1.40605 0
M  V30 2170 C 216.461 3.45124 -2.53127 0
M  V30 2171 C 215.787 4.83127 -2.29112 0
M  V30 2172 C 217.087 3.41236 -3.95418 0
M  V30 2173 H 218.781 1.73713 -2.43853 0
M  V30 2174 H 216.327 0.83432 -1.17367 0
M  V30 2175 H 218.28 3.96022 -1.44029 0
M  V30 2176 H 217.004 3.23767 -0.429271 0
M  V30 2177 H 215.663 2.69031 -2.49034 0
M  V30 2178 H 215.311 4.85988 -1.29709 0
M  V30 2179 H 215.011 5.02528 -3.04531 0
M  V30 2180 H 216.535 5.63859 -2.34297 0
M  V30 2181 H 217.949 4.09651 -4.01073 0
M  V30 2182 H 216.346 3.72173 -4.70752 0
M  V30 2183 H 217.416 2.39665 -4.21532 0
M  V30 2184 N 218.759 1.29093 0.90403 0
M  V30 2185 C 219.722 1.1386 1.98919 0
M  V30 2186 C 220.722 0.0753457 1.60623 0
M  V30 2187 O 221.912 0.321931 1.71199 0
M  V30 2188 C 219.044 0.740198 3.32767 0
M  V30 2189 H 220.237 2.10246 2.13861 0
M  V30 2190 H 217.79 1.12218 1.08797 0
M  V30 2191 H 218.525 -0.223997 3.23525 0
M  V30 2192 H 218.31 1.50838 3.61926 0
M  V30 2193 H 219.8 0.656546 4.12407 0
M  V30 2194 N 220.237 -1.11381 1.11499 0
M  V30 2195 C 221.169 -2.17207 0.731704 0
M  V30 2196 C 222.182 -1.61066 -0.236957 0
M  V30 2197 O 223.371 -1.78489 -0.0197591 0
M  V30 2198 C 220.471 -3.38846 0.0607624 0
M  V30 2199 C 219.644 -4.24451 1.0564 0
M  V30 2200 C 218.703 -5.24562 0.4149 0
M  V30 2201 O 217.729 -5.59071 1.069 0
M  V30 2202 N 218.931 -5.74651 -0.821943 0
M  V30 2203 H 221.696 -2.50699 1.64225 0
M  V30 2204 H 219.257 -1.26908 1.00529 0
M  V30 2205 H 221.249 -4.02911 -0.380139 0
M  V30 2206 H 219.819 -3.03411 -0.752376 0
M  V30 2207 H 219.039 -3.56833 1.67524 0
M  V30 2208 H 220.327 -4.78486 1.72998 0
M  V30 2209 H 219.725 -5.48797 -1.37252 0
M  V30 2210 H 218.282 -6.40549 -1.20582 0
M  V30 2211 N 221.715 -0.905404 -1.28997 0
M  V30 2212 C 222.647 -0.344748 -2.26592 0
M  V30 2213 C 223.66 0.512135 -1.54535 0
M  V30 2214 O 224.849 0.328368 -1.75454 0
M  V30 2215 C 221.949 0.526587 -3.34784 0
M  V30 2216 C 221.122 -0.305871 -4.36329 0
M  V30 2217 C 220.181 0.499209 -5.23827 0
M  V30 2218 O 219.207 -0.0853004 -5.69136 0
M  V30 2219 N 220.409 1.80408 -5.51755 0
M  V30 2220 H 223.174 -1.18359 -2.75338 0
M  V30 2221 H 220.735 -0.770481 -1.42391 0
M  V30 2222 H 222.727 1.07171 -3.90252 0
M  V30 2223 H 221.297 1.26613 -2.85811 0
M  V30 2224 H 220.517 -1.0324 -3.80441 0
M  V30 2225 H 221.805 -0.875773 -5.01206 0
M  V30 2226 H 221.203 2.3016 -5.16762 0
M  V30 2227 H 219.76 2.29621 -6.10014 0
M  V30 2228 N 223.193 1.4272 -0.668489 0
M  V30 2229 C 224.423 2.05668 -0.196063 0
M  V30 2230 C 224.831 1.5028 1.14946 0
M  V30 2231 O 224.174 0.6348 1.72383 0
M  V30 2232 C 224.236 3.59469 -0.0468879 0
M  V30 2233 C 223.9 4.37518 -1.32012 0
M  V30 2234 C 224.897 4.68584 -2.25222 0
M  V30 2235 C 222.582 4.77266 -1.56596 0
M  V30 2236 C 224.576 5.38326 -3.41297 0
M  V30 2237 C 222.263 5.4675 -2.72962 0
M  V30 2238 C 223.261 5.77204 -3.65137 0
M  V30 2239 O 222.949 6.45264 -4.79468 0
M  V30 2240 H 222.681 0.669382 -0.0943599 0
M  V30 2241 H 225.235 1.83954 -0.913788 0
M  V30 2242 H 223.465 3.79817 0.726357 0
M  V30 2243 H 225.154 4.04071 0.384852 0
M  V30 2244 H 225.92 4.38382 -2.07477 0
M  V30 2245 H 221.799 4.52959 -0.857249 0
M  V30 2246 H 225.343 5.62014 -4.13263 0
M  V30 2247 H 221.24 5.76369 -2.90635 0
M  V30 2248 H 222.008 6.63753 -4.78931 0
M  V30 2249 N 224.671 0.411399 1.52136 0
M  V30 2250 C 225.581 -0.419774 2.30814 0
M  V30 2251 C 226.597 -1.0515 1.38634 0
M  V30 2252 O 227.773 -1.05252 1.71709 0
M  V30 2253 C 224.838 -1.52019 3.11594 0
M  V30 2254 C 223.899 -0.91129 4.19516 0
M  V30 2255 C 223.132 -1.95927 4.96436 0
M  V30 2256 O 223.355 -3.17775 4.73683 0
M  V30 2257 O 222.289 -1.56423 5.81219 0
M  V30 2258 H 226.115 0.221805 3.02889 0
M  V30 2259 H 223.7 0.174547 1.48377 0
M  V30 2260 H 225.582 -2.15898 3.61892 0
M  V30 2261 H 224.257 -2.14633 2.42311 0
M  V30 2262 H 223.164 -0.235157 3.7336 0
M  V30 2263 H 224.497 -0.32904 4.91099 0
M  V30 2264 N 226.149 -1.5696 0.141893 0
M  V30 2265 C 227.112 -2.15316 -0.785587 0
M  V30 2266 C 228.112 -1.09366 -1.1788 0
M  V30 2267 O 229.302 -1.35031 -1.10056 0
M  V30 2268 C 226.434 -2.71211 -2.06537 0
M  V30 2269 H 227.627 -2.98608 -0.278041 0
M  V30 2270 H 225.18 -1.5593 -0.107519 0
M  V30 2271 H 225.915 -1.91571 -2.6167 0
M  V30 2272 H 225.7 -3.4872 -1.79268 0
M  V30 2273 H 227.19 -3.16189 -2.72789 0
M  V30 2274 N 227.627 0.131896 -1.57047 0
M  V30 2275 C 228.876 0.84044 -1.83356 0
M  V30 2276 C 229.189 1.81646 -0.725535 0
M  V30 2277 O 230.395 2.57025 -0.874659 0
M  V30 2278 C 228.851 1.54528 -3.25037 0
M  V30 2279 C 228.459 0.610902 -4.43815 0
M  V30 2280 C 230.203 2.23972 -3.60606 0
M  V30 2281 C 228.11 1.31823 -5.76521 0
M  V30 2282 H 227.04 0.317599 -0.683847 0
M  V30 2283 H 229.691 0.0931561 -1.83263 0
M  V30 2284 H 228.073 2.33873 -3.19561 0
M  V30 2285 H 229.247 -0.148407 -4.60561 0
M  V30 2286 H 227.562 0.0241016 -4.16393 0
M  V30 2287 H 230.159 2.77558 -4.57018 0
M  V30 2288 H 230.502 3.01173 -2.87403 0
M  V30 2289 H 231.035 1.51529 -3.6781 0
M  V30 2290 H 227.774 0.587771 -6.52859 0
M  V30 2291 H 227.294 2.04987 -5.63685 0
M  V30 2292 H 228.973 1.855 -6.19838 0
M  V30 2293 N 229.106 1.52395 0.401703 0
M  V30 2294 C 230.036 1.79231 1.49661 0
M  V30 2295 C 231.017 0.643654 1.57452 0
M  V30 2296 O 232.202 0.889989 1.72606 0
M  V30 2297 C 229.332 1.94971 2.87409 0
M  V30 2298 C 228.286 3.10604 2.94465 0
M  V30 2299 C 227.612 3.11577 4.34538 0
M  V30 2300 C 228.912 4.49921 2.6527 0
M  V30 2301 H 230.606 2.70917 1.27454 0
M  V30 2302 H 228.152 1.30362 0.6117 0
M  V30 2303 H 230.105 2.12328 3.63999 0
M  V30 2304 H 228.829 0.999632 3.10926 0
M  V30 2305 H 227.488 2.93009 2.20321 0
M  V30 2306 H 227.136 2.14277 4.55076 0
M  V30 2307 H 226.836 3.89247 4.40183 0
M  V30 2308 H 228.36 3.31073 5.13053 0
M  V30 2309 H 229.774 4.67683 3.31581 0
M  V30 2310 H 228.171 5.29564 2.82281 0
M  V30 2311 H 229.241 4.57507 1.60671 0
M  V30 2312 N 230.584 -0.659388 1.43143 0
M  V30 2313 C 232 -0.974337 1.26407 0
M  V30 2314 C 232.2 -2.007 0.179341 0
M  V30 2315 O 231.256 -2.4856 -0.444295 0
M  V30 2316 C 232.569 -1.46447 2.62628 0
M  V30 2317 C 234.117 -1.58144 2.7011 0
M  V30 2318 C 234.592 -2.1055 4.06734 0
M  V30 2319 N 236.083 -2.17861 4.08767 0
M  V30 2320 C 236.818 -2.59519 5.1131 0
M  V30 2321 N 236.314 -3.00518 6.24228 0
M  V30 2322 N 238.107 -2.59404 4.98664 0
M  V30 2323 H 230.258 0.0240528 2.12386 0
M  V30 2324 H 232.521 -0.0518065 0.946583 0
M  V30 2325 H 232.227 -0.780123 3.42939 0
M  V30 2326 H 232.101 -2.44058 2.87603 0
M  V30 2327 H 234.488 -2.25682 1.90136 0
M  V30 2328 H 234.569 -0.589828 2.48907 0
M  V30 2329 H 234.213 -1.43616 4.87172 0
M  V30 2330 H 234.143 -3.10531 4.25298 0
M  V30 2331 H 236.634 -1.88975 3.27257 0
M  V30 2332 H 236.947 -3.31036 6.98309 0
M  V30 2333 H 235.292 -2.98337 6.2771 0
M  V30 2334 H 238.483 -2.26747 4.09516 0
M  V30 2335 H 238.656 -2.91548 5.78709 0
M  V30 2336 N 232.062 -1.29571 -0.897171 0
M  V30 2337 C 232.972 -1.16808 -2.03453 0
M  V30 2338 C 233.988 -0.0907471 -1.73763 0
M  V30 2339 O 235.164 -0.303312 -1.99103 0
M  V30 2340 C 232.229 -0.848264 -3.36163 0
M  V30 2341 C 231.29 -2.0097 -3.79354 0
M  V30 2342 C 230.523 -1.70505 -5.05731 0
M  V30 2343 O 230.746 -0.62718 -5.66941 0
M  V30 2344 O 229.68 -2.5538 -5.45036 0
M  V30 2345 H 233.506 -2.12325 -2.17144 0
M  V30 2346 H 231.091 -1.09047 -1.02123 0
M  V30 2347 H 232.973 -0.684581 -4.15802 0
M  V30 2348 H 231.648 0.0771071 -3.23608 0
M  V30 2349 H 230.555 -2.22863 -3.00471 0
M  V30 2350 H 231.888 -2.91636 -3.96496 0
M  V30 2351 N 233.54 1.10788 -1.12088 0
M  V30 2352 C 234.78 1.84297 -0.883974 0
M  V30 2353 C 235.144 1.83036 0.579797 0
M  V30 2354 O 236.345 2.52061 0.933734 0
M  V30 2355 C 234.616 3.27173 -1.43849 0
M  V30 2356 S 236.175 4.17853 -1.33957 0
M  V30 2357 H 232.993 0.635433 -0.318977 0
M  V30 2358 H 235.595 1.33341 -1.4297 0
M  V30 2359 H 234.299 3.25658 -2.49749 0
M  V30 2360 H 233.83 3.83198 -0.890096 0
M  V30 2361 H 235.845 4.95239 -0.308603 0
M  V30 2362 N 235.018 0.912232 1.28515 0
M  V30 2363 C 236.266 0.543523 1.94654 0
M  V30 2364 C 236.587 -0.9155 1.72173 0
M  V30 2365 O 235.857 -1.64708 1.06058 0
M  V30 2366 H 234.437 0.198017 0.720277 0
M  V30 2367 H 237.099 1.16126 1.56527 0
M  V30 2368 H 236.195 0.736684 3.03281 0
M  V30 2369 N 236.496 -1.42363 0.676048 0
M  V30 2370 C 237.446 -2.27987 -0.0242903 0
M  V30 2371 C 238.43 -1.41153 -0.772319 0
M  V30 2372 O 239.622 -1.64592 -0.651025 0
M  V30 2373 C 236.751 -3.29195 -0.973953 0
M  V30 2374 C 235.837 -4.23512 -0.223202 0
M  V30 2375 N 236.228 -4.99865 0.772589 0
M  V30 2376 C 234.526 -4.43606 -0.461469 0
M  V30 2377 C 235.227 -5.68757 1.22027 0
M  V30 2378 N 234.203 -5.40811 0.549975 0
M  V30 2379 H 238.005 -2.84445 0.73949 0
M  V30 2380 H 235.519 -1.54341 0.50522 0
M  V30 2381 H 237.516 -3.89339 -1.49067 0
M  V30 2382 H 236.176 -2.74298 -1.73755 0
M  V30 2383 H 237.187 -5.04921 1.15217 0
M  V30 2384 H 233.864 -3.99749 -1.20446 0
M  V30 2385 H 235.254 -6.40007 2.0455 0
M  V30 2386 N 237.974 -0.419461 -1.51915 0
M  V30 2387 C 239.222 0.152637 -2.01523 0
M  V30 2388 C 239.543 1.44762 -1.30649 0
M  V30 2389 O 238.813 1.90997 -0.435535 0
M  V30 2390 H 237.393 0.0593966 -0.744635 0
M  V30 2391 H 240.055 -0.558073 -1.86739 0
M  V30 2392 H 239.151 0.341369 -3.10227 0
M  V30 2393 N 239.452 1.56882 -0.150215 0
M  V30 2394 C 240.868 1.58263 0.20617 0
M  V30 2395 C 241.068 1.16464 1.64434 0
M  V30 2396 O 240.124 0.866422 2.3717 0
M  V30 2397 C 241.437 3.00649 -0.0555025 0
M  V30 2398 C 242.985 3.12999 0.00795388 0
M  V30 2399 C 243.46 4.5744 -0.226429 0
M  V30 2400 N 244.951 4.62875 -0.173469 0
M  V30 2401 C 245.686 5.72454 -0.329288 0
M  V30 2402 N 245.182 6.90669 -0.543005 0
M  V30 2403 N 246.975 5.61467 -0.266666 0
M  V30 2404 H 239.126 1.82345 -1.08922 0
M  V30 2405 H 241.389 0.844149 -0.431413 0
M  V30 2406 H 241.095 3.3563 -1.05096 0
M  V30 2407 H 240.969 3.71337 0.66246 0
M  V30 2408 H 243.356 2.77857 0.993966 0
M  V30 2409 H 243.437 2.4479 -0.742388 0
M  V30 2410 H 243.081 4.93287 -1.20956 0
M  V30 2411 H 243.011 5.2378 0.544274 0
M  V30 2412 H 245.502 3.77898 -0.0130709 0
M  V30 2413 H 245.815 7.70045 -0.651922 0
M  V30 2414 H 244.16 6.92581 -0.579366 0
M  V30 2415 H 247.351 4.67992 -0.100441 0
M  V30 2416 H 247.524 6.46816 -0.391535 0
M  V30 2417 N 240.93 -0.123565 1.57115 0
M  V30 2418 C 242.177 -0.832153 1.84612 0
M  V30 2419 C 242.505 -1.80093 0.734627 0
M  V30 2420 O 241.76 -1.93766 -0.27442 0
M  V30 2421 C 242.059 -1.62016 3.18568 0
M  V30 2422 C 241.725 -0.796084 4.43817 0
M  V30 2423 C 240.387 -0.568816 4.77826 0
M  V30 2424 C 242.739 -0.221364 5.2073 0
M  V30 2425 C 240.067 0.243499 5.86194 0
M  V30 2426 C 242.419 0.578117 6.29953 0
M  V30 2427 C 241.083 0.815744 6.62497 0
M  V30 2428 H 240.353 -0.304507 0.675542 0
M  V30 2429 H 243 -0.0947248 1.91266 0
M  V30 2430 H 241.305 -2.42837 3.0747 0
M  V30 2431 H 243.002 -2.17231 3.37064 0
M  V30 2432 H 239.592 -0.983307 4.17168 0
M  V30 2433 H 243.776 -0.384173 4.94811 0
M  V30 2434 H 239.032 0.436871 6.09837 0
M  V30 2435 H 243.206 1.03046 6.88734 0
M  V30 2436 H 240.833 1.44701 7.46301 0
M  V30 2437 N 242.408 -1.52605 -0.393616 0
M  V30 2438 C 243.34 -1.73303 -1.49995 0
M  V30 2439 C 244.353 -0.613473 -1.50799 0
M  V30 2440 O 245.542 -0.889049 -1.54784 0
M  V30 2441 C 242.642 -1.77245 -2.88855 0
M  V30 2442 C 241.815 -3.06483 -3.12069 0
M  V30 2443 C 240.874 -3.02033 -4.30886 0
M  V30 2444 O 239.9 -3.75907 -4.27414 0
M  V30 2445 N 241.102 -2.20897 -5.36828 0
M  V30 2446 H 243.867 -2.68756 -1.32629 0
M  V30 2447 H 241.428 -1.51036 -0.583083 0
M  V30 2448 H 243.42 -1.7178 -3.66434 0
M  V30 2449 H 241.99 -0.891993 -2.99603 0
M  V30 2450 H 241.21 -3.25474 -2.22396 0
M  V30 2451 H 242.498 -3.91947 -3.2443 0
M  V30 2452 H 241.896 -1.60336 -5.42502 0
M  V30 2453 H 240.453 -2.21275 -6.13091 0
M  V30 2454 N 243.887 0.651787 -1.4349 0
M  V30 2455 C 245.133 1.4121 -1.46395 0
M  V30 2456 C 245.488 1.92202 -0.087366 0
M  V30 2457 O 244.781 1.69452 0.894231 0
M  V30 2458 C 244.975 2.60914 -2.44251 0
M  V30 2459 C 244.804 2.21639 -3.91288 0
M  V30 2460 C 243.574 2.09897 -4.59643 0
M  V30 2461 C 245.772 1.81835 -4.81083 0
M  V30 2462 N 243.754 1.63967 -5.91598 0
M  V30 2463 C 245.125 1.46998 -6.02322 0
M  V30 2464 C 247.18 1.69031 -4.6833 0
M  V30 2465 C 245.883 1.00638 -7.12225 0
M  V30 2466 C 247.909 1.24077 -5.78238 0
M  V30 2467 C 247.271 0.901772 -6.98604 0
M  V30 2468 H 243.37 0.512322 -0.590805 0
M  V30 2469 H 245.954 0.74989 -1.7968 0
M  V30 2470 H 244.125 3.24792 -2.1299 0
M  V30 2471 H 245.857 3.27622 -2.37584 0
M  V30 2472 H 242.612 2.297 -4.14168 0
M  V30 2473 H 243.036 1.43359 -6.61647 0
M  V30 2474 H 247.678 1.93878 -3.75727 0
M  V30 2475 H 245.396 0.745399 -8.04655 0
M  V30 2476 H 248.982 1.14657 -5.7039 0
M  V30 2477 H 247.862 0.559226 -7.82203 0
M  V30 2478 N 245.365 1.30045 0.890287 0
M  V30 2479 C 246.593 1.21472 1.67487 0
M  V30 2480 C 247.008 -0.223241 1.87476 0
M  V30 2481 O 246.365 -1.14828 1.41847 0
M  V30 2482 C 246.416 1.93394 3.05419 0
M  V30 2483 O 246.137 3.31576 2.86337 0
M  V30 2484 C 247.638 1.91414 3.99844 0
M  V30 2485 H 244.858 0.420604 0.522813 0
M  V30 2486 H 247.402 1.7158 1.11268 0
M  V30 2487 H 245.557 1.47099 3.58386 0
M  V30 2488 H 245.971 3.67929 3.73802 0
M  V30 2489 H 247.445 2.46285 4.94012 0
M  V30 2490 H 247.922 0.891833 4.3005 0
M  V30 2491 H 248.528 2.37496 3.52811 0
M  V30 2492 N 246.843 -1.10192 1.12674 0
M  V30 2493 C 247.773 -2.18652 0.819362 0
M  V30 2494 C 248.754 -1.68698 -0.217915 0
M  V30 2495 O 249.939 -1.94041 -0.0785581 0
M  V30 2496 C 247.069 -3.46202 0.27594 0
M  V30 2497 C 246.023 -4.09444 1.24656 0
M  V30 2498 C 245.349 -5.31725 0.563258 0
M  V30 2499 C 246.649 -4.52863 2.60217 0
M  V30 2500 H 248.343 -2.44622 1.72628 0
M  V30 2501 H 245.889 -1.17571 0.831451 0
M  V30 2502 H 247.842 -4.21372 0.0486149 0
M  V30 2503 H 246.566 -3.1973 -0.666331 0
M  V30 2504 H 245.225 -3.36284 1.45974 0
M  V30 2505 H 244.873 -5.0153 -0.384235 0
M  V30 2506 H 244.573 -5.74991 1.21075 0
M  V30 2507 H 246.097 -6.09624 0.34503 0
M  V30 2508 H 247.511 -5.19294 2.42913 0
M  V30 2509 H 245.908 -5.06986 3.21068 0
M  V30 2510 H 246.978 -3.65656 3.18471 0
M  V30 2511 N 248.321 -0.919034 -1.28029 0
M  V30 2512 C 249.551 -0.570143 -1.98577 0
M  V30 2513 C 249.959 0.854172 -1.68821 0
M  V30 2514 O 249.302 1.57807 -0.940351 0
M  V30 2515 C 249.364 -0.705734 -3.52505 0
M  V30 2516 C 249.028 -2.10057 -4.05863 0
M  V30 2517 C 250.025 -3.07385 -4.19298 0
M  V30 2518 C 247.71 -2.41517 -4.40426 0
M  V30 2519 C 249.704 -4.34287 -4.66555 0
M  V30 2520 C 247.391 -3.68657 -4.87376 0
M  V30 2521 C 248.389 -4.64856 -5.00398 0
M  V30 2522 O 248.077 -5.89735 -5.46322 0
M  V30 2523 H 247.809 -0.215592 -0.6407 0
M  V30 2524 H 250.363 -1.23583 -1.64062 0
M  V30 2525 H 248.593 0.0170414 -3.86696 0
M  V30 2526 H 250.282 -0.363172 -4.04272 0
M  V30 2527 H 251.048 -2.84398 -3.92865 0
M  V30 2528 H 246.927 -1.67389 -4.29537 0
M  V30 2529 H 250.471 -5.09377 -4.76635 0
M  V30 2530 H 246.368 -3.91466 -5.13249 0
M  V30 2531 H 247.136 -5.92599 -5.64596 0
M  V30 2532 N 249.799 1.42003 -0.683588 0
M  V30 2533 C 251.046 2.01413 -0.209514 0
M  V30 2534 C 251.374 1.54088 1.1869 0
M  V30 2535 O 250.629 0.737591 1.81268 0
M  V30 2536 C 250.928 3.56827 -0.202357 0
M  V30 2537 C 250.594 4.23617 -1.54464 0
M  V30 2538 C 249.256 4.41577 -1.91215 0
M  V30 2539 C 251.608 4.61178 -2.42826 0
M  V30 2540 C 248.936 4.9437 -3.15935 0
M  V30 2541 C 251.288 5.15355 -3.66867 0
M  V30 2542 C 249.952 5.31528 -4.03776 0
M  V30 2543 H 249.222 0.737023 -0.0766668 0
M  V30 2544 H 251.869 1.70067 -0.880312 0
M  V30 2545 H 250.174 3.87892 0.551969 0
M  V30 2546 H 251.871 4.00588 0.181793 0
M  V30 2547 H 248.461 4.10004 -1.24877 0
M  V30 2548 H 252.645 4.46968 -2.15717 0
M  V30 2549 H 247.901 5.05076 -3.44541 0
M  V30 2550 H 252.075 5.43402 -4.35531 0
M  V30 2551 H 249.702 5.72199 -5.00492 0
M  V30 2552 N 251.277 0.427512 1.51691 0
M  V30 2553 C 252.523 -0.142439 2.02299 0
M  V30 2554 C 252.856 -1.43214 1.31162 0
M  V30 2555 O 252.131 -1.89833 0.423511 0
M  V30 2556 C 252.414 -0.371301 3.58181 0
M  V30 2557 C 252.267 0.936358 4.39946 0
M  V30 2558 C 253.586 -1.14542 4.24933 0
M  V30 2559 H 250.705 -0.0502937 0.735282 0
M  V30 2560 H 253.347 0.564584 1.81418 0
M  V30 2561 H 251.497 -0.973559 3.76104 0
M  V30 2562 H 253.169 1.57184 4.33694 0
M  V30 2563 H 251.412 1.5432 4.05423 0
M  V30 2564 H 252.083 0.730388 5.47147 0
M  V30 2565 H 254.559 -0.635362 4.11221 0
M  V30 2566 H 253.435 -1.27431 5.33903 0
M  V30 2567 H 253.696 -2.17093 3.85127 0
M  V30 2568 N 252.755 -1.56801 0.158532 0
M  V30 2569 C 253.685 -2.20347 -0.772609 0
M  V30 2570 C 254.666 -1.15518 -1.24859 0
M  V30 2571 O 255.851 -1.43902 -1.30406 0
M  V30 2572 C 252.981 -2.83417 -2.00729 0
M  V30 2573 C 251.935 -3.94174 -1.66765 0
M  V30 2574 C 251.261 -4.44233 -2.97592 0
M  V30 2575 C 252.561 -5.14392 -0.905447 0
M  V30 2576 H 254.255 -2.98413 -0.242959 0
M  V30 2577 H 251.801 -1.43537 -0.115419 0
M  V30 2578 H 253.754 -3.26543 -2.6636 0
M  V30 2579 H 252.478 -2.02701 -2.56086 0
M  V30 2580 H 251.137 -3.51684 -1.03508 0
M  V30 2581 H 250.785 -3.60325 -3.50963 0
M  V30 2582 H 250.485 -5.18945 -2.75626 0
M  V30 2583 H 252.009 -4.90037 -3.64274 0
M  V30 2584 H 253.423 -5.5429 -1.46408 0
M  V30 2585 H 251.82 -5.9494 -0.7853 0
M  V30 2586 H 252.89 -4.84795 0.100668 0
M  V30 2587 N 254.233 0.115231 -1.57178 0
M  V30 2588 C 255.481 0.820727 -1.84685 0
M  V30 2589 C 255.802 1.80237 -0.744279 0
M  V30 2590 O 255.072 1.94529 0.231375 0
M  V30 2591 H 253.652 0.306084 -0.681411 0
M  V30 2592 H 256.314 0.101656 -1.94635 0
M  V30 2593 H 255.41 1.36366 -2.80733 0
M  V30 2594 N 255.711 1.52812 0.385517 0
M  V30 2595 C 256.641 1.80808 1.47752 0
M  V30 2596 C 257.622 0.660318 1.5676 0
M  V30 2597 O 258.807 0.908246 1.71652 0
M  V30 2598 C 255.937 1.98008 2.85324 0
M  V30 2599 C 254.891 3.13709 2.91154 0
M  V30 2600 C 254.217 3.16169 4.31209 0
M  V30 2601 C 255.517 4.52709 2.60483 0
M  V30 2602 H 257.211 2.72253 1.24573 0
M  V30 2603 H 254.757 1.31003 0.597839 0
M  V30 2604 H 256.71 2.16176 3.61726 0
M  V30 2605 H 255.434 1.03255 3.09848 0
M  V30 2606 H 254.093 2.95329 2.17201 0
M  V30 2607 H 253.741 2.19092 4.52778 0
M  V30 2608 H 253.441 3.93894 4.36029 0
M  V30 2609 H 254.965 3.36496 5.09512 0
M  V30 2610 H 256.379 4.71173 3.26602 0
M  V30 2611 H 254.776 5.32528 2.76648 0
M  V30 2612 H 255.846 4.59186 1.55809 0
M  V30 2613 N 257.189 -0.644168 1.43834 0
M  V30 2614 C 258.152 -1.73857 1.49353 0
M  V30 2615 C 259.152 -1.56315 0.377112 0
M  V30 2616 O 260.342 -1.62048 0.639226 0
M  V30 2617 C 257.474 -3.12819 1.35488 0
M  V30 2618 H 258.667 -1.70342 2.46827 0
M  V30 2619 H 256.22 -0.856652 1.30733 0
M  V30 2620 H 256.955 -3.2194 0.390569 0
M  V30 2621 H 256.74 -3.26958 2.16428 0
M  V30 2622 H 258.23 -3.92606 1.42302 0
M  V30 2623 N 258.668 -1.30515 -0.883378 0
M  V30 2624 C 259.598 -1.19607 -2.00541 0
M  V30 2625 C 260.579 -0.086346 -1.69881 0
M  V30 2626 O 261.764 -0.268654 -1.92333 0
M  V30 2627 C 258.894 -0.888758 -3.35736 0
M  V30 2628 C 257.848 -1.95659 -3.8066 0
M  V30 2629 C 257.174 -1.50224 -5.13164 0
M  V30 2630 C 258.474 -3.36788 -3.99213 0
M  V30 2631 H 260.168 -2.13476 -2.09925 0
M  V30 2632 H 257.714 -1.02775 -1.00863 0
M  V30 2633 H 259.667 -0.799094 -4.13754 0
M  V30 2634 H 258.391 0.0856125 -3.26488 0
M  V30 2635 H 257.05 -2.03591 -3.04871 0
M  V30 2636 H 256.698 -0.516092 -5.00345 0
M  V30 2637 H 256.398 -2.2165 -5.44192 0
M  V30 2638 H 257.922 -1.42639 -5.93706 0
M  V30 2639 H 259.336 -3.31605 -4.67665 0
M  V30 2640 H 257.733 -4.06314 -4.41621 0
M  V30 2641 H 258.803 -3.78561 -3.03017 0
M  V30 2642 N 260.146 1.09593 -1.13257 0
M  V30 2643 C 261.079 2.15451 -0.752061 0
M  V30 2644 C 262.057 1.60493 0.260913 0
M  V30 2645 O 263.241 1.8788 0.152819 0
M  V30 2646 C 260.368 3.38506 -0.114594 0
M  V30 2647 C 259.414 4.12183 -1.09579 0
M  V30 2648 S 260.247 4.6661 -2.62745 0
M  V30 2649 C 261.403 5.92966 -2.00354 0
M  V30 2650 H 261.636 2.47395 -1.64872 0
M  V30 2651 H 259.169 1.21515 -0.952545 0
M  V30 2652 H 261.127 4.09757 0.246808 0
M  V30 2653 H 259.788 3.04784 0.759309 0
M  V30 2654 H 258.981 5.00445 -0.597545 0
M  V30 2655 H 258.583 3.46785 -1.40057 0
M  V30 2656 H 260.875 6.63882 -1.35156 0
M  V30 2657 H 261.818 6.47467 -2.86691 0
M  V30 2658 H 262.226 5.45405 -1.4558 0
M  V30 2659 N 261.624 0.925811 1.2754 0
M  V30 2660 C 262.587 0.428129 2.25166 0
M  V30 2661 C 263.587 -0.452261 1.54309 0
M  V30 2662 O 264.777 -0.253608 1.72344 0
M  V30 2663 C 261.909 -0.384749 3.38722 0
M  V30 2664 H 263.102 1.29066 2.70706 0
M  V30 2665 H 260.655 0.706323 1.3943 0
M  V30 2666 H 261.39 -1.26618 2.98561 0
M  V30 2667 H 261.175 0.246454 3.91325 0
M  V30 2668 H 262.665 -0.723389 4.11287 0
M  V30 2669 N 263.102 -1.41638 0.69111 0
M  V30 2670 C 264.379 -1.95036 0.148421 0
M  V30 2671 C 264.759 -1.63072 -1.34055 0
M  V30 2672 O 264.107 -0.93538 -2.08478 0
M  V30 2673 C 264.317 -3.46279 0.434951 0
M  V30 2674 C 265.665 -4.23069 0.360275 0
M  V30 2675 O 266.689 -3.54277 0.369613 0
M  V30 2676 O 265.548 -5.45583 0.316534 0
M  V30 2677 H 262.642 -0.826908 0.0123654 0
M  V30 2678 H 265.188 -1.5138 0.766963 0
M  V30 2679 H 263.96 -3.6281 1.46576 0
M  V30 2680 H 263.583 -3.97019 -0.214787 0
M  V30 2681 N 264.58 -0.43555 -1.51462 0
M  V30 2682 C 265.828 0.131254 -2.01673 0
M  V30 2683 C 266.149 1.43368 -1.32177 0
M  V30 2684 O 265.419 1.90524 -0.455769 0
M  V30 2685 H 263.999 0.0514954 -0.745223 0
M  V30 2686 H 266.661 -0.577847 -1.86137 0
M  V30 2687 H 265.757 0.308446 -3.10572 0
M  V30 2688 N 266.058 1.56714 -0.166846 0
M  V30 2689 C 267.304 1.97039 0.479962 0
M  V30 2690 C 267.637 1.05264 1.63197 0
M  V30 2691 O 266.912 0.0988833 1.94248 0
M  V30 2692 C 267.195 3.46867 0.967212 0
M  V30 2693 C 267.048 4.49421 -0.18466 0
M  V30 2694 C 268.367 3.9968 1.84238 0
M  V30 2695 H 265.486 0.71641 0.172992 0
M  V30 2696 H 268.128 1.8832 -0.252079 0
M  V30 2697 H 266.278 3.54428 1.59101 0
M  V30 2698 H 267.95 4.53924 -0.821621 0
M  V30 2699 H 266.193 4.25573 -0.840837 0
M  V30 2700 H 266.864 5.51644 0.198317 0
M  V30 2701 H 269.34 3.94723 1.31655 0
M  V30 2702 H 268.216 5.04941 2.15234 0
M  V30 2703 H 268.477 3.43226 2.78654 0
M  V30 2704 N 267.536 -0.106894 1.57237 0
M  V30 2705 C 268.446 -1.14911 2.0453 0
M  V30 2706 C 269.462 -1.44592 0.96795 0
M  V30 2707 O 270.638 -1.55468 1.2803 0
M  V30 2708 C 267.703 -2.45272 2.45036 0
M  V30 2709 C 266.764 -2.22879 3.66911 0
M  V30 2710 C 265.997 -3.47024 4.05475 0
M  V30 2711 O 266.22 -4.54804 3.44252 0
M  V30 2712 O 265.154 -3.3731 4.98504 0
M  V30 2713 H 268.98 -0.777461 2.9358 0
M  V30 2714 H 266.565 -0.318563 1.45964 0
M  V30 2715 H 268.447 -3.22055 2.71769 0
M  V30 2716 H 267.122 -2.81886 1.59129 0
M  V30 2717 H 266.029 -1.43915 3.45311 0
M  V30 2718 H 267.362 -1.91163 4.53561 0
M  V30 2719 N 269.014 -1.53014 -0.377408 0
M  V30 2720 C 270.26 -1.68872 -1.12294 0
M  V30 2721 C 270.593 -0.433224 -1.89306 0
M  V30 2722 O 269.868 0.569258 -1.85983 0
M  V30 2723 C 270.151 -2.93115 -2.09179 0
M  V30 2724 C 270.004 -4.28794 -1.35853 0
M  V30 2725 C 271.323 -3.12928 -3.09458 0
M  V30 2726 H 268.442 -0.614518 -0.406862 0
M  V30 2727 H 271.084 -1.85633 -0.40503 0
M  V30 2728 H 269.234 -2.78956 -2.70399 0
M  V30 2729 H 270.906 -4.54742 -0.775082 0
M  V30 2730 H 269.149 -4.28744 -0.660364 0
M  V30 2731 H 269.82 -5.11837 -2.06706 0
M  V30 2732 H 272.296 -3.26194 -2.58334 0
M  V30 2733 H 271.172 -4.01316 -3.74482 0
M  V30 2734 H 271.433 -2.27669 -3.78971 0
M  V30 2735 N 270.492 0.636531 -1.44174 0
M  V30 2736 C 271.739 1.39619 -1.46672 0
M  V30 2737 C 272.067 1.94257 -0.0972691 0
M  V30 2738 O 271.322 1.73768 0.900175 0
M  V30 2739 C 271.621 2.58309 -2.47005 0
M  V30 2740 C 271.287 2.21992 -3.92467 0
M  V30 2741 C 269.949 2.118 -4.32081 0
M  V30 2742 C 272.301 1.9321 -4.84065 0
M  V30 2743 C 269.629 1.71007 -5.61225 0
M  V30 2744 C 271.981 1.53911 -6.13591 0
M  V30 2745 C 270.645 1.42257 -6.52165 0
M  V30 2746 H 269.915 0.510902 -0.536712 0
M  V30 2747 H 272.562 0.722328 -1.77355 0
M  V30 2748 H 270.867 3.30903 -2.09786 0
M  V30 2749 H 272.564 3.16533 -2.46186 0
M  V30 2750 H 269.154 2.30841 -3.61124 0
M  V30 2751 H 273.338 1.99997 -4.54219 0
M  V30 2752 H 268.594 1.60583 -5.89935 0
M  V30 2753 H 272.768 1.30677 -6.8403 0
M  V30 2754 H 270.395 1.10419 -7.52138 0
M  V30 2755 N 271.97 1.30982 0.876444 0
M  V30 2756 C 273.216 1.20474 1.63138 0
M  V30 2757 C 273.549 -0.238096 1.92735 0
M  V30 2758 O 272.824 -1.1692 1.55435 0
M  V30 2759 C 273.107 2.04244 2.96574 0
M  V30 2760 C 272.96 3.56793 2.73896 0
M  V30 2761 C 274.279 1.88684 3.97601 0
M  V30 2762 H 271.398 0.439001 0.591985 0
M  V30 2763 H 274.04 1.60704 1.01361 0
M  V30 2764 H 272.19 1.70063 3.493 0
M  V30 2765 H 273.862 4.01077 2.27892 0
M  V30 2766 H 272.105 3.80548 2.08245 0
M  V30 2767 H 272.776 4.10706 3.68815 0
M  V30 2768 H 275.252 2.18584 3.54062 0
M  V30 2769 H 274.128 2.4961 4.88862 0
M  V30 2770 H 274.389 0.848343 4.33884 0
M  V30 2771 N 273.449 -1.08991 1.13837 0
M  V30 2772 C 274.695 -1.81526 0.90422 0
M  V30 2773 C 275.028 -1.85706 -0.568066 0
M  V30 2774 O 274.303 -1.32855 -1.42056 0
M  V30 2775 C 274.586 -3.27447 1.49835 0
M  V30 2776 C 274.439 -3.31512 3.04006 0
M  V30 2777 C 275.758 -4.24256 1.17025 0
M  V30 2778 H 272.877 -0.659029 0.329923 0
M  V30 2779 H 275.519 -1.27644 1.40737 0
M  V30 2780 H 273.669 -3.73462 1.07044 0
M  V30 2781 H 275.341 -2.93867 3.55584 0
M  V30 2782 H 273.584 -2.70963 3.38765 0
M  V30 2783 H 274.255 -4.34329 3.40679 0
M  V30 2784 H 276.731 -3.86549 1.54009 0
M  V30 2785 H 275.607 -5.24684 1.61237 0
M  V30 2786 H 275.868 -4.42019 0.0846274 0
M  V30 2787 N 274.927 -0.932562 -1.27047 0
M  V30 2788 C 276.175 -0.574422 -1.93765 0
M  V30 2789 C 276.496 0.887993 -1.73608 0
M  V30 2790 O 275.766 1.62999 -1.08665 0
M  V30 2791 H 274.346 -0.209451 -0.717035 0
M  V30 2792 H 277.008 -1.18601 -1.5466 0
M  V30 2793 H 276.104 -0.784841 -3.02071 0
M  V30 2794 N 276.405 1.4127 -0.698611 0
M  V30 2795 C 277.652 2.0118 -0.230865 0
M  V30 2796 C 277.98 1.55338 1.17049 0
M  V30 2797 O 277.235 0.756775 1.80475 0
M  V30 2798 C 277.534 3.56592 -0.240192 0
M  V30 2799 C 277.2 4.21955 -1.58948 0
M  V30 2800 C 275.862 4.39524 -1.95887 0
M  V30 2801 C 278.214 4.58576 -2.47704 0
M  V30 2802 C 275.542 4.90992 -3.2116 0
M  V30 2803 C 277.894 5.11435 -3.72313 0
M  V30 2804 C 276.558 5.27215 -4.0939 0
M  V30 2805 H 275.828 0.736169 -0.0844796 0
M  V30 2806 H 278.475 1.69124 -0.8983 0
M  V30 2807 H 276.78 3.88456 0.510797 0
M  V30 2808 H 278.477 4.00758 0.139296 0
M  V30 2809 H 275.067 4.08657 -1.29219 0
M  V30 2810 H 279.251 4.44654 -2.20445 0
M  V30 2811 H 274.507 5.01393 -3.49878 0
M  V30 2812 H 278.681 5.38752 -4.4127 0
M  V30 2813 H 276.308 5.66859 -5.06533 0
M  V30 2814 N 277.883 0.443576 1.51229 0
M  V30 2815 C 279.129 -0.120975 2.02439 0
M  V30 2816 C 279.462 -1.41815 1.32674 0
M  V30 2817 O 278.737 -1.89373 0.443622 0
M  V30 2818 C 279.02 -0.333291 3.58554 0
M  V30 2819 C 278.873 0.982968 4.38928 0
M  V30 2820 C 280.192 -1.10028 4.26124 0
M  V30 2821 H 277.311 -0.0424923 0.735774 0
M  V30 2822 H 279.953 0.583794 1.80809 0
M  V30 2823 H 278.103 -0.933614 3.77115 0
M  V30 2824 H 279.775 1.61775 4.32003 0
M  V30 2825 H 278.018 1.58611 4.03763 0
M  V30 2826 H 278.689 0.788379 5.46341 0
M  V30 2827 H 281.165 -0.591711 4.11871 0
M  V30 2828 H 280.041 -1.21761 5.35225 0
M  V30 2829 H 280.302 -2.12996 3.87408 0
M  V30 2830 N 279.361 -1.56624 0.175154 0
M  V30 2831 C 280.291 -2.21155 -0.749195 0
M  V30 2832 C 281.272 -1.16836 -1.23626 0
M  V30 2833 O 282.457 -1.45277 -1.28873 0
M  V30 2834 C 279.587 -2.8553 -1.97711 0
M  V30 2835 C 278.541 -3.95921 -1.62575 0
M  V30 2836 C 277.867 -4.47365 -2.92864 0
M  V30 2837 C 279.167 -5.15323 -0.850838 0
M  V30 2838 H 280.861 -2.98653 -0.211295 0
M  V30 2839 H 278.407 -1.43651 -0.100188 0
M  V30 2840 H 280.36 -3.2935 -2.62881 0
M  V30 2841 H 279.084 -2.05406 -2.53921 0
M  V30 2842 H 277.743 -3.52762 -0.997719 0
M  V30 2843 H 277.391 -3.64027 -3.47122 0
M  V30 2844 H 277.091 -5.21839 -2.70106 0
M  V30 2845 H 278.615 -4.93873 -3.59056 0
M  V30 2846 H 280.029 -5.55812 -1.40521 0
M  V30 2847 H 278.426 -5.95739 -0.722154 0
M  V30 2848 H 279.496 -4.84661 0.152082 0
M  V30 2849 N 280.839 0.0985539 -1.57292 0
M  V30 2850 C 282.25 0.653457 -1.74891 0
M  V30 2851 C 282.601 1.7929 -0.796838 0
M  V30 2852 O 281.726 2.16385 0.0254886 0
M  V30 2853 C 282.321 1.19216 -3.17133 0
M  V30 2854 C 280.88 1.69316 -3.36168 0
M  V30 2855 C 280.027 0.601294 -2.70702 0
M  V30 2856 H 282.978 -0.127497 -1.58187 0
M  V30 2857 H 282.999 2.06154 -3.19814 0
M  V30 2858 H 282.511 0.362635 -3.86402 0
M  V30 2859 H 280.612 2.5468 -2.71972 0
M  V30 2860 H 280.725 1.78853 -4.44464 0
M  V30 2861 H 279.089 1.0399 -2.32504 0
M  V30 2862 H 279.872 -0.217592 -3.4261 0
M  V30 2863 N 282.317 1.53212 0.369288 0
M  V30 2864 C 283.542 1.73423 1.1375 0
M  V30 2865 C 283.967 0.460404 1.82378 0
M  V30 2866 O 283.325 -0.585298 1.71592 0
M  V30 2867 C 283.373 2.89769 2.1463 0
M  V30 2868 O 282.477 2.58119 3.21634 0
M  V30 2869 H 281.818 0.576061 0.330227 0
M  V30 2870 H 284.348 2.00083 0.427547 0
M  V30 2871 H 284.358 3.15829 2.58294 0
M  V30 2872 H 283.033 3.8217 1.64071 0
M  V30 2873 H 281.61 2.42864 2.82969 0
M  V30 2874 N 283.795 -0.628877 1.44509 0
M  V30 2875 C 284.758 -1.72263 1.51188 0
M  V30 2876 C 285.758 -1.55907 0.39367 0
M  V30 2877 O 286.948 -1.61361 0.656377 0
M  V30 2878 C 284.08 -3.11365 1.38798 0
M  V30 2879 H 285.273 -1.67714 2.4862 0
M  V30 2880 H 282.826 -0.842737 1.31634 0
M  V30 2881 H 283.561 -3.21507 0.424693 0
M  V30 2882 H 283.346 -3.24644 2.19884 0
M  V30 2883 H 284.836 -3.91075 1.46458 0
M  V30 2884 N 285.273 -1.31445 -0.869486 0
M  V30 2885 C 286.183 -1.21097 -2.0093 0
M  V30 2886 C 287.199 -0.127584 -1.73532 0
M  V30 2887 O 288.375 -0.345477 -1.98415 0
M  V30 2888 C 285.44 -0.919378 -3.34288 0
M  V30 2889 C 284.501 -2.08971 -3.75006 0
M  V30 2890 C 283.734 -1.81194 -5.02001 0
M  V30 2891 O 283.957 -0.747296 -5.65484 0
M  V30 2892 O 282.891 -2.66883 -5.39497 0
M  V30 2893 H 286.717 -2.16883 -2.12592 0
M  V30 2894 H 284.302 -1.11189 -0.997868 0
M  V30 2895 H 286.184 -0.772625 -4.14257 0
M  V30 2896 H 284.859 0.00844772 -3.23699 0
M  V30 2897 H 283.766 -2.29187 -2.95676 0
M  V30 2898 H 285.099 -2.9998 -3.90221 0
M  V30 2899 N 286.751 1.08385 -1.14413 0
M  V30 2900 C 287.698 2.15311 -0.831265 0
M  V30 2901 C 288.668 1.64751 0.211292 0
M  V30 2902 O 289.853 1.90627 0.0811674 0
M  V30 2903 C 286.993 3.43658 -0.315143 0
M  V30 2904 C 286.106 4.08064 -1.41802 0
M  V30 2905 C 285.241 5.24207 -0.859126 0
M  V30 2906 C 284.28 5.80554 -1.93967 0
M  V30 2907 N 283.417 6.88042 -1.39793 0
M  V30 2908 H 288.257 2.41415 -1.74708 0
M  V30 2909 H 285.794 1.18474 -0.871909 0
M  V30 2910 H 287.752 4.172 0.00230884 0
M  V30 2911 H 286.382 3.17839 0.56378 0
M  V30 2912 H 285.434 3.3228 -1.85187 0
M  V30 2913 H 286.746 4.45962 -2.23427 0
M  V30 2914 H 285.9 6.04689 -0.49359 0
M  V30 2915 H 284.639 4.87699 -0.011932 0
M  V30 2916 H 283.644 4.98725 -2.31415 0
M  V30 2917 H 284.869 6.19121 -2.79046 0
M  V30 2918 H 282.815 6.53493 -0.572919 0
M  V30 2919 H 282.732 7.24767 -2.15054 0
M  V30 2920 H 284 7.72255 -1.0603 0
M  V30 2921 N 288.23 0.939286 1.26551 0
M  V30 2922 C 289.507 0.5038 1.89001 0
M  V30 2923 C 289.887 -1.01854 1.84903 0
M  V30 2924 O 289.235 -1.87773 1.30206 0
M  V30 2925 C 289.445 1.063 3.32417 0
M  V30 2926 C 290.793 1.13051 4.09273 0
M  V30 2927 O 291.817 1.01345 3.41479 0
M  V30 2928 O 290.676 1.31233 5.30509 0
M  V30 2929 H 287.77 0.163897 0.810597 0
M  V30 2930 H 290.316 1.03173 1.34735 0
M  V30 2931 H 289.088 2.10665 3.29752 0
M  V30 2932 H 288.711 0.517408 3.94219 0
M  V30 2933 N 289.708 -1.40897 0.706093 0
M  V30 2934 C 290.641 -2.282 -0.00328781 0
M  V30 2935 C 291.619 -1.42816 -0.77732 0
M  V30 2936 O 292.803 -1.72237 -0.765944 0
M  V30 2937 C 289.93 -3.23226 -1.01205 0
M  V30 2938 C 288.976 -4.25222 -0.329955 0
M  V30 2939 S 289.809 -5.27269 0.935298 0
M  V30 2940 C 290.965 -6.25859 -0.0716061 0
M  V30 2941 H 291.198 -2.88016 0.737143 0
M  V30 2942 H 288.731 -1.46191 0.496756 0
M  V30 2943 H 290.689 -3.78503 -1.58888 0
M  V30 2944 H 289.35 -2.62485 -1.72513 0
M  V30 2945 H 288.543 -4.92023 -1.09221 0
M  V30 2946 H 288.145 -3.73595 0.174069 0
M  V30 2947 H 290.437 -6.71204 -0.921521 0
M  V30 2948 H 291.38 -7.0586 0.562765 0
M  V30 2949 H 291.788 -5.62852 -0.431088 0
M  V30 2950 N 291.186 -0.45159 -1.50991 0
M  V30 2951 C 292.426 0.109066 -2.04109 0
M  V30 2952 C 292.79 1.38716 -1.32747 0
M  V30 2953 O 293.991 2.02896 -1.76314 0
M  V30 2954 C 292.262 0.308354 -3.56067 0
M  V30 2955 S 293.821 0.830369 -4.30872 0
M  V30 2956 H 290.639 0.0251531 -0.710555 0
M  V30 2957 H 293.241 -0.614264 -1.85599 0
M  V30 2958 H 291.945 -0.627962 -4.05567 0
M  V30 2959 H 291.476 1.05836 -3.78896 0
M  V30 2960 H 293.491 2.10626 -4.49279 0
M  V30 2961 N 292.664 1.56529 -0.183458 0
M  V30 2962 C 293.594 2.21549 0.737456 0
M  V30 2963 C 294.575 1.17489 1.23005 0
M  V30 2964 O 295.76 1.45959 1.281 0
M  V30 2965 C 292.89 2.86575 1.96194 0
M  V30 2966 C 291.844 3.96778 1.60473 0
M  V30 2967 C 291.17 4.48911 2.90487 0
M  V30 2968 C 292.47 5.15767 0.823497 0
M  V30 2969 H 294.164 2.98761 0.195453 0
M  V30 2970 H 291.71 1.43702 0.0925686 0
M  V30 2971 H 293.663 3.30739 2.61131 0
M  V30 2972 H 292.387 2.06749 2.52828 0
M  V30 2973 H 291.046 3.53286 0.978997 0
M  V30 2974 H 290.694 3.65862 3.45186 0
M  V30 2975 H 290.394 5.23265 2.67335 0
M  V30 2976 H 291.918 4.95771 3.56432 0
M  V30 2977 H 293.332 5.56549 1.37571 0
M  V30 2978 H 291.729 5.96114 0.690551 0
M  V30 2979 H 292.799 4.84574 -0.177782 0
M  V30 2980 N 294.142 -0.090211 1.57342 0
M  V30 2981 C 295.367 -0.810082 1.90925 0
M  V30 2982 C 295.792 -1.71248 0.778187 0
M  V30 2983 O 295.15 -1.79278 -0.269991 0
M  V30 2984 C 295.198 -1.59529 3.23393 0
M  V30 2985 O 294.302 -2.70461 3.11327 0
M  V30 2986 H 293.643 -0.222231 0.625707 0
M  V30 2987 H 296.173 -0.0639716 2.045 0
M  V30 2988 H 296.183 -1.97847 3.5682 0
M  V30 2989 H 294.858 -0.933055 4.05299 0
M  V30 2990 H 293.435 -2.35135 2.89423 0
M  V30 2991 N 295.62 -1.53406 -0.361157 0
M  V30 2992 C 296.897 -1.60411 -1.11927 0
M  V30 2993 C 297.277 -0.414385 -2.06993 0
M  V30 2994 O 296.625 0.594976 -2.20618 0
M  V30 2995 C 296.835 -2.95652 -1.85448 0
M  V30 2996 C 298.183 -3.50386 -2.39823 0
M  V30 2997 O 299.207 -2.97711 -1.95568 0
M  V30 2998 O 298.066 -4.42482 -3.20737 0
M  V30 2999 H 295.16 -0.64811 -0.513695 0
M  V30 3000 H 297.706 -1.65749 -0.364065 0
M  V30 3001 H 296.478 -3.73682 -1.16091 0
M  V30 3002 H 296.101 -2.93825 -2.67866 0
M  V30 3003 N 297.098 0.621204 -1.44841 0
M  V30 3004 C 298.323 1.41244 -1.51871 0
M  V30 3005 C 298.748 1.87519 -0.147764 0
M  V30 3006 O 298.106 1.59334 0.865 0
M  V30 3007 C 298.154 2.60221 -2.49634 0
M  V30 3008 O 297.258 3.60395 -2.00473 0
M  V30 3009 H 296.599 0.42223 -0.512463 0
M  V30 3010 H 299.129 0.757305 -1.90069 0
M  V30 3011 H 299.139 3.0764 -2.67996 0
M  V30 3012 H 297.814 2.25887 -3.4921 0
M  V30 3013 H 296.391 3.19717 -1.91925 0
M  V30 3014 N 298.576 1.31904 0.862503 0
M  V30 3015 C 299.524 1.20125 1.9918 0
M  V30 3016 C 300.518 0.107824 1.69056 0
M  V30 3017 O 301.724 0.270223 1.7796 0
M  V30 3018 H 298.099 0.372148 0.65346 0
M  V30 3019 H 300.07 2.15652 2.06244 0
M  V30 3020 C 298.819 0.933099 3.34946 0
M  V30 3021 H 298.142 1.76664 3.5865 0
M  V30 3022 H 299.582 0.890892 4.14535 0
M  V30 3023 C 298.041 -0.364172 3.34926 0
M  V30 3024 O 298.571 -1.37858 3.77304 0
M  V30 3025 N 296.777 -0.383362 2.8806 0
M  V30 3026 H 296.324 0.442651 2.53768 0
M  V30 3027 H 296.282 -1.25123 2.8843 0
M  V30 3028 N 300.054 -1.07777 1.14986 0
M  V30 3029 C 301.001 -2.14867 0.842672 0
M  V30 3030 C 301.971 -1.6486 -0.202552 0
M  V30 3031 O 303.156 -1.90668 -0.0710568 0
M  V30 3032 C 300.296 -3.43486 0.333363 0
M  V30 3033 C 299.409 -4.07306 1.43965 0
M  V30 3034 C 298.544 -5.23744 0.886914 0
M  V30 3035 C 297.583 -5.79517 1.97043 0
M  V30 3036 N 296.72 -6.87291 1.4344 0
M  V30 3037 H 301.56 -2.40485 1.75986 0
M  V30 3038 H 299.097 -1.1801 0.878179 0
M  V30 3039 H 301.055 -4.17195 0.0198163 0
M  V30 3040 H 299.685 -3.18133 -0.546916 0
M  V30 3041 H 298.737 -3.31293 1.86946 0
M  V30 3042 H 300.049 -4.44771 2.25788 0
M  V30 3043 H 299.203 -6.04419 0.525651 0
M  V30 3044 H 297.942 -4.87685 0.0377957 0
M  V30 3045 H 296.947 -4.97491 2.34057 0
M  V30 3046 H 298.172 -6.17632 2.82325 0
M  V30 3047 H 296.118 -6.5318 0.607567 0
M  V30 3048 H 296.035 -7.23617 2.18895 0
M  V30 3049 H 297.303 -7.71682 1.10124 0
M  V30 3050 N 301.532 -0.945985 -1.26051 0
M  V30 3051 C 302.78 -0.594941 -1.93145 0
M  V30 3052 C 303.101 0.86953 -1.7454 0
M  V30 3053 O 302.371 1.61838 -1.10387 0
M  V30 3054 H 300.951 -0.217044 -0.714773 0
M  V30 3055 H 303.613 -1.20235 -1.53393 0
M  V30 3056 H 302.709 -0.816835 -3.01221 0
M  V30 3057 N 303.011 1.40521 -0.713556 0
M  V30 3058 C 303.944 2.28198 -0.00881422 0
M  V30 3059 C 304.922 1.43227 0.769735 0
M  V30 3060 O 306.106 1.72641 0.756799 0
M  V30 3061 C 303.233 3.23758 0.994899 0
M  V30 3062 C 302.279 4.25391 0.3074 0
M  V30 3063 S 303.112 5.26765 -0.963247 0
M  V30 3064 C 304.268 6.25888 0.0384143 0
M  V30 3065 H 304.501 2.87622 -0.752407 0
M  V30 3066 H 302.034 1.45925 -0.504502 0
M  V30 3067 H 303.992 3.79341 1.56879 0
M  V30 3068 H 302.653 2.63396 1.71118 0
M  V30 3069 H 301.846 4.92596 1.0661 0
M  V30 3070 H 301.448 3.73497 -0.193879 0
M  V30 3071 H 303.74 6.71683 0.885912 0
M  V30 3072 H 304.683 7.05552 -0.60019 0
M  V30 3073 H 305.091 5.63072 0.401233 0
M  V30 3074 N 304.489 0.459591 1.5075 0
M  V30 3075 C 305.419 -0.330644 2.31147 0
M  V30 3076 C 306.4 -1.00087 1.37538 0
M  V30 3077 O 307.585 -1.00025 1.66459 0
M  V30 3078 C 304.715 -1.41958 3.16962 0
M  V30 3079 C 303.669 -0.871608 4.19031 0
M  V30 3080 C 302.995 -2.05797 4.9351 0
M  V30 3081 C 304.295 0.109251 5.22186 0
M  V30 3082 H 305.989 0.340336 2.97459 0
M  V30 3083 H 303.535 0.165119 1.4305 0
M  V30 3084 H 305.488 -1.9798 3.71997 0
M  V30 3085 H 304.212 -2.11917 2.48513 0
M  V30 3086 H 302.871 -0.333442 3.6508 0
M  V30 3087 H 302.519 -2.74427 4.21544 0
M  V30 3088 H 302.219 -1.6976 5.62544 0
M  V30 3089 H 303.743 -2.62331 5.51375 0
M  V30 3090 H 305.157 -0.361405 5.7216 0
M  V30 3091 H 303.554 0.383316 5.98875 0
M  V30 3092 H 304.624 1.03887 4.73641 0
M  V30 3093 N 305.967 -1.56429 0.191757 0
M  V30 3094 C 307.215 -1.97095 -0.447006 0
M  V30 3095 C 307.536 -1.07967 -1.62383 0
M  V30 3096 O 306.806 -0.150248 -1.95323 0
M  V30 3097 H 305.386 -0.727832 -0.168135 0
M  V30 3098 H 308.048 -1.92911 0.27771 0
M  V30 3099 H 307.144 -3.01848 -0.793371 0
M  V30 3100 N 307.445 0.0818655 -1.57387 0
M  V30 3101 C 308.375 1.09885 -2.06028 0
M  V30 3102 C 309.356 1.4098 -0.951774 0
M  V30 3103 O 310.541 1.50781 -1.22387 0
M  V30 3104 C 307.671 2.4151 -2.4958 0
M  V30 3105 C 306.625 2.24792 -3.64215 0
M  V30 3106 C 305.951 3.61712 -3.93787 0
M  V30 3107 C 307.251 1.67749 -4.94629 0
M  V30 3108 H 308.945 0.694128 -2.91243 0
M  V30 3109 H 306.491 0.332448 -1.4011 0
M  V30 3110 H 308.444 3.12939 -2.82219 0
M  V30 3111 H 307.168 2.83943 -1.61381 0
M  V30 3112 H 305.827 1.55807 -3.31843 0
M  V30 3113 H 305.475 4.01697 -3.02735 0
M  V30 3114 H 305.175 3.51368 -4.70971 0
M  V30 3115 H 306.699 4.34587 -4.28913 0
M  V30 3116 H 308.113 2.29032 -5.25564 0
M  V30 3117 H 306.51 1.68128 -5.76067 0
M  V30 3118 H 307.58 0.638059 -4.80684 0
M  V30 3119 N 308.923 1.53595 0.353017 0
M  V30 3120 C 310.172 1.69603 1.09168 0
M  V30 3121 C 310.485 0.460925 1.90092 0
M  V30 3122 O 311.691 0.501774 2.66823 0
M  V30 3123 C 310.147 2.99872 1.9901 0
M  V30 3124 C 309.755 4.30687 1.23339 0
M  V30 3125 C 311.499 3.25246 2.72792 0
M  V30 3126 C 309.406 5.52036 2.12156 0
M  V30 3127 H 308.336 0.631966 0.411261 0
M  V30 3128 H 310.987 1.80096 0.351802 0
M  V30 3129 H 309.369 2.83212 2.7678 0
M  V30 3130 H 310.543 4.58019 0.505456 0
M  V30 3131 H 308.858 4.11853 0.613663 0
M  V30 3132 H 311.455 4.13095 3.39495 0
M  V30 3133 H 311.798 2.41846 3.38846 0
M  V30 3134 H 312.331 3.42638 2.021 0
M  V30 3135 H 309.07 6.37951 1.50659 0
M  V30 3136 H 308.59 5.28966 2.82764 0
M  V30 3137 H 310.269 5.87313 2.71427 0
M  V30 3138 N 310.401 -0.613514 1.45168 0
M  V30 3139 C 311.647 -1.37471 1.49096 0
M  V30 3140 C 311.98 -1.93765 0.129901 0
M  V30 3141 O 311.255 -1.74707 -0.854858 0
M  V30 3142 C 311.538 -2.52701 2.56542 0
M  V30 3143 C 311.391 -2.01643 4.0207 0
M  V30 3144 C 312.71 -3.54849 2.60327 0
M  V30 3145 H 309.829 -0.498502 0.54283 0
M  V30 3146 H 312.471 -0.692125 1.76945 0
M  V30 3147 H 310.621 -3.10931 2.32926 0
M  V30 3148 H 312.293 -1.48108 4.36877 0
M  V30 3149 H 310.536 -1.32688 4.13009 0
M  V30 3150 H 311.207 -2.84681 4.72928 0
M  V30 3151 H 313.683 -3.0645 2.81474 0
M  V30 3152 H 312.559 -4.32973 3.37381 0
M  V30 3153 H 312.82 -4.10079 1.6519 0
M  V30 3154 N 311.879 -1.3236 -0.855495 0
M  V30 3155 C 313.109 -1.25688 -1.6397 0
M  V30 3156 C 313.517 0.177592 -1.88365 0
M  V30 3157 O 312.86 1.12485 -1.45234 0
M  V30 3158 C 312.922 -1.94602 -3.02275 0
M  V30 3159 C 312.586 -3.43937 -3.00926 0
M  V30 3160 C 313.583 -4.39435 -2.77835 0
M  V30 3161 C 311.268 -3.85858 -3.21588 0
M  V30 3162 C 313.262 -5.74829 -2.75409 0
M  V30 3163 C 310.949 -5.21361 -3.18789 0
M  V30 3164 C 311.947 -6.15658 -2.95727 0
M  V30 3165 O 311.635 -7.48681 -2.928 0
M  V30 3166 H 311.367 -0.434972 -0.51747 0
M  V30 3167 H 313.921 -1.75023 -1.075 0
M  V30 3168 H 312.151 -1.39836 -3.60531 0
M  V30 3169 H 313.84 -1.81651 -3.62985 0
M  V30 3170 H 314.606 -4.08374 -2.6164 0
M  V30 3171 H 310.485 -3.12883 -3.38564 0
M  V30 3172 H 314.029 -6.48404 -2.57328 0
M  V30 3173 H 309.926 -5.52052 -3.34528 0
M  V30 3174 H 310.694 -7.5803 -3.0876 0
M  V30 3175 N 313.357 1.07166 -1.15556 0
M  V30 3176 C 314.287 2.16403 -0.877046 0
M  V30 3177 C 315.268 1.69217 0.173111 0
M  V30 3178 O 316.453 1.94181 0.027084 0
M  V30 3179 C 313.583 3.45349 -0.367632 0
M  V30 3180 C 312.537 4.05995 -1.35468 0
M  V30 3181 C 311.863 5.30045 -0.704038 0
M  V30 3182 C 313.163 4.45804 -2.72132 0
M  V30 3183 H 314.857 2.39959 -1.79053 0
M  V30 3184 H 312.403 1.15325 -0.862331 0
M  V30 3185 H 314.356 4.21095 -0.160317 0
M  V30 3186 H 313.08 3.21385 0.581326 0
M  V30 3187 H 311.739 3.32296 -1.54839 0
M  V30 3188 H 311.387 5.02373 0.251128 0
M  V30 3189 H 311.087 5.71579 -1.36277 0
M  V30 3190 H 312.611 6.08495 -0.50654 0
M  V30 3191 H 314.025 5.12671 -2.56595 0
M  V30 3192 H 312.422 4.98296 -3.34397 0
M  V30 3193 H 313.492 3.57083 -3.28054 0
M  V30 3194 N 314.835 0.952656 1.25548 0
M  V30 3195 C 316.083 0.605176 1.92826 0
M  V30 3196 C 316.404 -0.860261 1.74999 0
M  V30 3197 O 315.674 -1.6125 1.11244 0
M  V30 3198 H 314.254 0.220832 0.713612 0
M  V30 3199 H 316.916 1.21047 1.52754 0
M  V30 3200 H 316.012 0.832798 3.00784 0
M  V30 3201 N 316.313 -1.40141 0.720998 0
M  V30 3202 C 317.246 -2.2819 0.020916 0
M  V30 3203 C 318.224 -1.43633 -0.762129 0
M  V30 3204 O 319.408 -1.7304 -0.747633 0
M  V30 3205 C 316.535 -3.24281 -0.977715 0
M  V30 3206 C 315.581 -4.25548 -0.284836 0
M  V30 3207 S 316.414 -5.26247 0.991169 0
M  V30 3208 C 317.57 -6.259 -0.0052214 0
M  V30 3209 H 317.803 -2.87218 0.767649 0
M  V30 3210 H 315.336 -1.45656 0.512233 0
M  V30 3211 H 317.294 -3.80167 -1.54865 0
M  V30 3212 H 315.955 -2.643 -1.69719 0
M  V30 3213 H 315.148 -4.93154 -1.03996 0
M  V30 3214 H 314.75 -3.73389 0.213684 0
M  V30 3215 H 317.042 -6.72143 -0.850279 0
M  V30 3216 H 317.985 -7.05224 0.637599 0
M  V30 3217 H 318.393 -5.63277 -0.371366 0
M  V30 3218 N 317.792 -0.46758 -1.50504 0
M  V30 3219 C 318.725 0.374324 -2.25109 0
M  V30 3220 C 319.703 0.99921 -1.28275 0
M  V30 3221 O 320.887 1.03583 -1.57489 0
M  V30 3222 C 318.014 1.52419 -3.02467 0
M  V30 3223 C 317.06 1.01702 -4.14197 0
M  V30 3224 S 317.893 -0.0654477 -5.3546 0
M  V30 3225 C 319.049 1.08837 -6.16365 0
M  V30 3226 H 319.282 -0.258983 -2.9617 0
M  V30 3227 H 316.815 -0.252421 -1.52323 0
M  V30 3228 H 318.773 2.18322 -3.47628 0
M  V30 3229 H 317.434 2.129 -2.30938 0
M  V30 3230 H 316.627 1.87776 -4.67714 0
M  V30 3231 H 316.229 0.435757 -3.71453 0
M  V30 3232 H 318.521 2.00071 -6.47285 0
M  V30 3233 H 319.464 0.592538 -7.05616 0
M  V30 3234 H 319.872 1.34061 -5.4835 0
M  V30 3235 N 319.27 1.56325 -0.20005 0
M  V30 3236 C 320.516 1.98012 0.438059 0
M  V30 3237 C 320.849 1.08702 1.60927 0
M  V30 3238 O 320.124 0.140064 1.93995 0
M  V30 3239 C 320.407 3.48841 0.893419 0
M  V30 3240 C 320.26 4.48928 -0.279947 0
M  V30 3241 C 321.579 4.03498 1.75719 0
M  V30 3242 H 318.698 0.719918 0.157757 0
M  V30 3243 H 321.34 1.87743 -0.291968 0
M  V30 3244 H 319.49 3.57723 1.51547 0
M  V30 3245 H 321.162 4.52079 -0.91772 0
M  V30 3246 H 319.405 4.23694 -0.930919 0
M  V30 3247 H 320.076 5.5194 0.0812601 0
M  V30 3248 H 322.552 3.97427 1.23253 0
M  V30 3249 H 321.428 5.09393 2.04476 0
M  V30 3250 H 321.689 3.4906 2.71311 0
M  V30 3251 N 320.748 -0.0735177 1.57428 0
M  V30 3252 C 321.996 -0.771472 1.86796 0
M  V30 3253 C 322.317 -1.78201 0.791804 0
M  V30 3254 O 321.587 -1.95074 -0.179718 0
M  V30 3255 H 320.167 -0.28791 0.689287 0
M  V30 3256 H 322.829 -0.0500161 1.94836 0
M  V30 3257 H 321.925 -1.28874 2.8425 0
M  V30 3258 N 322.226 -1.5378 -0.344866 0
M  V30 3259 C 323.189 -1.80981 -1.40637 0
M  V30 3260 C 324.189 -0.680816 -1.45676 0
M  V30 3261 O 325.379 -0.949095 -1.46075 0
M  V30 3262 C 322.511 -1.95063 -2.79577 0
M  V30 3263 H 323.704 -2.75803 -1.17783 0
M  V30 3264 H 321.257 -1.45173 -0.579181 0
M  V30 3265 H 321.992 -1.02379 -3.07716 0
M  V30 3266 H 321.777 -2.77198 -2.77315 0
M  V30 3267 H 323.267 -2.17629 -3.56409 0
M  V30 3268 N 323.704 0.605807 -1.45491 0
M  V30 3269 C 324.951 1.36476 -1.49601 0
M  V30 3270 C 325.279 1.94007 -0.138452 0
M  V30 3271 O 324.534 1.75638 0.863114 0
M  V30 3272 C 324.833 2.53012 -2.52428 0
M  V30 3273 C 324.499 2.13617 -3.97087 0
M  V30 3274 C 323.161 2.02587 -4.36477 0
M  V30 3275 C 325.513 1.82899 -4.88055 0
M  V30 3276 C 322.841 1.59064 -5.64726 0
M  V30 3277 C 325.193 1.40861 -6.16718 0
M  V30 3278 C 323.857 1.28391 -6.55036 0
M  V30 3279 H 323.127 0.499402 -0.547429 0
M  V30 3280 H 325.774 0.684546 -1.78847 0
M  V30 3281 H 324.079 3.26379 -2.16758 0
M  V30 3282 H 325.776 3.1124 -2.52845 0
M  V30 3283 H 322.366 2.23129 -3.65939 0
M  V30 3284 H 326.55 1.90317 -4.58359 0
M  V30 3285 H 321.806 1.48034 -5.93208 0
M  V30 3286 H 325.98 1.16138 -6.86648 0
M  V30 3287 H 323.607 0.944403 -7.54311 0
M  V30 3288 N 325.182 1.32811 0.848464 0
M  V30 3289 C 326.112 1.24882 1.97299 0
M  V30 3290 C 327.093 0.131357 1.69592 0
M  V30 3291 O 328.278 0.319553 1.91553 0
M  V30 3292 C 325.408 0.97746 3.33261 0
M  V30 3293 C 324.362 2.05682 3.75338 0
M  V30 3294 C 323.688 1.63777 5.09 0
M  V30 3295 C 324.988 3.47254 3.90144 0
M  V30 3296 H 326.682 2.18966 2.04191 0
M  V30 3297 H 324.228 1.05413 0.981029 0
M  V30 3298 H 326.181 0.908513 4.1149 0
M  V30 3299 H 324.905 0.000980011 3.266 0
M  V30 3300 H 323.564 2.11603 2.99366 0
M  V30 3301 H 323.212 0.648569 4.98801 0
M  V30 3302 H 322.912 2.36 5.38124 0
M  V30 3303 H 324.436 1.5833 5.89715 0
M  V30 3304 H 325.85 3.43888 4.58709 0
M  V30 3305 H 324.247 4.1788 4.30693 0
M  V30 3306 H 325.317 3.86462 2.92874 0
M  V30 3307 N 326.66 -1.06551 1.16123 0
M  V30 3308 C 327.906 -1.79719 0.952505 0
M  V30 3309 C 328.261 -1.85396 -0.514385 0
M  V30 3310 O 327.554 -1.33263 -1.37665 0
M  V30 3311 C 327.748 -3.23911 1.51052 0
M  V30 3312 C 327.577 -3.32284 3.03013 0
M  V30 3313 C 326.347 -3.42371 3.71632 0
M  V30 3314 C 328.545 -3.22363 4.00732 0
M  V30 3315 N 326.527 -3.39732 5.11327 0
M  V30 3316 C 327.898 -3.26937 5.26794 0
M  V30 3317 C 329.953 -3.0623 3.92591 0
M  V30 3318 C 328.656 -3.17035 6.45663 0
M  V30 3319 C 330.682 -2.97665 5.11028 0
M  V30 3320 C 330.044 -3.02858 6.35969 0
M  V30 3321 H 326.143 -0.670585 0.402293 0
M  V30 3322 H 328.727 -1.27125 1.4747 0
M  V30 3323 H 326.898 -3.74907 1.01484 0
M  V30 3324 H 328.63 -3.85242 1.2398 0
M  V30 3325 H 325.385 -3.47058 3.22254 0
M  V30 3326 H 325.809 -3.41919 5.84312 0
M  V30 3327 H 330.451 -3.01063 2.96852 0
M  V30 3328 H 328.169 -3.2096 7.41627 0
M  V30 3329 H 331.755 -2.86273 5.06497 0
M  V30 3330 H 330.635 -2.96286 7.26075 0
M  V30 3331 N 328.138 -0.959301 -1.25041 0
M  V30 3332 C 329.386 -0.615393 -1.92503 0
M  V30 3333 C 329.707 0.850969 -1.75452 0
M  V30 3334 O 328.977 1.60658 -1.12098 0
M  V30 3335 H 327.557 -0.224613 -0.712431 0
M  V30 3336 H 330.219 -1.21855 -1.5211 0
M  V30 3337 H 329.315 -0.848738 -3.00338 0
M  V30 3338 N 329.616 1.39756 -0.72842 0
M  V30 3339 C 330.864 2.00248 -0.272946 0
M  V30 3340 C 331.185 1.58077 1.14178 0
M  V30 3341 O 330.455 0.826014 1.77634 0
M  V30 3342 H 329.035 0.740554 -0.0979247 0
M  V30 3343 H 331.697 1.70903 -0.936912 0
M  V30 3344 H 330.793 3.10495 -0.316142 0
M  V30 3345 N 331.094 0.475555 1.50254 0
M  V30 3346 C 332.024 -0.30611 2.31485 0
M  V30 3347 C 333.005 -0.986228 1.38591 0
M  V30 3348 O 334.19 -0.982541 1.67511 0
M  V30 3349 C 331.32 -1.38588 3.1845 0
M  V30 3350 C 330.274 -0.827115 4.19932 0
M  V30 3351 C 329.6 -2.00551 4.95665 0
M  V30 3352 C 330.9 0.16463 5.2204 0
M  V30 3353 H 332.594 0.371866 2.97082 0
M  V30 3354 H 330.14 0.180282 1.42867 0
M  V30 3355 H 332.093 -1.94023 3.74076 0
M  V30 3356 H 330.817 -2.09269 2.50747 0
M  V30 3357 H 329.476 -0.294702 3.65414 0
M  V30 3358 H 329.124 -2.6994 4.2443 0
M  V30 3359 H 328.824 -1.63784 5.64313 0
M  V30 3360 H 330.348 -2.56468 5.54127 0
M  V30 3361 H 331.762 -0.300699 5.72511 0
M  V30 3362 H 330.159 0.446813 5.98434 0
M  V30 3363 H 331.229 1.08905 4.72512 0
M  V30 3364 N 332.573 -1.56217 0.208337 0
M  V30 3365 C 333.536 -2.18455 -0.693557 0
M  V30 3366 C 334.536 -1.14268 -1.13135 0
M  V30 3367 O 335.726 -1.39577 -1.0423 0
M  V30 3368 C 332.858 -2.79727 -1.94848 0
M  V30 3369 H 334.051 -2.99519 -0.15114 0
M  V30 3370 H 331.604 -1.56245 -0.041287 0
M  V30 3371 H 332.339 -2.02497 -2.53309 0
M  V30 3372 H 332.124 -3.56009 -1.64316 0
M  V30 3373 H 333.614 -3.27475 -2.59133 0
M  V30 3374 N 334.051 0.0651679 -1.57465 0
M  V30 3375 C 335.328 0.79644 -1.78651 0
M  V30 3376 C 335.708 1.95454 -0.797566 0
M  V30 3377 O 335.056 2.27882 0.167946 0
M  V30 3378 C 335.266 1.26322 -3.25337 0
M  V30 3379 C 336.614 1.6939 -3.89348 0
M  V30 3380 O 337.638 1.35872 -3.29268 0
M  V30 3381 O 336.497 2.31471 -4.95059 0
M  V30 3382 H 333.591 0.382157 -0.733407 0
M  V30 3383 H 336.137 0.0447311 -1.69641 0
M  V30 3384 H 334.909 0.434859 -3.88876 0
M  V30 3385 H 334.532 2.07604 -3.39096 0
M  V30 3386 N 335.529 1.53961 0.336706 0
M  V30 3387 C 336.945 1.44378 0.680241 0
M  V30 3388 C 337.145 0.606034 1.9217 0
M  V30 3389 O 336.201 0.099688 2.52303 0
M  V30 3390 C 337.514 2.87945 0.8665 0
M  V30 3391 C 339.062 2.97763 0.964682 0
M  V30 3392 C 339.537 4.42453 1.18321 0
M  V30 3393 N 341.028 4.46008 1.25025 0
M  V30 3394 C 341.763 5.55102 1.43697 0
M  V30 3395 N 341.259 6.7419 1.59498 0
M  V30 3396 N 343.052 5.42727 1.463 0
M  V30 3397 H 335.203 2.06918 -0.479455 0
M  V30 3398 H 337.466 0.935634 -0.152619 0
M  V30 3399 H 337.172 3.51691 0.0256937 0
M  V30 3400 H 337.046 3.33293 1.76623 0
M  V30 3401 H 339.433 2.34153 1.796 0
M  V30 3402 H 339.514 2.55766 0.041708 0
M  V30 3403 H 339.158 5.06645 0.356788 0
M  V30 3404 H 339.088 4.82048 2.11985 0
M  V30 3405 H 341.579 3.60196 1.14312 0
M  V30 3406 H 341.892 7.53095 1.734 0
M  V30 3407 H 340.237 6.77123 1.56621 0
M  V30 3408 H 343.428 4.48647 1.33543 0
M  V30 3409 H 343.601 6.27806 1.6051 0
M  V30 3410 N 337.007 -0.598083 1.45811 0
M  V30 3411 C 337.937 -1.71873 1.58057 0
M  V30 3412 C 338.918 -1.64533 0.431615 0
M  V30 3413 O 340.103 -1.82787 0.65595 0
M  V30 3414 C 337.233 -3.10495 1.55597 0
M  V30 3415 C 336.187 -3.32654 2.69305 0
M  V30 3416 C 335.513 -4.71646 2.51902 0
M  V30 3417 C 336.813 -3.21981 4.11248 0
M  V30 3418 H 338.507 -1.61881 2.51863 0
M  V30 3419 H 336.053 -0.777372 1.21214 0
M  V30 3420 H 338.006 -3.88699 1.6276 0
M  V30 3421 H 336.73 -3.2135 0.583255 0
M  V30 3422 H 335.389 -2.56843 2.61586 0
M  V30 3423 H 335.037 -4.79246 1.52748 0
M  V30 3424 H 334.737 -4.87426 3.2816 0
M  V30 3425 H 336.261 -5.52038 2.60933 0
M  V30 3426 H 337.675 -3.90049 4.20161 0
M  V30 3427 H 336.072 -3.49289 4.87972 0
M  V30 3428 H 337.142 -2.1928 4.32486 0
M  V30 3429 N 338.485 -1.33259 -0.841409 0
M  V30 3430 C 339.733 -1.24326 -1.59334 0
M  V30 3431 C 340.054 0.191564 -1.94057 0
M  V30 3432 O 339.324 1.11967 -1.60749 0
M  V30 3433 H 337.904 -0.457174 -0.590763 0
M  V30 3434 H 340.566 -1.66947 -1.00571 0
M  V30 3435 H 339.662 -1.8352 -2.52442 0
M  V30 3436 N 339.963 1.05934 -1.16686 0
M  V30 3437 C 341.379 1.30938 -0.912542 0
M  V30 3438 C 341.579 1.96803 0.432533 0
M  V30 3439 O 340.635 2.23693 1.17123 0
M  V30 3440 C 341.948 2.18649 -2.06429 0
M  V30 3441 C 343.496 2.32055 -2.10047 0
M  V30 3442 C 343.971 3.23122 -3.24586 0
M  V30 3443 N 345.462 3.30706 -3.24327 0
M  V30 3444 C 346.197 4.01273 -4.09594 0
M  V30 3445 N 345.693 4.74332 -5.04956 0
M  V30 3446 N 347.486 3.97361 -3.97569 0
M  V30 3447 H 339.637 0.615777 -2.03278 0
M  V30 3448 H 341.9 0.334077 -0.887185 0
M  V30 3449 H 341.606 1.77534 -3.03603 0
M  V30 3450 H 341.48 3.19252 -2.00894 0
M  V30 3451 H 343.867 2.72415 -1.13464 0
M  V30 3452 H 343.948 1.31107 -2.19647 0
M  V30 3453 H 343.592 2.83477 -4.2143 0
M  V30 3454 H 343.522 4.24057 -3.12223 0
M  V30 3455 H 346.013 2.78644 -2.55276 0
M  V30 3456 H 346.326 5.25716 -5.6643 0
M  V30 3457 H 344.671 4.733 -5.08933 0
M  V30 3458 H 347.862 3.39405 -3.22369 0
M  V30 3459 H 348.035 4.52089 -4.64241 0
M  V30 3460 N 341.441 0.965919 1.2453 0
M  V30 3461 C 342.857 0.67216 1.44756 0
M  V30 3462 C 343.057 -0.766609 1.86347 0
M  V30 3463 O 342.113 -1.5407 2.00047 0
M  V30 3464 C 343.426 1.65473 2.51076 0
M  V30 3465 C 344.974 1.66716 2.64905 0
M  V30 3466 C 345.449 2.63766 3.74421 0
M  V30 3467 N 346.94 2.62198 3.81846 0
M  V30 3468 C 347.675 3.33966 4.66106 0
M  V30 3469 N 347.171 4.15245 5.54566 0
M  V30 3470 N 348.964 3.22799 4.60171 0
M  V30 3471 H 341.115 1.89553 0.958293 0
M  V30 3472 H 343.378 0.815979 0.482579 0
M  V30 3473 H 343.084 2.68296 2.27399 0
M  V30 3474 H 342.958 1.4261 3.49202 0
M  V30 3475 H 345.345 0.646057 2.87941 0
M  V30 3476 H 345.426 1.93642 1.67142 0
M  V30 3477 H 345.07 3.6601 3.52135 0
M  V30 3478 H 345 2.34121 4.71694 0
M  V30 3479 H 347.491 2.032 3.18619 0
M  V30 3480 H 347.804 4.66898 6.15814 0
M  V30 3481 H 346.149 4.1934 5.54237 0
M  V30 3482 H 349.34 2.58764 3.90075 0
M  V30 3483 H 349.513 3.78994 5.25612 0
M  V30 3484 N 342.919 -1.39368 0.735821 0
M  V30 3485 C 343.851 -2.2913 0.0567723 0
M  V30 3486 C 344.864 -1.46859 -0.702589 0
M  V30 3487 O 346.053 -1.69925 -0.546616 0
M  V30 3488 C 343.153 -3.25492 -0.943823 0
M  V30 3489 C 342.326 -4.36709 -0.24581 0
M  V30 3490 C 341.385 -5.13376 -1.15463 0
M  V30 3491 O 340.411 -5.65683 -0.631803 0
M  V30 3492 N 341.613 -5.24656 -2.48427 0
M  V30 3493 H 344.378 -2.88047 0.827582 0
M  V30 3494 H 341.939 -1.50957 0.585112 0
M  V30 3495 H 343.931 -3.73657 -1.55443 0
M  V30 3496 H 342.501 -2.676 -1.61583 0
M  V30 3497 H 341.721 -3.9041 0.545286 0
M  V30 3498 H 343.009 -5.08244 0.237891 0
M  V30 3499 H 342.407 -4.83679 -2.93379 0
M  V30 3500 H 340.964 -5.76258 -3.04582 0
M  V30 3501 N 344.397 -0.483516 -1.5 0
M  V30 3502 C 345.637 0.0657469 -2.04294 0
M  V30 3503 C 346.001 1.35869 -1.35659 0
M  V30 3504 O 347.202 1.99111 -1.80578 0
M  V30 3505 C 345.473 0.232758 -3.56641 0
M  V30 3506 S 347.032 0.738788 -4.32536 0
M  V30 3507 H 343.85 0.0100755 -0.710929 0
M  V30 3508 H 346.452 -0.653494 -1.84254 0
M  V30 3509 H 345.156 -0.713847 -4.04144 0
M  V30 3510 H 344.687 0.977751 -3.81056 0
M  V30 3511 H 346.702 2.01048 -4.53645 0
M  V30 3512 N 345.875 1.56104 -0.216619 0
M  V30 3513 C 346.805 2.23063 0.690296 0
M  V30 3514 C 347.786 1.20072 1.20485 0
M  V30 3515 O 348.971 1.48643 1.24976 0
M  V30 3516 C 346.101 2.90672 1.90072 0
M  V30 3517 C 345.055 4.00092 1.5202 0
M  V30 3518 C 344.381 4.54972 2.80899 0
M  V30 3519 C 345.681 5.17398 0.71391 0
M  V30 3520 H 347.375 2.99109 0.132038 0
M  V30 3521 H 344.921 1.43866 0.0620664 0
M  V30 3522 H 346.874 3.36204 2.54057 0
M  V30 3523 H 345.598 2.12066 2.48386 0
M  V30 3524 H 344.257 3.55283 0.903839 0
M  V30 3525 H 343.905 3.73102 3.37348 0
M  V30 3526 H 343.605 5.28817 2.56176 0
M  V30 3527 H 345.129 5.0322 3.45836 0
M  V30 3528 H 346.543 5.59342 1.25735 0
M  V30 3529 H 344.94 5.97444 0.563951 0
M  V30 3530 H 346.01 4.84088 -0.280527 0
M  V30 3531 N 347.353 -0.0568162 1.57498 0
M  V30 3532 C 348.283 -1.06593 2.0775 0
M  V30 3533 C 349.264 -1.39448 0.974082 0
M  V30 3534 O 350.449 -1.48815 1.24771 0
M  V30 3535 C 347.579 -2.37509 2.5339 0
M  V30 3536 C 346.533 -2.1897 3.67745 0
M  V30 3537 C 345.859 -3.55402 3.99492 0
M  V30 3538 C 347.159 -1.59859 4.97235 0
M  V30 3539 H 348.853 -0.647706 2.9231 0
M  V30 3540 H 346.399 -0.310116 1.40621 0
M  V30 3541 H 348.352 -3.08409 2.87162 0
M  V30 3542 H 347.076 -2.8134 1.65878 0
M  V30 3543 H 345.735 -1.50508 3.3428 0
M  V30 3544 H 345.383 -3.9683 3.09088 0
M  V30 3545 H 345.083 -3.43831 4.76502 0
M  V30 3546 H 346.607 -4.27708 4.35773 0
M  V30 3547 H 348.021 -2.20642 5.29141 0
M  V30 3548 H 346.418 -1.58942 5.78669 0
M  V30 3549 H 347.488 -0.561506 4.81638 0
M  V30 3550 N 348.832 -1.54138 -0.328536 0
M  V30 3551 C 350.081 -1.71318 -1.06456 0
M  V30 3552 C 350.394 -0.491109 -1.89334 0
M  V30 3553 O 351.6 -0.54416 -2.65991 0
M  V30 3554 C 350.056 -3.03 -1.94214 0
M  V30 3555 C 349.664 -4.32595 -1.16471 0
M  V30 3556 C 351.408 -3.29544 -2.67583 0
M  V30 3557 C 349.315 -5.55341 -2.03347 0
M  V30 3558 H 348.245 -0.638429 -0.401155 0
M  V30 3559 H 350.896 -1.80633 -0.323106 0
M  V30 3560 H 349.278 -2.87579 -2.72239 0
M  V30 3561 H 350.452 -4.58766 -0.432525 0
M  V30 3562 H 348.767 -4.12777 -0.548063 0
M  V30 3563 H 351.364 -4.18444 -3.3288 0
M  V30 3564 H 351.707 -2.47206 -3.34955 0
M  V30 3565 H 352.24 -3.45809 -1.96623 0
M  V30 3566 H 348.979 -6.40268 -1.40491 0
M  V30 3567 H 348.499 -5.33397 -2.74313 0
M  V30 3568 H 350.178 -5.91557 -2.62049 0
M  V30 3569 N 350.31 0.590341 -1.46126 0
M  V30 3570 C 351.535 1.37991 -1.54833 0
M  V30 3571 C 351.96 1.87163 -0.187506 0
M  V30 3572 O 351.318 1.61133 0.831008 0
M  V30 3573 C 351.366 2.54867 -2.55098 0
M  V30 3574 O 350.47 3.56061 -2.08073 0
M  V30 3575 H 349.811 0.411265 -0.521303 0
M  V30 3576 H 352.341 0.716819 -1.91632 0
M  V30 3577 H 352.351 3.01886 -2.74461 0
M  V30 3578 H 351.026 2.18429 -3.53923 0
M  V30 3579 H 349.603 3.15574 -1.98664 0
M  V30 3580 N 351.788 1.33704 0.83433 0
M  V30 3581 C 352.718 1.26967 1.95963 0
M  V30 3582 C 353.699 0.149337 1.69443 0
M  V30 3583 O 354.884 0.339852 1.91203 0
M  V30 3584 C 352.014 1.01275 3.32206 0
M  V30 3585 C 350.968 2.09652 3.73136 0
M  V30 3586 C 350.294 1.69166 5.07235 0
M  V30 3587 C 351.594 3.51372 3.86439 0
M  V30 3588 H 353.288 2.2112 2.01857 0
M  V30 3589 H 350.834 1.06447 0.969793 0
M  V30 3590 H 352.787 0.952106 4.10503 0
M  V30 3591 H 351.511 0.0356203 3.26581 0
M  V30 3592 H 350.17 2.14766 2.97104 0
M  V30 3593 H 349.818 0.701437 4.98085 0
M  V30 3594 H 349.518 2.41694 5.35591 0
M  V30 3595 H 351.042 1.64576 5.88003 0
M  V30 3596 H 352.456 3.48734 4.55036 0
M  V30 3597 H 350.853 4.22425 4.26236 0
M  V30 3598 H 351.923 3.89546 2.88759 0
M  V30 3599 N 353.266 -1.05314 1.17247 0
M  V30 3600 C 354.491 -1.82509 0.985148 0
M  V30 3601 C 354.916 -1.82343 -0.461788 0
M  V30 3602 O 354.274 -1.23151 -1.33055 0
M  V30 3603 C 354.322 -3.26566 1.52929 0
M  V30 3604 O 353.426 -4.05666 0.742225 0
M  V30 3605 H 352.767 -0.564347 0.349869 0
M  V30 3606 H 355.297 -1.32718 1.55715 0
M  V30 3607 H 355.307 -3.77369 1.55103 0
M  V30 3608 H 353.982 -3.26001 2.58256 0
M  V30 3609 H 352.559 -3.64397 0.791794 0
M  V30 3610 N 354.744 -0.972509 -1.24016 0
M  V30 3611 C 355.99 -0.637978 -1.92504 0
M  V30 3612 C 356.323 0.825383 -1.75787 0
M  V30 3613 O 355.598 1.59442 -1.11393 0
M  V30 3614 C 355.881 -1.01942 -3.45369 0
M  V30 3615 C 355.734 -2.53983 -3.71231 0
M  V30 3616 C 357.053 -0.55751 -4.36555 0
M  V30 3617 H 354.172 -0.233248 -0.699117 0
M  V30 3618 H 356.814 -1.21238 -1.46292 0
M  V30 3619 H 354.964 -0.530656 -3.84859 0
M  V30 3620 H 356.636 -3.10374 -3.41271 0
M  V30 3621 H 354.879 -2.96968 -3.16216 0
M  V30 3622 H 355.55 -2.75723 -4.78206 0
M  V30 3623 H 358.026 -0.977029 -4.04467 0
M  V30 3624 H 356.902 -0.85292 -5.42233 0
M  V30 3625 H 357.163 0.542328 -4.38761 0
M  V30 3626 N 356.222 1.38976 -0.743202 0
M  V30 3627 C 357.17 2.32394 -0.0978389 0
M  V30 3628 C 358.164 1.53486 0.716824 0
M  V30 3629 O 359.37 1.69092 0.617088 0
M  V30 3630 H 355.745 0.75189 -0.0128402 0
M  V30 3631 H 357.716 2.84441 -0.901981 0
M  V30 3632 C 356.465 3.38629 0.789036 0
M  V30 3633 H 355.788 3.99432 0.171559 0
M  V30 3634 H 357.228 4.06426 1.20807 0
M  V30 3635 C 355.687 2.76347 1.92702 0
M  V30 3636 O 356.217 2.64836 3.02034 0
M  V30 3637 N 354.423 2.34311 1.71891 0
M  V30 3638 H 353.97 2.43873 0.829675 0
M  V30 3639 H 353.928 1.9298 2.48205 0
M  V30 3640 N 357.7 0.491464 1.49741 0
M  V30 3641 C 358.925 -0.0557177 2.07325 0
M  V30 3642 C 359.35 -1.30925 1.35056 0
M  V30 3643 O 358.708 -1.76733 0.404365 0
M  V30 3644 C 358.756 -0.302074 3.59333 0
M  V30 3645 O 357.86 -1.37868 3.88672 0
M  V30 3646 H 357.201 0.0219956 0.663636 0
M  V30 3647 H 359.731 0.688352 1.92673 0
M  V30 3648 H 359.741 -0.536464 4.04458 0
M  V30 3649 H 358.416 0.61383 4.11345 0
M  V30 3650 H 356.993 -1.12999 3.55367 0
M  V30 3651 N 359.178 -1.55987 0.224894 0
M  V30 3652 C 360.424 -1.98684 -0.406502 0
M  V30 3653 C 360.757 -1.11248 -1.59177 0
M  V30 3654 O 360.032 -0.170909 -1.93748 0
M  V30 3655 C 360.315 -3.50218 -0.837808 0
M  V30 3656 C 360.168 -4.48426 0.351332 0
M  V30 3657 C 361.487 -4.06243 -1.69278 0
M  V30 3658 H 358.606 -0.722337 -0.146283 0
M  V30 3659 H 361.248 -1.87255 0.321799 0
M  V30 3660 H 359.398 -3.60089 -1.45837 0
M  V30 3661 H 361.07 -4.50562 0.989526 0
M  V30 3662 H 359.313 -4.22159 0.998207 0
M  V30 3663 H 359.984 -5.52 0.00655905 0
M  V30 3664 H 362.46 -3.99337 -1.16914 0
M  V30 3665 H 361.336 -5.12581 -1.96346 0
M  V30 3666 H 361.597 -3.53332 -2.65723 0
M  V30 3667 N 360.656 0.0484629 -1.57525 0
M  V30 3668 C 361.903 0.743125 -1.88372 0
M  V30 3669 C 362.231 1.76383 -0.819715 0
M  V30 3670 O 361.486 1.94855 0.181659 0
M  V30 3671 C 361.785 1.46632 -3.25935 0
M  V30 3672 C 361.451 0.583427 -4.4711 0
M  V30 3673 C 360.113 0.340191 -4.79996 0
M  V30 3674 C 362.465 -0.0273345 -5.21193 0
M  V30 3675 C 359.793 -0.522903 -5.84365 0
M  V30 3676 C 362.145 -0.878017 -6.26477 0
M  V30 3677 C 360.809 -1.1309 -6.5785 0
M  V30 3678 H 360.079 0.271929 -0.689301 0
M  V30 3679 H 362.726 0.00336166 -1.915 0
M  V30 3680 H 361.031 2.2789 -3.18706 0
M  V30 3681 H 362.728 2.00902 -3.47044 0
M  V30 3682 H 359.318 0.783151 -4.21384 0
M  V30 3683 H 363.502 0.147654 -4.9608 0
M  V30 3684 H 358.758 -0.727335 -6.07058 0
M  V30 3685 H 362.932 -1.35789 -6.83033 0
M  V30 3686 H 360.559 -1.80144 -7.38547 0
M  V30 3687 N 362.134 1.5431 0.320358 0
M  V30 3688 C 363.097 1.83195 1.3774 0
M  V30 3689 C 364.097 0.703906 1.44575 0
M  V30 3690 O 365.287 0.972214 1.44546 0
M  V30 3691 C 362.419 1.99487 2.76438 0
M  V30 3692 H 363.612 2.77642 1.1338 0
M  V30 3693 H 361.165 1.46076 0.556012 0
M  V30 3694 H 361.9 1.07262 3.06048 0
M  V30 3695 H 361.685 2.81575 2.7287 0
M  V30 3696 H 363.175 2.23271 3.52902 0
M  V30 3697 N 363.613 -0.582584 1.46437 0
M  V30 3698 C 364.86 -1.34079 1.51753 0
M  V30 3699 C 365.188 -1.93762 0.169299 0
M  V30 3700 O 364.443 -1.76989 -0.835062 0
M  V30 3701 C 364.742 -2.48964 2.56421 0
M  V30 3702 C 364.408 -2.07273 4.00436 0
M  V30 3703 C 363.07 -1.95618 4.39644 0
M  V30 3704 C 365.422 -1.75111 4.90903 0
M  V30 3705 C 362.75 -1.5006 5.67185 0
M  V30 3706 C 365.102 -1.31032 6.18881 0
M  V30 3707 C 363.766 -1.17954 6.56996 0
M  V30 3708 H 363.036 -0.49063 0.555304 0
M  V30 3709 H 365.683 -0.656007 1.79913 0
M  V30 3710 H 363.988 -3.22889 2.21923 0
M  V30 3711 H 365.685 -3.07178 2.57765 0
M  V30 3712 H 362.275 -2.17279 3.69443 0
M  V30 3713 H 366.459 -1.83001 4.61329 0
M  V30 3714 H 361.715 -1.38577 5.95488 0
M  V30 3715 H 365.889 -1.052 6.88408 0
M  V30 3716 H 363.516 -0.824279 7.55718 0
M  V30 3717 N 365.091 -1.34144 -0.827227 0
M  V30 3718 C 366.338 -1.26258 -1.58319 0
M  V30 3719 C 366.666 0.168595 -1.93768 0
M  V30 3720 O 365.921 1.12877 -1.59866 0
M  V30 3721 C 366.22 -2.09464 -2.89585 0
M  V30 3722 C 365.886 -3.58521 -2.73448 0
M  V30 3723 C 364.548 -3.99155 -2.68754 0
M  V30 3724 C 366.9 -4.53189 -2.57428 0
M  V30 3725 C 364.228 -5.32656 -2.45957 0
M  V30 3726 C 366.58 -5.86864 -2.36163 0
M  V30 3727 C 365.244 -6.26667 -2.29879 0
M  V30 3728 H 364.514 -0.462013 -0.579332 0
M  V30 3729 H 367.161 -1.65845 -0.95748 0
M  V30 3730 H 365.466 -1.62692 -3.56425 0
M  V30 3731 H 367.163 -2.00712 -3.47154 0
M  V30 3732 H 363.753 -3.26264 -2.77939 0
M  V30 3733 H 367.937 -4.22696 -2.60081 0
M  V30 3734 H 363.193 -5.62519 -2.39546 0
M  V30 3735 H 367.367 -6.59813 -2.22754 0
M  V30 3736 H 364.994 -7.30049 -2.11975 0
M  V30 3737 N 366.569 1.04691 -1.17803 0
M  V30 3738 C 367.794 1.81984 -0.994813 0
M  V30 3739 C 368.219 1.82586 0.452112 0
M  V30 3740 O 367.577 1.23854 1.324 0
M  V30 3741 C 367.625 3.2575 -1.54659 0
M  V30 3742 O 366.729 4.05267 -0.763728 0
M  V30 3743 H 366.07 0.562483 -0.352857 0
M  V30 3744 H 368.6 1.3189 -1.56417 0
M  V30 3745 H 368.61 3.76541 -1.57102 0
M  V30 3746 H 367.285 3.24627 -2.59981 0
M  V30 3747 H 365.862 3.63972 -0.811108 0
M  V30 3748 N 368.047 0.979072 1.23499 0
M  V30 3749 C 369.272 0.664845 1.96455 0
M  V30 3750 C 369.697 -0.761287 1.72006 0
M  V30 3751 O 369.055 -1.51837 0.990713 0
M  V30 3752 C 369.103 0.959479 3.47601 0
M  V30 3753 O 368.207 0.0508168 4.12369 0
M  V30 3754 H 367.548 0.250185 0.615064 0
M  V30 3755 H 370.078 1.31231 1.5697 0
M  V30 3756 H 370.088 0.895642 3.98048 0
M  V30 3757 H 368.763 1.99876 3.64723 0
M  V30 3758 H 367.34 0.16895 3.72517 0
M  V30 3759 N 369.525 -1.3858 0.750561 0
M  V30 3760 C 370.772 -2.00184 0.305373 0
M  V30 3761 C 371.1 -1.59575 -1.11203 0
M  V30 3762 O 370.355 -0.823236 -1.77542 0
M  V30 3763 C 370.654 -3.55455 0.372373 0
M  V30 3764 C 370.32 -4.15765 1.745 0
M  V30 3765 C 368.982 -4.31951 2.12065 0
M  V30 3766 C 371.334 -4.49067 2.64553 0
M  V30 3767 C 368.662 -4.78734 3.39162 0
M  V30 3768 C 371.014 -4.97265 3.91038 0
M  V30 3769 C 369.678 -5.11658 4.28676 0
M  V30 3770 H 368.948 -0.732526 0.111744 0
M  V30 3771 H 371.595 -1.65673 0.960451 0
M  V30 3772 H 369.9 -3.90084 -0.366272 0
M  V30 3773 H 371.597 -4.00999 0.00953918 0
M  V30 3774 H 368.187 -4.03579 1.44297 0
M  V30 3775 H 372.371 -4.36166 2.36796 0
M  V30 3776 H 367.627 -4.88062 3.68246 0
M  V30 3777 H 371.801 -5.22003 4.60962 0
M  V30 3778 H 369.428 -5.47668 5.27222 0
M  V30 3779 N 371.003 -0.499398 -1.49478 0
M  V30 3780 C 372.249 0.0457576 -2.02748 0
M  V30 3781 C 372.582 1.36793 -1.37846 0
M  V30 3782 O 371.857 1.87596 -0.513601 0
M  V30 3783 C 372.14 0.199986 -3.59544 0
M  V30 3784 C 371.993 -1.1452 -4.34977 0
M  V30 3785 C 373.312 0.94137 -4.29914 0
M  V30 3786 H 370.431 0.0151552 -0.736844 0
M  V30 3787 H 373.073 -0.650498 -1.78518 0
M  V30 3788 H 371.223 0.793007 -3.8032 0
M  V30 3789 H 372.895 -1.77697 -4.25701 0
M  V30 3790 H 371.138 -1.73488 -3.97598 0
M  V30 3791 H 371.809 -0.990607 -5.43039 0
M  V30 3792 H 374.285 0.43844 -4.13784 0
M  V30 3793 H 373.161 1.01812 -5.39375 0
M  V30 3794 H 373.422 1.98471 -3.95046 0
M  V30 3795 N 372.481 1.55866 -0.233164 0
M  V30 3796 C 373.413 2.18099 0.704668 0
M  V30 3797 C 374.426 1.15334 1.14899 0
M  V30 3798 O 375.615 1.42262 1.07814 0
M  V30 3799 C 372.715 2.7592 1.96777 0
M  V30 3800 C 371.888 4.03969 1.67713 0
M  V30 3801 C 370.947 4.46242 2.78845 0
M  V30 3802 O 369.973 5.12903 2.46818 0
M  V30 3803 N 371.175 4.12886 4.08051 0
M  V30 3804 H 373.94 2.99205 0.172258 0
M  V30 3805 H 371.501 1.61815 -0.0525945 0
M  V30 3806 H 373.493 3.01165 2.70337 0
M  V30 3807 H 372.063 1.99051 2.41034 0
M  V30 3808 H 371.283 3.86459 0.777391 0
M  V30 3809 H 372.571 4.8748 1.4574 0
M  V30 3810 H 371.969 3.59342 4.3691 0
M  V30 3811 H 370.526 4.42997 4.78118 0
M  V30 3812 N 373.959 -0.0401083 1.57549 0
M  V30 3813 C 375.207 -0.731677 1.8839 0
M  V30 3814 C 375.528 -1.76481 0.829425 0
M  V30 3815 O 374.798 -1.95411 -0.1383 0
M  V30 3816 H 373.378 -0.273225 0.695239 0
M  V30 3817 H 376.04 -0.00867725 1.94898 0
M  V30 3818 H 375.136 -1.22816 2.86919 0
M  V30 3819 N 375.437 -1.54477 -0.31217 0
M  V30 3820 C 376.667 -1.76948 -1.06645 0
M  V30 3821 C 377.075 -0.523593 -1.81811 0
M  V30 3822 O 376.418 0.51578 -1.76311 0
M  V30 3823 C 376.48 -2.91668 -2.10166 0
M  V30 3824 C 376.144 -4.30165 -1.54296 0
M  V30 3825 C 377.141 -5.10603 -0.978793 0
M  V30 3826 C 374.826 -4.76738 -1.58196 0
M  V30 3827 C 376.82 -6.3573 -0.461048 0
M  V30 3828 C 374.507 -6.01831 -1.06034 0
M  V30 3829 C 375.505 -6.81161 -0.500844 0
M  V30 3830 O 375.193 -8.03899 0.0128958 0
M  V30 3831 H 374.925 -0.594088 -0.322546 0
M  V30 3832 H 377.479 -2.02213 -0.360441 0
M  V30 3833 H 375.709 -2.62001 -2.84416 0
M  V30 3834 H 377.398 -3.01817 -2.71406 0
M  V30 3835 H 378.164 -4.75771 -0.941651 0
M  V30 3836 H 374.043 -4.15027 -2.00683 0
M  V30 3837 H 377.587 -6.97596 -0.0236894 0
M  V30 3838 H 373.484 -6.36152 -1.09459 0
M  V30 3839 H 374.252 -8.18437 -0.101457 0
M  V30 3840 N 376.915 0.57481 -1.46744 0
M  V30 3841 C 378.163 1.33009 -1.52161 0
M  V30 3842 C 378.484 1.94185 -0.178092 0
M  V30 3843 O 377.754 1.7899 0.796196 0
M  V30 3844 H 376.334 0.493873 -0.560445 0
M  V30 3845 H 378.996 0.672589 -1.82927 0
M  V30 3846 H 378.092 2.13273 -2.27862 0
M  V30 3847 N 378.394 1.34581 0.820102 0
M  V30 3848 C 379.622 1.3018 1.60813 0
M  V30 3849 C 380.037 -0.123551 1.88395 0
M  V30 3850 O 379.394 -1.07148 1.47735 0
M  V30 3851 C 379.445 2.09312 2.94739 0
M  V30 3852 O 379.166 3.46288 2.68358 0
M  V30 3853 C 380.667 2.1234 3.89136 0
M  V30 3854 H 377.887 0.447726 0.499782 0
M  V30 3855 H 380.431 1.77237 1.02017 0
M  V30 3856 H 378.586 1.65889 3.50085 0
M  V30 3857 H 379 3.87227 3.53774 0
M  V30 3858 H 380.474 2.72126 4.80262 0
M  V30 3859 H 380.951 1.11854 4.24718 0
M  V30 3860 H 381.557 2.55864 3.39726 0
M  V30 3861 N 379.872 -1.04064 1.18357 0
M  V30 3862 C 381.119 -1.77265 0.978947 0
M  V30 3863 C 381.447 -1.88189 -0.491428 0
M  V30 3864 O 380.702 -1.38653 -1.38108 0
M  V30 3865 C 381.001 -3.20634 1.57888 0
M  V30 3866 C 380.667 -3.29743 3.07539 0
M  V30 3867 C 379.329 -3.31937 3.48384 0
M  V30 3868 C 381.681 -3.29841 4.03552 0
M  V30 3869 C 379.009 -3.3187 4.83818 0
M  V30 3870 C 381.361 -3.31313 5.38901 0
M  V30 3871 C 380.025 -3.31799 5.79194 0
M  V30 3872 H 379.295 -0.648659 0.358222 0
M  V30 3873 H 381.942 -1.22225 1.47422 0
M  V30 3874 H 380.247 -3.78675 1.00561 0
M  V30 3875 H 381.944 -3.75917 1.39598 0
M  V30 3876 H 378.534 -3.28757 2.74986 0
M  V30 3877 H 382.718 -3.27337 3.73047 0
M  V30 3878 H 377.974 -3.30562 5.14333 0
M  V30 3879 H 382.148 -3.30338 6.13066 0
M  V30 3880 H 379.775 -3.315 6.84114 0
M  V30 3881 N 381.35 -0.985608 -1.22978 0
M  V30 3882 C 382.28 -0.549649 -2.26939 0
M  V30 3883 C 383.261 0.419803 -1.64838 0
M  V30 3884 O 384.446 0.31203 -1.91677 0
M  V30 3885 C 381.576 0.143652 -3.47003 0
M  V30 3886 C 380.53 -0.743606 -4.21491 0
M  V30 3887 C 379.856 0.0822027 -5.34637 0
M  V30 3888 C 381.156 -2.03694 -4.80943 0
M  V30 3889 H 382.85 -1.41862 -2.63658 0
M  V30 3890 H 380.396 -0.683571 -1.26741 0
M  V30 3891 H 382.349 0.459985 -4.18882 0
M  V30 3892 H 381.073 1.04711 -3.09359 0
M  V30 3893 H 379.732 -1.04347 -3.51436 0
M  V30 3894 H 379.38 0.986359 -4.93234 0
M  V30 3895 H 379.08 -0.508377 -5.85397 0
M  V30 3896 H 380.604 0.392797 -6.09335 0
M  V30 3897 H 382.018 -1.78504 -5.44802 0
M  V30 3898 H 380.415 -2.57573 -5.42011 0
M  V30 3899 H 381.485 -2.72042 -4.01399 0
M  V30 3900 N 382.828 1.3818 -0.7579 0
M  V30 3901 C 384.075 2.00019 -0.315985 0
M  V30 3902 C 384.403 1.60163 1.10355 0
M  V30 3903 O 383.658 0.83264 1.77103 0
M  V30 3904 C 383.957 3.55252 -0.391218 0
M  V30 3905 C 383.623 4.14834 -1.76702 0
M  V30 3906 C 382.285 4.30821 -2.14353 0
M  V30 3907 C 384.637 4.47658 -2.66931 0
M  V30 3908 C 381.965 4.76928 -3.41696 0
M  V30 3909 C 384.317 4.95184 -3.93669 0
M  V30 3910 C 382.981 5.09377 -4.31383 0
M  V30 3911 H 382.251 0.731923 -0.115627 0
M  V30 3912 H 384.898 1.65161 -0.969223 0
M  V30 3913 H 383.203 3.90273 0.34558 0
M  V30 3914 H 384.9 4.00988 -0.030805 0
M  V30 3915 H 381.49 4.02808 -1.46435 0
M  V30 3916 H 385.674 4.34904 -2.39106 0
M  V30 3917 H 380.93 4.86103 -3.70829 0
M  V30 3918 H 385.104 5.19551 -4.63724 0
M  V30 3919 H 382.731 5.44865 -5.30119 0
M  V30 3920 N 384.306 0.507319 1.49211 0
M  V30 3921 C 385.546 -0.0332372 2.04373 0
M  V30 3922 C 385.91 -1.33694 1.37804 0
M  V30 3923 O 387.111 -1.96213 1.83722 0
M  V30 3924 C 385.382 -0.17599 3.56966 0
M  V30 3925 S 386.941 -0.669882 4.33657 0
M  V30 3926 H 383.759 0.00123603 0.710999 0
M  V30 3927 H 386.361 0.682725 1.83191 0
M  V30 3928 H 385.065 0.778053 4.02957 0
M  V30 3929 H 384.596 -0.917005 3.82563 0
M  V30 3930 H 386.611 -1.93806 4.56786 0
M  V30 3931 N 385.784 -1.5574 0.241426 0
M  V30 3932 C 387.2 -1.59196 -0.113548 0
M  V30 3933 C 387.4 -1.25852 -1.57364 0
M  V30 3934 O 386.456 -1.00322 -2.31715 0
M  V30 3935 C 387.769 -2.99814 0.230695 0
M  V30 3936 C 389.317 -3.12513 0.174547 0
M  V30 3937 C 389.792 -4.55342 0.492744 0
M  V30 3938 N 391.283 -4.61076 0.443043 0
M  V30 3939 C 392.018 -5.6956 0.662484 0
M  V30 3940 N 391.514 -6.86328 0.944761 0
M  V30 3941 N 393.307 -5.58957 0.593564 0
M  V30 3942 H 385.458 -1.75685 1.19368 0
M  V30 3943 H 387.721 -0.81756 0.479896 0
M  V30 3944 H 387.427 -3.28932 1.24485 0
M  V30 3945 H 387.301 -3.74568 -0.444833 0
M  V30 3946 H 389.688 -2.83179 -0.830277 0
M  V30 3947 H 389.769 -2.40045 0.883845 0
M  V30 3948 H 389.413 -4.85396 1.4951 0
M  V30 3949 H 389.343 -5.26062 -0.23797 0
M  V30 3950 H 391.834 -3.77179 0.233374 0
M  V30 3951 H 392.147 -7.64935 1.09977 0
M  V30 3952 H 390.492 -6.88025 0.982175 0
M  V30 3953 H 393.683 -4.66611 0.373123 0
M  V30 3954 H 393.856 -6.43433 0.767981 0
M  V30 3955 N 387.262 0.0317525 -1.57568 0
M  V30 3956 C 388.192 1.03274 -2.0942 0
M  V30 3957 C 389.173 1.3788 -0.996143 0
M  V30 3958 O 390.358 1.46811 -1.27122 0
M  V30 3959 C 387.488 2.33448 -2.57137 0
M  V30 3960 C 386.442 2.13091 -3.71182 0
M  V30 3961 C 385.768 3.49001 -4.05095 0
M  V30 3962 C 387.068 1.51928 -4.99715 0
M  V30 3963 H 388.762 0.60112 -2.93303 0
M  V30 3964 H 386.308 0.287705 -1.41097 0
M  V30 3965 H 388.261 3.03802 -2.92032 0
M  V30 3966 H 386.985 2.78665 -1.70333 0
M  V30 3967 H 385.644 1.45171 -3.36632 0
M  V30 3968 H 385.292 3.91862 -3.15362 0
M  V30 3969 H 384.992 3.36207 -4.81911 0
M  V30 3970 H 386.516 4.20721 -4.42522 0
M  V30 3971 H 387.93 2.12196 -5.32584 0
M  V30 3972 H 386.327 1.49716 -5.81124 0
M  V30 3973 H 387.397 0.484811 -4.8247 0
M  V30 3974 N 388.74 1.54641 0.303973 0
M  V30 3975 C 389.67 1.88386 1.3796 0
M  V30 3976 C 390.651 0.742485 1.5304 0
M  V30 3977 O 391.836 0.997959 1.66597 0
M  V30 3978 C 388.966 2.12854 2.74427 0
M  V30 3979 C 387.92 3.28702 2.74115 0
M  V30 3980 C 387.246 3.38582 4.13844 0
M  V30 3981 C 388.546 4.65881 2.3612 0
M  V30 3982 H 390.24 2.78474 1.09966 0
M  V30 3983 H 387.786 1.33988 0.527556 0
M  V30 3984 H 389.739 2.35047 3.49758 0
M  V30 3985 H 388.463 1.19535 3.03939 0
M  V30 3986 H 387.122 3.06428 2.0124 0
M  V30 3987 H 386.77 2.42784 4.40528 0
M  V30 3988 H 386.47 4.16453 4.14537 0
M  V30 3989 H 387.994 3.63031 4.90959 0
M  V30 3990 H 389.408 4.87823 3.01167 0
M  V30 3991 H 387.805 5.46444 2.48031 0
M  V30 3992 H 388.875 4.66799 1.3125 0
M  V30 3993 N 390.218 -0.567019 1.47046 0
M  V30 3994 C 391.443 -1.3551 1.57009 0
M  V30 3995 C 391.868 -1.86841 0.217259 0
M  V30 3996 O 391.226 -1.62435 -0.805268 0
M  V30 3997 C 391.274 -2.50777 2.5912 0
M  V30 3998 O 390.378 -3.52706 2.13711 0
M  V30 3999 H 389.719 -0.402919 0.52778 0
M  V30 4000 H 392.249 -0.686241 1.92748 0
M  V30 4001 H 392.259 -2.97481 2.79229 0
M  V30 4002 H 390.934 -2.12771 3.57353 0
M  V30 4003 H 389.511 -3.12374 2.03659 0
M  V30 4004 N 391.696 -1.35014 -0.812953 0
M  V30 4005 C 392.944 -1.27678 -1.56661 0
M  V30 4006 C 393.265 0.150359 -1.94419 0
M  V30 4007 O 392.535 1.08532 -1.63088 0
M  V30 4008 H 391.115 -0.469602 -0.580933 0
M  V30 4009 H 393.777 -1.69043 -0.970076 0
M  V30 4010 H 392.873 -1.88833 -2.48492 0
M  V30 4011 N 393.175 1.03435 -1.18907 0
M  V30 4012 C 394.421 1.77005 -0.989798 0
M  V30 4013 C 394.754 1.88205 0.478816 0
M  V30 4014 O 394.029 1.39481 1.35556 0
M  V30 4015 C 394.312 3.19925 -1.65287 0
M  V30 4016 C 394.165 3.1663 -3.19477 0
M  V30 4017 C 395.484 4.18189 -1.37134 0
M  V30 4018 H 392.603 0.642538 -0.360991 0
M  V30 4019 H 395.245 1.20784 -1.46667 0
M  V30 4020 H 393.395 3.67929 -1.24741 0
M  V30 4021 H 395.067 2.76567 -3.692 0
M  V30 4022 H 393.31 2.54491 -3.51307 0
M  V30 4023 H 393.981 4.1758 -3.61013 0
M  V30 4024 H 396.457 3.78761 -1.72276 0
M  V30 4025 H 395.333 5.16394 -1.86087 0
M  V30 4026 H 395.594 4.41112 -0.295424 0
M  V30 4027 N 394.653 0.992116 1.22453 0
M  V30 4028 C 395.901 0.666215 1.90804 0
M  V30 4029 C 396.222 -0.804152 1.77647 0
M  V30 4030 O 395.492 -1.57629 1.16318 0
M  V30 4031 H 394.072 0.243423 0.706225 0
M  V30 4032 H 396.734 1.25845 1.48825 0
M  V30 4033 H 395.83 0.928069 2.97982 0
M  V30 4034 N 396.131 -1.37776 0.765217 0
M  V30 4035 C 397.38 -1.99092 0.323307 0
M  V30 4036 C 397.693 -1.61434 -1.10446 0
M  V30 4037 O 398.899 -2.15805 -1.64743 0
M  V30 4038 C 397.355 -3.56019 0.527098 0
M  V30 4039 C 396.963 -4.0262 1.96471 0
M  V30 4040 C 398.707 -4.2424 0.148483 0
M  V30 4041 C 396.614 -5.52233 2.11644 0
M  V30 4042 H 395.544 -0.744846 0.117137 0
M  V30 4043 H 398.195 -1.57391 0.943417 0
M  V30 4044 H 396.577 -3.95667 -0.162372 0
M  V30 4045 H 397.751 -3.74234 2.68859 0
M  V30 4046 H 396.066 -3.47161 2.29931 0
M  V30 4047 H 398.663 -5.34159 0.240456 0
M  V30 4048 H 399.006 -4.06446 -0.900422 0
M  V30 4049 H 399.539 -3.89872 0.79025 0
M  V30 4050 H 396.278 -5.74945 3.1483 0
M  V30 4051 H 395.798 -5.82324 1.4373 0
M  V30 4052 H 397.477 -6.18106 1.91193 0
M  V30 4053 N 397.609 -0.515225 -1.4894 0
M  V30 4054 C 398.857 0.0241671 -2.02086 0
M  V30 4055 C 399.178 1.3616 -1.3959 0
M  V30 4056 O 398.448 1.87841 -0.556121 0
M  V30 4057 H 397.028 0.0119203 -0.746905 0
M  V30 4058 H 399.69 -0.675702 -1.82812 0
M  V30 4059 H 398.786 0.143385 -3.1177 0
M  V30 4060 N 399.087 1.5561 -0.249682 0
M  V30 4061 C 400.335 1.98618 0.373548 0
M  V30 4062 C 400.656 1.13919 1.58264 0
M  V30 4063 O 399.926 0.222637 1.94631 0
M  V30 4064 H 398.506 0.733571 0.141006 0
M  V30 4065 H 401.168 1.91748 -0.349117 0
M  V30 4066 H 400.264 3.04584 0.680796 0
M  V30 4067 N 400.565 -0.0233959 1.57583 0
M  V30 4068 C 401.79 -0.728376 1.94189 0
M  V30 4069 C 402.215 -1.67793 0.850119 0
M  V30 4070 O 401.573 -1.80262 -0.19371 0
M  V30 4071 C 401.621 -1.45669 3.29868 0
M  V30 4072 O 400.725 -2.57013 3.22518 0
M  V30 4073 H 400.066 -0.195493 0.63457 0
M  V30 4074 H 402.596 0.0228214 2.04587 0
M  V30 4075 H 402.606 -1.82535 3.6489 0
M  V30 4076 H 401.281 -0.760314 4.08891 0
M  V30 4077 H 399.858 -2.22648 2.99136 0
M  V30 4078 N 402.043 -1.548 -0.295768 0
M  V30 4079 C 403.292 -1.73538 -1.02798 0
M  V30 4080 C 403.605 -0.531159 -1.8825 0
M  V30 4081 O 404.811 -0.600458 -2.64777 0
M  V30 4082 C 403.267 -3.07051 -1.87744 0
M  V30 4083 C 402.875 -4.34968 -1.07269 0
M  V30 4084 C 404.619 -3.35146 -2.60533 0
M  V30 4085 C 402.526 -5.5953 -1.91521 0
M  V30 4086 H 401.456 -0.646794 -0.387522 0
M  V30 4087 H 404.107 -1.81278 -0.284718 0
M  V30 4088 H 402.489 -2.93289 -2.66078 0
M  V30 4089 H 403.663 -4.5958 -0.335117 0
M  V30 4090 H 401.978 -4.13847 -0.460384 0
M  V30 4091 H 404.575 -4.2541 -3.23929 0
M  V30 4092 H 404.918 -2.54255 -3.29636 0
M  V30 4093 H 405.451 -3.49902 -1.89244 0
M  V30 4094 H 402.19 -6.43103 -1.26878 0
M  V30 4095 H 401.71 -5.39096 -2.62937 0
M  V30 4096 H 403.389 -5.96982 -2.49442 0
M  V30 4097 N 403.521 0.559213 -1.47345 0
M  V30 4098 C 404.932 1.14134 -1.47751 0
M  V30 4099 C 405.283 1.94834 -0.231103 0
M  V30 4100 O 404.408 2.05957 0.664137 0
M  V30 4101 C 405.003 2.07653 -2.67705 0
M  V30 4102 C 403.562 2.61141 -2.71076 0
M  V30 4103 C 402.709 1.3748 -2.40821 0
M  V30 4104 H 405.66 0.345917 -1.54884 0
M  V30 4105 H 405.681 2.91497 -2.44561 0
M  V30 4106 H 405.193 1.4889 -3.58404 0
M  V30 4107 H 403.294 3.23707 -1.84511 0
M  V30 4108 H 403.407 3.02272 -3.7171 0
M  V30 4109 H 401.771 1.68086 -1.91362 0
M  V30 4110 H 402.554 0.805135 -3.33725 0
M  V30 4111 N 404.999 1.35443 0.805782 0
M  V30 4112 C 406.248 1.28097 1.55801 0
M  V30 4113 C 406.561 -0.142428 1.95081 0
M  V30 4114 O 407.767 -0.33817 2.69386 0
M  V30 4115 C 406.223 2.24653 2.81174 0
M  V30 4116 C 405.831 3.72342 2.49129 0
M  V30 4117 C 407.575 2.2625 3.59181 0
M  V30 4118 C 405.482 4.60719 3.70799 0
M  V30 4119 H 404.412 0.475937 0.584808 0
M  V30 4120 H 407.063 1.60712 0.885661 0
M  V30 4121 H 405.445 1.85011 3.50124 0
M  V30 4122 H 406.619 4.20624 1.88181 0
M  V30 4123 H 404.934 3.73361 1.84366 0
M  V30 4124 H 407.531 2.89495 4.49552 0
M  V30 4125 H 407.874 1.26647 3.96568 0
M  V30 4126 H 408.407 2.64426 2.97193 0
M  V30 4127 H 405.146 5.61324 3.3852 0
M  V30 4128 H 404.666 4.17163 4.3097 0
M  V30 4129 H 406.345 4.76182 4.38018 0
M  V30 4130 N 406.477 -1.02803 1.19454 0
M  V30 4131 C 407.723 -1.76478 0.999171 0
M  V30 4132 C 408.056 -1.88456 -0.468828 0
M  V30 4133 O 407.331 -1.40198 -1.34814 0
M  V30 4134 C 407.614 -3.19044 1.66981 0
M  V30 4135 C 407.467 -3.14932 3.21151 0
M  V30 4136 C 408.786 -4.17456 1.39349 0
M  V30 4137 H 405.905 -0.640614 0.364393 0
M  V30 4138 H 408.547 -1.20005 1.47305 0
M  V30 4139 H 406.697 -3.67263 1.2669 0
M  V30 4140 H 408.369 -2.74605 3.70661 0
M  V30 4141 H 406.612 -2.52625 3.52652 0
M  V30 4142 H 407.283 -4.1566 3.63223 0
M  V30 4143 H 409.759 -3.77842 1.74283 0
M  V30 4144 H 408.635 -5.154 1.88823 0
M  V30 4145 H 408.896 -4.40949 0.318813 0
M  V30 4146 N 407.956 -0.998596 -1.21925 0
M  V30 4147 C 409.203 -0.677663 -1.90824 0
M  V30 4148 C 409.531 0.790905 -1.77693 0
M  V30 4149 O 408.786 1.58817 -1.14349 0
M  V30 4150 C 409.085 -1.03648 -3.42041 0
M  V30 4151 C 408.751 -2.49825 -3.75364 0
M  V30 4152 C 407.413 -2.8977 -3.8417 0
M  V30 4153 C 409.765 -3.44545 -3.91073 0
M  V30 4154 C 407.093 -4.23412 -4.06127 0
M  V30 4155 C 409.445 -4.77853 -4.14535 0
M  V30 4156 C 408.109 -5.17531 -4.21566 0
M  V30 4157 H 407.379 -0.247975 -0.698276 0
M  V30 4158 H 410.026 -1.25584 -1.44571 0
M  V30 4159 H 408.331 -0.376457 -3.89987 0
M  V30 4160 H 410.028 -0.766113 -3.93614 0
M  V30 4161 H 406.618 -2.17866 -3.69097 0
M  V30 4162 H 410.802 -3.14853 -3.83642 0
M  V30 4163 H 406.058 -4.53734 -4.09799 0
M  V30 4164 H 410.232 -5.51189 -4.25633 0
M  V30 4165 H 407.859 -6.21102 -4.38333 0
M  V30 4166 N 409.434 1.37368 -0.772513 0
M  V30 4167 C 410.659 2.0447 -0.347386 0
M  V30 4168 C 411.084 1.57882 1.0225 0
M  V30 4169 O 410.442 0.73941 1.65537 0
M  V30 4170 C 410.49 3.58369 -0.400479 0
M  V30 4171 O 409.594 4.0803 0.598789 0
M  V30 4172 H 408.935 0.646773 -0.15027 0
M  V30 4173 H 411.465 1.75667 -1.04892 0
M  V30 4174 H 411.475 4.07183 -0.258045 0
M  V30 4175 H 410.15 3.91633 -1.39986 0
M  V30 4176 H 408.727 3.70534 0.419411 0
M  V30 4177 N 410.912 0.523116 1.48665 0
M  V30 4178 C 412.142 -0.00961724 2.06598 0
M  V30 4179 C 412.55 -1.29333 1.38093 0
M  V30 4180 O 411.893 -1.77846 0.46007 0
M  V30 4181 C 411.955 -0.311135 3.58151 0
M  V30 4182 C 411.619 0.878092 4.48485 0
M  V30 4183 C 412.616 1.77464 4.88674 0
M  V30 4184 C 410.301 1.08315 4.90483 0
M  V30 4185 C 412.295 2.86021 5.69623 0
M  V30 4186 C 409.982 2.17187 5.71203 0
M  V30 4187 C 410.98 3.05873 6.10681 0
M  V30 4188 O 410.668 4.12862 6.89783 0
M  V30 4189 H 410.4 0.0272658 0.67545 0
M  V30 4190 H 412.954 0.726156 1.92136 0
M  V30 4191 H 411.184 -1.10079 3.70701 0
M  V30 4192 H 412.873 -0.785125 3.98234 0
M  V30 4193 H 413.639 1.62813 4.56855 0
M  V30 4194 H 409.518 0.402149 4.59243 0
M  V30 4195 H 413.062 3.55272 6.00356 0
M  V30 4196 H 408.959 2.31824 6.02435 0
M  V30 4197 H 409.727 4.10487 7.08126 0
M  V30 4198 N 412.39 -1.55475 0.257931 0
M  V30 4199 C 413.637 -1.99207 -0.363728 0
M  V30 4200 C 413.965 -1.1462 -1.57139 0
M  V30 4201 O 413.22 -0.199653 -1.94679 0
M  V30 4202 C 413.519 -3.48183 -0.806433 0
M  V30 4203 C 413.185 -4.49936 0.294684 0
M  V30 4204 C 411.847 -4.77481 0.597076 0
M  V30 4205 C 414.199 -5.10769 1.03751 0
M  V30 4206 C 411.527 -5.63132 1.64618 0
M  V30 4207 C 413.879 -5.97558 2.07622 0
M  V30 4208 C 412.543 -6.23432 2.38514 0
M  V30 4209 H 411.813 -0.728949 -0.133097 0
M  V30 4210 H 414.46 -1.8793 0.368059 0
M  V30 4211 H 412.765 -3.56848 -1.61761 0
M  V30 4212 H 414.462 -3.79415 -1.29789 0
M  V30 4213 H 411.052 -4.28572 0.0488649 0
M  V30 4214 H 415.236 -4.89527 0.817149 0
M  V30 4215 H 410.492 -5.8143 1.89074 0
M  V30 4216 H 414.666 -6.43735 2.65666 0
M  V30 4217 H 412.293 -6.89594 3.19943 0
M  V30 4218 N 413.868 0.0150385 -1.57593 0
M  V30 4219 C 415.093 0.718067 -1.94573 0
M  V30 4220 C 415.518 1.6734 -0.859005 0
M  V30 4221 O 414.876 1.80362 0.184147 0
M  V30 4222 C 414.924 1.43918 -3.30636 0
M  V30 4223 O 414.028 2.55299 -3.23876 0
M  V30 4224 H 413.369 0.192125 -0.635597 0
M  V30 4225 H 415.899 -0.0336708 -2.04572 0
M  V30 4226 H 415.909 1.80598 -3.65853 0
M  V30 4227 H 414.584 0.738619 -4.09289 0
M  V30 4228 H 413.161 2.21058 -3.00312 0
M  V30 4229 N 415.346 1.54954 0.287554 0
M  V30 4230 C 416.256 1.8991 1.37736 0
M  V30 4231 C 417.272 0.794701 1.54792 0
M  V30 4232 O 418.448 1.09243 1.69198 0
M  V30 4233 C 415.513 2.15108 2.71899 0
M  V30 4234 C 414.574 3.38752 2.63715 0
M  V30 4235 C 413.807 3.62739 3.91479 0
M  V30 4236 O 414.03 2.89492 4.91478 0
M  V30 4237 O 412.964 4.56267 3.92561 0
M  V30 4238 H 416.79 2.82652 1.11092 0
M  V30 4239 H 414.375 1.41315 0.484807 0
M  V30 4240 H 416.257 2.32806 3.51254 0
M  V30 4241 H 414.932 1.25551 2.9836 0
M  V30 4242 H 413.839 3.26405 1.82786 0
M  V30 4243 H 415.172 4.28483 2.42205 0
M  V30 4244 N 416.824 -0.551391 1.4764 0
M  V30 4245 C 418.071 -1.3083 1.54563 0
M  V30 4246 C 418.399 -1.93359 0.210361 0
M  V30 4247 O 417.654 -1.78721 -0.797332 0
M  V30 4248 C 417.953 -2.43469 2.61644 0
M  V30 4249 C 417.619 -1.98732 4.04742 0
M  V30 4250 C 416.281 -1.86248 4.43695 0
M  V30 4251 C 418.633 -1.64659 4.94507 0
M  V30 4252 C 415.961 -1.37995 5.70241 0
M  V30 4253 C 418.313 -1.17875 6.21521 0
M  V30 4254 C 416.977 -1.03992 6.5935 0
M  V30 4255 H 416.247 -0.478741 0.565587 0
M  V30 4256 H 418.894 -0.617697 1.81264 0
M  V30 4257 H 417.199 -3.18109 2.28722 0
M  V30 4258 H 418.896 -3.01642 2.64222 0
M  V30 4259 H 415.486 -2.09393 3.73968 0
M  V30 4260 H 419.67 -1.73174 4.65107 0
M  V30 4261 H 414.926 -1.25915 5.98294 0
M  V30 4262 H 419.1 -0.905739 6.90485 0
M  V30 4263 H 416.727 -0.663794 7.57296 0
M  V30 4264 N 418.302 -1.35869 -0.798587 0
M  V30 4265 C 419.232 -1.32118 -1.92528 0
M  V30 4266 C 420.213 -0.194209 -1.68988 0
M  V30 4267 O 421.398 -0.390426 -1.90235 0
M  V30 4268 C 418.528 -1.10047 -3.29404 0
M  V30 4269 C 417.482 -2.19471 -3.67446 0
M  V30 4270 C 416.808 -1.82555 -5.02571 0
M  V30 4271 C 418.108 -3.61495 -3.76987 0
M  V30 4272 H 419.802 -2.26394 -1.95924 0
M  V30 4273 H 417.348 -1.08981 -0.94123 0
M  V30 4274 H 419.301 -1.06061 -4.07835 0
M  V30 4275 H 418.025 -0.122195 -3.26371 0
M  V30 4276 H 416.684 -2.22568 -2.91306 0
M  V30 4277 H 416.332 -0.833249 -4.9605 0
M  V30 4278 H 416.032 -2.5581 -5.28995 0
M  V30 4279 H 417.556 -1.80108 -5.83432 0
M  V30 4280 H 418.97 -3.60676 -4.4563 0
M  V30 4281 H 417.367 -4.33577 -4.14887 0
M  V30 4282 H 418.437 -3.97065 -2.78329 0
M  V30 4283 N 419.78 1.02168 -1.19998 0
M  V30 4284 C 420.743 2.08765 -0.94604 0
M  V30 4285 C 421.743 1.60618 0.0763846 0
M  V30 4286 O 422.933 1.73472 -0.159135 0
M  V30 4287 C 420.065 3.38262 -0.423255 0
M  V30 4288 H 421.258 2.32726 -1.89153 0
M  V30 4289 H 418.811 1.1889 -1.01464 0
M  V30 4290 H 419.546 3.19974 0.527938 0
M  V30 4291 H 419.331 3.74532 -1.16053 0
M  V30 4292 H 420.821 4.16759 -0.264911 0
M  V30 4293 N 421.258 1.00505 1.21394 0
M  V30 4294 C 422.19 0.52372 2.23136 0
M  V30 4295 C 423.203 -0.387714 1.58116 0
M  V30 4296 O 424.392 -0.187905 1.77508 0
M  V30 4297 C 421.492 -0.258885 3.3791 0
M  V30 4298 C 420.665 0.651634 4.32519 0
M  V30 4299 C 419.724 -0.0813705 5.26137 0
M  V30 4300 O 418.75 0.537295 5.66658 0
M  V30 4301 N 419.952 -1.35992 5.64346 0
M  V30 4302 H 422.717 1.39865 2.65062 0
M  V30 4303 H 420.278 0.881196 1.35818 0
M  V30 4304 H 422.27 -0.758208 3.97534 0
M  V30 4305 H 420.84 -1.035 2.94968 0
M  V30 4306 H 420.06 1.33145 3.71034 0
M  V30 4307 H 421.348 1.27129 4.92662 0
M  V30 4308 H 420.746 -1.88368 5.33417 0
M  V30 4309 H 419.303 -1.8042 6.26332 0
M  V30 4310 N 422.737 -1.36956 0.779787 0
M  V30 4311 C 423.647 -2.33965 0.172491 0
M  V30 4312 C 424.663 -1.60574 -0.670222 0
M  V30 4313 O 425.839 -1.92617 -0.588263 0
M  V30 4314 C 422.904 -3.39761 -0.690173 0
M  V30 4315 C 421.965 -4.28964 0.169924 0
M  V30 4316 C 421.198 -5.29707 -0.651662 0
M  V30 4317 O 421.421 -5.38238 -1.88827 0
M  V30 4318 O 420.355 -6.01873 -0.0566264 0
M  V30 4319 H 424.181 -2.87647 0.974321 0
M  V30 4320 H 421.766 -1.39258 0.541078 0
M  V30 4321 H 423.648 -4.04471 -1.1824 0
M  V30 4322 H 422.323 -2.88394 -1.47006 0
M  V30 4323 H 421.23 -3.67326 0.708696 0
M  V30 4324 H 422.563 -4.83656 0.913085 0
M  V30 4325 N 424.215 -0.530993 -1.48385 0
M  V30 4326 C 425.162 0.231223 -2.29639 0
M  V30 4327 C 426.132 0.932864 -1.37429 0
M  V30 4328 O 427.317 0.933692 -1.66394 0
M  V30 4329 C 424.457 1.27155 -3.2082 0
M  V30 4330 C 423.57 0.578655 -4.28107 0
M  V30 4331 C 422.705 1.602 -5.06467 0
M  V30 4332 C 421.744 0.892625 -6.05556 0
M  V30 4333 N 420.881 1.86157 -6.76971 0
M  V30 4334 H 425.721 -0.467848 -2.94305 0
M  V30 4335 H 423.258 -0.242556 -1.45086 0
M  V30 4336 H 425.216 1.88703 -3.72085 0
M  V30 4337 H 423.846 1.939 -2.58075 0
M  V30 4338 H 422.898 -0.150782 -3.80101 0
M  V30 4339 H 424.21 0.0217065 -4.98795 0
M  V30 4340 H 423.364 2.29173 -5.61751 0
M  V30 4341 H 422.103 2.19285 -4.35621 0
M  V30 4342 H 421.108 0.188829 -5.49476 0
M  V30 4343 H 422.333 0.307878 -6.78402 0
M  V30 4344 H 420.279 2.44147 -6.08875 0
M  V30 4345 H 420.196 1.35608 -7.43738 0
M  V30 4346 H 421.464 2.54325 -7.36844 0
M  V30 4347 N 425.693 1.55336 -0.266172 0
M  V30 4348 C 427.109 1.59356 0.0882065 0
M  V30 4349 C 427.309 1.2834 1.55342 0
M  V30 4350 O 426.365 1.03996 2.30089 0
M  V30 4351 C 427.678 2.99409 -0.278364 0
M  V30 4352 C 429.226 3.12196 -0.224243 0
M  V30 4353 C 429.701 4.545 -0.565123 0
M  V30 4354 N 431.192 4.60313 -0.51634 0
M  V30 4355 C 431.927 5.68434 -0.753013 0
M  V30 4356 N 431.423 6.84738 -1.05383 0
M  V30 4357 N 433.216 5.57942 -0.682414 0
M  V30 4358 H 425.367 1.73764 -1.22147 0
M  V30 4359 H 427.63 0.809822 -0.492841 0
M  V30 4360 H 427.336 3.2691 -1.29703 0
M  V30 4361 H 427.21 3.75228 0.385186 0
M  V30 4362 H 429.597 2.84464 0.78512 0
M  V30 4363 H 429.678 2.38609 -0.921922 0
M  V30 4364 H 429.322 4.82956 -1.57213 0
M  V30 4365 H 429.252 5.26374 0.154248 0
M  V30 4366 H 431.743 3.7676 -0.29335 0
M  V30 4367 H 432.056 7.63088 -1.22133 0
M  V30 4368 H 430.401 6.86375 -1.09151 0
M  V30 4369 H 433.592 4.65958 -0.44731 0
M  V30 4370 H 433.765 6.4213 -0.870248 0
M  V30 4371 N 427.171 -0.0066808 1.57599 0
M  V30 4372 C 428.419 -0.691552 1.899 0
M  V30 4373 C 428.74 -1.74682 0.866672 0
M  V30 4374 O 428.01 -1.95661 -0.0968189 0
M  V30 4375 H 426.59 -0.258416 0.700878 0
M  V30 4376 H 429.252 0.0326655 1.94873 0
M  V30 4377 H 428.348 -1.16702 2.8946 0
M  V30 4378 N 428.649 -1.55105 -0.279332 0
M  V30 4379 C 429.559 -1.90638 -1.36727 0
M  V30 4380 C 430.575 -0.802899 -1.54368 0
M  V30 4381 O 431.751 -1.10138 -1.68616 0
M  V30 4382 C 428.816 -2.16547 -2.70755 0
M  V30 4383 C 427.877 -3.40146 -2.61915 0
M  V30 4384 C 427.11 -3.6481 -3.8955 0
M  V30 4385 O 427.333 -2.92095 -4.89935 0
M  V30 4386 O 426.267 -4.58343 -3.90135 0
M  V30 4387 H 430.093 -2.83237 -1.09591 0
M  V30 4388 H 427.678 -1.4157 -0.477306 0
M  V30 4389 H 429.56 -2.34665 -3.50014 0
M  V30 4390 H 428.235 -1.27131 -2.9769 0
M  V30 4391 H 427.142 -3.2737 -1.81052 0
M  V30 4392 H 428.475 -4.29761 -2.3993 0
M  V30 4393 N 430.127 0.543554 -1.4793 0
M  V30 4394 C 431.077 1.64527 -1.57844 0
M  V30 4395 C 432.061 1.54869 -0.436408 0
M  V30 4396 O 433.253 1.63119 -0.687101 0
M  V30 4397 C 430.382 3.03281 -1.6086 0
M  V30 4398 C 429.468 3.18093 -2.80495 0
M  V30 4399 N 429.859 3.02923 -4.05057 0
M  V30 4400 C 428.157 3.49121 -2.77543 0
M  V30 4401 C 428.858 3.20791 -4.85251 0
M  V30 4402 N 427.834 3.47749 -4.17818 0
M  V30 4403 H 431.636 1.51388 -2.5191 0
M  V30 4404 H 429.15 0.748671 -1.44113 0
M  V30 4405 H 431.147 3.82403 -1.66054 0
M  V30 4406 H 429.807 3.17521 -0.678996 0
M  V30 4407 H 430.818 2.79966 -4.35705 0
M  V30 4408 H 427.495 3.69804 -1.93781 0
M  V30 4409 H 428.885 3.13915 -5.9406 0
M  V30 4410 N 431.605 1.3629 0.791371 0
M  V30 4411 C 432.535 1.33137 1.91825 0
M  V30 4412 C 433.516 0.203168 1.68882 0
M  V30 4413 O 434.701 0.400509 1.90025 0
M  V30 4414 C 431.831 1.11793 3.28816 0
M  V30 4415 C 430.785 2.21417 3.66277 0
M  V30 4416 C 430.111 1.85218 5.01596 0
M  V30 4417 C 431.411 3.63489 3.75064 0
M  V30 4418 H 433.105 2.2743 1.9472 0
M  V30 4419 H 430.651 1.09479 0.935437 0
M  V30 4420 H 432.604 1.08222 4.07266 0
M  V30 4421 H 431.328 0.139501 3.26302 0
M  V30 4422 H 429.987 2.2411 2.90121 0
M  V30 4423 H 429.635 0.859544 4.95602 0
M  V30 4424 H 429.335 2.58611 5.27631 0
M  V30 4425 H 430.859 1.832 5.82469 0
M  V30 4426 H 432.273 3.63034 4.43711 0
M  V30 4427 H 430.67 4.35771 4.12582 0
M  V30 4428 H 431.74 3.98536 2.76219 0
M  V30 4429 N 433.083 -1.0153 1.20538 0
M  V30 4430 C 434.308 -1.79283 1.04271 0
M  V30 4431 C 434.733 -1.8372 -0.403544 0
M  V30 4432 O 434.091 -1.27321 -1.2907 0
M  V30 4433 C 434.139 -3.21535 1.63241 0
M  V30 4434 O 433.243 -4.03099 0.870908 0
M  V30 4435 H 432.584 -0.55293 0.367647 0
M  V30 4436 H 435.114 -1.27696 1.59859 0
M  V30 4437 H 435.124 -3.72243 1.6703 0
M  V30 4438 H 433.799 -3.1762 2.68497 0
M  V30 4439 H 432.376 -3.61693 0.907323 0
M  V30 4440 N 434.561 -1.01147 -1.20859 0
M  V30 4441 C 435.807 -0.708598 -1.90658 0
M  V30 4442 C 436.162 0.753069 -1.7705 0
M  V30 4443 O 435.455 1.53952 -1.14059 0
M  V30 4444 C 435.649 -1.0727 -3.40922 0
M  V30 4445 C 435.478 -2.56821 -3.69152 0
M  V30 4446 C 434.248 -3.23524 -3.8815 0
M  V30 4447 C 436.446 -3.54997 -3.72131 0
M  V30 4448 N 434.428 -4.62359 -4.03853 0
M  V30 4449 C 435.799 -4.79371 -3.93196 0
M  V30 4450 C 437.854 -3.49042 -3.55069 0
M  V30 4451 C 436.557 -5.98512 -3.98969 0
M  V30 4452 C 438.583 -4.67579 -3.6211 0
M  V30 4453 C 437.945 -5.9076 -3.83643 0
M  V30 4454 H 434.044 -0.31088 -0.71755 0
M  V30 4455 H 436.628 -1.29526 -1.45366 0
M  V30 4456 H 434.799 -0.51443 -3.84978 0
M  V30 4457 H 436.531 -0.723891 -3.98173 0
M  V30 4458 H 433.286 -2.73958 -3.86321 0
M  V30 4459 H 433.71 -5.34427 -4.15592 0
M  V30 4460 H 438.352 -2.54808 -3.37391 0
M  V30 4461 H 436.07 -6.93132 -4.15444 0
M  V30 4462 H 439.656 -4.64581 -3.50222 0
M  V30 4463 H 438.536 -6.8095 -3.88944 0
M  V30 4464 N 436.039 1.36541 -0.78704 0
M  V30 4465 C 436.969 2.32659 -0.197992 0
M  V30 4466 C 437.95 1.56533 0.665697 0
M  V30 4467 O 439.135 1.84698 0.60001 0
M  V30 4468 C 436.265 3.40778 0.669901 0
M  V30 4469 C 435.219 4.27897 -0.0937039 0
M  V30 4470 C 434.545 5.27163 0.894629 0
M  V30 4471 C 435.845 5.06334 -1.28154 0
M  V30 4472 H 437.539 2.82171 -1.00099 0
M  V30 4473 H 435.085 1.35665 -0.482793 0
M  V30 4474 H 437.038 4.07008 1.09191 0
M  V30 4475 H 435.762 2.89827 1.50558 0
M  V30 4476 H 434.421 3.6322 -0.49666 0
M  V30 4477 H 434.069 4.72486 1.72527 0
M  V30 4478 H 433.769 5.86317 0.388149 0
M  V30 4479 H 435.293 5.96266 1.31525 0
M  V30 4480 H 436.707 5.65617 -0.93541 0
M  V30 4481 H 435.104 5.74888 -1.72115 0
M  V30 4482 H 436.174 4.38114 -2.07807 0
M  V30 4483 N 437.518 0.538854 1.48102 0
M  V30 4484 C 438.758 0.0101209 2.04397 0
M  V30 4485 C 439.122 -1.30741 1.40609 0
M  V30 4486 O 440.323 -1.92272 1.87843 0
M  V30 4487 C 438.594 -0.100232 3.57259 0
M  V30 4488 S 440.153 -0.577746 4.3498 0
M  V30 4489 H 436.971 0.0163171 0.710813 0
M  V30 4490 H 439.573 0.721429 1.81702 0
M  V30 4491 H 438.277 0.863351 4.01216 0
M  V30 4492 H 437.808 -0.835651 3.84422 0
M  V30 4493 H 439.823 -1.84073 4.60794 0
M  V30 4494 N 438.996 -1.55193 0.274407 0
M  V30 4495 C 439.929 -2.18606 -0.654712 0
M  V30 4496 C 440.907 -1.14677 -1.15273 0
M  V30 4497 O 442.091 -1.43198 -1.22583 0
M  V30 4498 C 439.218 -2.80875 -1.89281 0
M  V30 4499 C 438.264 -3.981 -1.53032 0
M  V30 4500 S 439.097 -5.32025 -0.609107 0
M  V30 4501 C 440.253 -5.97761 -1.85559 0
M  V30 4502 H 440.486 -2.97074 -0.115894 0
M  V30 4503 H 438.019 -1.54288 0.05867 0
M  V30 4504 H 439.977 -3.17381 -2.60345 0
M  V30 4505 H 438.638 -2.02302 -2.40277 0
M  V30 4506 H 437.831 -4.40356 -2.45158 0
M  V30 4507 H 437.433 -3.63013 -0.899874 0
M  V30 4508 H 439.725 -6.16951 -2.7996 0
M  V30 4509 H 440.668 -6.92545 -1.47605 0
M  V30 4510 H 441.076 -5.27113 -2.02021 0
M  V30 4511 N 440.474 -0.00167713 -1.576 0
M  V30 4512 C 441.721 0.68282 -1.90641 0
M  V30 4513 C 442.049 1.73686 -0.875415 0
M  V30 4514 O 441.304 1.95334 0.119575 0
M  V30 4515 C 441.603 1.36189 -3.30435 0
M  V30 4516 C 441.269 0.440887 -4.48739 0
M  V30 4517 C 439.931 0.187312 -4.80835 0
M  V30 4518 C 442.283 -0.193134 -5.20842 0
M  V30 4519 C 439.611 -0.70855 -5.82406 0
M  V30 4520 C 441.963 -1.07688 -6.23367 0
M  V30 4521 C 440.627 -1.33962 -6.53919 0
M  V30 4522 H 439.897 0.249862 -0.697603 0
M  V30 4523 H 442.544 -0.0575642 -1.91413 0
M  V30 4524 H 440.849 2.17636 -3.25794 0
M  V30 4525 H 442.546 1.89759 -3.5326 0
M  V30 4526 H 439.136 0.648694 -4.23663 0
M  V30 4527 H 443.32 -0.0102445 -4.96299 0
M  V30 4528 H 438.576 -0.920097 -6.04437 0
M  V30 4529 H 442.75 -1.57451 -6.78367 0
M  V30 4530 H 440.377 -2.03549 -7.32442 0
M  V30 4531 N 441.952 1.55251 0.271103 0
M  V30 4532 C 443.198 1.7713 0.999832 0
M  V30 4533 C 443.553 0.56659 1.83868 0
M  V30 4534 O 442.846 -0.44069 1.86463 0
M  V30 4535 C 443.04 3.01879 1.91321 0
M  V30 4536 C 442.869 4.34368 1.16426 0
M  V30 4537 C 441.639 4.97593 0.879169 0
M  V30 4538 C 443.837 5.1131 0.553749 0
M  V30 4539 N 441.819 6.13813 0.103618 0
M  V30 4540 C 443.19 6.19938 -0.0875442 0
M  V30 4541 C 445.245 4.95754 0.461782 0
M  V30 4542 C 443.948 7.14703 -0.811942 0
M  V30 4543 C 445.974 5.90875 -0.249027 0
M  V30 4544 C 445.336 6.98893 -0.879051 0
M  V30 4545 H 441.435 0.700407 0.347784 0
M  V30 4546 H 444.019 1.92744 0.275314 0
M  V30 4547 H 442.19 2.87637 2.60997 0
M  V30 4548 H 443.922 3.12154 2.57569 0
M  V30 4549 H 440.677 4.58538 1.18491 0
M  V30 4550 H 441.101 6.76455 -0.271543 0
M  V30 4551 H 445.743 4.12342 0.934552 0
M  V30 4552 H 443.461 7.97634 -1.29639 0
M  V30 4553 H 447.047 5.80916 -0.320529 0
M  V30 4554 H 445.927 7.71231 -1.42031 0
M  V30 4555 N 443.43 -0.535701 1.48216 0
M  V30 4556 C 444.363 -1.65726 1.56876 0
M  V30 4557 C 445.341 -1.57094 0.419542 0
M  V30 4558 O 446.525 -1.77648 0.630352 0
M  V30 4559 C 443.652 -3.04096 1.49142 0
M  V30 4560 C 442.698 -3.31105 2.68834 0
M  V30 4561 S 443.531 -3.18001 4.30854 0
M  V30 4562 C 444.687 -4.58828 4.25709 0
M  V30 4563 H 444.92 -1.58129 2.51759 0
M  V30 4564 H 442.453 -0.718218 1.36678 0
M  V30 4565 H 444.411 -3.839 1.45366 0
M  V30 4566 H 443.072 -3.09139 0.556067 0
M  V30 4567 H 442.265 -4.32033 2.59545 0
M  V30 4568 H 441.867 -2.58961 2.69843 0
M  V30 4569 H 444.159 -5.5023 3.95289 0
M  V30 4570 H 445.102 -4.73172 5.26796 0
M  V30 4571 H 445.51 -4.37883 3.56257 0
M  V30 4572 N 444.908 -1.36708 -0.784132 0
M  V30 4573 C 446.157 -1.30559 -1.53744 0
M  V30 4574 C 446.47 0.111374 -1.95283 0
M  V30 4575 O 447.676 0.29527 -2.6989 0
M  V30 4576 C 446.132 -2.29098 -2.77565 0
M  V30 4577 C 445.74 -3.76258 -2.43174 0
M  V30 4578 C 447.484 -2.31936 -3.55536 0
M  V30 4579 C 445.391 -4.6656 -3.63422 0
M  V30 4580 H 444.321 -0.48518 -0.577162 0
M  V30 4581 H 446.972 -1.62101 -0.859981 0
M  V30 4582 H 445.354 -1.90557 -3.47137 0
M  V30 4583 H 446.528 -4.23565 -1.81465 0
M  V30 4584 H 444.843 -3.76246 -1.78403 0
M  V30 4585 H 447.44 -2.9661 -4.44889 0
M  V30 4586 H 447.783 -1.3294 -3.94503 0
M  V30 4587 H 448.316 -2.6912 -2.92949 0
M  V30 4588 H 445.055 -5.66638 -3.29547 0
M  V30 4589 H 444.575 -4.23966 -4.24279 0
M  V30 4590 H 446.254 -4.8309 -4.30387 0
M  V30 4591 N 446.386 1.0089 -1.21074 0
M  V30 4592 C 447.634 1.74262 -1.02358 0
M  V30 4593 C 447.955 1.89869 0.444393 0
M  V30 4594 O 447.225 1.44677 1.32081 0
M  V30 4595 H 445.805 0.645615 -0.375754 0
M  V30 4596 H 448.467 1.21596 -1.52317 0
M  V30 4597 H 447.563 2.74328 -1.4883 0
M  V30 4598 N 447.864 1.01787 1.20321 0
M  V30 4599 C 449.112 0.706538 1.89347 0
M  V30 4600 C 449.433 -0.766289 1.79313 0
M  V30 4601 O 448.703 -1.55126 1.19635 0
M  V30 4602 H 447.283 0.258348 0.700903 0
M  V30 4603 H 449.945 1.28974 1.46122 0
M  V30 4604 H 449.041 0.991066 2.95946 0
M  V30 4605 N 449.342 -1.36122 0.79427 0
M  V30 4606 C 450.588 -1.99406 0.369452 0
M  V30 4607 C 450.921 -1.62886 -1.05743 0
M  V30 4608 O 450.196 -0.886053 -1.73145 0
M  V30 4609 C 450.479 -3.56046 0.538833 0
M  V30 4610 C 450.332 -4.02404 2.00976 0
M  V30 4611 C 451.651 -4.40079 -0.0431359 0
M  V30 4612 H 448.77 -0.724397 0.135712 0
M  V30 4613 H 451.412 -1.61461 1.00151 0
M  V30 4614 H 449.562 -3.885 0.000771004 0
M  V30 4615 H 451.234 -3.80415 2.60926 0
M  V30 4616 H 449.477 -3.53765 2.51063 0
M  V30 4617 H 450.148 -5.11344 2.07922 0
M  V30 4618 H 452.624 -4.14013 0.416228 0
M  V30 4619 H 451.5 -5.48799 0.105374 0
M  V30 4620 H 451.761 -4.27264 -1.13571 0
M  V30 4621 N 450.82 -0.546701 -1.47814 0
M  V30 4622 C 452.05 -0.0232519 -2.06587 0
M  V30 4623 C 452.458 1.2712 -1.40133 0
M  V30 4624 O 451.801 1.77091 -0.488305 0
M  V30 4625 C 451.863 0.254117 -3.58601 0
M  V30 4626 C 451.527 -0.949331 -4.47031 0
M  V30 4627 C 452.524 -1.85216 -4.85789 0
M  V30 4628 C 450.209 -1.16104 -4.88697 0
M  V30 4629 C 452.203 -2.95047 -5.65001 0
M  V30 4630 C 449.89 -2.26247 -5.67676 0
M  V30 4631 C 450.888 -3.1555 -6.05737 0
M  V30 4632 O 450.576 -4.23784 -6.83127 0
M  V30 4633 H 450.308 -0.0380082 -0.674931 0
M  V30 4634 H 452.862 -0.756631 -1.90956 0
M  V30 4635 H 451.092 1.04168 -3.72406 0
M  V30 4636 H 452.781 0.72167 -3.99433 0
M  V30 4637 H 453.547 -1.70061 -4.54207 0
M  V30 4638 H 449.426 -0.475159 -4.58545 0
M  V30 4639 H 452.97 -3.64778 -5.94628 0
M  V30 4640 H 448.867 -2.41379 -5.98671 0
M  V30 4641 H 449.635 -4.21701 -7.01506 0
M  V30 4642 N 452.299 1.55045 -0.282633 0
M  V30 4643 C 453.262 2.21515 0.588539 0
M  V30 4644 C 454.262 1.19535 1.07554 0
M  V30 4645 O 455.452 1.44391 0.974514 0
M  V30 4646 C 452.584 2.88704 1.8128 0
M  V30 4647 H 453.777 2.99899 0.00806397 0
M  V30 4648 H 451.33 1.56265 -0.0333067 0
M  V30 4649 H 452.065 2.14352 2.43359 0
M  V30 4650 H 451.85 3.63443 1.47144 0
M  V30 4651 H 453.34 3.39465 2.43214 0
M  V30 4652 N 453.777 0.010035 1.57597 0
M  V30 4653 C 454.74 -0.963029 2.07986 0
M  V30 4654 C 455.74 -1.26619 0.991173 0
M  V30 4655 O 456.93 -1.2097 1.25347 0
M  V30 4656 C 454.062 -2.2851 2.52974 0
M  V30 4657 H 455.255 -0.526971 2.95234 0
M  V30 4658 H 452.808 -0.237639 1.54483 0
M  V30 4659 H 453.543 -2.76784 1.69 0
M  V30 4660 H 453.328 -2.07824 3.32493 0
M  V30 4661 H 454.818 -2.98294 2.9225 0
M  V30 4662 N 455.255 -1.55392 -0.262866 0
M  V30 4663 C 456.218 -1.88181 -1.30846 0
M  V30 4664 C 457.218 -0.757079 -1.41862 0
M  V30 4665 O 458.408 -1.02519 -1.40838 0
M  V30 4666 C 455.54 -2.09609 -2.68844 0
M  V30 4667 H 456.733 -2.81659 -1.02997 0
M  V30 4668 H 454.286 -1.48039 -0.501414 0
M  V30 4669 H 455.021 -1.18547 -3.01856 0
M  V30 4670 H 454.806 -2.91508 -2.62231 0
M  V30 4671 H 456.296 -2.36215 -3.44372 0
M  V30 4672 N 456.733 0.527833 -1.48498 0
M  V30 4673 C 457.666 1.64892 -1.57753 0
M  V30 4674 C 458.644 1.5687 -0.427867 0
M  V30 4675 O 459.828 1.77311 -0.639764 0
M  V30 4676 C 456.955 3.03301 -1.50752 0
M  V30 4677 C 456.001 3.29675 -2.70586 0
M  V30 4678 S 456.834 3.15712 -4.32535 0
M  V30 4679 C 457.99 4.56564 -4.28136 0
M  V30 4680 H 458.223 1.56792 -2.52594 0
M  V30 4681 H 455.756 0.710959 -1.37057 0
M  V30 4682 H 457.714 3.83123 -1.474 0
M  V30 4683 H 456.375 3.08839 -0.572454 0
M  V30 4684 H 455.568 4.3065 -2.61833 0
M  V30 4685 H 455.17 2.57526 -2.71212 0
M  V30 4686 H 457.462 5.48126 -3.98201 0
M  V30 4687 H 458.405 4.70371 -5.29298 0
M  V30 4688 H 458.813 4.35987 -3.58574 0
M  V30 4689 N 458.211 1.37122 0.776871 0
M  V30 4690 C 459.174 1.32301 1.8716 0
M  V30 4691 C 460.174 0.228099 1.59174 0
M  V30 4692 O 461.364 0.483642 1.67352 0
M  V30 4693 C 458.496 1.054 3.24197 0
M  V30 4694 H 459.689 2.29673 1.92848 0
M  V30 4695 H 457.242 1.22077 0.97606 0
M  V30 4696 H 457.977 0.0853872 3.24188 0
M  V30 4697 H 457.762 1.84648 3.45901 0
M  V30 4698 H 459.252 1.04664 4.04271 0
M  V30 4699 N 459.689 -1.00246 1.21608 0
M  V30 4700 C 460.935 -1.74417 1.04643 0
M  V30 4701 C 461.29 -1.87862 -0.415387 0
M  V30 4702 O 460.583 -1.40373 -1.30407 0
M  V30 4703 C 460.777 -3.15448 1.68009 0
M  V30 4704 C 460.606 -3.15755 3.20201 0
M  V30 4705 C 459.376 -3.2219 3.89258 0
M  V30 4706 C 461.574 -3.00668 4.17257 0
M  V30 4707 N 459.556 -3.1215 5.28617 0
M  V30 4708 C 460.927 -2.98553 5.43384 0
M  V30 4709 C 462.982 -2.84989 4.08272 0
M  V30 4710 C 461.685 -2.82364 6.61561 0
M  V30 4711 C 463.711 -2.70158 5.26088 0
M  V30 4712 C 463.073 -2.68721 6.51128 0
M  V30 4713 H 459.172 -0.648317 0.437274 0
M  V30 4714 H 461.756 -1.19129 1.54001 0
M  V30 4715 H 459.927 -3.69001 1.21215 0
M  V30 4716 H 461.659 -3.78128 1.44226 0
M  V30 4717 H 458.414 -3.29488 3.40198 0
M  V30 4718 H 458.838 -3.10465 6.01615 0
M  V30 4719 H 463.48 -2.84904 3.12393 0
M  V30 4720 H 461.198 -2.81196 7.57598 0
M  V30 4721 H 464.784 -2.59022 5.20959 0
M  V30 4722 H 463.664 -2.57382 7.40759 0
M  V30 4723 N 461.167 -1.02423 -1.1978 0
M  V30 4724 C 462.13 -0.605703 -2.21052 0
M  V30 4725 C 463.13 0.328209 -1.57415 0
M  V30 4726 O 464.32 0.115853 -1.73814 0
M  V30 4727 C 461.452 0.114366 -3.40708 0
M  V30 4728 H 462.645 -1.5017 -2.59594 0
M  V30 4729 H 460.198 -0.814888 -1.33376 0
M  V30 4730 H 460.933 1.02492 -3.07678 0
M  V30 4731 H 460.718 -0.556641 -3.88129 0
M  V30 4732 H 462.208 0.394272 -4.15735 0
M  V30 4733 N 462.645 1.35699 -0.801477 0
M  V30 4734 C 463.894 1.98165 -0.375979 0
M  V30 4735 C 464.207 1.64306 1.06127 0
M  V30 4736 O 465.413 2.20097 1.58964 0
M  V30 4737 C 463.869 3.54497 -0.621305 0
M  V30 4738 C 463.477 3.9727 -2.07076 0
M  V30 4739 C 465.221 4.23697 -0.26091 0
M  V30 4740 C 463.128 5.46427 -2.26211 0
M  V30 4741 H 462.058 0.741478 -0.136844 0
M  V30 4742 H 464.709 1.54834 -0.984814 0
M  V30 4743 H 463.091 3.95958 0.0574112 0
M  V30 4744 H 464.265 3.66974 -2.78687 0
M  V30 4745 H 462.58 3.40943 -2.39054 0
M  V30 4746 H 465.177 5.33334 -0.381994 0
M  V30 4747 H 465.52 4.0869 0.792344 0
M  V30 4748 H 466.053 3.87639 -0.893339 0
M  V30 4749 H 462.792 5.66396 -3.29963 0
M  V30 4750 H 462.312 5.78309 -1.59119 0
M  V30 4751 H 463.991 6.12819 -2.07513 0
M  V30 4752 N 464.123 0.554532 1.47522 0
M  V30 4753 C 465.372 0.0273458 2.01681 0
M  V30 4754 C 465.685 -1.32962 1.43459 0
M  V30 4755 O 466.891 -1.94657 1.89265 0
M  V30 4756 C 465.347 -0.00159057 3.599 0
M  V30 4757 C 464.955 1.35197 4.27113 0
M  V30 4758 C 466.699 -0.476311 4.21819 0
M  V30 4759 C 464.606 1.28229 5.77331 0
M  V30 4760 H 463.536 0.00645269 0.753972 0
M  V30 4761 H 466.187 0.701985 1.69542 0
M  V30 4762 H 464.569 -0.741821 3.8899 0
M  V30 4763 H 465.743 2.1097 4.09668 0
M  V30 4764 H 464.058 1.76441 3.77171 0
M  V30 4765 H 466.655 -0.5468 5.31897 0
M  V30 4766 H 466.998 -1.4877 3.8881 0
M  V30 4767 H 467.531 0.20898 3.97251 0
M  V30 4768 H 464.27 2.26959 6.14955 0
M  V30 4769 H 463.79 0.566314 5.97121 0
M  V30 4770 H 465.469 0.983226 6.39485 0
M  V30 4771 N 465.601 -1.54893 0.290851 0
M  V30 4772 C 467.012 -1.85584 -0.203816 0
M  V30 4773 C 467.363 -1.21285 -1.54222 0
M  V30 4774 O 466.488 -0.506841 -2.10381 0
M  V30 4775 C 467.083 -3.367 -0.376595 0
M  V30 4776 C 465.642 -3.6746 -0.815485 0
M  V30 4777 C 464.789 -2.77178 0.0821087 0
M  V30 4778 H 467.74 -1.50208 0.512175 0
M  V30 4779 H 467.761 -3.60656 -1.21275 0
M  V30 4780 H 467.273 -3.8347 0.59767 0
M  V30 4781 H 465.374 -3.26201 -1.80066 0
M  V30 4782 H 465.487 -4.7478 -0.641905 0
M  V30 4783 H 463.851 -2.50925 -0.436895 0
M  V30 4784 H 464.634 -3.26767 1.05254 0
M  V30 4785 N 467.08 -0.0183926 -1.57589 0
M  V30 4786 C 468.03 0.975944 -2.06057 0
M  V30 4787 C 469.014 1.29204 -0.958908 0
M  V30 4788 O 470.206 1.27995 -1.22255 0
M  V30 4789 C 467.335 2.26194 -2.58247 0
M  V30 4790 C 466.421 1.97467 -3.75323 0
M  V30 4791 N 466.812 1.38968 -4.86335 0
M  V30 4792 C 465.11 2.27515 -3.83605 0
M  V30 4793 C 465.811 1.27131 -5.67638 0
M  V30 4794 N 464.787 1.76319 -5.14211 0
M  V30 4795 H 468.589 0.518444 -2.89291 0
M  V30 4796 H 466.103 0.18688 -1.61321 0
M  V30 4797 H 468.1 2.98289 -2.91255 0
M  V30 4798 H 466.76 2.7258 -1.76438 0
M  V30 4799 H 467.771 1.06608 -5.06809 0
M  V30 4800 H 464.448 2.76649 -3.12684 0
M  V30 4801 H 465.838 0.819882 -6.66879 0
M  V30 4802 N 468.558 1.5553 0.254621 0
M  V30 4803 C 469.788 1.80784 1.00004 0
M  V30 4804 C 470.196 0.59071 1.79742 0
M  V30 4805 O 469.539 -0.449988 1.78103 0
M  V30 4806 C 469.601 2.99268 1.99196 0
M  V30 4807 C 469.265 4.35595 1.38224 0
M  V30 4808 C 470.262 5.13884 0.788611 0
M  V30 4809 C 467.947 4.82281 1.40393 0
M  V30 4810 C 469.941 6.37004 0.224783 0
M  V30 4811 C 467.628 6.05351 0.836243 0
M  V30 4812 C 468.626 6.82551 0.24769 0
M  V30 4813 O 468.314 8.03297 -0.311249 0
M  V30 4814 H 468.046 0.60565 0.300274 0
M  V30 4815 H 470.6 2.03411 0.285143 0
M  V30 4816 H 468.83 2.72377 2.74496 0
M  V30 4817 H 470.519 3.11682 2.60018 0
M  V30 4818 H 471.285 4.78938 0.764423 0
M  V30 4819 H 467.164 4.22189 1.85142 0
M  V30 4820 H 470.708 6.97203 -0.235235 0
M  V30 4821 H 466.605 6.39776 0.857733 0
M  V30 4822 H 467.373 8.1825 -0.20237 0
M  V30 4823 N 470.036 -0.519951 1.48776 0
M  V30 4824 C 471.284 -1.2727 1.56993 0
M  V30 4825 C 471.605 -1.9339 0.25004 0
M  V30 4826 O 470.875 -1.81822 -0.729216 0
M  V30 4827 H 469.455 -0.472732 0.578389 0
M  V30 4828 H 472.117 -0.604234 1.85297 0
M  V30 4829 H 471.213 -2.04669 2.3562 0
M  V30 4830 N 471.514 -1.37532 -0.769588 0
M  V30 4831 C 472.76 -1.34063 -1.52966 0
M  V30 4832 C 473.115 0.0737942 -1.92258 0
M  V30 4833 O 472.408 1.03291 -1.61374 0
M  V30 4834 C 472.602 -2.21558 -2.8044 0
M  V30 4835 C 472.431 -3.71367 -2.53608 0
M  V30 4836 C 471.201 -4.40464 -2.47628 0
M  V30 4837 C 473.399 -4.64177 -2.21459 0
M  V30 4838 N 471.381 -5.758 -2.12902 0
M  V30 4839 C 472.752 -5.87907 -1.9689 0
M  V30 4840 C 474.807 -4.52541 -2.07633 0
M  V30 4841 C 473.51 -7.01304 -1.59892 0
M  V30 4842 C 475.536 -5.65825 -1.72034 0
M  V30 4843 C 474.898 -6.88606 -1.48327 0
M  V30 4844 H 470.997 -0.545856 -0.559969 0
M  V30 4845 H 473.581 -1.72773 -0.897634 0
M  V30 4846 H 471.752 -1.85061 -3.41478 0
M  V30 4847 H 473.484 -2.09332 -3.46356 0
M  V30 4848 H 470.239 -3.93491 -2.63556 0
M  V30 4849 H 470.663 -6.47328 -1.9823 0
M  V30 4850 H 475.305 -3.58183 -2.24643 0
M  V30 4851 H 473.023 -7.95594 -1.4162 0
M  V30 4852 H 476.609 -5.58793 -1.61991 0
M  V30 4853 H 475.489 -7.74779 -1.21189 0
M  V30 4854 N 472.992 0.995999 -1.22138 0
M  V30 4855 C 474.217 1.77601 -1.0711 0
M  V30 4856 C 474.642 1.84339 0.374264 0
M  V30 4857 O 474 1.29359 1.27028 0
M  V30 4858 C 474.048 3.18897 -1.68336 0
M  V30 4859 O 473.152 4.01663 -0.934928 0
M  V30 4860 H 472.493 0.547011 -0.376397 0
M  V30 4861 H 475.023 1.25137 -1.6187 0
M  V30 4862 H 475.033 3.69539 -1.72931 0
M  V30 4863 H 473.708 3.13308 -2.73516 0
M  V30 4864 H 472.285 3.60204 -0.964751 0
M  V30 4865 N 474.47 1.03057 1.19235 0
M  V30 4866 C 475.717 0.728019 1.88961 0
M  V30 4867 C 476.045 -0.743515 1.79728 0
M  V30 4868 O 475.3 -1.55729 1.1852 0
M  V30 4869 C 475.599 1.1268 3.39172 0
M  V30 4870 C 475.265 2.5969 3.68608 0
M  V30 4871 C 473.927 2.99854 3.76352 0
M  V30 4872 C 476.279 3.54793 3.81801 0
M  V30 4873 C 473.607 4.34031 3.94758 0
M  V30 4874 C 475.959 4.88675 4.0172 0
M  V30 4875 C 474.623 5.28526 4.07697 0
M  V30 4876 H 473.893 0.266401 0.691456 0
M  V30 4877 H 476.54 1.29373 1.41191 0
M  V30 4878 H 474.845 0.479722 3.88852 0
M  V30 4879 H 476.542 0.870203 3.91444 0
M  V30 4880 H 473.132 2.27575 3.63191 0
M  V30 4881 H 477.316 3.24914 3.7516 0
M  V30 4882 H 472.572 4.6444 3.97625 0
M  V30 4883 H 476.746 5.6228 4.1087 0
M  V30 4884 H 474.373 6.32506 4.21712 0
M  V30 4885 N 475.948 -1.35272 0.808662 0
M  V30 4886 C 476.88 -2.28507 0.178149 0
M  V30 4887 C 477.893 -1.50377 -0.623754 0
M  V30 4888 O 479.082 -1.72583 -0.455774 0
M  V30 4889 C 476.182 -3.30038 -0.769959 0
M  V30 4890 C 475.355 -4.37398 -0.0139749 0
M  V30 4891 C 474.414 -5.18775 -0.880875 0
M  V30 4892 O 473.44 -5.68236 -0.331059 0
M  V30 4893 N 474.642 -5.37087 -2.20267 0
M  V30 4894 H 477.407 -2.83255 0.979106 0
M  V30 4895 H 474.968 -1.47643 0.664308 0
M  V30 4896 H 476.96 -3.81371 -1.35418 0
M  V30 4897 H 475.53 -2.75789 -1.47171 0
M  V30 4898 H 474.75 -3.86971 0.751468 0
M  V30 4899 H 476.038 -5.06268 0.506965 0
M  V30 4900 H 475.436 -4.9855 -2.67328 0
M  V30 4901 H 473.993 -5.91593 -2.73608 0
M  V30 4902 N 477.426 -0.562348 -1.47226 0
M  V30 4903 C 478.359 0.230405 -2.27034 0
M  V30 4904 C 479.337 0.915609 -1.3437 0
M  V30 4905 O 480.521 0.933573 -1.63758 0
M  V30 4906 C 477.648 1.32874 -3.11548 0
M  V30 4907 C 476.694 0.751552 -4.19826 0
M  V30 4908 S 477.527 -0.405848 -5.3396 0
M  V30 4909 C 478.683 0.694186 -6.22038 0
M  V30 4910 H 478.916 -0.446811 -2.93923 0
M  V30 4911 H 476.449 -0.348781 -1.50409 0
M  V30 4912 H 478.407 1.95773 -3.60809 0
M  V30 4913 H 477.068 1.97782 -2.44011 0
M  V30 4914 H 476.261 1.57651 -4.78709 0
M  V30 4915 H 475.863 0.198645 -3.73472 0
M  V30 4916 H 478.155 1.58501 -6.58698 0
M  V30 4917 H 479.098 0.142592 -7.07956 0
M  V30 4918 H 479.506 0.989169 -5.55766 0
M  V30 4919 N 478.904 1.54736 -0.299062 0
M  V30 4920 C 480.152 1.99706 0.31017 0
M  V30 4921 C 480.473 1.18896 1.54559 0
M  V30 4922 O 479.743 0.284445 1.93824 0
M  V30 4923 H 478.323 0.737686 0.117596 0
M  V30 4924 H 480.985 1.9054 -0.409943 0
M  V30 4925 H 480.081 3.06596 0.58355 0
M  V30 4926 N 480.382 0.0267497 1.57577 0
M  V30 4927 C 481.607 -0.666227 1.96408 0
M  V30 4928 C 482.032 -1.65004 0.903071 0
M  V30 4929 O 481.39 -1.80787 -0.136263 0
M  V30 4930 C 481.438 -1.35101 3.34335 0
M  V30 4931 O 480.542 -2.46623 3.30531 0
M  V30 4932 H 479.883 -0.175206 0.640468 0
M  V30 4933 H 482.413 0.0878977 2.04411 0
M  V30 4934 H 482.423 -1.70834 3.70513 0
M  V30 4935 H 481.098 -0.629844 4.11103 0
M  V30 4936 H 479.675 -2.13019 3.06068 0
M  V30 4937 N 481.861 -1.55662 -0.24637 0
M  V30 4938 C 482.824 -1.89558 -1.28842 0
M  V30 4939 C 483.824 -0.772082 -1.41052 0
M  V30 4940 O 485.014 -1.04007 -1.39743 0
M  V30 4941 C 482.146 -2.12449 -2.66605 0
M  V30 4942 H 483.339 -2.82735 -1.00004 0
M  V30 4943 H 480.892 -1.48562 -0.485684 0
M  V30 4944 H 481.627 -1.21742 -3.00582 0
M  V30 4945 H 481.412 -2.94273 -2.59125 0
M  V30 4946 H 482.902 -2.39854 -3.41847 0
M  V30 4947 N 483.339 0.512053 -1.4905 0
M  V30 4948 C 484.569 1.28928 -1.61434 0
M  V30 4949 C 484.977 1.87107 -0.280647 0
M  V30 4950 O 484.32 1.68024 0.742537 0
M  V30 4951 C 484.382 2.466 -2.61588 0
M  V30 4952 C 484.046 2.09375 -4.06216 0
M  V30 4953 C 485.043 1.63994 -4.93358 0
M  V30 4954 C 482.728 2.19348 -4.51876 0
M  V30 4955 C 484.722 1.29076 -6.24194 0
M  V30 4956 C 482.409 1.84041 -5.82728 0
M  V30 4957 C 483.407 1.38978 -6.68711 0
M  V30 4958 O 483.095 1.04144 -7.97126 0
M  V30 4959 H 482.827 0.397668 -0.546659 0
M  V30 4960 H 485.381 0.622507 -1.9574 0
M  V30 4961 H 483.611 3.16318 -2.22441 0
M  V30 4962 H 485.3 3.08642 -2.63619 0
M  V30 4963 H 486.066 1.55744 -4.59313 0
M  V30 4964 H 481.945 2.53376 -3.85125 0
M  V30 4965 H 485.489 0.938303 -6.91261 0
M  V30 4966 H 481.386 1.91938 -6.16304 0
M  V30 4967 H 482.154 1.17387 -8.10039 0
M  V30 4968 N 484.817 1.37938 0.762283 0
M  V30 4969 C 485.749 1.30349 1.88525 0
M  V30 4970 C 486.762 0.217402 1.61342 0
M  V30 4971 O 487.951 0.474291 1.72084 0
M  V30 4972 C 485.051 0.994844 3.23969 0
M  V30 4973 C 484.224 2.18829 3.78725 0
M  V30 4974 C 483.283 1.84844 4.92665 0
M  V30 4975 O 482.309 2.57244 5.07754 0
M  V30 4976 N 483.511 0.798201 5.74986 0
M  V30 4977 H 486.276 2.27114 1.95549 0
M  V30 4978 H 483.837 1.31686 0.941825 0
M  V30 4979 H 485.829 0.748168 3.97724 0
M  V30 4980 H 484.399 0.115446 3.12387 0
M  V30 4981 H 483.619 2.59615 2.96637 0
M  V30 4982 H 484.907 2.98497 4.1204 0
M  V30 4983 H 484.305 0.197611 5.65355 0
M  V30 4984 H 482.862 0.611396 6.48926 0
M  V30 4985 N 486.295 -0.989507 1.22664 0
M  V30 4986 C 487.542 -1.72953 1.05325 0
M  V30 4987 C 487.87 -1.90104 -0.411168 0
M  V30 4988 O 487.125 -1.44386 -1.32103 0
M  V30 4989 C 487.424 -3.13649 1.71345 0
M  V30 4990 C 487.09 -3.16403 3.21248 0
M  V30 4991 C 485.752 -3.16862 3.62149 0
M  V30 4992 C 488.104 -3.12428 4.17179 0
M  V30 4993 C 485.432 -3.11051 4.97458 0
M  V30 4994 C 487.784 -3.08159 5.52468 0
M  V30 4995 C 486.448 -3.06935 5.92746 0
M  V30 4996 H 485.718 -0.632881 0.385412 0
M  V30 4997 H 488.365 -1.15863 1.52473 0
M  V30 4998 H 486.67 -3.74069 1.16532 0
M  V30 4999 H 488.367 -3.69658 1.55416 0
M  V30 5000 H 484.957 -3.16798 2.88682 0
M  V30 5001 H 489.141 -3.11221 3.86595 0
M  V30 5002 H 484.397 -3.0845 5.27891 0
M  V30 5003 H 488.571 -3.04039 6.26525 0
M  V30 5004 H 486.198 -3.02186 6.97558 0
M  V30 5005 N 487.773 -1.03688 -1.18687 0
M  V30 5006 C 488.723 -0.595067 -2.20098 0
M  V30 5007 C 489.707 0.360465 -1.5681 0
M  V30 5008 O 490.899 0.180136 -1.76081 0
M  V30 5009 C 488.028 0.0444495 -3.43271 0
M  V30 5010 C 487.114 -0.934002 -4.13687 0
M  V30 5011 N 487.505 -2.09957 -4.60165 0
M  V30 5012 C 485.803 -0.759177 -4.39491 0
M  V30 5013 C 486.504 -2.71735 -5.1433 0
M  V30 5014 N 485.48 -1.99638 -5.05614 0
M  V30 5015 H 489.282 -1.48336 -2.5372 0
M  V30 5016 H 486.796 -0.904949 -1.3485 0
M  V30 5017 H 488.793 0.37864 -4.15177 0
M  V30 5018 H 487.453 0.928325 -3.11147 0
M  V30 5019 H 488.464 -2.47863 -4.54735 0
M  V30 5020 H 485.141 0.0749292 -4.17433 0
M  V30 5021 H 486.531 -3.70492 -5.60523 0
M  V30 5022 N 489.251 1.34841 -0.815825 0
M  V30 5023 C 490.476 2.03261 -0.41226 0
M  V30 5024 C 490.901 1.61055 0.971751 0
M  V30 5025 O 490.259 0.7917 1.63101 0
M  V30 5026 C 490.307 3.56914 -0.514289 0
M  V30 5027 O 489.411 4.09728 0.468675 0
M  V30 5028 H 488.752 0.641664 -0.170771 0
M  V30 5029 H 491.282 1.72241 -1.10427 0
M  V30 5030 H 491.292 4.06156 -0.387457 0
M  V30 5031 H 489.967 3.86982 -1.52375 0
M  V30 5032 H 488.544 3.71681 0.301316 0
M  V30 5033 N 490.729 0.570148 1.46925 0
M  V30 5034 C 491.975 0.0593124 2.03314 0
M  V30 5035 C 492.33 -1.28139 1.43521 0
M  V30 5036 O 491.623 -1.82411 0.586245 0
M  V30 5037 C 491.817 -0.0780336 3.57315 0
M  V30 5038 C 491.646 1.2478 4.32042 0
M  V30 5039 C 490.416 1.81859 4.7144 0
M  V30 5040 C 492.614 2.16808 4.66368 0
M  V30 5041 N 490.596 3.08313 5.30864 0
M  V30 5042 C 491.967 3.27845 5.2623 0
M  V30 5043 C 494.022 2.16643 4.48297 0
M  V30 5044 C 492.725 4.38832 5.69929 0
M  V30 5045 C 494.751 3.26652 4.93004 0
M  V30 5046 C 494.113 4.36408 5.52926 0
M  V30 5047 H 490.212 0.0641804 0.779362 0
M  V30 5048 H 492.796 0.760285 1.79242 0
M  V30 5049 H 490.967 -0.748151 3.81126 0
M  V30 5050 H 492.699 -0.59211 4.00345 0
M  V30 5051 H 489.454 1.35502 4.53802 0
M  V30 5052 H 489.878 3.72802 5.65108 0
M  V30 5053 H 494.52 1.33065 4.01315 0
M  V30 5054 H 492.238 5.23162 6.15896 0
M  V30 5055 H 495.824 3.27627 4.80782 0
M  V30 5056 H 494.704 5.20127 5.86888 0
M  V30 5057 N 492.207 -1.54576 0.307264 0
M  V30 5058 C 493.623 -1.59534 -0.0459251 0
M  V30 5059 C 493.823 -1.32414 -1.51884 0
M  V30 5060 O 492.879 -1.1006 -2.27251 0
M  V30 5061 C 494.192 -2.98566 0.357649 0
M  V30 5062 C 495.74 -3.11491 0.306937 0
M  V30 5063 C 496.215 -4.52842 0.685427 0
M  V30 5064 N 497.706 -4.58782 0.638203 0
M  V30 5065 C 498.441 -5.66238 0.903458 0
M  V30 5066 N 497.937 -6.81703 1.23501 0
M  V30 5067 N 499.73 -5.55937 0.830102 0
M  V30 5068 H 491.881 -1.70464 1.26712 0
M  V30 5069 H 494.144 -0.79647 0.514139 0
M  V30 5070 H 493.85 -3.23356 1.38325 0
M  V30 5071 H 493.724 -3.76117 -0.285565 0
M  V30 5072 H 496.111 -2.86446 -0.709424 0
M  V30 5073 H 496.192 -2.36081 0.984861 0
M  V30 5074 H 495.836 -4.78618 1.69963 0
M  V30 5075 H 495.766 -5.26598 -0.0146346 0
M  V30 5076 H 498.257 -3.75849 0.393138 0
M  V30 5077 H 498.57 -7.59582 1.42322 0
M  V30 5078 H 496.915 -6.8324 1.27311 0
M  V30 5079 H 500.106 -4.64608 0.570693 0
M  V30 5080 H 500.279 -6.39597 1.04019 0
M  V30 5081 N 493.685 -0.035106 -1.57561 0
M  V30 5082 C 494.931 0.64318 -1.92331 0
M  V30 5083 C 495.264 1.71434 -0.912368 0
M  V30 5084 O 494.539 1.94395 0.0640303 0
M  V30 5085 C 494.822 1.25411 -3.37556 0
M  V30 5086 C 494.675 0.192109 -4.4939 0
M  V30 5087 C 495.994 2.17041 -3.82859 0
M  V30 5088 H 493.113 0.232341 -0.699419 0
M  V30 5089 H 495.755 -0.0935889 -1.89769 0
M  V30 5090 H 493.905 1.88205 -3.39869 0
M  V30 5091 H 495.577 -0.438849 -4.59208 0
M  V30 5092 H 493.82 -0.481725 -4.31117 0
M  V30 5093 H 494.491 0.659292 -5.48049 0
M  V30 5094 H 496.967 1.64228 -3.8232 0
M  V30 5095 H 495.843 2.56738 -4.85157 0
M  V30 5096 H 496.104 3.06401 -3.18702 0
M  V30 5097 N 495.163 1.55791 0.238111 0
M  V30 5098 C 496.41 1.78033 0.964907 0
M  V30 5099 C 496.738 0.600984 1.84982 0
M  V30 5100 O 495.993 -0.41536 1.91241 0
M  V30 5101 C 496.292 3.05869 1.84875 0
M  V30 5102 C 495.958 4.36808 1.11846 0
M  V30 5103 C 494.62 4.72388 0.916662 0
M  V30 5104 C 496.972 5.17717 0.60151 0
M  V30 5105 C 494.3 5.86406 0.185756 0
M  V30 5106 C 496.652 6.32494 -0.115972 0
M  V30 5107 C 495.316 6.66688 -0.329168 0
M  V30 5108 H 494.586 0.651469 0.353085 0
M  V30 5109 H 497.233 1.90061 0.234318 0
M  V30 5110 H 495.538 2.88891 2.64668 0
M  V30 5111 H 497.235 3.20278 2.41294 0
M  V30 5112 H 493.825 4.08862 1.28569 0
M  V30 5113 H 498.009 4.90678 0.744932 0
M  V30 5114 H 493.265 6.11399 0.0101886 0
M  V30 5115 H 497.439 6.94425 -0.524127 0
M  V30 5116 H 495.066 7.54884 -0.897474 0
M  V30 5117 N 496.642 -0.504142 1.49319 0
M  V30 5118 C 497.888 -1.26033 1.58882 0
M  V30 5119 C 498.221 -1.92268 0.273274 0
M  V30 5120 O 497.496 -1.80567 -0.72291 0
M  V30 5121 C 497.779 -2.32976 2.7458 0
M  V30 5122 C 497.632 -1.71263 4.1592 0
M  V30 5123 C 498.951 -3.34561 2.85932 0
M  V30 5124 H 496.07 -0.456863 0.578312 0
M  V30 5125 H 498.712 -0.558965 1.81592 0
M  V30 5126 H 496.862 -2.92796 2.55348 0
M  V30 5127 H 498.534 -1.15294 4.4666 0
M  V30 5128 H 496.777 -1.01686 4.21714 0
M  V30 5129 H 497.448 -2.48816 4.92742 0
M  V30 5130 H 499.924 -2.84727 3.0343 0
M  V30 5131 H 498.8 -4.06754 3.68568 0
M  V30 5132 H 499.061 -3.96695 1.95154 0
M  V30 5133 N 498.12 -1.38341 -0.754957 0
M  V30 5134 C 499.05 -1.38176 -1.88227 0
M  V30 5135 C 500.031 -0.247873 -1.68284 0
M  V30 5136 O 501.216 -0.45075 -1.88896 0
M  V30 5137 C 498.346 -1.20471 -3.25736 0
M  V30 5138 C 497.3 -2.3105 -3.60278 0
M  V30 5139 C 496.626 -1.98452 -4.96509 0
M  V30 5140 C 497.926 -3.73305 -3.65295 0
M  V30 5141 H 499.62 -2.32512 -1.88622 0
M  V30 5142 H 497.166 -1.1192 -0.906082 0
M  V30 5143 H 499.119 -1.18982 -4.04254 0
M  V30 5144 H 497.843 -0.225965 -3.25817 0
M  V30 5145 H 496.502 -2.31723 -2.84078 0
M  V30 5146 H 496.15 -0.990641 -4.93148 0
M  V30 5147 H 495.85 -2.7251 -5.20588 0
M  V30 5148 H 497.374 -1.98578 -5.77407 0
M  V30 5149 H 498.788 -3.7467 -4.3393 0
M  V30 5150 H 497.185 -4.46557 -4.00883 0
M  V30 5151 H 498.255 -4.05719 -2.65556 0
M  V30 5152 N 499.598 0.982988 -1.23187 0
M  V30 5153 C 500.844 1.72648 -1.06398 0
M  V30 5154 C 501.177 1.90066 0.398561 0
M  V30 5155 O 500.452 1.45105 1.29518 0
M  V30 5156 C 500.735 3.12627 -1.78707 0
M  V30 5157 C 500.588 3.02795 -3.32618 0
M  V30 5158 C 501.907 4.11997 -1.54747 0
M  V30 5159 H 499.026 0.626649 -0.387918 0
M  V30 5160 H 501.668 1.14455 -1.51658 0
M  V30 5161 H 499.818 3.62308 -1.40234 0
M  V30 5162 H 501.49 2.60659 -3.80598 0
M  V30 5163 H 499.733 2.39362 -3.61785 0
M  V30 5164 H 500.404 4.01893 -3.78399 0
M  V30 5165 H 502.88 3.71114 -1.88186 0
M  V30 5166 H 501.756 5.08037 -2.07821 0
M  V30 5167 H 502.017 4.39462 -0.482249 0
M  V30 5168 N 501.076 1.04316 1.18135 0
M  V30 5169 C 502.316 0.756937 1.89868 0
M  V30 5170 C 502.68 -0.702609 1.78682 0
M  V30 5171 O 503.881 -1.10255 2.45148 0
M  V30 5172 C 502.152 1.21327 3.36176 0
M  V30 5173 S 503.711 1.05307 4.25976 0
M  V30 5174 H 500.529 0.275143 0.655604 0
M  V30 5175 H 503.131 1.33597 1.42731 0
M  V30 5176 H 501.835 2.27086 3.41848 0
M  V30 5177 H 501.366 0.628137 3.88353 0
M  V30 5178 H 503.381 -0.0280093 4.96192 0
M  V30 5179 N 502.554 -1.34406 0.822964 0
M  V30 5180 C 503.517 -2.2783 0.250271 0
M  V30 5181 C 504.517 -1.50288 -0.571854 0
M  V30 5182 O 505.707 -1.69825 -0.387952 0
M  V30 5183 C 502.839 -3.34663 -0.649137 0
M  V30 5184 H 504.032 -2.79992 1.07444 0
M  V30 5185 H 501.585 -1.44539 0.594829 0
M  V30 5186 H 502.32 -2.87714 -1.49637 0
M  V30 5187 H 502.105 -3.92052 -0.0611199 0
M  V30 5188 H 503.595 -4.04349 -1.04363 0
M  V30 5189 N 504.032 -0.577932 -1.46621 0
M  V30 5190 C 505.279 -0.0616879 -2.02406 0
M  V30 5191 C 505.607 1.29638 -1.44997 0
M  V30 5192 O 504.862 1.86176 -0.60308 0
M  V30 5193 C 505.161 0.0590832 -3.57351 0
M  V30 5194 C 504.827 -1.23077 -4.33777 0
M  V30 5195 C 503.489 -1.58416 -4.54376 0
M  V30 5196 C 505.841 -2.08457 -4.77698 0
M  V30 5197 C 503.169 -2.78943 -5.16147 0
M  V30 5198 C 505.521 -3.28204 -5.408 0
M  V30 5199 C 504.185 -3.63832 -5.59627 0
M  V30 5200 H 503.455 -0.0225732 -0.740656 0
M  V30 5201 H 506.102 -0.753609 -1.76048 0
M  V30 5202 H 504.407 0.834104 -3.82818 0
M  V30 5203 H 506.104 0.474202 -3.98186 0
M  V30 5204 H 502.694 -0.945652 -4.18038 0
M  V30 5205 H 506.878 -1.82459 -4.61544 0
M  V30 5206 H 502.134 -3.06689 -5.28916 0
M  V30 5207 H 506.308 -3.94634 -5.73792 0
M  V30 5208 H 503.935 -4.57315 -6.07262 0
M  V30 5209 N 505.51 1.54411 -0.315457 0
M  V30 5210 C 506.921 1.85885 0.174265 0
M  V30 5211 C 507.272 1.23723 1.52273 0
M  V30 5212 O 506.397 0.540246 2.09548 0
M  V30 5213 C 506.992 3.37257 0.322981 0
M  V30 5214 C 505.551 3.68711 0.756922 0
M  V30 5215 C 504.698 2.77013 -0.126195 0
M  V30 5216 H 507.649 1.49374 -0.536007 0
M  V30 5217 H 507.67 3.62539 1.15522 0
M  V30 5218 H 507.182 3.82471 -0.658602 0
M  V30 5219 H 505.283 3.29024 1.74854 0
M  V30 5220 H 505.396 4.75741 0.566291 0
M  V30 5221 H 503.76 2.51588 0.39692 0
M  V30 5222 H 504.543 3.25051 -1.1044 0
M  V30 5223 N 506.988 0.0434614 1.5754 0
M  V30 5224 C 508.213 -0.645358 1.97104 0
M  V30 5225 C 508.638 -1.64037 0.920521 0
M  V30 5226 O 507.996 -1.80922 -0.11708 0
M  V30 5227 C 508.044 -1.31547 3.35749 0
M  V30 5228 O 507.148 -2.43103 3.33129 0
M  V30 5229 H 506.489 -0.168403 0.64229 0
M  V30 5230 H 509.019 0.109573 2.04306 0
M  V30 5231 H 509.029 -1.66895 3.72304 0
M  V30 5232 H 507.704 -0.586205 4.11748 0
M  V30 5233 H 506.281 -2.0976 3.0831 0
M  V30 5234 N 508.466 -1.55915 -0.229846 0
M  V30 5235 C 509.712 -1.78807 -0.956868 0
M  V30 5236 C 510.045 -0.611687 -1.84315 0
M  V30 5237 O 509.32 0.389398 -1.90562 0
M  V30 5238 C 509.603 -3.11718 -1.80288 0
M  V30 5239 C 509.456 -4.3979 -0.943649 0
M  V30 5240 C 510.775 -3.40999 -2.78222 0
M  V30 5241 H 507.894 -0.6505 -0.346437 0
M  V30 5242 H 510.536 -1.88648 -0.226252 0
M  V30 5243 H 508.686 -3.03459 -2.42579 0
M  V30 5244 H 510.358 -4.60059 -0.338121 0
M  V30 5245 H 508.601 -4.33086 -0.248705 0
M  V30 5246 H 509.272 -5.29208 -1.5698 0
M  V30 5247 H 511.748 -3.49332 -2.26067 0
M  V30 5248 H 510.624 -4.35183 -3.34526 0
M  V30 5249 H 510.885 -2.62754 -3.55546 0
M  V30 5250 N 509.944 0.496216 -1.49584 0
M  V30 5251 C 511.191 1.25003 -1.59312 0
M  V30 5252 C 511.519 1.92445 -0.28198 0
M  V30 5253 O 510.774 1.81557 0.730452 0
M  V30 5254 C 511.073 2.3359 -2.705 0
M  V30 5255 C 510.739 1.83574 -4.11839 0
M  V30 5256 C 509.401 1.69653 -4.50302 0
M  V30 5257 C 511.753 1.46193 -5.00277 0
M  V30 5258 C 509.081 1.16736 -5.74969 0
M  V30 5259 C 511.433 0.947265 -6.25468 0
M  V30 5260 C 510.097 0.794485 -6.62755 0
M  V30 5261 H 509.367 0.45742 -0.582965 0
M  V30 5262 H 512.014 0.549996 -1.83432 0
M  V30 5263 H 510.319 3.09401 -2.40371 0
M  V30 5264 H 512.016 2.91627 -2.75235 0
M  V30 5265 H 508.606 1.9537 -3.81482 0
M  V30 5266 H 512.79 1.55793 -4.71214 0
M  V30 5267 H 508.046 1.03623 -6.02555 0
M  V30 5268 H 512.22 0.648846 -6.93371 0
M  V30 5269 H 509.847 0.382271 -7.59238 0
M  V30 5270 N 511.423 1.38739 0.74761 0
M  V30 5271 C 512.386 1.36241 1.84312 0
M  V30 5272 C 513.386 0.261811 1.58654 0
M  V30 5273 O 514.576 0.519031 1.66288 0
M  V30 5274 C 511.708 1.12253 3.21888 0
M  V30 5275 H 512.901 2.33712 1.87933 0
M  V30 5276 H 510.454 1.2412 0.949946 0
M  V30 5277 H 511.189 0.154133 3.23934 0
M  V30 5278 H 510.974 1.91943 3.41907 0
M  V30 5279 H 512.464 1.13215 4.0196 0
M  V30 5280 N 512.901 -0.976442 1.23707 0
M  V30 5281 C 514.15 -1.71254 1.06559 0
M  V30 5282 C 514.463 -1.91528 -0.397024 0
M  V30 5283 O 515.669 -2.62625 -0.688518 0
M  V30 5284 C 514.125 -3.08207 1.8584 0
M  V30 5285 C 513.733 -2.95806 3.36456 0
M  V30 5286 C 515.477 -3.85749 1.77194 0
M  V30 5287 C 513.384 -4.28015 4.08114 0
M  V30 5288 H 512.314 -0.642171 0.395136 0
M  V30 5289 H 514.965 -1.08877 1.4771 0
M  V30 5290 H 513.347 -3.71363 1.37498 0
M  V30 5291 H 514.521 -2.41716 3.92314 0
M  V30 5292 H 512.836 -2.31736 3.45959 0
M  V30 5293 H 515.433 -4.83633 2.28041 0
M  V30 5294 H 515.776 -4.09752 0.735477 0
M  V30 5295 H 516.309 -3.29303 2.23169 0
M  V30 5296 H 513.048 -4.09208 5.12083 0
M  V30 5297 H 512.568 -4.81955 3.57043 0
M  V30 5298 H 514.247 -4.96681 4.14629 0
M  V30 5299 N 514.379 -1.04941 -1.1758 0
M  V30 5300 C 515.627 -0.756492 -1.87408 0
M  V30 5301 C 515.948 0.718478 -1.81281 0
M  V30 5302 O 515.218 1.519 -1.23706 0
M  V30 5303 H 513.798 -0.276841 -0.693807 0
M  V30 5304 H 516.46 -1.32803 -1.42652 0
M  V30 5305 H 515.556 -1.06918 -2.93215 0
M  V30 5306 N 515.857 1.33968 -0.830081 0
M  V30 5307 C 516.82 2.27694 -0.26235 0
M  V30 5308 C 517.82 1.50589 0.563876 0
M  V30 5309 O 519.01 1.70028 0.378941 0
M  V30 5310 C 516.142 3.35002 0.63138 0
M  V30 5311 H 517.335 2.79419 -1.08928 0
M  V30 5312 H 514.888 1.44221 -0.602486 0
M  V30 5313 H 515.623 2.88504 1.48109 0
M  V30 5314 H 515.408 3.92079 0.0403276 0
M  V30 5315 H 516.898 4.04897 1.02217 0
M  V30 5316 N 517.335 0.585699 1.46312 0
M  V30 5317 C 518.265 -0.133556 2.33118 0
M  V30 5318 C 519.246 -0.880707 1.45525 0
M  V30 5319 O 520.431 -0.855579 1.74337 0
M  V30 5320 C 517.561 -1.14585 3.27853 0
M  V30 5321 C 516.515 -0.513341 4.2491 0
M  V30 5322 C 515.841 -1.63231 5.09175 0
M  V30 5323 C 517.141 0.551413 5.19381 0
M  V30 5324 H 518.835 0.59121 2.93505 0
M  V30 5325 H 516.381 0.285761 1.41136 0
M  V30 5326 H 518.334 -1.65741 3.87438 0
M  V30 5327 H 517.058 -1.90093 2.65579 0
M  V30 5328 H 515.717 -0.0228349 3.66593 0
M  V30 5329 H 515.365 -2.37713 4.43285 0
M  V30 5330 H 515.065 -1.21473 5.74907 0
M  V30 5331 H 516.589 -2.14658 5.71624 0
M  V30 5332 H 518.003 0.124804 5.73164 0
M  V30 5333 H 516.4 0.889486 5.93471 0
M  V30 5334 H 517.47 1.43655 4.63132 0
M  V30 5335 N 518.813 -1.54241 0.323641 0
M  V30 5336 C 520.041 -2.04985 -0.280871 0
M  V30 5337 C 520.456 -1.19978 -1.45777 0
M  V30 5338 O 519.813 -0.230471 -1.81039 0
M  V30 5339 C 519.864 -3.54353 -0.715258 0
M  V30 5340 O 519.585 -4.36132 0.414817 0
M  V30 5341 C 521.086 -4.21189 -1.38257 0
M  V30 5342 H 518.306 -0.66851 -0.0577502 0
M  V30 5343 H 520.85 -1.99029 0.469852 0
M  V30 5344 H 519.005 -3.60596 -1.41596 0
M  V30 5345 H 519.419 -5.2445 0.0725227 0
M  V30 5346 H 520.893 -5.27154 -1.63745 0
M  V30 5347 H 521.37 -3.72307 -2.32989 0
M  V30 5348 H 521.976 -4.19085 -0.724447 0
M  V30 5349 N 520.291 -0.0518155 -1.57515 0
M  V30 5350 C 521.519 0.631395 -1.9703 0
M  V30 5351 C 521.934 1.64341 -0.92938 0
M  V30 5352 O 521.291 1.82296 0.0863266 0
M  V30 5353 C 521.342 1.31774 -3.36627 0
M  V30 5354 O 521.063 0.346247 -4.3673 0
M  V30 5355 C 522.564 2.09065 -3.90905 0
M  V30 5356 H 519.784 0.172576 -0.648428 0
M  V30 5357 H 522.328 -0.118306 -2.04158 0
M  V30 5358 H 520.483 2.01867 -3.30649 0
M  V30 5359 H 520.897 0.836226 -5.17791 0
M  V30 5360 H 522.371 2.52508 -4.9086 0
M  V30 5361 H 522.848 2.93908 -3.26366 0
M  V30 5362 H 523.454 1.43882 -4.00223 0
M  V30 5363 N 521.769 1.56035 0.221574 0
M  V30 5364 C 522.701 1.889 1.29805 0
M  V30 5365 C 523.714 0.777269 1.43047 0
M  V30 5366 O 524.903 1.05557 1.43945 0
M  V30 5367 C 522.003 2.0825 2.67367 0
M  V30 5368 C 521.176 3.39267 2.76073 0
M  V30 5369 C 520.235 3.48049 3.94649 0
M  V30 5370 O 519.261 4.2108 3.82988 0
M  V30 5371 N 520.463 2.79191 5.08953 0
M  V30 5372 H 523.228 2.81831 1.01938 0
M  V30 5373 H 520.789 1.5658 0.411612 0
M  V30 5374 H 522.781 2.11441 3.45072 0
M  V30 5375 H 521.351 1.21944 2.87834 0
M  V30 5376 H 520.571 3.48175 1.84846 0
M  V30 5377 H 521.859 4.25575 2.7886 0
M  V30 5378 H 521.257 2.19635 5.21322 0
M  V30 5379 H 519.814 2.88043 5.84701 0
M  V30 5380 N 523.247 -0.488276 1.49845 0
M  V30 5381 C 524.658 -1.06955 1.53028 0
M  V30 5382 C 525.009 -1.9351 0.323797 0
M  V30 5383 O 524.134 -2.08891 -0.565116 0
M  V30 5384 C 524.729 -1.94643 2.77307 0
M  V30 5385 C 523.288 -2.4791 2.83227 0
M  V30 5386 C 522.435 -1.25833 2.47106 0
M  V30 5387 H 525.386 -0.271626 1.56358 0
M  V30 5388 H 525.407 -2.79496 2.5819 0
M  V30 5389 H 524.919 -1.31621 3.65099 0
M  V30 5390 H 523.02 -3.14535 1.99745 0
M  V30 5391 H 523.133 -2.84193 3.85709 0
M  V30 5392 H 521.497 -1.58764 1.99163 0
M  V30 5393 H 522.28 -0.644993 3.37186 0
M  V30 5394 N 524.725 -1.39134 -0.740242 0
M  V30 5395 C 525.635 -1.39697 -1.88473 0
M  V30 5396 C 526.651 -0.292403 -1.71526 0
M  V30 5397 O 527.827 -0.533021 -1.94219 0
M  V30 5398 C 524.892 -1.23382 -3.24003 0
M  V30 5399 C 523.953 -2.43763 -3.53381 0
M  V30 5400 C 523.186 -2.28216 -4.82445 0
M  V30 5401 O 523.409 -1.28288 -5.55786 0
M  V30 5402 O 522.343 -3.1709 -5.11603 0
M  V30 5403 H 526.169 -2.36159 -1.90952 0
M  V30 5404 H 523.754 -1.20194 -0.887346 0
M  V30 5405 H 525.636 -1.16395 -4.05006 0
M  V30 5406 H 524.311 -0.300121 -3.22306 0
M  V30 5407 H 523.218 -2.56325 -2.72485 0
M  V30 5408 H 524.551 -3.35808 -3.59852 0
M  V30 5409 N 526.204 0.969867 -1.24223 0
M  V30 5410 C 527.429 1.75289 -1.10853 0
M  V30 5411 C 527.854 1.85091 0.335079 0
M  V30 5412 O 527.212 1.32024 1.24255 0
M  V30 5413 C 527.26 3.15255 -1.75062 0
M  V30 5414 O 526.364 3.99589 -1.01992 0
M  V30 5415 H 525.705 0.538904 -0.387915 0
M  V30 5416 H 528.235 1.21675 -1.64488 0
M  V30 5417 H 528.245 3.65787 -1.80731 0
M  V30 5418 H 526.92 3.07436 -2.801 0
M  V30 5419 H 525.497 3.58077 -1.04094 0
M  V30 5420 N 527.682 1.05563 1.17022 0
M  V30 5421 C 529.093 0.793475 1.69 0
M  V30 5422 C 529.444 -0.683882 1.83895 0
M  V30 5423 O 528.569 -1.53116 1.5292 0
M  V30 5424 C 529.164 1.43376 3.06967 0
M  V30 5425 C 527.723 1.21956 3.56095 0
M  V30 5426 C 526.87 1.51494 2.3226 0
M  V30 5427 H 529.821 1.22008 1.01487 0
M  V30 5428 H 529.842 0.845068 3.70997 0
M  V30 5429 H 529.354 2.50899 2.96093 0
M  V30 5430 H 527.455 0.163749 3.7224 0
M  V30 5431 H 527.568 1.92713 4.38633 0
M  V30 5432 H 525.932 0.935175 2.3691 0
M  V30 5433 H 526.715 2.60159 2.23992 0
M  V30 5434 N 529.16 -1.33526 0.837174 0
M  V30 5435 C 530.576 -1.50727 0.524743 0
M  V30 5436 C 530.776 -1.77792 -0.948279 0
M  V30 5437 O 529.832 -1.83719 -1.73216 0
M  V30 5438 C 531.145 -2.66299 1.39661 0
M  V30 5439 C 532.693 -2.80183 1.39521 0
M  V30 5440 C 533.168 -3.98815 2.25189 0
M  V30 5441 N 534.659 -4.06047 2.2289 0
M  V30 5442 C 535.394 -4.97032 2.85915 0
M  V30 5443 N 534.89 -5.93143 3.57985 0
M  V30 5444 N 536.683 -4.90015 2.75394 0
M  V30 5445 H 528.834 -1.1422 1.79074 0
M  V30 5446 H 531.097 -0.561399 0.763894 0
M  V30 5447 H 530.803 -2.52974 2.4433 0
M  V30 5448 H 530.677 -3.61663 1.07145 0
M  V30 5449 H 533.064 -2.92942 0.356253 0
M  V30 5450 H 533.145 -1.85586 1.76044 0
M  V30 5451 H 532.789 -3.86817 3.29143 0
M  V30 5452 H 532.719 -4.92654 1.86009 0
M  V30 5453 H 535.21 -3.37262 1.70478 0
M  V30 5454 H 535.523 -6.59227 4.03286 0
M  V30 5455 H 533.868 -5.93223 3.62093 0
M  V30 5456 H 537.059 -4.13894 2.18654 0
M  V30 5457 H 537.232 -5.60724 3.24796 0
M  V30 5458 N 530.638 -0.59345 -1.46 0
M  V30 5459 C 531.885 -0.0831523 -2.02329 0
M  V30 5460 C 532.213 1.28093 -1.46364 0
M  V30 5461 O 531.468 1.85526 -0.622793 0
M  V30 5462 C 531.767 0.021178 -3.57394 0
M  V30 5463 C 531.433 -1.27671 -4.32448 0
M  V30 5464 C 530.095 -1.63227 -4.5267 0
M  V30 5465 C 532.447 -2.13511 -4.7546 0
M  V30 5466 C 529.775 -2.84401 -5.1316 0
M  V30 5467 C 532.127 -3.33922 -5.37289 0
M  V30 5468 C 530.791 -3.69747 -5.55737 0
M  V30 5469 H 530.061 -0.0304276 -0.740375 0
M  V30 5470 H 532.708 -0.772239 -1.75239 0
M  V30 5471 H 531.013 0.793454 -3.83682 0
M  V30 5472 H 532.71 0.431942 -3.98667 0
M  V30 5473 H 529.3 -0.989937 -4.17011 0
M  V30 5474 H 533.484 -1.87344 -4.59582 0
M  V30 5475 H 528.74 -3.12282 -5.25633 0
M  V30 5476 H 532.914 -4.00698 -5.69574 0
M  V30 5477 H 530.541 -4.6373 -6.02377 0
M  V30 5478 N 532.116 1.54067 -0.331816 0
M  V30 5479 C 533.363 2.00715 0.268269 0
M  V30 5480 C 533.691 1.21986 1.51491 0
M  V30 5481 O 532.946 0.292309 1.93505 0
M  V30 5482 C 533.245 3.51634 0.639392 0
M  V30 5483 C 532.911 4.48018 -0.509019 0
M  V30 5484 C 531.573 4.74089 -0.824209 0
M  V30 5485 C 533.925 5.05237 -1.28003 0
M  V30 5486 C 531.253 5.54637 -1.91298 0
M  V30 5487 C 533.605 5.86972 -2.35895 0
M  V30 5488 C 532.269 6.11342 -2.67987 0
M  V30 5489 H 531.539 0.734469 0.0981667 0
M  V30 5490 H 534.186 1.8596 -0.457304 0
M  V30 5491 H 532.491 3.6416 1.44551 0
M  V30 5492 H 534.188 3.85175 1.11539 0
M  V30 5493 H 530.778 4.27851 -0.253287 0
M  V30 5494 H 534.962 4.8507 -1.04978 0
M  V30 5495 H 530.218 5.71747 -2.16599 0
M  V30 5496 H 534.392 6.30327 -2.96076 0
M  V30 5497 H 532.019 6.73544 -3.5248 0
M  V30 5498 N 533.594 0.0601682 1.57485 0
M  V30 5499 C 534.524 -0.90889 2.15085 0
M  V30 5500 C 535.505 -1.31838 1.07484 0
M  V30 5501 O 536.69 -1.3915 1.35466 0
M  V30 5502 C 533.82 -2.18059 2.7031 0
M  V30 5503 C 532.774 -1.91088 3.82974 0
M  V30 5504 C 532.1 -3.24789 4.24754 0
M  V30 5505 C 533.4 -1.22535 5.07723 0
M  V30 5506 H 535.094 -0.429093 2.96309 0
M  V30 5507 H 532.64 -0.204952 1.42534 0
M  V30 5508 H 534.593 -2.86258 3.09248 0
M  V30 5509 H 533.317 -2.6826 1.8629 0
M  V30 5510 H 531.976 -1.25297 3.44523 0
M  V30 5511 H 531.624 -3.72809 3.37672 0
M  V30 5512 H 531.324 -3.07538 5.00694 0
M  V30 5513 H 532.848 -3.94205 4.66299 0
M  V30 5514 H 534.262 -1.80783 5.4405 0
M  V30 5515 H 532.659 -1.1558 5.88864 0
M  V30 5516 H 533.729 -0.202692 4.84476 0
M  V30 5517 N 535.072 -1.5615 -0.213296 0
M  V30 5518 C 535.982 -1.96265 -1.28519 0
M  V30 5519 C 536.998 -0.86765 -1.50824 0
M  V30 5520 O 538.174 -1.17191 -1.63793 0
M  V30 5521 C 535.239 -2.27836 -2.61327 0
M  V30 5522 C 534.3 -3.50949 -2.47252 0
M  V30 5523 C 533.533 -3.81004 -3.73727 0
M  V30 5524 O 533.756 -3.12612 -4.77106 0
M  V30 5525 O 532.69 -4.74477 -3.70344 0
M  V30 5526 H 536.516 -2.87631 -0.974795 0
M  V30 5527 H 534.101 -1.43467 -0.416832 0
M  V30 5528 H 535.983 -2.49299 -3.39747 0
M  V30 5529 H 534.658 -1.39643 -2.9203 0
M  V30 5530 H 533.565 -3.34754 -1.67004 0
M  V30 5531 H 534.898 -4.39551 -2.21486 0
M  V30 5532 N 536.55 0.480323 -1.50102 0
M  V30 5533 C 537.498 1.60024 -1.68805 0
M  V30 5534 C 538.492 1.60089 -0.553888 0
M  V30 5535 O 539.698 1.64349 -0.734127 0
M  V30 5536 H 536.073 0.530841 -0.532646 0
M  V30 5537 H 538.044 1.41408 -2.62767 0
M  V30 5538 C 536.793 2.98029 -1.79092 0
M  V30 5539 H 536.116 2.98694 -2.65748 0
M  V30 5540 H 537.556 3.75871 -1.96206 0
M  V30 5541 C 536.015 3.32538 -0.540388 0
M  V30 5542 O 536.545 4.00386 0.324637 0
M  V30 5543 N 534.751 2.87873 -0.397154 0
M  V30 5544 H 534.298 2.32834 -1.1021 0
M  V30 5545 H 534.256 3.11328 0.438425 0
M  V30 5546 N 538.028 1.39524 0.732853 0
M  V30 5547 C 539.276 1.36594 1.48951 0
M  V30 5548 C 539.597 -0.0367507 1.94965 0
M  V30 5549 O 538.867 -0.988391 1.69138 0
M  V30 5550 H 537.447 0.502673 0.552566 0
M  V30 5551 H 540.109 1.74411 0.869869 0
M  V30 5552 H 539.205 2.03 2.3706 0
M  V30 5553 N 539.506 -0.963266 1.24736 0
M  V30 5554 C 540.453 -2.05857 1.04363 0
M  V30 5555 C 541.423 -1.6604 -0.0444951 0
M  V30 5556 O 542.608 -1.90477 0.110999 0
M  V30 5557 C 539.748 -3.38745 0.659235 0
M  V30 5558 C 538.861 -3.9173 1.82131 0
M  V30 5559 C 537.996 -5.12906 1.38208 0
M  V30 5560 C 537.035 -5.58098 2.51382 0
M  V30 5561 N 536.172 -6.7049 2.08295 0
M  V30 5562 H 541.012 -2.22616 1.98107 0
M  V30 5563 H 538.549 -1.09103 0.986661 0
M  V30 5564 H 540.507 -4.15107 0.417371 0
M  V30 5565 H 539.137 -3.21898 -0.241201 0
M  V30 5566 H 538.189 -3.11966 2.17672 0
M  V30 5567 H 539.501 -4.21225 2.67153 0
M  V30 5568 H 538.655 -5.96657 1.09935 0
M  V30 5569 H 537.394 -4.85105 0.502456 0
M  V30 5570 H 536.399 -4.72917 2.80409 0
M  V30 5571 H 537.624 -5.87911 3.39909 0
M  V30 5572 H 535.57 -6.44416 1.22737 0
M  V30 5573 H 535.487 -6.99458 2.86869 0
M  V30 5574 H 536.755 -7.57672 1.83175 0
M  V30 5575 N 540.985 -1.06182 -1.16461 0
M  V30 5576 C 541.935 -0.641619 -2.18786 0
M  V30 5577 C 542.919 0.327122 -1.5754 0
M  V30 5578 O 544.111 0.142746 -1.76423 0
M  V30 5579 C 541.24 -0.0283734 -3.43288 0
M  V30 5580 C 540.326 -1.02154 -4.11613 0
M  V30 5581 N 540.717 -2.19671 -4.55608 0
M  V30 5582 C 539.015 -0.852229 -4.37782 0
M  V30 5583 C 539.716 -2.82583 -5.0845 0
M  V30 5584 N 538.692 -2.10318 -5.01266 0
M  V30 5585 H 542.494 -1.53684 -2.50516 0
M  V30 5586 H 540.008 -0.933349 -1.329 0
M  V30 5587 H 542.005 0.29049 -4.15887 0
M  V30 5588 H 540.665 0.862118 -3.13046 0
M  V30 5589 H 541.676 -2.57453 -4.49375 0
M  V30 5590 H 538.353 -0.0136314 -4.17498 0
M  V30 5591 H 539.743 -3.82298 -5.52538 0
M  V30 5592 N 542.463 1.3308 -0.844243 0
M  V30 5593 C 543.74 1.92178 -0.364261 0
M  V30 5594 C 544.12 1.76961 1.15101 0
M  V30 5595 O 543.468 1.16128 1.9679 0
M  V30 5596 C 543.678 3.393 -0.817106 0
M  V30 5597 C 545.026 4.16444 -0.828236 0
M  V30 5598 O 546.05 3.47975 -0.761062 0
M  V30 5599 O 544.909 5.38685 -0.920926 0
M  V30 5600 H 542.003 0.820411 -0.10419 0
M  V30 5601 H 544.549 1.41918 -0.930453 0
M  V30 5602 H 543.321 3.44272 -1.85991 0
M  V30 5603 H 542.944 3.96947 -0.227785 0
M  V30 5604 N 543.941 0.601185 1.45683 0
M  V30 5605 C 544.851 -0.123395 2.34275 0
M  V30 5606 C 545.867 -0.86702 1.5086 0
M  V30 5607 O 547.043 -0.826049 1.8368 0
M  V30 5608 C 544.108 -1.11237 3.2837 0
M  V30 5609 C 543.169 -0.371405 4.2769 0
M  V30 5610 C 542.402 -1.31327 5.1729 0
M  V30 5611 O 542.625 -2.55078 5.10188 0
M  V30 5612 O 541.559 -0.813811 5.96373 0
M  V30 5613 H 545.385 0.604483 2.97623 0
M  V30 5614 H 542.97 0.361477 1.44961 0
M  V30 5615 H 544.852 -1.68214 3.8637 0
M  V30 5616 H 543.527 -1.82139 2.67595 0
M  V30 5617 H 542.434 0.24067 3.73325 0
M  V30 5618 H 543.767 0.296998 4.91303 0
M  V30 5619 N 545.419 -1.53889 0.339982 0
M  V30 5620 C 546.382 -2.23547 -0.50592 0
M  V30 5621 C 547.382 -1.23445 -1.03044 0
M  V30 5622 O 548.572 -1.47909 -0.920253 0
M  V30 5623 C 545.704 -2.95234 -1.7044 0
M  V30 5624 H 546.897 -2.99722 0.103247 0
M  V30 5625 H 544.45 -1.56033 0.0912804 0
M  V30 5626 H 545.185 -2.23236 -2.35236 0
M  V30 5627 H 544.97 -3.68654 -1.33553 0
M  V30 5628 H 546.46 -3.48258 -2.30447 0
M  V30 5629 N 546.897 -0.0685191 -1.57451 0
M  V30 5630 C 548.143 0.596247 -1.94465 0
M  V30 5631 C 548.498 1.67417 -0.948117 0
M  V30 5632 O 547.791 1.91576 0.0301056 0
M  V30 5633 C 547.985 1.22051 -3.35914 0
M  V30 5634 C 547.814 0.204586 -4.49234 0
M  V30 5635 C 546.584 -0.20959 -5.04865 0
M  V30 5636 C 548.782 -0.556872 -5.11276 0
M  V30 5637 N 546.764 -1.21656 -6.01725 0
M  V30 5638 C 548.135 -1.41642 -6.03604 0
M  V30 5639 C 550.19 -0.613297 -4.94108 0
M  V30 5640 C 548.893 -2.32737 -6.80607 0
M  V30 5641 C 550.919 -1.51174 -5.71752 0
M  V30 5642 C 550.281 -2.35898 -6.63726 0
M  V30 5643 H 546.38 0.189307 -0.75874 0
M  V30 5644 H 548.964 -0.144899 -1.9416 0
M  V30 5645 H 547.135 1.9316 -3.36963 0
M  V30 5646 H 548.867 1.84548 -3.60172 0
M  V30 5647 H 545.622 0.172871 -4.73284 0
M  V30 5648 H 546.046 -1.71746 -6.54853 0
M  V30 5649 H 550.688 0.0275228 -4.22791 0
M  V30 5650 H 548.406 -2.97856 -7.51204 0
M  V30 5651 H 551.992 -1.5602 -5.6049 0
M  V30 5652 H 550.872 -3.04291 -7.22756 0
M  V30 5653 N 548.375 1.56261 0.205012 0
M  V30 5654 C 549.308 1.88797 1.28183 0
M  V30 5655 C 550.286 0.747018 1.44424 0
M  V30 5656 O 551.47 0.997039 1.59973 0
M  V30 5657 C 548.597 2.10949 2.64987 0
M  V30 5658 C 547.643 3.33649 2.6567 0
M  V30 5659 S 548.476 4.89078 2.18088 0
M  V30 5660 C 549.632 5.14286 3.56736 0
M  V30 5661 H 549.865 2.79837 1.00393 0
M  V30 5662 H 547.398 1.48911 0.408042 0
M  V30 5663 H 549.356 2.24395 3.4374 0
M  V30 5664 H 548.017 1.20678 2.89993 0
M  V30 5665 H 547.21 3.46245 3.66239 0
M  V30 5666 H 546.812 3.19146 1.94992 0
M  V30 5667 H 549.104 5.04198 4.52537 0
M  V30 5668 H 550.047 6.16096 3.49043 0
M  V30 5669 H 550.455 4.41957 3.51189 0
M  V30 5670 N 549.853 -0.472356 1.50355 0
M  V30 5671 C 551.099 -1.22634 1.6152 0
M  V30 5672 C 551.432 -1.91645 0.313995 0
M  V30 5673 O 550.707 -1.82059 -0.684446 0
M  V30 5674 C 550.99 -2.27099 2.7946 0
M  V30 5675 C 550.843 -1.62402 4.19459 0
M  V30 5676 C 552.162 -3.28421 2.92964 0
M  V30 5677 H 549.281 -0.444494 0.587873 0
M  V30 5678 H 551.923 -0.520321 1.82737 0
M  V30 5679 H 550.073 -2.87314 2.61501 0
M  V30 5680 H 551.745 -1.05793 4.49005 0
M  V30 5681 H 549.988 -0.927184 4.23776 0
M  V30 5682 H 550.659 -2.38309 4.97909 0
M  V30 5683 H 553.135 -2.78227 3.09401 0
M  V30 5684 H 552.011 -3.98845 3.77113 0
M  V30 5685 H 552.272 -3.92467 2.03525 0
M  V30 5686 N 551.331 -1.39911 -0.725443 0
M  V30 5687 C 552.261 -1.42138 -1.85254 0
M  V30 5688 C 553.242 -0.283513 -1.67721 0
M  V30 5689 O 554.427 -0.490717 -1.87898 0
M  V30 5690 C 551.557 -1.27354 -3.23107 0
M  V30 5691 C 550.511 -2.3864 -3.55296 0
M  V30 5692 C 549.837 -2.08939 -4.92188 0
M  V30 5693 C 551.137 -3.8097 -3.57295 0
M  V30 5694 H 552.831 -2.36461 -1.83648 0
M  V30 5695 H 550.377 -1.13817 -0.882138 0
M  V30 5696 H 552.33 -1.2753 -4.01639 0
M  V30 5697 H 551.054 -0.295025 -3.25265 0
M  V30 5698 H 549.713 -2.37696 -2.79099 0
M  V30 5699 H 549.361 -1.09502 -4.90936 0
M  V30 5700 H 549.061 -2.83491 -5.14691 0
M  V30 5701 H 550.585 -2.10781 -5.73065 0
M  V30 5702 H 551.999 -3.8379 -4.25885 0
M  V30 5703 H 550.396 -4.5496 -3.9132 0
M  V30 5704 H 551.466 -4.11261 -2.5689 0
M  V30 5705 N 552.809 0.956637 -1.25245 0
M  V30 5706 C 553.756 2.053 -1.05454 0
M  V30 5707 C 554.726 1.66062 0.0356889 0
M  V30 5708 O 555.911 1.90415 -0.121099 0
M  V30 5709 C 553.051 3.38391 -0.677191 0
M  V30 5710 C 552.164 3.90758 -1.84206 0
M  V30 5711 C 551.299 5.12165 -1.40926 0
M  V30 5712 C 550.338 5.56757 -2.54338 0
M  V30 5713 N 549.475 6.69376 -2.11848 0
M  V30 5714 H 554.315 2.21562 -1.99284 0
M  V30 5715 H 551.852 1.08578 -0.992434 0
M  V30 5716 H 553.81 4.1488 -0.43938 0
M  V30 5717 H 552.44 3.22021 0.224127 0
M  V30 5718 H 551.492 3.10808 -2.19323 0
M  V30 5719 H 552.804 4.19802 -2.69383 0
M  V30 5720 H 551.958 5.96065 -1.13098 0
M  V30 5721 H 550.697 4.84832 -0.528175 0
M  V30 5722 H 549.702 4.71423 -2.82913 0
M  V30 5723 H 550.927 5.861 -3.43022 0
M  V30 5724 H 548.873 6.43756 -1.26153 0
M  V30 5725 H 548.79 6.97927 -2.90574 0
M  V30 5726 H 550.058 7.5669 -1.87191 0
M  V30 5727 N 554.287 1.06798 1.15896 0
M  V30 5728 C 555.219 0.641263 2.20046 0
M  V30 5729 C 556.232 -0.303355 1.59949 0
M  V30 5730 O 557.421 -0.0935478 1.78255 0
M  V30 5731 C 554.521 -0.0794029 3.38807 0
M  V30 5732 C 553.694 0.879986 4.28457 0
M  V30 5733 C 552.753 0.197638 5.25829 0
M  V30 5734 O 551.779 0.836913 5.63014 0
M  V30 5735 N 552.981 -1.05886 5.70761 0
M  V30 5736 H 555.746 1.53718 2.57276 0
M  V30 5737 H 553.307 0.951951 1.30956 0
M  V30 5738 H 555.299 -0.546418 4.00994 0
M  V30 5739 H 553.869 -0.877193 3.0004 0
M  V30 5740 H 553.089 1.52625 3.63454 0
M  V30 5741 H 554.377 1.53065 4.8523 0
M  V30 5742 H 553.775 -1.59828 5.42652 0
M  V30 5743 H 552.332 -1.46965 6.35015 0
M  V30 5744 N 555.766 -1.3263 0.851289 0
M  V30 5745 C 557.012 -1.9766 0.453694 0
M  V30 5746 C 557.345 -1.67225 -0.987396 0
M  V30 5747 O 556.62 -0.958693 -1.69232 0
M  V30 5748 C 556.903 -3.5344 0.68936 0
M  V30 5749 C 556.756 -3.93517 2.17862 0
M  V30 5750 C 558.075 -4.39866 0.143555 0
M  V30 5751 H 555.194 -0.717989 0.166314 0
M  V30 5752 H 557.836 -1.57068 1.06909 0
M  V30 5753 H 555.986 -3.88147 0.165546 0
M  V30 5754 H 557.658 -3.69006 2.76826 0
M  V30 5755 H 555.901 -3.42798 2.65841 0
M  V30 5756 H 556.572 -5.02065 2.29422 0
M  V30 5757 H 559.048 -4.11875 0.591451 0
M  V30 5758 H 557.924 -5.47858 0.338043 0
M  V30 5759 H 558.185 -4.31696 -0.953466 0
M  V30 5760 N 557.244 -0.608902 -1.45362 0
M  V30 5761 C 558.194 0.130616 -2.27626 0
M  V30 5762 C 559.178 0.837323 -1.37396 0
M  V30 5763 O 560.37 0.727096 -1.61376 0
M  V30 5764 C 557.499 1.12646 -3.24293 0
M  V30 5765 C 556.585 0.42052 -4.2201 0
M  V30 5766 N 556.976 -0.538569 -5.02925 0
M  V30 5767 C 555.274 0.667901 -4.40971 0
M  V30 5768 C 555.975 -0.953625 -5.7383 0
M  V30 5769 N 554.951 -0.297097 -5.42788 0
M  V30 5770 H 558.753 -0.605996 -2.87585 0
M  V30 5771 H 556.267 -0.432672 -1.5653 0
M  V30 5772 H 558.264 1.67066 -3.81961 0
M  V30 5773 H 556.924 1.86361 -2.65894 0
M  V30 5774 H 557.935 -0.915375 -5.09746 0
M  V30 5775 H 554.612 1.38963 -3.93695 0
M  V30 5776 H 556.002 -1.74473 -6.48852 0
M  V30 5777 N 558.722 1.53707 -0.348139 0
M  V30 5778 C 559.999 1.93247 0.302475 0
M  V30 5779 C 560.379 1.28012 1.67857 0
M  V30 5780 O 559.727 0.43274 2.24365 0
M  V30 5781 C 559.937 3.47031 0.370159 0
M  V30 5782 C 561.285 4.20066 0.61882 0
M  V30 5783 O 562.309 3.53319 0.452087 0
M  V30 5784 O 561.168 5.38318 0.94215 0
M  V30 5785 H 558.262 0.807736 0.177458 0
M  V30 5786 H 560.808 1.64927 -0.399651 0
M  V30 5787 H 559.58 3.86745 -0.59534 0
M  V30 5788 H 559.203 3.81532 1.11888 0
M  V30 5789 N 560.2 0.0768682 1.57412 0
M  V30 5790 C 561.428 -0.59997 1.9801 0
M  V30 5791 C 561.843 -1.62842 0.955408 0
M  V30 5792 O 561.2 -1.8241 -0.057314 0
M  V30 5793 C 561.251 -1.26401 3.38681 0
M  V30 5794 O 560.972 -0.276723 4.37225 0
M  V30 5795 C 562.473 -2.0282 3.94182 0
M  V30 5796 H 559.693 -0.162239 0.651091 0
M  V30 5797 H 562.237 0.150771 2.03943 0
M  V30 5798 H 560.392 -1.96581 3.33819 0
M  V30 5799 H 560.806 -0.753744 5.19056 0
M  V30 5800 H 562.28 -2.44667 4.94815 0
M  V30 5801 H 562.757 -2.88678 3.31001 0
M  V30 5802 H 563.363 -1.37496 4.02461 0
M  V30 5803 N 561.678 -1.56367 -0.196722 0
M  V30 5804 C 562.626 -1.95304 -1.2633 0
M  V30 5805 C 563.62 -0.838252 -1.47206 0
M  V30 5806 O 564.826 -1.02325 -1.48087 0
M  V30 5807 H 561.201 -0.621013 -0.424083 0
M  V30 5808 H 563.172 -2.84254 -0.907879 0
M  V30 5809 C 561.921 -2.3074 -2.60104 0
M  V30 5810 H 561.244 -3.16047 -2.44856 0
M  V30 5811 H 562.684 -2.61849 -3.33484 0
M  V30 5812 C 561.143 -1.14143 -3.16975 0
M  V30 5813 O 561.673 -0.415602 -3.99544 0
M  V30 5814 N 559.879 -0.91867 -2.75697 0
M  V30 5815 H 559.426 -1.51065 -2.08656 0
M  V30 5816 H 559.384 -0.140321 -3.14087 0
M  V30 5817 N 563.156 0.464375 -1.50603 0
M  V30 5818 C 564.089 1.58052 -1.64605 0
M  V30 5819 C 565.067 1.54914 -0.494016 0
M  V30 5820 O 566.251 1.74438 -0.714393 0
M  V30 5821 C 563.378 2.96634 -1.63481 0
M  V30 5822 C 562.424 3.17901 -2.84325 0
M  V30 5823 S 563.257 2.97083 -4.45536 0
M  V30 5824 C 564.413 4.37994 -4.47115 0
M  V30 5825 H 564.646 1.45937 -2.59017 0
M  V30 5826 H 562.179 0.652189 -1.39949 0
M  V30 5827 H 564.137 3.76527 -1.63517 0
M  V30 5828 H 562.798 3.06134 -0.702928 0
M  V30 5829 H 561.991 4.19158 -2.79862 0
M  V30 5830 H 561.593 2.45792 -2.81891 0
M  V30 5831 H 563.885 5.30743 -4.21091 0
M  V30 5832 H 564.828 4.47499 -5.48772 0
M  V30 5833 H 565.236 4.20386 -3.76743 0
M  V30 5834 N 564.634 1.40294 0.718013 0
M  V30 5835 C 566.05 1.2227 1.02577 0
M  V30 5836 C 566.25 0.0961976 2.0127 0
M  V30 5837 O 565.306 -0.546695 2.46511 0
M  V30 5838 C 566.619 2.56348 1.57182 0
M  V30 5839 C 568.167 2.6334 1.69178 0
M  V30 5840 C 568.642 3.9768 2.27188 0
M  V30 5841 N 570.133 3.99409 2.34578 0
M  V30 5842 C 570.868 5.00141 2.8044 0
M  V30 5843 N 570.364 6.11268 3.26073 0
M  V30 5844 N 572.157 4.87511 2.79802 0
M  V30 5845 H 564.308 2.12304 0.0637899 0
M  V30 5846 H 566.571 0.943632 0.0909036 0
M  V30 5847 H 566.277 3.3942 0.921262 0
M  V30 5848 H 566.151 2.77266 2.55741 0
M  V30 5849 H 568.538 1.80641 2.33351 0
M  V30 5850 H 568.619 2.46255 0.692247 0
M  V30 5851 H 568.263 4.80817 1.63638 0
M  V30 5852 H 568.193 4.12093 3.27852 0
M  V30 5853 H 570.684 3.19162 2.02346 0
M  V30 5854 H 570.997 6.84023 3.59628 0
M  V30 5855 H 569.342 6.14837 3.24038 0
M  V30 5856 H 572.533 3.9979 2.43487 0
M  V30 5857 H 572.706 5.66158 3.15228 0
M  V30 5858 N 566.112 -0.949982 1.2575 0
M  V30 5859 C 567.075 -2.02894 1.06615 0
M  V30 5860 C 568.075 -1.60791 0.0173905 0
M  V30 5861 O 569.265 -1.72249 0.260003 0
M  V30 5862 C 566.397 -3.35219 0.619751 0
M  V30 5863 H 567.59 -2.21302 2.02399 0
M  V30 5864 H 565.143 -1.12772 1.08223 0
M  V30 5865 H 565.878 -3.22508 -0.340486 0
M  V30 5866 H 565.663 -3.67129 1.37692 0
M  V30 5867 H 567.153 -4.14505 0.507443 0
M  V30 5868 N 567.59 -1.07411 -1.15328 0
M  V30 5869 C 568.537 -0.694995 -2.20087 0
M  V30 5870 C 569.507 0.313904 -1.63107 0
M  V30 5871 O 570.692 0.200216 -1.89747 0
M  V30 5872 C 567.832 -0.0996218 -3.44956 0
M  V30 5873 C 566.945 -1.16007 -4.16133 0
M  V30 5874 C 566.08 -0.529636 -5.28553 0
M  V30 5875 C 565.119 -1.57283 -5.91548 0
M  V30 5876 N 564.256 -0.964932 -6.95438 0
M  V30 5877 H 569.096 -1.5927 -2.51867 0
M  V30 5878 H 566.633 -0.796115 -1.23695 0
M  V30 5879 H 568.591 0.263197 -4.16369 0
M  V30 5880 H 567.221 0.761435 -3.13691 0
M  V30 5881 H 566.273 -1.64045 -3.4321 0
M  V30 5882 H 567.585 -1.95101 -4.59061 0
M  V30 5883 H 566.739 -0.114487 -6.06592 0
M  V30 5884 H 565.478 0.29307 -4.86819 0
M  V30 5885 H 564.483 -1.99775 -5.12221 0
M  V30 5886 H 565.708 -2.39783 -6.35359 0
M  V30 5887 H 563.654 -0.16314 -6.55797 0
M  V30 5888 H 563.571 -1.69311 -7.36797 0
M  V30 5889 H 564.839 -0.575305 -7.77374 0
M  V30 5890 N 569.068 1.32177 -0.85831 0
M  V30 5891 C 570.316 1.96735 -0.462568 0
M  V30 5892 C 570.637 1.6824 0.985911 0
M  V30 5893 O 569.907 0.991564 1.68952 0
M  V30 5894 H 568.487 0.727849 -0.168064 0
M  V30 5895 H 571.149 1.61195 -1.09554 0
M  V30 5896 H 570.245 3.06068 -0.610647 0
M  V30 5897 N 570.547 0.616602 1.45037 0
M  V30 5898 C 571.497 -0.118543 2.27692 0
M  V30 5899 C 572.481 -0.830025 1.37838 0
M  V30 5900 O 573.673 -0.718528 1.6176 0
M  V30 5901 C 570.802 -1.10924 3.24886 0
M  V30 5902 C 569.888 -0.398134 4.22227 0
M  V30 5903 N 570.279 0.565233 5.02632 0
M  V30 5904 C 568.577 -0.644506 4.41319 0
M  V30 5905 C 569.278 0.984043 5.73316 0
M  V30 5906 N 568.254 0.325879 5.42622 0
M  V30 5907 H 572.056 0.621239 2.87259 0
M  V30 5908 H 569.57 0.440968 1.56299 0
M  V30 5909 H 571.567 -1.65038 3.82842 0
M  V30 5910 H 570.227 -1.84948 2.66879 0
M  V30 5911 H 571.238 0.942395 5.09254 0
M  V30 5912 H 567.915 -1.36873 3.94426 0
M  V30 5913 H 569.305 1.77911 6.47918 0
M  V30 5914 N 572.025 -1.5352 0.356285 0
M  V30 5915 C 573.436 -1.86282 -0.12492 0
M  V30 5916 C 573.787 -1.27717 -1.48939 0
M  V30 5917 O 572.912 -0.595614 -2.08042 0
M  V30 5918 C 573.507 -3.37995 -0.23345 0
M  V30 5919 C 572.066 -3.70588 -0.658899 0
M  V30 5920 C 571.213 -2.76581 0.199596 0
M  V30 5921 H 574.164 -1.47901 0.575423 0
M  V30 5922 H 574.185 -3.65475 -1.0587 0
M  V30 5923 H 573.697 -3.8059 0.759776 0
M  V30 5924 H 571.798 -3.33544 -1.66069 0
M  V30 5925 H 571.911 -4.77076 -0.439957 0
M  V30 5926 H 570.275 -2.52552 -0.330076 0
M  V30 5927 H 571.058 -3.22008 1.19019 0
M  V30 5928 N 573.503 -0.0852151 -1.57369 0
M  V30 5929 C 574.413 0.891712 -2.16992 0
M  V30 5930 C 575.429 1.3174 -1.13669 0
M  V30 5931 O 576.605 1.38735 -1.45995 0
M  V30 5932 C 573.67 2.13635 -2.73059 0
M  V30 5933 C 572.731 1.7658 -3.91303 0
M  V30 5934 C 571.964 2.95111 -4.44686 0
M  V30 5935 O 572.187 4.09539 -3.97032 0
M  V30 5936 O 571.121 2.74149 -5.35841 0
M  V30 5937 H 574.947 0.414477 -3.00858 0
M  V30 5938 H 572.532 0.138598 -1.48756 0
M  V30 5939 H 574.414 2.86595 -3.08935 0
M  V30 5940 H 573.089 2.6043 -1.92244 0
M  V30 5941 H 571.996 1.00831 -3.60255 0
M  V30 5942 H 573.329 1.34557 -4.7345 0
M  V30 5943 N 574.981 1.5647 0.188427 0
M  V30 5944 C 576.397 1.50204 0.539532 0
M  V30 5945 C 576.597 0.78644 1.85519 0
M  V30 5946 O 575.653 0.339714 2.50204 0
M  V30 5947 C 576.966 2.94893 0.588103 0
M  V30 5948 C 578.514 3.05602 0.67648 0
M  V30 5949 C 578.989 4.51716 0.756101 0
M  V30 5950 N 580.48 4.55894 0.819451 0
M  V30 5951 C 581.215 5.66272 0.90134 0
M  V30 5952 N 580.711 6.86323 0.945118 0
M  V30 5953 N 582.504 5.54201 0.939043 0
M  V30 5954 H 574.655 2.01406 -0.674493 0
M  V30 5955 H 576.918 0.916828 -0.241103 0
M  V30 5956 H 576.624 3.50334 -0.309633 0
M  V30 5957 H 576.498 3.4861 1.44051 0
M  V30 5958 H 578.885 2.50206 1.56465 0
M  V30 5959 H 578.966 2.54999 -0.202262 0
M  V30 5960 H 578.61 5.07739 -0.12774 0
M  V30 5961 H 578.54 5.00058 1.65074 0
M  V30 5962 H 581.031 3.69452 0.794594 0
M  V30 5963 H 581.344 7.66194 1.0083 0
M  V30 5964 H 579.689 6.88968 0.913683 0
M  V30 5965 H 582.88 4.59333 0.901725 0
M  V30 5966 H 583.053 6.40247 0.999402 0
M  V30 5967 N 576.459 -0.456382 1.50847 0
M  V30 5968 C 577.705 -1.20914 1.62811 0
M  V30 5969 C 578.038 -1.91301 0.334304 0
M  V30 5970 O 577.313 -1.82775 -0.665098 0
M  V30 5971 C 577.596 -2.24122 2.81853 0
M  V30 5972 C 577.449 -1.57944 4.21158 0
M  V30 5973 C 578.768 -3.25295 2.96431 0
M  V30 5974 H 575.887 -0.438233 0.592554 0
M  V30 5975 H 578.529 -0.50091 1.83278 0
M  V30 5976 H 576.679 -2.84524 2.64534 0
M  V30 5977 H 578.351 -1.01025 4.50102 0
M  V30 5978 H 576.594 -0.882185 4.24735 0
M  V30 5979 H 577.265 -2.33014 5.00408 0
M  V30 5980 H 579.741 -2.7493 3.12335 0
M  V30 5981 H 578.617 -3.94822 3.81322 0
M  V30 5982 H 578.878 -3.90286 2.07676 0
M  V30 5983 N 577.937 -1.40673 -0.710563 0
M  V30 5984 C 579.184 -1.39222 -1.47049 0
M  V30 5985 C 579.512 0.0037691 -1.945 0
M  V30 5986 O 578.767 0.989224 -1.68857 0
M  V30 5987 C 579.066 -2.33253 -2.70791 0
M  V30 5988 C 578.732 -3.80406 -2.42079 0
M  V30 5989 C 577.394 -4.20496 -2.33959 0
M  V30 5990 C 579.746 -4.73375 -2.18094 0
M  V30 5991 C 577.074 -5.51584 -1.99929 0
M  V30 5992 C 579.426 -6.04768 -1.85576 0
M  V30 5993 C 578.09 -6.43895 -1.75941 0
M  V30 5994 H 577.36 -0.509449 -0.538092 0
M  V30 5995 H 580.007 -1.73363 -0.81348 0
M  V30 5996 H 578.312 -1.92314 -3.41354 0
M  V30 5997 H 580.009 -2.29412 -3.28894 0
M  V30 5998 H 576.599 -3.48645 -2.49288 0
M  V30 5999 H 580.783 -4.43217 -2.23321 0
M  V30 6000 H 576.039 -5.80797 -1.91011 0
M  V30 6001 H 580.213 -6.76318 -1.66033 0
M  V30 6002 H 577.84 -7.45387 -1.4934 0
M  V30 6003 N 579.415 0.9433 -1.26252 0
M  V30 6004 C 580.64 1.72898 -1.14547 0
M  V30 6005 C 581.065 1.85761 0.295743 0
M  V30 6006 O 580.423 1.3463 1.21427 0
M  V30 6007 C 580.471 3.11471 -1.8171 0
M  V30 6008 O 579.575 3.97336 -1.10445 0
M  V30 6009 H 578.916 0.530555 -0.399259 0
M  V30 6010 H 581.446 1.18159 -1.67032 0
M  V30 6011 H 581.456 3.61872 -1.88449 0
M  V30 6012 H 580.131 3.01425 -2.86558 0
M  V30 6013 H 578.708 3.55788 -1.11666 0
M  V30 6014 N 580.893 1.08022 1.14757 0
M  V30 6015 C 582.139 0.808705 1.85978 0
M  V30 6016 C 582.472 -0.663764 1.82504 0
M  V30 6017 O 581.747 -1.48765 1.25296 0
M  V30 6018 C 582.03 1.32623 3.34788 0
M  V30 6019 C 581.883 2.86375 3.46856 0
M  V30 6020 C 583.202 0.948291 4.29762 0
M  V30 6021 H 580.321 0.295244 0.675278 0
M  V30 6022 H 582.963 1.33917 1.34783 0
M  V30 6023 H 581.113 0.875002 3.78518 0
M  V30 6024 H 582.785 3.39839 3.11941 0
M  V30 6025 H 581.028 3.24232 2.88194 0
M  V30 6026 H 581.699 3.17658 4.51439 0
M  V30 6027 H 584.175 1.33722 3.94028 0
M  V30 6028 H 583.051 1.33765 5.32352 0
M  V30 6029 H 583.312 -0.145094 4.41862 0
M  V30 6030 N 582.371 -1.3172 0.865308 0
M  V30 6031 C 583.599 -2.01057 0.488251 0
M  V30 6032 C 584.014 -1.64979 -0.918 0
M  V30 6033 O 583.371 -0.876597 -1.60069 0
M  V30 6034 C 583.422 -3.55964 0.630224 0
M  V30 6035 O 583.143 -3.90749 1.98109 0
M  V30 6036 C 584.644 -4.42574 0.253567 0
M  V30 6037 H 581.864 -0.64332 0.190736 0
M  V30 6038 H 584.408 -1.68058 1.16519 0
M  V30 6039 H 582.563 -3.874 0.000895422 0
M  V30 6040 H 582.977 -4.85467 1.9855 0
M  V30 6041 H 584.451 -5.50521 0.403875 0
M  V30 6042 H 584.928 -4.31724 -0.806895 0
M  V30 6043 H 585.534 -4.16547 0.858404 0
M  V30 6044 N 583.85 -0.624285 -1.44708 0
M  V30 6045 C 584.8 0.106466 -2.27751 0
M  V30 6046 C 585.784 0.822703 -1.38277 0
M  V30 6047 O 586.976 0.709939 -1.62138 0
M  V30 6048 C 584.105 1.092 -3.25469 0
M  V30 6049 C 583.191 0.375737 -4.22432 0
M  V30 6050 N 583.582 -0.591881 -5.02325 0
M  V30 6051 C 581.88 0.621093 -4.41654 0
M  V30 6052 C 582.581 -1.01443 -5.72786 0
M  V30 6053 N 581.557 -0.354651 -5.42442 0
M  V30 6054 H 585.359 -0.636464 -2.86926 0
M  V30 6055 H 582.873 -0.44925 -1.56062 0
M  V30 6056 H 584.87 1.63006 -3.83712 0
M  V30 6057 H 583.529 1.8353 -2.67856 0
M  V30 6058 H 584.541 -0.969389 -5.08747 0
M  V30 6059 H 581.218 1.34779 -3.95147 0
M  V30 6060 H 582.608 -1.81345 -6.46965 0
M  V30 6061 N 585.328 1.53329 -0.364422 0
M  V30 6062 C 586.577 2.00421 0.226747 0
M  V30 6063 C 586.89 1.25581 1.49963 0
M  V30 6064 O 588.096 1.63256 2.16933 0
M  V30 6065 C 586.552 3.57017 0.454618 0
M  V30 6066 C 586.16 4.40734 -0.803568 0
M  V30 6067 C 587.904 4.12468 1.00351 0
M  V30 6068 C 585.811 5.8888 -0.545345 0
M  V30 6069 H 584.741 0.748787 0.0885082 0
M  V30 6070 H 587.392 1.7703 -0.482983 0
M  V30 6071 H 585.774 3.76558 1.22558 0
M  V30 6072 H 586.948 4.32967 -1.57723 0
M  V30 6073 H 585.263 3.96381 -1.27559 0
M  V30 6074 H 587.86 5.20783 1.212 0
M  V30 6075 H 588.203 3.6699 1.9653 0
M  V30 6076 H 588.736 3.96721 0.29274 0
M  V30 6077 H 585.475 6.38633 -1.47743 0
M  V30 6078 H 584.995 5.99499 0.189842 0
M  V30 6079 H 586.674 6.46776 -0.170425 0
M  V30 6080 N 586.806 0.0935595 1.57322 0
M  V30 6081 C 587.753 -0.865935 2.1394 0
M  V30 6082 C 588.723 -1.28083 1.05754 0
M  V30 6083 O 589.908 -1.36285 1.33533 0
M  V30 6084 C 587.048 -2.12023 2.72287 0
M  V30 6085 C 586.161 -1.756 3.94701 0
M  V30 6086 C 585.296 -2.95804 4.41218 0
M  V30 6087 C 584.335 -2.555 5.56225 0
M  V30 6088 N 583.472 -3.68534 5.97601 0
M  V30 6089 H 588.312 -0.376261 2.95615 0
M  V30 6090 H 585.849 -0.174052 1.46067 0
M  V30 6091 H 587.807 -2.85477 3.04235 0
M  V30 6092 H 586.437 -2.58492 1.93343 0
M  V30 6093 H 585.489 -0.921208 3.69077 0
M  V30 6094 H 586.801 -1.41964 4.78171 0
M  V30 6095 H 585.955 -3.77513 4.74941 0
M  V30 6096 H 584.694 -3.32649 3.56645 0
M  V30 6097 H 583.699 -1.72218 5.22131 0
M  V30 6098 H 584.924 -2.19801 6.42545 0
M  V30 6099 H 582.87 -4.051 5.15974 0
M  V30 6100 H 582.787 -3.38737 6.75865 0
M  V30 6101 H 584.055 -4.50757 6.35955 0
M  V30 6102 N 588.284 -1.56567 -0.180126 0
M  V30 6103 C 589.512 -1.85618 -0.913972 0
M  V30 6104 C 589.927 -0.677892 -1.7621 0
M  V30 6105 O 589.284 0.353171 -1.7905 0
M  V30 6106 C 589.335 -3.13619 -1.79793 0
M  V30 6107 O 589.056 -4.26906 -0.98402 0
M  V30 6108 C 590.557 -3.55954 -2.64219 0
M  V30 6109 H 587.777 -0.616043 -0.265954 0
M  V30 6110 H 590.321 -2.03681 -0.182872 0
M  V30 6111 H 588.476 -2.97409 -2.48247 0
M  V30 6112 H 588.89 -4.9989 -1.58776 0
M  V30 6113 H 590.364 -4.48444 -3.21873 0
M  V30 6114 H 590.841 -2.79653 -3.38661 0
M  V30 6115 H 591.447 -3.74746 -2.01111 0
M  V30 6116 N 589.762 0.448376 -1.51087 0
M  V30 6117 C 591.011 1.19561 -1.62444 0
M  V30 6118 C 591.324 1.92602 -0.341151 0
M  V30 6119 O 592.53 2.69439 -0.333936 0
M  V30 6120 C 590.986 2.17373 -2.8684 0
M  V30 6121 C 590.594 1.5003 -4.22131 0
M  V30 6122 C 592.338 2.92597 -3.0755 0
M  V30 6123 C 590.245 2.46262 -5.37689 0
M  V30 6124 H 589.175 0.449975 -0.605011 0
M  V30 6125 H 591.826 0.463735 -1.77544 0
M  V30 6126 H 590.208 2.93948 -2.65349 0
M  V30 6127 H 591.382 0.790886 -4.53962 0
M  V30 6128 H 589.697 0.870011 -4.0721 0
M  V30 6129 H 592.294 3.64663 -3.91056 0
M  V30 6130 H 592.637 3.53306 -2.20183 0
M  V30 6131 H 593.17 2.23131 -3.29329 0
M  V30 6132 H 589.909 1.90258 -6.27281 0
M  V30 6133 H 589.429 3.15289 -5.10248 0
M  V30 6134 H 591.108 3.07623 -5.6919 0
M  V30 6135 N 591.24 1.41047 0.703093 0
M  V30 6136 C 592.19 1.38774 1.80903 0
M  V30 6137 C 593.174 0.263275 1.58731 0
M  V30 6138 O 594.366 0.503362 1.69692 0
M  V30 6139 C 591.495 1.26497 3.19145 0
M  V30 6140 C 590.581 2.43775 3.47037 0
M  V30 6141 N 590.972 3.69249 3.45672 0
M  V30 6142 C 589.27 2.37425 3.77552 0
M  V30 6143 C 589.971 4.46989 3.72258 0
M  V30 6144 N 588.947 3.76998 3.91629 0
M  V30 6145 H 592.749 2.33714 1.78199 0
M  V30 6146 H 590.263 1.34996 0.902762 0
M  V30 6147 H 592.26 1.2295 3.98358 0
M  V30 6148 H 590.92 0.32534 3.23066 0
M  V30 6149 H 591.931 4.02239 3.26228 0
M  V30 6150 H 588.608 1.51895 3.88888 0
M  V30 6151 H 589.998 5.55894 3.77402 0
M  V30 6152 N 592.718 -0.936591 1.26751 0
M  V30 6153 C 593.65 -2.03991 1.045 0
M  V30 6154 C 594.663 -1.628 0.00394261 0
M  V30 6155 O 595.852 -1.76817 0.244526 0
M  V30 6156 C 592.952 -3.34218 0.561403 0
M  V30 6157 C 592.125 -4.04151 1.67274 0
M  V30 6158 C 591.184 -5.12651 1.1864 0
M  V30 6159 O 590.21 -5.37104 1.88437 0
M  V30 6160 N 591.412 -5.80488 0.037278 0
M  V30 6161 H 594.177 -2.23644 1.99508 0
M  V30 6162 H 591.738 -1.10638 1.18198 0
M  V30 6163 H 593.73 -4.04101 0.220136 0
M  V30 6164 H 592.3 -3.11203 -0.295211 0
M  V30 6165 H 591.52 -3.28121 2.18472 0
M  V30 6166 H 592.808 -4.47626 2.41885 0
M  V30 6167 H 592.206 -5.63064 -0.545494 0
M  V30 6168 H 590.763 -6.5134 -0.244877 0
M  V30 6169 N 594.196 -1.08629 -1.14182 0
M  V30 6170 C 595.106 -0.730126 -2.22949 0
M  V30 6171 C 596.122 0.26436 -1.7198 0
M  V30 6172 O 597.298 0.107742 -2.01112 0
M  V30 6173 C 594.363 -0.147227 -3.46387 0
M  V30 6174 C 593.424 -1.19662 -4.12286 0
M  V30 6175 C 592.657 -0.641437 -5.29831 0
M  V30 6176 O 592.88 0.538351 -5.67854 0
M  V30 6177 O 591.814 -1.39257 -5.85569 0
M  V30 6178 H 595.64 -1.63753 -2.55771 0
M  V30 6179 H 593.225 -0.860118 -1.22157 0
M  V30 6180 H 595.107 0.174923 -4.21037 0
M  V30 6181 H 593.782 0.733304 -3.15285 0
M  V30 6182 H 592.689 -1.57133 -3.395 0
M  V30 6183 H 594.022 -2.0495 -4.475 0
M  V30 6184 N 595.674 1.31259 -0.872281 0
M  V30 6185 C 596.951 1.91362 -0.404943 0
M  V30 6186 C 597.331 1.79362 1.11321 0
M  V30 6187 O 596.679 1.20277 1.94283 0
M  V30 6188 C 596.889 3.3749 -0.888893 0
M  V30 6189 C 598.237 4.14593 -0.916384 0
M  V30 6190 O 599.261 3.46282 -0.834701 0
M  V30 6191 O 598.12 5.3661 -1.03498 0
M  V30 6192 H 595.214 0.818016 -0.121569 0
M  V30 6193 H 597.76 1.39912 -0.960346 0
M  V30 6194 H 596.532 3.40249 -1.93251 0
M  V30 6195 H 596.155 3.96375 -0.311932 0
M  V30 6196 N 597.152 0.631951 1.44375 0
M  V30 6197 C 598.062 -0.073674 2.34484 0
M  V30 6198 C 599.078 -0.834825 1.52665 0
M  V30 6199 O 600.254 -0.786902 1.85391 0
M  V30 6200 C 597.319 -1.04247 3.30656 0
M  V30 6201 C 596.38 -0.280602 4.28382 0
M  V30 6202 C 595.613 -1.20325 5.19959 0
M  V30 6203 O 595.836 -2.44199 5.15484 0
M  V30 6204 O 594.77 -0.687128 5.97965 0
M  V30 6205 H 598.596 0.667477 2.96274 0
M  V30 6206 H 596.181 0.392144 1.44162 0
M  V30 6207 H 598.063 -1.59981 3.89851 0
M  V30 6208 H 596.738 -1.76422 2.71398 0
M  V30 6209 H 595.645 0.319804 3.72731 0
M  V30 6210 H 596.978 0.401144 4.90563 0
M  V30 6211 N 598.631 -1.53133 0.372548 0
M  V30 6212 C 599.561 -2.28876 -0.462412 0
M  V30 6213 C 600.542 -1.31583 -1.07796 0
M  V30 6214 O 601.727 -1.60461 -1.09389 0
M  V30 6215 C 598.857 -3.08317 -1.59868 0
M  V30 6216 C 597.811 -4.13355 -1.11003 0
M  V30 6217 C 597.137 -4.8092 -2.33708 0
M  V30 6218 C 598.437 -5.21955 -0.18983 0
M  V30 6219 H 600.131 -2.9892 0.169511 0
M  V30 6220 H 597.677 -1.43761 0.0829658 0
M  V30 6221 H 599.63 -3.60055 -2.18949 0
M  V30 6222 H 598.354 -2.35976 -2.25794 0
M  V30 6223 H 597.013 -3.62573 -0.541869 0
M  V30 6224 H 596.661 -4.05144 -2.98106 0
M  V30 6225 H 596.361 -5.51904 -2.01682 0
M  V30 6226 H 597.885 -5.35455 -2.93462 0
M  V30 6227 H 599.299 -5.69153 -0.688319 0
M  V30 6228 H 597.696 -6.00087 0.0398887 0
M  V30 6229 H 598.766 -4.78811 0.766057 0
M  V30 6230 N 600.109 -0.101901 -1.5727 0
M  V30 6231 C 601.358 0.559922 -1.93772 0
M  V30 6232 C 601.671 1.68913 -0.98629 0
M  V30 6233 O 602.877 2.41256 -1.24529 0
M  V30 6234 C 601.333 1.04739 -3.44322 0
M  V30 6235 C 600.941 -0.05243 -4.47969 0
M  V30 6236 C 602.685 1.68157 -3.89774 0
M  V30 6237 C 600.592 0.450781 -5.8968 0
M  V30 6238 H 599.522 0.212931 -0.723309 0
M  V30 6239 H 602.173 -0.179001 -1.82625 0
M  V30 6240 H 600.555 1.84021 -3.50645 0
M  V30 6241 H 601.729 -0.828157 -4.53297 0
M  V30 6242 H 600.044 -0.592202 -4.12167 0
M  V30 6243 H 602.641 2.0689 -4.93052 0
M  V30 6244 H 602.984 2.55338 -3.28798 0
M  V30 6245 H 603.517 0.954453 -3.8618 0
M  V30 6246 H 600.256 -0.38458 -6.54371 0
M  V30 6247 H 599.776 1.19336 -5.87809 0
M  V30 6248 H 601.455 0.917555 -6.40461 0
M  V30 6249 N 601.587 1.56661 0.17182 0
M  V30 6250 C 602.497 1.99604 1.2327 0
M  V30 6251 C 603.513 0.907333 1.4847 0
M  V30 6252 O 604.689 1.21492 1.60629 0
M  V30 6253 C 601.754 2.34685 2.55194 0
M  V30 6254 C 600.815 3.57381 2.3786 0
M  V30 6255 C 600.048 3.90779 3.63494 0
M  V30 6256 O 600.271 3.25152 4.6865 0
M  V30 6257 O 599.205 4.84129 3.57634 0
M  V30 6258 H 603.031 2.90114 0.898192 0
M  V30 6259 H 600.616 1.44522 0.378647 0
M  V30 6260 H 602.498 2.5822 3.33017 0
M  V30 6261 H 601.173 1.47336 2.88225 0
M  V30 6262 H 600.08 3.39064 1.5807 0
M  V30 6263 H 601.413 4.45268 2.09754 0
M  V30 6264 N 603.065 -0.440357 1.51323 0
M  V30 6265 C 604.314 -1.18697 1.63076 0
M  V30 6266 C 604.627 -1.92418 0.35136 0
M  V30 6267 O 605.833 -2.69258 0.348221 0
M  V30 6268 C 604.289 -2.15849 2.87988 0
M  V30 6269 C 603.897 -1.47789 4.22921 0
M  V30 6270 C 605.641 -2.90962 3.09098 0
M  V30 6271 C 603.548 -2.43407 5.38987 0
M  V30 6272 H 602.478 -0.44676 0.607389 0
M  V30 6273 H 605.129 -0.454313 1.77787 0
M  V30 6274 H 603.511 -2.92537 2.66905 0
M  V30 6275 H 604.685 -0.7668 4.54375 0
M  V30 6276 H 603 -0.848404 4.07665 0
M  V30 6277 H 605.597 -3.62584 3.92985 0
M  V30 6278 H 605.94 -3.52133 2.22053 0
M  V30 6279 H 606.473 -2.21381 3.30507 0
M  V30 6280 H 603.212 -1.86929 6.28282 0
M  V30 6281 H 602.732 -3.12579 5.11913 0
M  V30 6282 H 604.411 -3.046 5.70813 0
M  V30 6283 N 604.543 -1.41418 -0.695603 0
M  V30 6284 C 605.475 -1.39195 -1.82092 0
M  V30 6285 C 606.488 -0.294132 -1.60121 0
M  V30 6286 O 607.677 -0.555854 -1.69625 0
M  V30 6287 C 604.777 -1.14828 -3.18854 0
M  V30 6288 C 603.95 -2.36649 -3.67853 0
M  V30 6289 C 603.009 -2.08139 -4.83285 0
M  V30 6290 O 602.035 -2.81177 -4.94902 0
M  V30 6291 N 603.237 -1.07162 -5.70523 0
M  V30 6292 H 606.002 -2.36185 -1.84491 0
M  V30 6293 H 603.563 -1.3603 -0.877923 0
M  V30 6294 H 605.555 -0.937075 -3.93702 0
M  V30 6295 H 604.125 -0.264358 -3.1148 0
M  V30 6296 H 603.345 -2.73472 -2.83913 0
M  V30 6297 H 604.633 -3.17816 -3.97329 0
M  V30 6298 H 604.031 -0.467124 -5.63768 0
M  V30 6299 H 602.588 -0.920311 -6.4527 0
M  V30 6300 N 606.021 0.929856 -1.27246 0
M  V30 6301 C 607.246 1.71674 -1.16374 0
M  V30 6302 C 607.671 1.86064 0.276024 0
M  V30 6303 O 607.029 1.3591 1.19992 0
M  V30 6304 C 607.077 3.09526 -1.85003 0
M  V30 6305 O 606.181 3.96142 -1.14653 0
M  V30 6306 H 605.522 0.52629 -0.404863 0
M  V30 6307 H 608.052 1.16381 -1.68276 0
M  V30 6308 H 608.062 3.59852 -1.92276 0
M  V30 6309 H 606.737 2.98369 -2.89739 0
M  V30 6310 H 605.314 3.54584 -1.15433 0
M  V30 6311 N 607.499 1.09233 1.13605 0
M  V30 6312 C 608.776 0.739633 1.81077 0
M  V30 6313 C 609.156 -0.775595 1.96336 0
M  V30 6314 O 608.504 -1.69726 1.52988 0
M  V30 6315 C 608.714 1.47636 3.16235 0
M  V30 6316 C 610.062 1.64087 3.91613 0
M  V30 6317 O 611.086 1.43871 3.25852 0
M  V30 6318 O 609.945 1.97511 5.0956 0
M  V30 6319 H 607.039 0.265464 0.783236 0
M  V30 6320 H 609.585 1.19441 1.20549 0
M  V30 6321 H 608.357 2.50818 3.00344 0
M  V30 6322 H 607.98 1.01362 3.84462 0
M  V30 6323 N 608.977 -1.30795 0.87923 0
M  V30 6324 C 610.205 -2.00527 0.509548 0
M  V30 6325 C 610.62 -1.65944 -0.90045 0
M  V30 6326 O 609.977 -0.893525 -1.5913 0
M  V30 6327 C 610.028 -3.55276 0.667943 0
M  V30 6328 O 609.749 -3.88625 2.02242 0
M  V30 6329 C 611.25 -4.4228 0.300494 0
M  V30 6330 H 608.47 -0.641261 0.197549 0
M  V30 6331 H 611.014 -1.66813 1.18295 0
M  V30 6332 H 609.169 -3.87377 0.0419843 0
M  V30 6333 H 609.583 -4.83334 2.03688 0
M  V30 6334 H 611.057 -5.50061 0.462242 0
M  V30 6335 H 611.534 -4.32556 -0.76106 0
M  V30 6336 H 612.14 -4.15613 0.902536 0
M  V30 6337 N 610.455 -0.639598 -1.44038 0
M  V30 6338 C 611.703 -0.147188 -2.01563 0
M  V30 6339 C 612.024 1.2384 -1.50628 0
M  V30 6340 O 611.294 1.82452 -0.713316 0
M  V30 6341 H 609.874 -0.0514231 -0.745228 0
M  V30 6342 H 612.536 -0.828205 -1.76428 0
M  V30 6343 H 611.632 -0.121358 -3.11864 0
M  V30 6344 N 611.933 1.52934 -0.380664 0
M  V30 6345 C 613.161 2.05886 0.204599 0
M  V30 6346 C 613.576 1.25305 1.41223 0
M  V30 6347 O 612.933 0.297504 1.80059 0
M  V30 6348 C 612.984 3.56764 0.583249 0
M  V30 6349 O 612.705 4.34292 -0.576398 0
M  V30 6350 C 614.206 4.2603 1.2253 0
M  V30 6351 H 611.426 0.670193 0.0328991 0
M  V30 6352 H 613.97 1.97148 -0.543397 0
M  V30 6353 H 612.125 3.65603 1.28115 0
M  V30 6354 H 612.539 5.23819 -0.267119 0
M  V30 6355 H 614.013 5.32868 1.44068 0
M  V30 6356 H 614.49 3.80698 2.19011 0
M  V30 6357 H 615.096 4.21485 0.568407 0
M  V30 6358 N 613.412 0.11024 1.57214 0
M  V30 6359 C 614.658 -0.544479 1.95977 0
M  V30 6360 C 615.013 -1.64845 0.992171 0
M  V30 6361 O 614.306 -1.91589 0.0206981 0
M  V30 6362 C 614.5 -1.13102 3.39032 0
M  V30 6363 C 614.329 -0.0854079 4.49619 0
M  V30 6364 C 613.099 0.343373 5.04132 0
M  V30 6365 C 615.297 0.692232 5.0962 0
M  V30 6366 N 613.279 1.37567 5.98288 0
M  V30 6367 C 614.65 1.57596 5.99636 0
M  V30 6368 C 616.705 0.744085 4.92309 0
M  V30 6369 C 615.408 2.50701 6.74197 0
M  V30 6370 C 617.434 1.6628 5.67543 0
M  V30 6371 C 616.796 2.53412 6.57238 0
M  V30 6372 H 612.895 -0.169124 0.763493 0
M  V30 6373 H 615.479 0.196326 1.93708 0
M  V30 6374 H 613.65 -1.84158 3.41965 0
M  V30 6375 H 615.382 -1.74934 3.64939 0
M  V30 6376 H 612.137 -0.0473277 4.73576 0
M  V30 6377 H 612.561 1.89048 6.50069 0
M  V30 6378 H 617.203 0.0845825 4.22715 0
M  V30 6379 H 614.921 3.17669 7.43043 0
M  V30 6380 H 618.507 1.70825 5.56156 0
M  V30 6381 H 617.387 3.23347 7.14434 0
M  V30 6382 N 614.89 -1.56749 -0.16351 0
M  V30 6383 C 616.12 -1.86307 -0.892936 0
M  V30 6384 C 616.528 -0.6945 -1.75992 0
M  V30 6385 O 615.871 0.345384 -1.80424 0
M  V30 6386 C 615.933 -3.10372 -1.81409 0
M  V30 6387 C 615.597 -4.42913 -1.12593 0
M  V30 6388 C 616.594 -5.17608 -0.487661 0
M  V30 6389 C 614.279 -4.89646 -1.12035 0
M  V30 6390 C 616.273 -6.3723 0.14699 0
M  V30 6391 C 613.96 -6.09197 -0.481883 0
M  V30 6392 C 614.958 -6.82834 0.150678 0
M  V30 6393 O 614.646 -8.00116 0.779065 0
M  V30 6394 H 614.378 -0.622126 -0.264452 0
M  V30 6395 H 616.932 -2.04728 -0.166063 0
M  V30 6396 H 615.162 -2.87917 -2.58148 0
M  V30 6397 H 616.851 -3.26312 -2.41403 0
M  V30 6398 H 617.617 -4.8258 -0.483888 0
M  V30 6399 H 613.496 -4.32265 -1.60212 0
M  V30 6400 H 617.04 -6.94646 0.641325 0
M  V30 6401 H 612.937 -6.43688 -0.483266 0
M  V30 6402 H 613.705 -8.15678 0.679089 0
M  V30 6403 N 616.368 0.432326 -1.51554 0
M  V30 6404 C 617.3 1.54357 -1.6943 0
M  V30 6405 C 618.313 1.52311 -0.574897 0
M  V30 6406 O 619.502 1.56997 -0.849369 0
M  V30 6407 C 616.602 2.93273 -1.69836 0
M  V30 6408 C 615.775 3.19768 -2.98442 0
M  V30 6409 C 614.834 4.38433 -2.90969 0
M  V30 6410 O 613.86 4.36842 -3.64908 0
M  V30 6411 N 615.062 5.42276 -2.07163 0
M  V30 6412 H 617.827 1.39426 -2.65293 0
M  V30 6413 H 615.388 0.621331 -1.49503 0
M  V30 6414 H 617.38 3.70687 -1.62399 0
M  V30 6415 H 615.95 3.01777 -0.815456 0
M  V30 6416 H 615.17 2.30607 -3.19709 0
M  V30 6417 H 616.458 3.343 -3.83563 0
M  V30 6418 H 615.856 5.46407 -1.46477 0
M  V30 6419 H 614.413 6.18524 -2.05601 0
M  V30 6420 N 617.846 1.41785 0.688094 0
M  V30 6421 C 619.262 1.24419 0.999608 0
M  V30 6422 C 619.462 0.138868 2.01021 0
M  V30 6423 O 618.518 -0.494283 2.47615 0
M  V30 6424 C 619.831 2.59625 1.51709 0
M  V30 6425 C 621.379 2.66869 1.63554 0
M  V30 6426 C 621.854 4.0241 2.18702 0
M  V30 6427 N 623.345 4.04295 2.26053 0
M  V30 6428 C 624.08 5.05977 2.69768 0
M  V30 6429 N 623.576 6.18047 3.13033 0
M  V30 6430 N 625.369 4.93336 2.69398 0
M  V30 6431 H 617.52 2.12392 0.0187427 0
M  V30 6432 H 619.783 0.945347 0.0708673 0
M  V30 6433 H 619.489 3.41297 0.849059 0
M  V30 6434 H 619.363 2.82628 2.49803 0
M  V30 6435 H 621.75 1.8555 2.29467 0
M  V30 6436 H 621.831 2.47668 0.639857 0
M  V30 6437 H 621.475 4.8418 1.53402 0
M  V30 6438 H 621.405 4.18955 3.19037 0
M  V30 6439 H 623.896 3.23383 1.9553 0
M  V30 6440 H 624.209 6.91498 3.45038 0
M  V30 6441 H 622.554 6.21572 3.10923 0
M  V30 6442 H 625.745 4.04865 2.34952 0
M  V30 6443 H 625.918 5.72717 3.03148 0
M  V30 6444 N 619.324 -0.923095 1.27737 0
M  V30 6445 C 620.57 -1.67409 1.15524 0
M  V30 6446 C 620.925 -1.90124 -0.295072 0
M  V30 6447 O 620.218 -1.48382 -1.21216 0
M  V30 6448 C 620.412 -3.04125 1.8773 0
M  V30 6449 C 620.241 -2.94752 3.39634 0
M  V30 6450 C 619.011 -2.96783 4.0896 0
M  V30 6451 C 621.209 -2.73524 4.35533 0
M  V30 6452 N 619.191 -2.779 5.47398 0
M  V30 6453 C 620.562 -2.63391 5.61271 0
M  V30 6454 C 622.617 -2.58447 4.2557 0
M  V30 6455 C 621.32 -2.3972 6.78179 0
M  V30 6456 C 623.346 -2.36154 5.42204 0
M  V30 6457 C 622.708 -2.26768 6.669 0
M  V30 6458 H 618.807 -0.619196 0.477619 0
M  V30 6459 H 621.391 -1.09094 1.61266 0
M  V30 6460 H 619.562 -3.60545 1.44436 0
M  V30 6461 H 621.294 -3.6819 1.67982 0
M  V30 6462 H 618.049 -3.07186 3.60463 0
M  V30 6463 H 618.473 -2.71576 6.20141 0
M  V30 6464 H 623.115 -2.6446 3.2988 0
M  V30 6465 H 620.833 -2.32447 7.73947 0
M  V30 6466 H 624.419 -2.25367 5.36378 0
M  V30 6467 H 623.299 -2.09751 7.55628 0
M  V30 6468 N 620.802 -1.09834 -1.13024 0
M  V30 6469 C 622.05 -0.835297 -1.8403 0
M  V30 6470 C 622.371 0.640944 -1.84165 0
M  V30 6471 O 621.641 1.46517 -1.30037 0
M  V30 6472 H 620.221 -0.306018 -0.681441 0
M  V30 6473 H 622.883 -1.38734 -1.36891 0
M  V30 6474 H 621.979 -1.19258 -2.88416 0
M  V30 6475 N 622.28 1.30327 -0.886154 0
M  V30 6476 C 623.526 1.96388 -0.505941 0
M  V30 6477 C 623.859 1.69784 0.942712 0
M  V30 6478 O 623.134 1.00322 1.6663 0
M  V30 6479 C 623.417 3.51488 -0.782826 0
M  V30 6480 C 623.27 3.87603 -2.28219 0
M  V30 6481 C 624.589 4.39331 -0.260128 0
M  V30 6482 H 621.708 0.713327 -0.185292 0
M  V30 6483 H 624.35 1.54178 -1.11036 0
M  V30 6484 H 622.5 3.87572 -0.268399 0
M  V30 6485 H 624.172 3.61537 -2.86512 0
M  V30 6486 H 622.415 3.3563 -2.74837 0
M  V30 6487 H 623.086 4.95806 -2.42653 0
M  V30 6488 H 625.562 4.10162 -0.700444 0
M  V30 6489 H 624.438 5.46769 -0.483179 0
M  V30 6490 H 624.699 4.34072 0.838674 0
M  V30 6491 N 623.758 0.647228 1.43697 0
M  V30 6492 C 625.174 0.314256 1.56476 0
M  V30 6493 C 625.374 -1.18191 1.63196 0
M  V30 6494 O 624.43 -1.96655 1.58376 0
M  V30 6495 C 625.743 1.02034 2.82859 0
M  V30 6496 C 627.291 1.00002 2.96595 0
M  V30 6497 C 627.766 1.68689 4.25803 0
M  V30 6498 N 629.257 1.65424 4.32654 0
M  V30 6499 C 629.992 2.1545 5.31384 0
M  V30 6500 N 629.488 2.73738 6.36427 0
M  V30 6501 N 631.281 2.05985 5.22998 0
M  V30 6502 H 623.432 1.61821 1.37578 0
M  V30 6503 H 625.695 0.680184 0.660344 0
M  V30 6504 H 625.401 2.07542 2.83935 0
M  V30 6505 H 625.275 0.568146 3.72897 0
M  V30 6506 H 627.662 -0.0466319 2.95063 0
M  V30 6507 H 627.743 1.49086 2.07863 0
M  V30 6508 H 627.387 2.73308 4.28095 0
M  V30 6509 H 627.317 1.17076 5.13421 0
M  V30 6510 H 629.808 1.22884 3.57363 0
M  V30 6511 H 630.121 3.09602 7.08072 0
M  V30 6512 H 628.466 2.77796 6.37067 0
M  V30 6513 H 631.657 1.60157 4.39849 0
M  V30 6514 H 631.83 2.45281 5.99784 0
M  V30 6515 N 625.236 -1.5273 0.388769 0
M  V30 6516 C 626.199 -2.25043 -0.434544 0
M  V30 6517 C 627.199 -1.26661 -0.990644 0
M  V30 6518 O 628.389 -1.50762 -0.872731 0
M  V30 6519 C 625.521 -3.00507 -1.60961 0
M  V30 6520 H 626.714 -2.99242 0.198549 0
M  V30 6521 H 624.267 -1.55664 0.140875 0
M  V30 6522 H 625.002 -2.30607 -2.28015 0
M  V30 6523 H 624.787 -3.72716 -1.21757 0
M  V30 6524 H 626.277 -3.55413 -2.19251 0
M  V30 6525 N 626.714 -0.118576 -1.57153 0
M  V30 6526 C 627.644 0.828436 -2.1831 0
M  V30 6527 C 628.625 1.27758 -1.12303 0
M  V30 6528 O 629.81 1.34026 -1.40537 0
M  V30 6529 C 626.94 2.07876 -2.78217 0
M  V30 6530 C 625.894 1.76742 -3.89803 0
M  V30 6531 C 625.22 3.08801 -4.36516 0
M  V30 6532 C 626.52 1.03606 -5.11921 0
M  V30 6533 H 628.214 0.318824 -2.97698 0
M  V30 6534 H 625.76 0.151911 -1.43196 0
M  V30 6535 H 627.713 2.74584 -3.19659 0
M  V30 6536 H 626.437 2.61161 -1.96118 0
M  V30 6537 H 625.096 1.12424 -3.48936 0
M  V30 6538 H 624.744 3.6002 -3.51276 0
M  V30 6539 H 624.444 2.88743 -5.11763 0
M  V30 6540 H 625.968 3.76627 -4.80608 0
M  V30 6541 H 627.382 1.60467 -5.50385 0
M  V30 6542 H 625.779 0.936454 -5.92748 0
M  V30 6543 H 626.849 0.0227421 -4.84895 0
M  V30 6544 N 628.193 1.56834 0.155195 0
M  V30 6545 C 629.418 1.87412 0.888337 0
M  V30 6546 C 629.843 0.70671 1.74319 0
M  V30 6547 O 629.201 -0.343892 1.78009 0
M  V30 6548 C 629.249 3.1652 1.72765 0
M  V30 6549 O 628.353 2.99877 2.83103 0
M  V30 6550 H 627.694 0.615983 0.247914 0
M  V30 6551 H 630.224 2.04061 0.148478 0
M  V30 6552 H 630.234 3.48334 2.12433 0
M  V30 6553 H 628.909 4.01094 1.09985 0
M  V30 6554 H 627.486 2.79453 2.46902 0
M  V30 6555 N 629.671 -0.424282 1.51781 0
M  V30 6556 C 630.601 -1.52305 1.7699 0
M  V30 6557 C 631.582 -1.5839 0.620209 0
M  V30 6558 O 632.767 -1.73908 0.864268 0
M  V30 6559 C 629.897 -2.90271 1.90683 0
M  V30 6560 C 628.851 -2.99043 3.06198 0
M  V30 6561 C 628.177 -4.39116 3.05092 0
M  V30 6562 C 629.477 -2.7192 4.45934 0
M  V30 6563 H 631.171 -1.31461 2.68995 0
M  V30 6564 H 628.717 -0.630985 1.29439 0
M  V30 6565 H 630.67 -3.6711 2.06901 0
M  V30 6566 H 629.394 -3.12376 0.953365 0
M  V30 6567 H 628.053 -2.24646 2.89706 0
M  V30 6568 H 627.701 -4.58207 2.07498 0
M  V30 6569 H 627.401 -4.45912 3.82669 0
M  V30 6570 H 628.925 -5.17911 3.2342 0
M  V30 6571 H 630.339 -3.38487 4.62709 0
M  V30 6572 H 628.736 -2.90111 5.25315 0
M  V30 6573 H 629.806 -1.67445 4.55072 0
M  V30 6574 N 631.149 -1.42148 -0.680565 0
M  V30 6575 C 632.397 -1.42029 -1.43779 0
M  V30 6576 C 632.718 -0.0356347 -1.94967 0
M  V30 6577 O 631.988 0.924936 -1.7269 0
M  V30 6578 H 630.568 -0.522835 -0.533529 0
M  V30 6579 H 633.23 -1.7752 -0.804538 0
M  V30 6580 H 632.326 -2.11658 -2.29363 0
M  V30 6581 N 632.627 0.916307 -1.28225 0
M  V30 6582 C 633.875 1.6619 -1.15002 0
M  V30 6583 C 634.196 1.92642 0.302329 0
M  V30 6584 O 633.466 1.54076 1.20985 0
M  V30 6585 H 632.046 0.615964 -0.422608 0
M  V30 6586 H 634.708 1.09963 -1.60917 0
M  V30 6587 H 633.804 2.62533 -1.68769 0
M  V30 6588 N 634.105 1.10431 1.1244 0
M  V30 6589 C 635.037 0.710945 2.17895 0
M  V30 6590 C 636.05 -0.252315 1.60833 0
M  V30 6591 O 637.239 -0.03679 1.78462 0
M  V30 6592 C 634.339 0.0284262 3.38888 0
M  V30 6593 C 633.512 1.01585 4.2544 0
M  V30 6594 C 632.571 0.364826 5.24934 0
M  V30 6595 O 631.597 1.01561 5.60066 0
M  V30 6596 N 632.799 -0.87674 5.73841 0
M  V30 6597 H 635.564 1.61826 2.52255 0
M  V30 6598 H 633.125 0.993132 1.27861 0
M  V30 6599 H 635.117 -0.418568 4.0253 0
M  V30 6600 H 633.687 -0.781294 3.02679 0
M  V30 6601 H 632.907 1.64111 3.58415 0
M  V30 6602 H 634.195 1.68425 4.80115 0
M  V30 6603 H 633.593 -1.42483 5.47462 0
M  V30 6604 H 632.15 -1.26688 6.39369 0
M  V30 6605 N 635.583 -1.29855 0.893053 0
M  V30 6606 C 636.829 -1.96116 0.516349 0
M  V30 6607 C 637.162 -1.70281 -0.933695 0
M  V30 6608 O 636.437 -1.01205 -1.66096 0
M  V30 6609 C 636.72 -3.51068 0.801455 0
M  V30 6610 C 636.573 -3.86387 2.30272 0
M  V30 6611 C 637.892 -4.39186 0.283423 0
M  V30 6612 H 635.011 -0.712335 0.189072 0
M  V30 6613 H 637.653 -1.53587 1.11852 0
M  V30 6614 H 635.803 -3.87424 0.288949 0
M  V30 6615 H 637.475 -3.60012 2.88425 0
M  V30 6616 H 635.718 -3.34167 2.76613 0
M  V30 6617 H 636.389 -4.94512 2.45279 0
M  V30 6618 H 638.865 -4.09785 0.722187 0
M  V30 6619 H 637.741 -5.46505 0.512169 0
M  V30 6620 H 638.002 -4.34511 -0.815643 0
M  V30 6621 N 637.061 -0.65484 -1.43351 0
M  V30 6622 C 638.307 -0.177749 -2.02622 0
M  V30 6623 C 638.662 1.19553 -1.50748 0
M  V30 6624 O 637.955 1.78683 -0.691599 0
M  V30 6625 C 638.149 -0.130424 -3.57162 0
M  V30 6626 C 637.978 -1.49757 -4.24032 0
M  V30 6627 C 636.748 -2.09036 -4.60035 0
M  V30 6628 C 638.946 -2.4363 -4.52934 0
M  V30 6629 N 636.928 -3.3874 -5.11985 0
M  V30 6630 C 638.299 -3.57968 -5.0622 0
M  V30 6631 C 640.354 -2.42412 -4.34903 0
M  V30 6632 C 639.057 -4.71314 -5.43374 0
M  V30 6633 C 641.083 -3.5484 -4.7312 0
M  V30 6634 C 640.445 -4.67903 -5.26541 0
M  V30 6635 H 636.544 -0.10951 -0.774294 0
M  V30 6636 H 639.128 -0.863495 -1.74505 0
M  V30 6637 H 637.299 0.524671 -3.8484 0
M  V30 6638 H 639.031 0.35769 -4.03116 0
M  V30 6639 H 635.786 -1.61729 -4.4513 0
M  V30 6640 H 636.21 -4.05116 -5.42412 0
M  V30 6641 H 640.852 -1.56236 -3.92874 0
M  V30 6642 H 638.57 -5.5818 -5.84346 0
M  V30 6643 H 642.156 -3.55101 -4.60863 0
M  V30 6644 H 641.036 -5.5346 -5.55564 0
M  V30 6645 N 638.539 1.52521 -0.396863 0
M  V30 6646 C 639.787 2.01274 0.182536 0
M  V30 6647 C 640.108 1.28485 1.46685 0
M  V30 6648 O 639.378 0.407134 1.91623 0
M  V30 6649 H 637.958 0.743671 0.0704442 0
M  V30 6650 H 640.62 1.87547 -0.530289 0
M  V30 6651 H 639.716 3.09687 0.387385 0
M  V30 6652 N 640.017 0.126909 1.57088 0
M  V30 6653 C 640.965 -0.837618 2.16995 0
M  V30 6654 C 641.959 -1.26974 1.12133 0
M  V30 6655 O 643.165 -1.24056 1.30423 0
M  V30 6656 H 639.54 -0.288256 0.694559 0
M  V30 6657 H 641.511 -0.307957 2.96807 0
M  V30 6658 C 640.26 -2.07474 2.79016 0
M  V30 6659 H 639.583 -1.75117 3.59408 0
M  V30 6660 H 641.023 -2.72949 3.24461 0
M  V30 6661 C 639.482 -2.86967 1.76498 0
M  V30 6662 O 640.012 -3.82625 1.22316 0
M  V30 6663 N 638.218 -2.51111 1.46258 0
M  V30 6664 H 637.765 -1.73389 1.90509 0
M  V30 6665 H 637.723 -3.04594 0.779085 0
M  V30 6666 N 641.495 -1.56914 -0.146875 0
M  V30 6667 C 642.742 -1.83356 -0.859467 0
M  V30 6668 C 643.07 -0.707811 -1.81164 0
M  V30 6669 O 642.325 0.303155 -1.93338 0
M  V30 6670 C 642.624 -3.16128 -1.66727 0
M  V30 6671 C 642.29 -4.42586 -0.861881 0
M  V30 6672 C 640.952 -4.76929 -0.639687 0
M  V30 6673 C 643.304 -5.20344 -0.298643 0
M  V30 6674 C 640.632 -5.86491 0.156451 0
M  V30 6675 C 642.984 -6.30742 0.484536 0
M  V30 6676 C 641.648 -6.63635 0.717306 0
M  V30 6677 H 640.918 -0.670947 -0.314501 0
M  V30 6678 H 643.565 -1.91104 -0.123108 0
M  V30 6679 H 641.87 -3.03831 -2.47374 0
M  V30 6680 H 643.567 -3.33802 -2.2221 0
M  V30 6681 H 640.157 -4.15662 -1.04513 0
M  V30 6682 H 644.341 -4.94186 -0.457585 0
M  V30 6683 H 639.597 -6.10419 0.346292 0
M  V30 6684 H 643.771 -6.90188 0.928105 0
M  V30 6685 H 641.398 -7.48367 1.33607 0
M  V30 6686 N 642.974 0.416227 -1.52004 0
M  V30 6687 C 643.904 1.51365 -1.77795 0
M  V30 6688 C 644.885 1.58059 -0.628601 0
M  V30 6689 O 646.07 1.73447 -0.873478 0
M  V30 6690 C 643.2 2.89256 -1.92219 0
M  V30 6691 C 642.154 2.97415 -3.0778 0
M  V30 6692 C 641.48 4.37492 -3.07417 0
M  V30 6693 C 642.78 2.69551 -4.47369 0
M  V30 6694 H 644.474 1.30033 -2.69688 0
M  V30 6695 H 642.02 0.624112 -1.29772 0
M  V30 6696 H 643.973 3.66008 -2.08845 0
M  V30 6697 H 642.697 3.11866 -0.969917 0
M  V30 6698 H 641.356 2.23107 -2.90893 0
M  V30 6699 H 641.004 4.571 -2.09925 0
M  V30 6700 H 640.704 4.43877 -3.85029 0
M  V30 6701 H 642.228 5.16188 -3.26162 0
M  V30 6702 H 643.642 3.36028 -4.64497 0
M  V30 6703 H 642.039 2.87321 -5.26846 0
M  V30 6704 H 643.109 1.65029 -4.55953 0
M  V30 6705 N 644.452 1.42507 0.673017 0
M  V30 6706 C 645.677 1.4668 1.46627 0
M  V30 6707 C 646.102 0.080066 1.8793 0
M  V30 6708 O 645.46 -0.921879 1.56112 0
M  V30 6709 C 645.508 2.40091 2.69051 0
M  V30 6710 O 644.612 1.8735 3.67387 0
M  V30 6711 H 643.953 0.496908 0.44043 0
M  V30 6712 H 646.483 1.87215 0.825334 0
M  V30 6713 H 646.493 2.56731 3.17101 0
M  V30 6714 H 645.168 3.4084 2.3833 0
M  V30 6715 H 643.745 1.80274 3.26429 0
M  V30 6716 N 645.93 -0.909495 1.28709 0
M  V30 6717 C 647.17 -1.67344 1.17368 0
M  V30 6718 C 647.534 -1.90058 -0.272419 0
M  V30 6719 O 648.735 -2.63944 -0.508617 0
M  V30 6720 C 647.006 -2.99219 1.95455 0
M  V30 6721 S 648.565 -3.90295 2.00538 0
M  V30 6722 H 645.383 -0.57466 0.418672 0
M  V30 6723 H 647.985 -1.08144 1.62865 0
M  V30 6724 H 646.689 -2.80393 2.9968 0
M  V30 6725 H 646.22 -3.63464 1.50524 0
M  V30 6726 H 648.235 -4.83511 1.11496 0
M  V30 6727 N 647.408 -1.11026 -1.11852 0
M  V30 6728 C 648.655 -0.85646 -1.83497 0
M  V30 6729 C 648.983 0.617938 -1.84423 0
M  V30 6730 O 648.238 1.47194 -1.28966 0
M  V30 6731 C 648.537 -1.35777 -3.30604 0
M  V30 6732 C 648.203 -2.84465 -3.49843 0
M  V30 6733 C 646.865 -3.25068 -3.54802 0
M  V30 6734 C 649.217 -3.80251 -3.56453 0
M  V30 6735 C 646.545 -4.60194 -3.63921 0
M  V30 6736 C 648.897 -5.15188 -3.67102 0
M  V30 6737 C 647.561 -5.55356 -3.70319 0
M  V30 6738 H 646.831 -0.313401 -0.671462 0
M  V30 6739 H 649.478 -1.38792 -1.31943 0
M  V30 6740 H 647.783 -0.746455 -3.84624 0
M  V30 6741 H 649.48 -1.13779 -3.8452 0
M  V30 6742 H 646.07 -2.52054 -3.46651 0
M  V30 6743 H 650.254 -3.49986 -3.51886 0
M  V30 6744 H 645.51 -4.90728 -3.64686 0
M  V30 6745 H 649.684 -5.89248 -3.71159 0
M  V30 6746 H 647.311 -6.60054 -3.77138 0
M  V30 6747 N 648.886 1.2938 -0.899927 0
M  V30 6748 C 650.134 1.95164 -0.524924 0
M  V30 6749 C 650.455 1.71292 0.931888 0
M  V30 6750 O 649.725 1.04481 1.65712 0
M  V30 6751 H 648.305 0.722133 -0.191135 0
M  V30 6752 H 650.967 1.57628 -1.14627 0
M  V30 6753 H 650.063 3.0397 -0.707711 0
M  V30 6754 N 650.364 0.662433 1.43002 0
M  V30 6755 C 651.775 0.258315 1.84904 0
M  V30 6756 C 652.126 -1.19703 1.55453 0
M  V30 6757 O 651.251 -1.91484 1.00811 0
M  V30 6758 C 651.846 0.462047 3.35635 0
M  V30 6759 C 650.405 0.112165 3.76233 0
M  V30 6760 C 649.552 0.760479 2.66668 0
M  V30 6761 H 652.503 0.865467 1.33024 0
M  V30 6762 H 652.524 -0.289646 3.79396 0
M  V30 6763 H 652.036 1.52135 3.57039 0
M  V30 6764 H 650.137 -0.944179 3.60439 0
M  V30 6765 H 650.25 0.544058 4.76001 0
M  V30 6766 H 648.614 0.192887 2.53969 0
M  V30 6767 H 649.397 1.82299 2.90898 0
M  V30 6768 N 651.842 -1.52309 0.404946 0
M  V30 6769 C 652.752 -2.30634 -0.429555 0
M  V30 6770 C 653.768 -1.38187 -1.05737 0
M  V30 6771 O 654.944 -1.71261 -1.05979 0
M  V30 6772 C 652.009 -3.10947 -1.53339 0
M  V30 6773 C 651.07 -4.19126 -0.929065 0
M  V30 6774 C 650.303 -4.95601 -1.9803 0
M  V30 6775 O 650.526 -4.72331 -3.1978 0
M  V30 6776 O 649.46 -5.80551 -1.58886 0
M  V30 6777 H 653.286 -3.0298 0.208963 0
M  V30 6778 H 650.871 -1.4845 0.168255 0
M  V30 6779 H 652.753 -3.60974 -2.1743 0
M  V30 6780 H 651.428 -2.41399 -2.15658 0
M  V30 6781 H 650.335 -3.73257 -0.250982 0
M  V30 6782 H 651.668 -4.90955 -0.349855 0
M  V30 6783 N 653.32 -0.135238 -1.57019 0
M  V30 6784 C 654.55 0.525303 -1.9981 0
M  V30 6785 C 654.958 1.59724 -1.01415 0
M  V30 6786 O 654.301 1.837 -0.00130938 0
M  V30 6787 C 654.363 1.19578 -3.3903 0
M  V30 6788 C 654.027 0.269855 -4.56203 0
M  V30 6789 C 655.024 -0.497905 -5.1751 0
M  V30 6790 C 652.709 0.176188 -5.01991 0
M  V30 6791 C 654.703 -1.3469 -6.23007 0
M  V30 6792 C 652.39 -0.676422 -6.07345 0
M  V30 6793 C 653.388 -1.43658 -6.67721 0
M  V30 6794 O 653.076 -2.27501 -7.71037 0
M  V30 6795 H 652.808 0.142296 -0.660854 0
M  V30 6796 H 655.362 -0.223272 -2.04183 0
M  V30 6797 H 653.592 1.99176 -3.3146 0
M  V30 6798 H 655.281 1.75486 -3.66005 0
M  V30 6799 H 656.047 -0.435507 -4.83041 0
M  V30 6800 H 651.926 0.757583 -4.54733 0
M  V30 6801 H 655.47 -1.9407 -6.70062 0
M  V30 6802 H 651.367 -0.740154 -6.41243 0
M  V30 6803 H 652.135 -2.20619 -7.88206 0
M  V30 6804 N 654.798 1.5699 0.138552 0
M  V30 6805 C 656.214 1.51844 0.491472 0
M  V30 6806 C 656.414 0.845063 1.82923 0
M  V30 6807 O 655.47 0.419143 2.48997 0
M  V30 6808 C 656.783 2.96615 0.493987 0
M  V30 6809 C 658.331 3.076 0.578913 0
M  V30 6810 C 658.806 4.53893 0.612009 0
M  V30 6811 N 660.297 4.5827 0.673997 0
M  V30 6812 C 661.032 5.68852 0.720729 0
M  V30 6813 N 660.528 6.88982 0.726292 0
M  V30 6814 N 662.321 5.56908 0.762253 0
M  V30 6815 H 654.472 1.99158 -0.738228 0
M  V30 6816 H 656.735 0.908693 -0.270149 0
M  V30 6817 H 656.441 3.49172 -0.420933 0
M  V30 6818 H 656.315 3.53017 1.32887 0
M  V30 6819 H 658.702 2.55057 1.48425 0
M  V30 6820 H 658.783 2.54227 -0.283286 0
M  V30 6821 H 658.427 5.07076 -0.289208 0
M  V30 6822 H 658.357 5.05057 1.49082 0
M  V30 6823 H 660.848 3.71793 0.676654 0
M  V30 6824 H 661.161 7.69014 0.764032 0
M  V30 6825 H 659.506 6.91526 0.69403 0
M  V30 6826 H 662.697 4.61969 0.755135 0
M  V30 6827 H 662.87 6.43102 0.795207 0
M  V30 6828 N 656.276 -0.40816 1.52223 0
M  V30 6829 C 657.692 -0.74685 1.41047 0
M  V30 6830 C 657.892 -1.94788 0.51573 0
M  V30 6831 O 656.948 -2.52494 -0.0181156 0
M  V30 6832 C 658.261 -0.999878 2.83589 0
M  V30 6833 C 659.809 -1.10253 2.92939 0
M  V30 6834 C 660.284 -1.38832 4.36451 0
M  V30 6835 N 661.775 -1.45694 4.3969 0
M  V30 6836 C 662.51 -1.69435 5.47795 0
M  V30 6837 N 662.006 -1.90774 6.66016 0
M  V30 6838 N 663.799 -1.71458 5.35312 0
M  V30 6839 H 655.95 0.382409 2.08929 0
M  V30 6840 H 658.213 0.108807 0.941735 0
M  V30 6841 H 657.919 -0.189723 3.51188 0
M  V30 6842 H 657.793 -1.91978 3.24691 0
M  V30 6843 H 660.18 -1.90328 2.2552 0
M  V30 6844 H 660.261 -0.160973 2.55293 0
M  V30 6845 H 659.905 -0.592741 5.04429 0
M  V30 6846 H 659.835 -2.34241 4.71634 0
M  V30 6847 H 662.326 -1.3099 3.54472 0
M  V30 6848 H 662.639 -2.08342 7.44186 0
M  V30 6849 H 660.984 -1.88037 6.69079 0
M  V30 6850 H 664.175 -1.54326 4.41929 0
M  V30 6851 H 664.348 -1.89621 6.19635 0
M  V30 6852 N 657.755 -1.42862 -0.66545 0
M  V30 6853 C 659.004 -1.43119 -1.42126 0
M  V30 6854 C 659.317 -0.0545297 -1.95524 0
M  V30 6855 O 660.523 0.0654747 -2.71421 0
M  V30 6856 C 658.979 -2.51797 -2.5715 0
M  V30 6857 C 658.587 -3.95514 -2.10411 0
M  V30 6858 C 660.331 -2.61233 -3.346 0
M  V30 6859 C 658.238 -4.95682 -3.22573 0
M  V30 6860 H 657.168 -0.532349 -0.533966 0
M  V30 6861 H 659.819 -1.68806 -0.719506 0
M  V30 6862 H 658.201 -2.19292 -3.29738 0
M  V30 6863 H 659.375 -4.3742 -1.44915 0
M  V30 6864 H 657.69 -3.90012 -1.45874 0
M  V30 6865 H 660.287 -3.33248 -4.18151 0
M  V30 6866 H 660.63 -1.65896 -3.81817 0
M  V30 6867 H 661.163 -2.9298 -2.69087 0
M  V30 6868 H 657.902 -5.92529 -2.80338 0
M  V30 6869 H 657.422 -4.58399 -3.86821 0
M  V30 6870 H 659.101 -5.17828 -3.87896 0
M  V30 6871 N 659.233 0.902656 -1.29189 0
M  V30 6872 C 660.461 1.68639 -1.19869 0
M  V30 6873 C 660.876 1.87254 0.241121 0
M  V30 6874 O 660.233 1.40745 1.16177 0
M  V30 6875 C 660.284 3.07251 -1.90471 0
M  V30 6876 O 660.005 2.89488 -3.28829 0
M  V30 6877 C 661.506 4.01653 -1.8759 0
M  V30 6878 H 658.726 0.526802 -0.415596 0
M  V30 6879 H 661.27 1.12901 -1.7051 0
M  V30 6880 H 659.425 3.59774 -1.43672 0
M  V30 6881 H 659.839 3.77296 -3.64346 0
M  V30 6882 H 661.313 4.96339 -2.4156 0
M  V30 6883 H 661.79 4.30881 -0.850756 0
M  V30 6884 H 662.396 3.55061 -2.34119 0
M  V30 6885 N 660.711 1.11618 1.11262 0
M  V30 6886 C 661.641 0.79846 2.19424 0
M  V30 6887 C 662.622 -0.234003 1.68483 0
M  V30 6888 O 663.807 -0.0970704 1.93957 0
M  V30 6889 C 660.937 0.242892 3.4645 0
M  V30 6890 C 659.891 1.20744 4.10615 0
M  V30 6891 C 659.217 0.512494 5.32238 0
M  V30 6892 C 660.517 2.55884 4.55325 0
M  V30 6893 H 662.211 1.70286 2.46258 0
M  V30 6894 H 659.757 0.820195 1.18359 0
M  V30 6895 H 661.71 0.00840447 4.21399 0
M  V30 6896 H 660.434 -0.696811 3.1908 0
M  V30 6897 H 659.093 1.42759 3.37662 0
M  V30 6898 H 658.741 -0.432075 5.01141 0
M  V30 6899 H 658.441 1.15583 5.7612 0
M  V30 6900 H 659.965 0.286842 6.09926 0
M  V30 6901 H 661.379 2.37946 5.21588 0
M  V30 6902 H 659.776 3.16216 5.10027 0
M  V30 6903 H 660.846 3.14968 3.68678 0
M  V30 6904 N 662.189 -1.289 0.906776 0
M  V30 6905 C 663.122 -2.25737 0.334362 0
M  V30 6906 C 664.1 -1.52745 -0.557474 0
M  V30 6907 O 665.284 -1.81673 -0.502697 0
M  V30 6908 C 662.411 -3.34642 -0.522716 0
M  V30 6909 C 661.457 -4.25424 0.302777 0
M  V30 6910 S 662.29 -5.07629 1.70508 0
M  V30 6911 C 663.446 -6.20031 0.855118 0
M  V30 6912 H 663.679 -2.73941 1.15514 0
M  V30 6913 H 661.212 -1.37233 0.707573 0
M  V30 6914 H 663.17 -3.97845 -1.01141 0
M  V30 6915 H 661.831 -2.85119 -1.31781 0
M  V30 6916 H 661.024 -5.02767 -0.352257 0
M  V30 6917 H 660.626 -3.66908 0.724873 0
M  V30 6918 H 662.918 -6.77451 0.0816418 0
M  V30 6919 H 663.861 -6.89767 1.60087 0
M  V30 6920 H 664.269 -5.63035 0.406375 0
M  V30 6921 N 663.667 -0.670007 -1.42649 0
M  V30 6922 C 664.6 0.0613623 -2.28117 0
M  V30 6923 C 665.578 0.813414 -1.40792 0
M  V30 6924 O 666.762 0.809529 -1.70232 0
M  V30 6925 C 663.889 1.09399 -3.20546 0
M  V30 6926 C 662.935 0.438064 -4.24244 0
M  V30 6927 S 663.768 -0.800808 -5.29478 0
M  V30 6928 C 664.924 0.23086 -6.25474 0
M  V30 6929 H 665.157 -0.663606 -2.89799 0
M  V30 6930 H 662.69 -0.45939 -1.47407 0
M  V30 6931 H 664.648 1.68469 -3.74337 0
M  V30 6932 H 663.309 1.79137 -2.58009 0
M  V30 6933 H 662.502 1.21707 -4.89084 0
M  V30 6934 H 662.104 -0.0789346 -3.73917 0
M  V30 6935 H 664.396 1.09204 -6.68641 0
M  V30 6936 H 665.339 -0.382945 -7.07064 0
M  V30 6937 H 665.747 0.574191 -5.61572 0
M  V30 6938 N 665.145 1.52092 -0.413018 0
M  V30 6939 C 666.078 2.23613 0.455234 0
M  V30 6940 C 667.056 1.2459 1.04481 0
M  V30 6941 O 668.24 1.53653 1.09193 0
M  V30 6942 C 665.367 2.96775 1.63224 0
M  V30 6943 C 664.413 4.10261 1.16568 0
M  V30 6944 S 665.246 5.35348 0.127633 0
M  V30 6945 C 666.402 6.1204 1.30987 0
M  V30 6946 H 666.635 2.96911 -0.152042 0
M  V30 6947 H 664.168 1.53134 -0.197343 0
M  V30 6948 H 666.126 3.39532 2.30713 0
M  V30 6949 H 664.787 2.23113 2.21087 0
M  V30 6950 H 663.98 4.6064 2.04515 0
M  V30 6951 H 663.582 3.6964 0.569386 0
M  V30 6952 H 665.874 6.39651 2.23276 0
M  V30 6953 H 666.817 7.03022 0.846533 0
M  V30 6954 H 667.225 5.43161 1.53743 0
M  V30 6955 N 666.623 0.143563 1.56945 0
M  V30 6956 C 667.871 -0.507402 1.95627 0
M  V30 6957 C 668.192 -1.65626 1.02922 0
M  V30 6958 O 667.462 -1.95693 0.0901136 0
M  V30 6959 H 666.042 -0.190436 0.722318 0
M  V30 6960 H 668.704 0.218257 1.93674 0
M  V30 6961 H 667.8 -0.885816 2.99265 0
M  V30 6962 N 668.101 -1.57061 -0.130224 0
M  V30 6963 C 669.347 -1.8453 -0.841216 0
M  V30 6964 C 669.68 -0.727666 -1.80052 0
M  V30 6965 O 668.955 0.267419 -1.92653 0
M  V30 6966 C 669.238 -3.22553 -1.60099 0
M  V30 6967 C 669.091 -4.44901 -0.662048 0
M  V30 6968 C 670.41 -3.58003 -2.55973 0
M  V30 6969 H 667.529 -0.671215 -0.304366 0
M  V30 6970 H 670.171 -1.89705 -0.105821 0
M  V30 6971 H 668.321 -3.18272 -2.22789 0
M  V30 6972 H 669.993 -4.61278 -0.0448559 0
M  V30 6973 H 668.236 -4.33791 0.0272253 0
M  V30 6974 H 668.907 -5.3812 -1.23006 0
M  V30 6975 H 671.383 -3.63002 -2.03393 0
M  V30 6976 H 670.259 -4.55576 -3.06172 0
M  V30 6977 H 670.52 -2.84833 -3.38116 0
M  V30 6978 N 669.579 0.400081 -1.52437 0
M  V30 6979 C 670.825 1.14456 -1.68141 0
M  V30 6980 C 671.18 1.87965 -0.410722 0
M  V30 6981 O 670.473 1.82121 0.595195 0
M  V30 6982 C 670.667 2.15914 -2.84808 0
M  V30 6983 C 670.496 1.5237 -4.231 0
M  V30 6984 C 669.266 1.29252 -4.8849 0
M  V30 6985 C 671.464 0.979722 -5.04882 0
M  V30 6986 N 669.446 0.616955 -6.10792 0
M  V30 6987 C 670.817 0.43159 -6.18496 0
M  V30 6988 C 672.872 0.875059 -4.9015 0
M  V30 6989 C 671.575 -0.210958 -7.18991 0
M  V30 6990 C 673.601 0.246351 -5.90887 0
M  V30 6991 C 672.963 -0.291062 -7.03798 0
M  V30 6992 H 669.062 0.405181 -0.668844 0
M  V30 6993 H 671.646 0.435655 -1.89763 0
M  V30 6994 H 669.817 2.84154 -2.64785 0
M  V30 6995 H 671.549 2.8279 -2.89503 0
M  V30 6996 H 668.304 1.56451 -4.47012 0
M  V30 6997 H 668.728 0.295536 -6.76355 0
M  V30 6998 H 673.37 1.27636 -4.03074 0
M  V30 6999 H 671.088 -0.6243 -8.05685 0
M  V30 7000 H 674.674 0.166765 -5.81561 0
M  V30 7001 H 673.554 -0.76988 -7.80412 0
M  V30 7002 N 671.057 1.43213 0.657864 0
M  V30 7003 C 672.304 1.44584 1.41781 0
M  V30 7004 C 672.632 0.0684208 1.9438 0
M  V30 7005 O 671.887 -0.925872 1.72413 0
M  V30 7006 C 672.186 2.43143 2.61947 0
M  V30 7007 C 671.852 3.89128 2.27794 0
M  V30 7008 C 670.514 4.28889 2.18191 0
M  V30 7009 C 672.866 4.81144 2.00375 0
M  V30 7010 C 670.194 5.58625 1.79319 0
M  V30 7011 C 672.546 6.11239 1.63003 0
M  V30 7012 C 671.21 6.49981 1.51922 0
M  V30 7013 H 670.48 0.529069 0.518813 0
M  V30 7014 H 673.127 1.76263 0.748577 0
M  V30 7015 H 671.432 2.04851 3.33981 0
M  V30 7016 H 673.129 2.4146 3.20153 0
M  V30 7017 H 669.719 3.57657 2.36176 0
M  V30 7018 H 673.903 4.512 2.06718 0
M  V30 7019 H 669.159 5.87486 1.69323 0
M  V30 7020 H 673.333 6.82014 1.40817 0
M  V30 7021 H 670.96 7.50416 1.21572 0
M  V30 7022 N 672.536 -0.895792 1.29666 0
M  V30 7023 C 673.764 -1.68001 1.20761 0
M  V30 7024 C 674.179 -1.87379 -0.231187 0
M  V30 7025 O 673.536 -1.41359 -1.15429 0
M  V30 7026 C 673.587 -3.06236 1.92098 0
M  V30 7027 O 673.308 -2.8774 3.30359 0
M  V30 7028 C 674.809 -4.00652 1.89717 0
M  V30 7029 H 672.029 -0.524591 0.418384 0
M  V30 7030 H 674.573 -1.11995 1.71106 0
M  V30 7031 H 672.728 -3.59007 1.45578 0
M  V30 7032 H 673.142 -3.75359 3.66342 0
M  V30 7033 H 674.616 -4.95051 2.44189 0
M  V30 7034 H 675.093 -4.30424 0.873595 0
M  V30 7035 H 675.699 -3.53815 2.35998 0
M  V30 7036 N 674.014 -1.12206 -1.10668 0
M  V30 7037 C 674.947 -0.731468 -2.16159 0
M  V30 7038 C 675.925 0.276216 -1.60237 0
M  V30 7039 O 677.109 0.17074 -1.87725 0
M  V30 7040 C 674.236 -0.0822882 -3.386 0
M  V30 7041 C 673.282 -1.05641 -4.1321 0
M  V30 7042 S 674.115 -2.58281 -4.69096 0
M  V30 7043 C 675.271 -1.94686 -5.94851 0
M  V30 7044 H 675.504 -1.62504 -2.48957 0
M  V30 7045 H 673.037 -0.940906 -1.22419 0
M  V30 7046 H 674.995 0.285896 -4.09503 0
M  V30 7047 H 673.656 0.788358 -3.04046 0
M  V30 7048 H 672.849 -0.549764 -5.00993 0
M  V30 7049 H 672.451 -1.36741 -3.48106 0
M  V30 7050 H 674.743 -1.28815 -6.65141 0
M  V30 7051 H 675.686 -2.80499 -6.50174 0
M  V30 7052 H 676.094 -1.40369 -5.46769 0
M  V30 7053 N 675.492 1.28418 -0.913599 0
M  V30 7054 C 676.717 1.99643 -0.561899 0
M  V30 7055 C 677.142 1.67819 0.849608 0
M  V30 7056 O 676.5 0.910503 1.56779 0
M  V30 7057 C 676.548 3.52116 -0.777622 0
M  V30 7058 O 675.652 4.12076 0.163457 0
M  V30 7059 H 674.993 0.627229 -0.217898 0
M  V30 7060 H 677.523 1.63575 -1.229 0
M  V30 7061 H 677.533 4.02163 -0.687666 0
M  V30 7062 H 676.208 3.74613 -1.8066 0
M  V30 7063 H 674.785 3.72892 0.0247827 0
M  V30 7064 N 676.97 0.677563 1.42291 0
M  V30 7065 C 678.217 0.200975 2.015 0
M  V30 7066 C 678.545 -1.19342 1.53583 0
M  V30 7067 O 677.8 -1.81579 0.7299 0
M  V30 7068 C 678.099 0.187229 3.56909 0
M  V30 7069 C 677.765 1.52667 4.24268 0
M  V30 7070 C 676.427 1.89341 4.42384 0
M  V30 7071 C 678.779 2.40869 4.62203 0
M  V30 7072 C 676.107 3.13836 4.95705 0
M  V30 7073 C 678.459 3.64679 5.16906 0
M  V30 7074 C 677.123 4.01519 5.33234 0
M  V30 7075 H 676.393 0.0735418 0.737342 0
M  V30 7076 H 679.04 0.873095 1.70439 0
M  V30 7077 H 677.345 -0.568407 3.87655 0
M  V30 7078 H 679.042 -0.198773 4.00507 0
M  V30 7079 H 675.632 1.23138 4.1053 0
M  V30 7080 H 679.816 2.1382 4.47878 0
M  V30 7081 H 675.072 3.42396 5.06532 0
M  V30 7082 H 679.246 4.33224 5.45243 0
M  V30 7083 H 676.873 4.98062 5.74316 0
M  V30 7084 N 678.448 -1.51871 0.421078 0
M  V30 7085 C 679.673 -2.0684 -0.152371 0
M  V30 7086 C 680.098 -1.28802 -1.37083 0
M  V30 7087 O 679.456 -0.321482 -1.78427 0
M  V30 7088 C 679.504 -3.57532 -0.469368 0
M  V30 7089 O 678.608 -3.81818 -1.55848 0
M  V30 7090 H 677.949 -0.663939 -0.00898586 0
M  V30 7091 H 680.479 -1.95674 0.597724 0
M  V30 7092 H 680.489 -4.01515 -0.724553 0
M  V30 7093 H 679.164 -4.13761 0.421276 0
M  V30 7094 H 677.741 -3.49709 -1.29453 0
M  V30 7095 N 679.926 -0.151884 -1.56866 0
M  V30 7096 C 681.156 0.504081 -2.00356 0
M  V30 7097 C 681.564 1.58639 -1.03103 0
M  V30 7098 O 680.907 1.83688 -0.0207931 0
M  V30 7099 C 680.969 1.15975 -3.40279 0
M  V30 7100 C 680.633 0.221453 -4.56463 0
M  V30 7101 C 681.63 -0.552766 -5.16953 0
M  V30 7102 C 679.315 0.122936 -5.0215 0
M  V30 7103 C 681.309 -1.4129 -6.21543 0
M  V30 7104 C 678.996 -0.740801 -6.06593 0
M  V30 7105 C 679.994 -1.50732 -6.6616 0
M  V30 7106 O 679.682 -2.35666 -7.68581 0
M  V30 7107 H 679.414 0.135279 -0.662326 0
M  V30 7108 H 681.968 -0.244916 -2.03935 0
M  V30 7109 H 680.198 1.95649 -3.33554 0
M  V30 7110 H 681.887 1.71594 -3.67846 0
M  V30 7111 H 682.653 -0.486716 -4.82552 0
M  V30 7112 H 678.532 0.70931 -4.5551 0
M  V30 7113 H 682.076 -2.01166 -6.67966 0
M  V30 7114 H 677.973 -0.808125 -6.40421 0
M  V30 7115 H 678.741 -2.28967 -7.85822 0
M  V30 7116 N 681.404 1.57128 0.121893 0
M  V30 7117 C 682.634 1.88609 0.843227 0
M  V30 7118 C 683.042 0.740917 1.74089 0
M  V30 7119 O 682.385 -0.297426 1.81276 0
M  V30 7120 C 682.447 3.15073 1.73117 0
M  V30 7121 C 682.111 4.45742 1.0081 0
M  V30 7122 C 683.108 5.18719 0.350255 0
M  V30 7123 C 680.793 4.92444 0.99014 0
M  V30 7124 C 682.787 6.36617 -0.315889 0
M  V30 7125 C 680.474 6.10261 0.320196 0
M  V30 7126 C 681.472 6.82194 -0.331666 0
M  V30 7127 O 681.16 7.97769 -0.990927 0
M  V30 7128 H 680.892 0.628919 0.247865 0
M  V30 7129 H 683.446 2.05096 0.111725 0
M  V30 7130 H 681.676 2.9466 2.50424 0
M  V30 7131 H 683.365 3.32597 2.32667 0
M  V30 7132 H 684.131 4.83693 0.35577 0
M  V30 7133 H 680.01 4.36361 1.48695 0
M  V30 7134 H 683.554 6.92701 -0.825272 0
M  V30 7135 H 679.451 6.44743 0.312433 0
M  V30 7136 H 680.219 8.13591 -0.895113 0
M  V30 7137 N 682.882 -0.391992 1.52647 0
M  V30 7138 C 684.13 -1.13507 1.67214 0
M  V30 7139 C 684.451 -1.90575 0.41304 0
M  V30 7140 O 683.721 -1.87348 -0.572498 0
M  V30 7141 H 682.301 -0.422013 0.616372 0
M  V30 7142 H 684.963 -0.44502 1.89751 0
M  V30 7143 H 684.059 -1.83964 2.52118 0
M  V30 7144 N 684.36 -1.4356 -0.65026 0
M  V30 7145 C 685.29 -1.51758 -1.77459 0
M  V30 7146 C 686.271 -0.372019 -1.65982 0
M  V30 7147 O 687.456 -0.589627 -1.85033 0
M  V30 7148 C 684.586 -1.44302 -3.15902 0
M  V30 7149 C 683.54 -2.57138 -3.42146 0
M  V30 7150 C 682.866 -2.34735 -4.8042 0
M  V30 7151 C 684.166 -3.99373 -3.36598 0
M  V30 7152 H 685.86 -2.45863 -1.70855 0
M  V30 7153 H 683.406 -1.18333 -0.820566 0
M  V30 7154 H 685.359 -1.48641 -3.94314 0
M  V30 7155 H 684.083 -0.467026 -3.23244 0
M  V30 7156 H 682.742 -2.52157 -2.66106 0
M  V30 7157 H 682.39 -1.35372 -4.84441 0
M  V30 7158 H 682.09 -3.10375 -4.9894 0
M  V30 7159 H 683.614 -2.40862 -5.61086 0
M  V30 7160 H 685.028 -4.05826 -4.04942 0
M  V30 7161 H 683.425 -4.75063 -3.66654 0
M  V30 7162 H 684.495 -4.243 -2.34729 0
M  V30 7163 N 685.838 0.888903 -1.30139 0
M  V30 7164 C 687.066 1.67358 -1.21651 0
M  V30 7165 C 687.481 1.87499 0.221246 0
M  V30 7166 O 686.838 1.41969 1.14677 0
M  V30 7167 C 686.889 3.05213 -1.93719 0
M  V30 7168 O 686.61 2.85984 -3.31881 0
M  V30 7169 C 688.111 3.9964 -1.9184 0
M  V30 7170 H 685.331 0.522365 -0.42116 0
M  V30 7171 H 687.875 1.11086 -1.71698 0
M  V30 7172 H 686.03 3.5823 -1.4748 0
M  V30 7173 H 686.444 3.73411 -3.68327 0
M  V30 7174 H 687.918 4.93749 -2.46811 0
M  V30 7175 H 688.395 4.29955 -0.896409 0
M  V30 7176 H 689.001 3.52558 -2.37872 0
M  V30 7177 N 687.317 1.12792 1.10072 0
M  V30 7178 C 688.563 0.886857 1.82381 0
M  V30 7179 C 688.896 -0.58576 1.85155 0
M  V30 7180 O 688.171 -1.43317 1.31493 0
M  V30 7181 C 688.454 1.46703 3.28862 0
M  V30 7182 C 688.307 3.00829 3.34398 0
M  V30 7183 C 689.626 1.12971 4.25353 0
M  V30 7184 H 686.745 0.32362 0.662148 0
M  V30 7185 H 689.387 1.39513 1.28982 0
M  V30 7186 H 687.537 1.03476 3.74466 0
M  V30 7187 H 689.209 3.52764 2.97247 0
M  V30 7188 H 687.452 3.36164 2.74183 0
M  V30 7189 H 688.123 3.36519 4.3756 0
M  V30 7190 H 690.599 1.50313 3.88001 0
M  V30 7191 H 689.475 1.56223 5.26199 0
M  V30 7192 H 689.736 0.0424452 4.4208 0
M  V30 7193 N 688.795 -1.27931 0.920396 0
M  V30 7194 C 690.041 -1.95329 0.5673 0
M  V30 7195 C 690.396 -1.7107 -0.880506 0
M  V30 7196 O 689.689 -1.02497 -1.61879 0
M  V30 7197 C 689.883 -3.47853 0.820558 0
M  V30 7198 C 689.712 -3.86941 2.29143 0
M  V30 7199 C 688.482 -4.10766 2.94278 0
M  V30 7200 C 690.68 -3.97091 3.26838 0
M  V30 7201 N 688.662 -4.36578 4.31594 0
M  V30 7202 C 690.033 -4.27194 4.49339 0
M  V30 7203 C 692.088 -3.79639 3.22147 0
M  V30 7204 C 690.791 -4.41662 5.67739 0
M  V30 7205 C 692.817 -3.95328 4.39852 0
M  V30 7206 C 692.179 -4.2581 5.61128 0
M  V30 7207 H 688.278 -0.73836 0.257583 0
M  V30 7208 H 690.862 -1.54447 1.1855 0
M  V30 7209 H 689.033 -3.87709 0.231571 0
M  V30 7210 H 690.765 -4.024 0.430824 0
M  V30 7211 H 687.52 -4.05318 2.44979 0
M  V30 7212 H 687.944 -4.53555 5.0261 0
M  V30 7213 H 692.586 -3.55119 2.29457 0
M  V30 7214 H 690.304 -4.65011 6.60901 0
M  V30 7215 H 693.89 -3.83253 4.37731 0
M  V30 7216 H 692.77 -4.37691 6.50689 0
M  V30 7217 N 690.273 -0.685099 -1.4193 0
M  V30 7218 C 691.52 -0.211658 -2.01391 0
M  V30 7219 C 691.848 1.18526 -1.54214 0
M  V30 7220 O 691.103 1.81189 -0.739519 0
M  V30 7221 C 691.402 -0.206154 -3.56805 0
M  V30 7222 C 691.068 -1.54915 -4.23453 0
M  V30 7223 C 689.73 -1.91684 -4.41373 0
M  V30 7224 C 692.082 -2.43317 -4.60919 0
M  V30 7225 C 689.41 -3.16461 -4.94034 0
M  V30 7226 C 691.762 -3.67415 -5.14965 0
M  V30 7227 C 690.426 -4.04341 -5.31098 0
M  V30 7228 H 689.696 -0.0774511 -0.736941 0
M  V30 7229 H 692.343 -0.882121 -1.69973 0
M  V30 7230 H 690.648 0.547841 -3.87951 0
M  V30 7231 H 692.345 0.17753 -4.00607 0
M  V30 7232 H 688.935 -1.25314 -4.09871 0
M  V30 7233 H 693.119 -2.16192 -4.46738 0
M  V30 7234 H 688.375 -3.45078 -5.04709 0
M  V30 7235 H 692.549 -4.3611 -5.42938 0
M  V30 7236 H 690.176 -5.01101 -5.71666 0
M  V30 7237 N 691.751 1.51645 -0.429126 0
M  V30 7238 C 693.162 1.86665 0.0359003 0
M  V30 7239 C 693.513 1.34677 1.42676 0
M  V30 7240 O 692.638 0.694195 2.04963 0
M  V30 7241 C 693.233 3.38724 0.0719221 0
M  V30 7242 C 691.792 3.7331 0.481336 0
M  V30 7243 C 690.939 2.75313 -0.331329 0
M  V30 7244 H 693.89 1.44987 -0.645333 0
M  V30 7245 H 693.911 3.7011 0.883118 0
M  V30 7246 H 693.423 3.76532 -0.940495 0
M  V30 7247 H 691.524 3.41088 1.49966 0
M  V30 7248 H 691.637 4.78631 0.211837 0
M  V30 7249 H 690.001 2.53839 0.209204 0
M  V30 7250 H 690.784 3.15963 -1.34247 0
M  V30 7251 N 693.229 0.160201 1.56784 0
M  V30 7252 C 694.506 -0.533355 1.88188 0
M  V30 7253 C 694.886 -1.82072 1.06831 0
M  V30 7254 O 694.234 -2.27946 0.158959 0
M  V30 7255 C 694.444 -0.786034 3.40033 0
M  V30 7256 C 695.792 -1.12097 4.09536 0
M  V30 7257 O 696.816 -0.874949 3.45287 0
M  V30 7258 O 695.675 -1.58457 5.23023 0
M  V30 7259 H 692.769 -0.273589 0.780434 0
M  V30 7260 H 695.315 0.197803 1.68543 0
M  V30 7261 H 694.087 0.124515 3.91102 0
M  V30 7262 H 693.71 -1.57091 3.65251 0
M  V30 7263 N 694.707 -1.5719 -0.113559 0
M  V30 7264 C 695.64 -1.9595 -1.16957 0
M  V30 7265 C 696.618 -0.829951 -1.39823 0
M  V30 7266 O 697.802 -1.08861 -1.53888 0
M  V30 7267 C 694.929 -2.2604 -2.52237 0
M  V30 7268 C 693.975 -3.48571 -2.45765 0
M  V30 7269 S 694.808 -5.00962 -1.89203 0
M  V30 7270 C 695.964 -5.3421 -3.26145 0
M  V30 7271 H 696.197 -2.85214 -0.839069 0
M  V30 7272 H 693.73 -1.51036 -0.320529 0
M  V30 7273 H 695.688 -2.44054 -3.30073 0
M  V30 7274 H 694.349 -1.3738 -2.82463 0
M  V30 7275 H 693.542 -3.67008 -3.45429 0
M  V30 7276 H 693.144 -3.29972 -1.76053 0
M  V30 7277 H 695.436 -5.29725 -4.22371 0
M  V30 7278 H 696.379 -6.35398 -3.12529 0
M  V30 7279 H 696.787 -4.61681 -3.24825 0
M  V30 7280 N 696.185 0.383891 -1.52853 0
M  V30 7281 C 697.434 1.12563 -1.67369 0
M  V30 7282 C 697.747 1.90982 -0.422533 0
M  V30 7283 O 698.953 2.6778 -0.447914 0
M  V30 7284 C 697.409 2.05011 -2.95801 0
M  V30 7285 C 697.017 1.31991 -4.28115 0
M  V30 7286 C 698.761 2.79289 -3.19684 0
M  V30 7287 C 696.668 2.23235 -5.4765 0
M  V30 7288 H 695.598 0.42391 -0.623552 0
M  V30 7289 H 698.249 0.388016 -1.79351 0
M  V30 7290 H 696.631 2.82429 -2.77578 0
M  V30 7291 H 697.805 0.597633 -4.56908 0
M  V30 7292 H 696.12 0.696517 -4.10533 0
M  V30 7293 H 698.717 3.47749 -4.06171 0
M  V30 7294 H 699.06 3.43649 -2.3497 0
M  V30 7295 H 699.593 2.08962 -3.38496 0
M  V30 7296 H 696.332 1.63482 -6.34786 0
M  V30 7297 H 695.852 2.93364 -5.23161 0
M  V30 7298 H 697.531 2.83205 -5.81725 0
M  V30 7299 N 697.663 1.43903 0.642637 0
M  V30 7300 C 699.079 1.27536 0.959519 0
M  V30 7301 C 699.279 0.202751 2.00477 0
M  V30 7302 O 698.335 -0.415256 2.49062 0
M  V30 7303 C 699.648 2.6432 1.43372 0
M  V30 7304 C 701.196 2.71937 1.54981 0
M  V30 7305 C 701.671 4.09164 2.05789 0
M  V30 7306 N 703.162 4.11282 2.13076 0
M  V30 7307 C 703.897 5.14303 2.53534 0
M  V30 7308 N 703.393 6.27693 2.93212 0
M  V30 7309 N 705.186 5.01657 2.53567 0
M  V30 7310 H 697.337 2.12344 -0.0488376 0
M  V30 7311 H 699.6 0.947124 0.0407559 0
M  V30 7312 H 699.306 3.43826 0.740048 0
M  V30 7313 H 699.18 2.90432 2.40685 0
M  V30 7314 H 701.567 1.92757 2.23448 0
M  V30 7315 H 701.648 2.49578 0.560739 0
M  V30 7316 H 701.292 4.88815 1.37921 0
M  V30 7317 H 701.222 4.28893 3.05546 0
M  V30 7318 H 703.713 3.2944 1.85143 0
M  V30 7319 H 704.026 7.02125 3.22863 0
M  V30 7320 H 702.371 6.31149 2.90991 0
M  V30 7321 H 705.562 4.12134 2.21952 0
M  V30 7322 H 705.735 5.82072 2.84774 0
M  V30 7323 N 699.141 -0.881989 1.30609 0
M  V30 7324 C 700.091 -1.97539 1.13852 0
M  V30 7325 C 701.075 -1.60813 0.0528428 0
M  V30 7326 O 702.267 -1.74827 0.276484 0
M  V30 7327 C 699.396 -3.32977 0.835519 0
M  V30 7328 C 698.482 -3.76008 1.96159 0
M  V30 7329 N 698.873 -3.91109 3.20729 0
M  V30 7330 C 697.171 -4.05427 1.85863 0
M  V30 7331 C 697.872 -4.27661 3.94311 0
M  V30 7332 N 696.848 -4.37686 3.22385 0
M  V30 7333 H 700.65 -2.07309 2.08327 0
M  V30 7334 H 698.164 -1.072 1.21992 0
M  V30 7335 H 700.161 -4.11041 0.696477 0
M  V30 7336 H 698.821 -3.24542 -0.101135 0
M  V30 7337 H 699.832 -3.7616 3.55984 0
M  V30 7338 H 696.509 -4.05449 0.995847 0
M  V30 7339 H 697.899 -4.47042 5.01601 0
M  V30 7340 N 700.619 -1.13374 -1.09472 0
M  V30 7341 C 701.549 -0.833268 -2.18126 0
M  V30 7342 C 702.53 0.207169 -1.68834 0
M  V30 7343 O 703.715 0.0662012 -1.94087 0
M  V30 7344 C 700.845 -0.297979 -3.46019 0
M  V30 7345 C 699.799 -1.27261 -4.08642 0
M  V30 7346 C 699.125 -0.597104 -5.31356 0
M  V30 7347 C 700.425 -2.63095 -4.51197 0
M  V30 7348 H 702.119 -1.74182 -2.43518 0
M  V30 7349 H 699.665 -0.838921 -1.17039 0
M  V30 7350 H 701.618 -0.0754444 -4.21332 0
M  V30 7351 H 700.342 0.645959 -3.20148 0
M  V30 7352 H 699.001 -1.48113 -3.35348 0
M  V30 7353 H 698.649 0.352293 -5.01765 0
M  V30 7354 H 698.349 -1.24734 -5.74208 0
M  V30 7355 H 699.873 -0.38384 -6.09392 0
M  V30 7356 H 701.287 -2.46214 -5.17737 0
M  V30 7357 H 699.684 -3.2429 -5.04932 0
M  V30 7358 H 700.754 -3.20793 -3.6362 0
M  V30 7359 N 702.098 1.27442 -0.927168 0
M  V30 7360 C 703.03 2.25975 -0.383158 0
M  V30 7361 C 704.043 1.55382 0.485832 0
M  V30 7362 O 705.232 1.75986 0.298541 0
M  V30 7363 C 702.332 3.35629 0.469688 0
M  V30 7364 C 701.505 4.35747 -0.379886 0
M  V30 7365 C 700.564 5.24598 0.410227 0
M  V30 7366 O 699.59 5.68909 -0.181888 0
M  V30 7367 N 700.792 5.54737 1.71017 0
M  V30 7368 H 703.557 2.7329 -1.23015 0
M  V30 7369 H 701.118 1.41063 -0.794539 0
M  V30 7370 H 703.11 3.92015 1.00532 0
M  V30 7371 H 701.68 2.87919 1.21744 0
M  V30 7372 H 700.9 3.78634 -1.09682 0
M  V30 7373 H 702.188 4.99648 -0.960717 0
M  V30 7374 H 701.586 5.20594 2.21356 0
M  V30 7375 H 700.143 6.13824 2.19234 0
M  V30 7376 N 703.576 0.692616 1.41565 0
M  V30 7377 C 704.539 0.0344174 2.29174 0
M  V30 7378 C 705.539 -0.710961 1.44229 0
M  V30 7379 O 706.729 -0.546293 1.65412 0
M  V30 7380 C 703.861 -0.961682 3.27054 0
M  V30 7381 H 705.054 0.805755 2.88873 0
M  V30 7382 H 702.607 0.455947 1.49502 0
M  V30 7383 H 703.342 -1.76089 2.72329 0
M  V30 7384 H 703.127 -0.430375 3.89731 0
M  V30 7385 H 704.617 -1.4201 3.92712 0
M  V30 7386 N 705.054 -1.51416 0.437162 0
M  V30 7387 C 706.3 -2.02386 -0.129555 0
M  V30 7388 C 706.633 -1.32071 -1.42376 0
M  V30 7389 O 705.908 -0.43559 -1.8956 0
M  V30 7390 C 706.191 -3.5841 -0.348487 0
M  V30 7391 C 706.044 -4.39341 0.964352 0
M  V30 7392 C 707.363 -4.25654 -1.11834 0
M  V30 7393 H 704.482 -0.735587 -0.0456109 0
M  V30 7394 H 707.124 -1.81055 0.576124 0
M  V30 7395 H 705.274 -3.76716 -0.949592 0
M  V30 7396 H 706.946 -4.32685 1.59942 0
M  V30 7397 H 705.189 -4.04432 1.56898 0
M  V30 7398 H 705.86 -5.4667 0.765212 0
M  V30 7399 H 708.336 -4.11617 -0.609165 0
M  V30 7400 H 707.212 -5.34704 -1.24029 0
M  V30 7401 H 707.473 -3.86502 -2.14636 0
M  V30 7402 N 706.532 -0.168513 -1.56696 0
M  V30 7403 C 707.809 0.523367 -1.88468 0
M  V30 7404 C 708.189 1.81503 -1.07796 0
M  V30 7405 O 707.537 2.27859 -0.171045 0
M  V30 7406 C 707.747 0.767991 -3.40445 0
M  V30 7407 C 709.095 1.09924 -4.10124 0
M  V30 7408 O 710.119 0.856625 -3.45746 0
M  V30 7409 O 708.978 1.55681 -5.23856 0
M  V30 7410 H 706.072 0.269447 -0.781874 0
M  V30 7411 H 708.618 -0.206739 -1.68436 0
M  V30 7412 H 707.39 -0.145254 -3.9103 0
M  V30 7413 H 707.013 1.55151 -3.66079 0
M  V30 7414 N 708.01 1.57248 0.105221 0
M  V30 7415 C 709.24 1.89492 0.823175 0
M  V30 7416 C 709.648 0.75934 1.73294 0
M  V30 7417 O 708.991 -0.278182 1.81581 0
M  V30 7418 C 709.053 3.16891 1.69765 0
M  V30 7419 C 708.717 4.46787 0.960769 0
M  V30 7420 C 709.714 5.19061 0.295218 0
M  V30 7421 C 707.399 4.93467 0.937854 0
M  V30 7422 C 709.393 6.36246 -0.383393 0
M  V30 7423 C 707.08 6.10566 0.255452 0
M  V30 7424 C 708.078 6.81804 -0.404003 0
M  V30 7425 O 707.766 7.96673 -1.07549 0
M  V30 7426 H 707.498 0.631512 0.24118 0
M  V30 7427 H 710.052 2.05203 0.0899655 0
M  V30 7428 H 708.282 2.973 2.47285 0
M  V30 7429 H 709.971 3.35046 2.29126 0
M  V30 7430 H 710.737 4.84044 0.304448 0
M  V30 7431 H 706.616 4.37913 1.44058 0
M  V30 7432 H 710.16 6.91787 -0.898696 0
M  V30 7433 H 706.057 6.45039 0.244032 0
M  V30 7434 H 706.825 8.12596 -0.981355 0
M  V30 7435 N 709.488 -0.375779 1.53054 0
M  V30 7436 C 710.451 -1.44254 1.7811 0
M  V30 7437 C 711.451 -1.47018 0.651328 0
M  V30 7438 O 712.641 -1.47957 0.919472 0
M  V30 7439 C 709.773 -2.8345 1.89391 0
M  V30 7440 H 710.966 -1.23316 2.73374 0
M  V30 7441 H 708.519 -0.608312 1.43977 0
M  V30 7442 H 709.254 -3.09716 0.961589 0
M  V30 7443 H 709.039 -2.82844 2.71555 0
M  V30 7444 H 710.529 -3.60722 2.10404 0
M  V30 7445 N 710.966 -1.44241 -0.634997 0
M  V30 7446 C 712.191 -1.50516 -1.42687 0
M  V30 7447 C 712.616 -0.129864 -1.87651 0
M  V30 7448 O 711.974 0.880164 -1.58502 0
M  V30 7449 C 712.022 -2.4714 -2.62591 0
M  V30 7450 O 711.126 -1.97025 -3.62291 0
M  V30 7451 H 710.467 -0.50841 -0.427101 0
M  V30 7452 H 712.997 -1.89337 -0.775408 0
M  V30 7453 H 713.007 -2.65048 -3.10183 0
M  V30 7454 H 711.682 -3.47039 -2.29209 0
M  V30 7455 H 710.259 -1.88866 -3.21534 0
M  V30 7456 N 712.444 0.87505 -1.31075 0
M  V30 7457 C 713.86 1.15997 -1.09622 0
M  V30 7458 C 714.06 2.01036 0.136611 0
M  V30 7459 O 713.116 2.38559 0.827397 0
M  V30 7460 C 714.429 1.85702 -2.36506 0
M  V30 7461 C 715.977 1.98425 -2.42067 0
M  V30 7462 C 716.452 2.71544 -3.68819 0
M  V30 7463 N 717.943 2.79084 -3.69684 0
M  V30 7464 C 718.678 3.36259 -4.64454 0
M  V30 7465 N 718.174 3.94406 -5.69575 0
M  V30 7466 N 719.967 3.34169 -4.51982 0
M  V30 7467 H 712.118 0.308258 -2.10151 0
M  V30 7468 H 714.381 0.199145 -0.926847 0
M  V30 7469 H 714.087 1.30663 -3.26527 0
M  V30 7470 H 713.961 2.86017 -2.45915 0
M  V30 7471 H 716.348 2.5263 -1.52518 0
M  V30 7472 H 716.429 0.971682 -2.36626 0
M  V30 7473 H 716.073 2.18008 -4.58732 0
M  V30 7474 H 716.003 3.73198 -3.71525 0
M  V30 7475 H 718.494 2.3781 -2.93691 0
M  V30 7476 H 718.807 4.36129 -6.37974 0
M  V30 7477 H 717.152 3.92797 -5.73355 0
M  V30 7478 H 720.343 2.87977 -3.69035 0
M  V30 7479 H 720.516 3.78431 -5.26017 0
M  V30 7480 N 713.922 1.13953 1.08869 0
M  V30 7481 C 715.15 0.92817 1.84912 0
M  V30 7482 C 715.565 -0.523197 1.81406 0
M  V30 7483 O 714.922 -1.36237 1.21432 0
M  V30 7484 C 714.973 1.41509 3.32652 0
M  V30 7485 O 714.694 2.80959 3.36145 0
M  V30 7486 C 716.195 1.243 4.25517 0
M  V30 7487 H 713.415 0.330612 0.583898 0
M  V30 7488 H 715.959 1.51349 1.37527 0
M  V30 7489 H 714.114 0.872648 3.77444 0
M  V30 7490 H 714.528 3.02704 4.28335 0
M  V30 7491 H 716.002 1.63237 5.27312 0
M  V30 7492 H 716.479 0.18532 4.38809 0
M  V30 7493 H 717.085 1.77375 3.86546 0
M  V30 7494 N 715.4 -1.26948 0.933913 0
M  V30 7495 C 716.347 -2.26635 0.436484 0
M  V30 7496 C 717.317 -1.58397 -0.499953 0
M  V30 7497 O 718.502 -1.86171 -0.417753 0
M  V30 7498 C 715.642 -3.43803 -0.298951 0
M  V30 7499 C 714.755 -4.26736 0.672316 0
M  V30 7500 C 713.89 -5.31134 -0.0835872 0
M  V30 7501 C 712.929 -6.05742 0.879979 0
M  V30 7502 N 712.066 -7.01926 0.156301 0
M  V30 7503 H 716.906 -2.68558 1.29154 0
M  V30 7504 H 714.443 -1.32052 0.648118 0
M  V30 7505 H 716.401 -4.10554 -0.741723 0
M  V30 7506 H 715.031 -3.02814 -1.1182 0
M  V30 7507 H 714.083 -3.59842 1.23361 0
M  V30 7508 H 715.395 -4.78502 1.40846 0
M  V30 7509 H 714.549 -6.03863 -0.585984 0
M  V30 7510 H 713.288 -4.80188 -0.852661 0
M  V30 7511 H 712.293 -5.31846 1.39357 0
M  V30 7512 H 713.518 -6.58777 1.64894 0
M  V30 7513 H 711.464 -6.53301 -0.594413 0
M  V30 7514 H 711.381 -7.51409 0.831906 0
M  V30 7515 H 712.649 -7.78821 -0.325239 0
M  V30 7516 N 716.879 -0.700114 -1.41195 0
M  V30 7517 C 718.125 -0.233351 -2.01453 0
M  V30 7518 C 718.458 1.16548 -1.55339 0
M  V30 7519 O 717.733 1.78756 -0.766575 0
M  V30 7520 C 718.016 -0.2961 -3.58881 0
M  V30 7521 C 717.869 -1.7322 -4.15108 0
M  V30 7522 C 719.188 0.341525 -4.38773 0
M  V30 7523 H 716.307 -0.0862667 -0.731934 0
M  V30 7524 H 718.949 -0.889693 -1.67882 0
M  V30 7525 H 717.099 0.262736 -3.87611 0
M  V30 7526 H 718.771 -2.34523 -3.97236 0
M  V30 7527 H 717.014 -2.2649 -3.69979 0
M  V30 7528 H 717.685 -1.7276 -5.24269 0
M  V30 7529 H 720.161 -0.134461 -4.15883 0
M  V30 7530 H 719.037 0.267098 -5.4825 0
M  V30 7531 H 719.298 1.42289 -4.18577 0
M  V30 7532 N 718.357 1.51182 -0.445186 0
M  V30 7533 C 719.604 2.02152 0.118645 0
M  V30 7534 C 719.932 1.32888 1.42025 0
M  V30 7535 O 719.187 0.435041 1.90803 0
M  V30 7536 C 719.486 3.55408 0.376797 0
M  V30 7537 C 719.152 4.43008 -0.839945 0
M  V30 7538 C 717.814 4.66669 -1.17361 0
M  V30 7539 C 720.166 4.9435 -1.65127 0
M  V30 7540 C 717.494 5.38919 -2.31913 0
M  V30 7541 C 719.846 5.67857 -2.78786 0
M  V30 7542 C 718.51 5.89779 -3.12597 0
M  V30 7543 H 717.78 0.739727 0.0434152 0
M  V30 7544 H 720.427 1.82055 -0.593984 0
M  V30 7545 H 718.732 3.73879 1.1714 0
M  V30 7546 H 720.429 3.92388 0.826602 0
M  V30 7547 H 717.019 4.24793 -0.569958 0
M  V30 7548 H 721.203 4.75947 -1.4067 0
M  V30 7549 H 716.459 5.54105 -2.58413 0
M  V30 7550 H 720.633 6.06628 -3.42017 0
M  V30 7551 H 718.26 6.45542 -4.01471 0
M  V30 7552 N 719.835 0.176821 1.56605 0
M  V30 7553 C 721.246 -0.338963 1.83597 0
M  V30 7554 C 721.597 -1.62677 1.09684 0
M  V30 7555 O 720.722 -2.13524 0.351661 0
M  V30 7556 C 721.317 -0.62177 3.33046 0
M  V30 7557 C 719.876 -1.08198 3.60514 0
M  V30 7558 C 719.023 -0.120774 2.77037 0
M  V30 7559 H 721.974 0.400978 1.53551 0
M  V30 7560 H 721.995 -1.47321 3.50823 0
M  V30 7561 H 721.507 0.315692 3.86814 0
M  V30 7562 H 719.608 -2.03435 3.12162 0
M  V30 7563 H 719.721 -0.987329 4.68816 0
M  V30 7564 H 718.085 -0.619192 2.47059 0
M  V30 7565 H 718.868 0.810806 3.33588 0
M  V30 7566 N 721.313 -1.57302 -0.09688 0
M  V30 7567 C 722.561 -1.8563 -0.799117 0
M  V30 7568 C 722.882 -0.765263 -1.79356 0
M  V30 7569 O 722.152 0.208657 -1.94786 0
M  V30 7570 H 720.732 -0.684937 -0.298111 0
M  V30 7571 H 723.394 -1.9474 -0.0789341 0
M  V30 7572 H 722.49 -2.82305 -1.3308 0
M  V30 7573 N 722.791 0.367657 -1.53252 0
M  V30 7574 C 723.701 1.47415 -1.82499 0
M  V30 7575 C 724.717 1.58711 -0.713222 0
M  V30 7576 O 725.893 1.74644 -1.00306 0
M  V30 7577 C 722.958 2.82706 -2.00694 0
M  V30 7578 C 722.019 2.80955 -3.24596 0
M  V30 7579 C 721.252 4.09793 -3.41914 0
M  V30 7580 O 721.475 5.05852 -2.63572 0
M  V30 7581 O 720.409 4.15731 -4.3526 0
M  V30 7582 H 724.235 1.25624 -2.765 0
M  V30 7583 H 721.82 0.557559 -1.38606 0
M  V30 7584 H 723.702 3.62873 -2.14246 0
M  V30 7585 H 722.377 3.04479 -1.09883 0
M  V30 7586 H 721.284 1.99494 -3.16469 0
M  V30 7587 H 722.617 2.64136 -4.15323 0
M  V30 7588 N 724.269 1.44576 0.627338 0
M  V30 7589 C 725.685 1.28546 0.945938 0
M  V30 7590 C 725.885 0.224003 2.00251 0
M  V30 7591 O 724.941 -0.388817 2.49488 0
M  V30 7592 C 726.254 2.65825 1.40561 0
M  V30 7593 C 727.802 2.73566 1.52088 0
M  V30 7594 C 728.277 4.11323 2.01438 0
M  V30 7595 N 729.768 4.13519 2.08702 0
M  V30 7596 C 730.503 5.16964 2.48065 0
M  V30 7597 N 729.999 6.30768 2.86538 0
M  V30 7598 N 731.792 5.04319 2.48232 0
M  V30 7599 H 723.943 2.1228 -0.0713567 0
M  V30 7600 H 726.206 0.947503 0.0307081 0
M  V30 7601 H 725.912 3.44591 0.703539 0
M  V30 7602 H 725.786 2.92969 2.37591 0
M  V30 7603 H 728.173 1.95116 2.21391 0
M  V30 7604 H 728.254 2.50159 0.534237 0
M  V30 7605 H 727.898 4.9025 1.32729 0
M  V30 7606 H 727.828 4.32109 3.0098 0
M  V30 7607 H 730.319 3.31385 1.81638 0
M  V30 7608 H 730.632 7.0551 3.15398 0
M  V30 7609 H 728.977 6.342 2.84281 0
M  V30 7610 H 732.168 4.14465 2.17569 0
M  V30 7611 H 732.341 5.85059 2.78585 0
M  V30 7612 N 725.747 -0.868086 1.31537 0
M  V30 7613 C 726.993 -1.62367 1.2151 0
M  V30 7614 C 727.326 -1.92883 -0.225819 0
M  V30 7615 O 726.601 -1.56176 -1.15927 0
M  V30 7616 C 726.884 -2.95268 2.06129 0
M  V30 7617 C 726.737 -2.71619 3.58529 0
M  V30 7618 C 728.056 -3.96391 1.91212 0
M  V30 7619 H 725.175 -0.589178 0.442762 0
M  V30 7620 H 727.817 -1.00336 1.61347 0
M  V30 7621 H 725.967 -3.4821 1.72284 0
M  V30 7622 H 727.639 -2.25334 4.0252 0
M  V30 7623 H 725.882 -2.05817 3.81866 0
M  V30 7624 H 726.553 -3.66192 4.13047 0
M  V30 7625 H 729.029 -3.52663 2.20834 0
M  V30 7626 H 727.905 -4.87263 2.52718 0
M  V30 7627 H 728.166 -4.33335 0.875953 0
M  V30 7628 N 727.225 -1.14528 -1.08264 0
M  V30 7629 C 728.135 -0.84728 -2.18765 0
M  V30 7630 C 729.151 0.172826 -1.7314 0
M  V30 7631 O 730.327 0.000985336 -2.014 0
M  V30 7632 C 727.392 -0.330633 -3.4512 0
M  V30 7633 C 726.453 -1.41348 -4.05363 0
M  V30 7634 C 725.686 -0.921387 -5.25686 0
M  V30 7635 O 725.909 0.236587 -5.69909 0
M  V30 7636 O 724.843 -1.70101 -5.77364 0
M  V30 7637 H 728.669 -1.7708 -2.46731 0
M  V30 7638 H 726.254 -0.923661 -1.17426 0
M  V30 7639 H 728.136 -0.0485053 -4.21372 0
M  V30 7640 H 726.811 0.565147 -3.18728 0
M  V30 7641 H 725.718 -1.74908 -3.30693 0
M  V30 7642 H 727.051 -2.28383 -4.36007 0
M  V30 7643 N 728.703 1.26451 -0.940633 0
M  V30 7644 C 729.653 2.24086 -0.420669 0
M  V30 7645 C 730.637 1.53501 0.482301 0
M  V30 7646 O 731.829 1.74127 0.317636 0
M  V30 7647 C 728.958 3.41866 0.313452 0
M  V30 7648 C 728.044 4.19737 -0.606779 0
M  V30 7649 N 728.435 4.7521 -1.73232 0
M  V30 7650 C 726.733 4.44091 -0.41226 0
M  V30 7651 C 727.434 5.34052 -2.30572 0
M  V30 7652 N 726.41 5.1971 -1.59381 0
M  V30 7653 H 730.212 2.64569 -1.27986 0
M  V30 7654 H 727.726 1.4153 -0.796436 0
M  V30 7655 H 729.723 4.1093 0.702991 0
M  V30 7656 H 728.383 3.0291 1.16942 0
M  V30 7657 H 729.394 4.72769 -2.11447 0
M  V30 7658 H 726.071 4.1556 0.401984 0
M  V30 7659 H 727.461 5.87845 -3.25404 0
M  V30 7660 N 730.181 0.707592 1.40822 0
M  V30 7661 C 731.427 0.244031 2.01326 0
M  V30 7662 C 731.76 -1.15722 1.55955 0
M  V30 7663 O 731.035 -1.78347 0.776044 0
M  V30 7664 C 731.318 0.315128 3.58718 0
M  V30 7665 C 731.171 1.75419 4.14184 0
M  V30 7666 C 732.49 -0.318251 4.38948 0
M  V30 7667 H 729.609 0.0901471 0.731466 0
M  V30 7668 H 732.251 0.898584 1.67408 0
M  V30 7669 H 730.401 -0.242176 3.87744 0
M  V30 7670 H 732.073 2.36626 3.95987 0
M  V30 7671 H 730.316 2.28449 3.68773 0
M  V30 7672 H 730.987 1.75538 5.23345 0
M  V30 7673 H 733.463 0.156514 4.15806 0
M  V30 7674 H 732.339 -0.238019 5.48384 0
M  V30 7675 H 732.6 -1.40067 4.19325 0
M  V30 7676 N 731.66 -1.50943 0.453197 0
M  V30 7677 C 732.888 -2.06628 -0.106135 0
M  V30 7678 C 733.303 -1.31901 -1.35084 0
M  V30 7679 O 732.66 -0.383074 -1.78434 0
M  V30 7680 C 732.711 -3.5914 -0.412368 0
M  V30 7681 O 732.432 -4.31047 0.782948 0
M  V30 7682 C 733.933 -4.31391 -1.02064 0
M  V30 7683 H 731.153 -0.670999 -0.000885896 0
M  V30 7684 H 733.697 -1.94331 0.63684 0
M  V30 7685 H 731.852 -3.71299 -1.10526 0
M  V30 7686 H 732.266 -5.21948 0.516736 0
M  V30 7687 H 733.74 -5.39135 -1.1848 0
M  V30 7688 H 734.217 -3.90714 -2.00598 0
M  V30 7689 H 734.823 -4.23716 -0.366664 0
M  V30 7690 N 733.138 -0.185124 -1.56509 0
M  V30 7691 C 734.385 0.456258 -1.97293 0
M  V30 7692 C 734.713 1.62314 -1.07165 0
M  V30 7693 O 733.968 1.95398 -0.108621 0
M  V30 7694 C 734.267 0.967977 -3.44042 0
M  V30 7695 C 733.933 -0.084476 -4.50821 0
M  V30 7696 C 732.595 -0.373689 -4.79747 0
M  V30 7697 C 734.947 -0.79812 -5.15053 0
M  V30 7698 C 732.275 -1.3817 -5.70198 0
M  V30 7699 C 734.627 -1.79521 -6.06593 0
M  V30 7700 C 733.291 -2.09172 -6.3388 0
M  V30 7701 H 732.561 0.166957 -0.721946 0
M  V30 7702 H 735.208 -0.279992 -1.89442 0
M  V30 7703 H 733.513 1.78231 -3.48914 0
M  V30 7704 H 735.21 1.47347 -3.72948 0
M  V30 7705 H 731.8 0.15111 -4.28334 0
M  V30 7706 H 735.984 -0.587903 -4.92806 0
M  V30 7707 H 731.24 -1.61745 -5.89617 0
M  V30 7708 H 735.414 -2.35347 -6.55427 0
M  V30 7709 H 733.041 -2.87427 -7.03768 0
M  V30 7710 N 734.616 1.57351 0.0885366 0
M  V30 7711 C 735.564 2.03542 1.12576 0
M  V30 7712 C 736.558 0.937668 1.41082 0
M  V30 7713 O 737.764 1.12283 1.40686 0
M  V30 7714 H 734.139 0.648752 0.380296 0
M  V30 7715 H 736.11 2.89833 0.709906 0
M  V30 7716 C 734.859 2.4811 2.43591 0
M  V30 7717 H 734.182 3.32164 2.22502 0
M  V30 7718 H 735.622 2.842 3.14653 0
M  V30 7719 C 734.081 1.35708 3.08359 0
M  V30 7720 O 734.611 0.689852 3.95732 0
M  V30 7721 N 732.817 1.10641 2.68713 0
M  V30 7722 H 732.364 1.6508 1.97753 0
M  V30 7723 H 732.322 0.356355 3.12374 0
M  V30 7724 N 736.094 -0.359525 1.53444 0
M  V30 7725 C 737.341 -1.10152 1.6992 0
M  V30 7726 C 737.669 -1.89125 0.4541 0
M  V30 7727 O 736.924 -1.87396 -0.564023 0
M  V30 7728 C 737.223 -2.08287 2.90433 0
M  V30 7729 C 736.889 -1.45749 4.26694 0
M  V30 7730 C 735.551 -1.28421 4.63747 0
M  V30 7731 C 737.903 -1.00557 5.11408 0
M  V30 7732 C 735.231 -0.644951 5.83144 0
M  V30 7733 C 737.583 -0.380288 6.31456 0
M  V30 7734 C 736.247 -0.194557 6.67216 0
M  V30 7735 H 735.517 -0.403076 0.621781 0
M  V30 7736 H 738.164 -0.382612 1.87639 0
M  V30 7737 H 736.469 -2.86503 2.67251 0
M  V30 7738 H 738.166 -2.65662 3.00374 0
M  V30 7739 H 734.756 -1.6023 3.97523 0
M  V30 7740 H 738.94 -1.12735 4.83326 0
M  V30 7741 H 734.196 -0.48952 6.09437 0
M  V30 7742 H 738.37 -0.0219455 6.96397 0
M  V30 7743 H 735.997 0.30285 7.59597 0
M  V30 7744 N 737.572 -1.44907 -0.619662 0
M  V30 7745 C 738.8 -1.51795 -1.40591 0
M  V30 7746 C 739.215 -0.146553 -1.8823 0
M  V30 7747 O 738.572 0.849698 -1.61513 0
M  V30 7748 C 738.623 -2.49229 -2.61853 0
M  V30 7749 O 738.344 -3.81039 -2.16197 0
M  V30 7750 C 739.845 -2.65696 -3.54853 0
M  V30 7751 H 737.065 -0.514463 -0.430777 0
M  V30 7752 H 739.609 -1.8998 -0.756813 0
M  V30 7753 H 737.764 -2.14149 -3.2283 0
M  V30 7754 H 738.178 -4.33747 -2.94896 0
M  V30 7755 H 739.652 -3.37874 -4.36515 0
M  V30 7756 H 740.129 -1.71316 -4.0441 0
M  V30 7757 H 740.735 -3.01724 -2.99737 0
M  V30 7758 N 739.05 0.861098 -1.31996 0
M  V30 7759 C 739.98 1.98482 -1.22993 0
M  V30 7760 C 740.961 1.6971 -0.115168 0
M  V30 7761 O 742.146 1.91849 -0.30126 0
M  V30 7762 C 739.276 3.34179 -0.945615 0
M  V30 7763 C 738.23 3.77284 -2.02091 0
M  V30 7764 C 737.556 5.1054 -1.58912 0
M  V30 7765 C 738.856 3.93439 -3.43515 0
M  V30 7766 H 740.55 2.06271 -2.17008 0
M  V30 7767 H 738.096 0.991043 -1.04472 0
M  V30 7768 H 740.049 4.12338 -0.869206 0
M  V30 7769 H 738.773 3.26586 0.0301849 0
M  V30 7770 H 737.432 3.01371 -2.08737 0
M  V30 7771 H 737.08 4.99397 -0.600942 0
M  V30 7772 H 736.78 5.40352 -2.30854 0
M  V30 7773 H 738.304 5.91199 -1.52696 0
M  V30 7774 H 739.718 4.6197 -3.39495 0
M  V30 7775 H 738.115 4.34661 -4.13751 0
M  V30 7776 H 739.185 2.96548 -3.8365 0
M  V30 7777 N 740.528 1.15101 1.07655 0
M  V30 7778 C 741.438 0.858869 2.18313 0
M  V30 7779 C 742.454 -0.163641 1.73229 0
M  V30 7780 O 743.63 0.00969541 2.01398 0
M  V30 7781 C 740.695 0.34893 3.4494 0
M  V30 7782 C 739.756 1.43495 4.04608 0
M  V30 7783 C 738.989 0.949253 5.2519 0
M  V30 7784 O 739.212 -0.20636 5.70027 0
M  V30 7785 O 738.146 1.73161 5.76454 0
M  V30 7786 H 741.972 1.78386 2.45788 0
M  V30 7787 H 739.557 0.929876 1.16934 0
M  V30 7788 H 741.439 0.070851 4.2134 0
M  V30 7789 H 740.114 -0.548237 3.19024 0
M  V30 7790 H 739.021 1.7666 3.29761 0
M  V30 7791 H 740.354 2.30692 4.3479 0
M  V30 7792 N 742.006 -1.2595 0.947325 0
M  V30 7793 C 742.954 -2.28152 0.452687 0
M  V30 7794 C 743.948 -1.62655 -0.473239 0
M  V30 7795 O 745.154 -1.76549 -0.350774 0
M  V30 7796 H 741.529 -0.741049 0.12787 0
M  V30 7797 H 743.5 -2.67267 1.32707 0
M  V30 7798 C 742.249 -3.46719 -0.26098 0
M  V30 7799 H 741.572 -3.97345 0.442352 0
M  V30 7800 H 743.012 -4.20135 -0.571208 0
M  V30 7801 C 741.471 -3.02605 -1.48094 0
M  V30 7802 O 742.001 -3.07979 -2.57899 0
M  V30 7803 N 740.207 -2.57877 -1.33969 0
M  V30 7804 H 739.754 -2.53704 -0.446295 0
M  V30 7805 H 739.712 -2.28725 -2.15713 0
M  V30 7806 N 743.484 -0.715051 -1.40445 0
M  V30 7807 C 744.416 -0.0227516 -2.29189 0
M  V30 7808 C 745.429 0.724313 -1.458 0
M  V30 7809 O 746.618 0.571781 -1.69094 0
M  V30 7810 C 743.718 0.992038 -3.24055 0
M  V30 7811 C 742.891 0.310613 -4.36296 0
M  V30 7812 C 741.95 1.23071 -5.11605 0
M  V30 7813 O 740.976 0.71571 -5.64682 0
M  V30 7814 N 742.178 2.56188 -5.2091 0
M  V30 7815 H 744.943 -0.78473 -2.89244 0
M  V30 7816 H 742.504 -0.562637 -1.51809 0
M  V30 7817 H 744.496 1.60973 -3.71308 0
M  V30 7818 H 743.066 1.65538 -2.65171 0
M  V30 7819 H 742.286 -0.487269 -3.91177 0
M  V30 7820 H 743.574 -0.162415 -5.08541 0
M  V30 7821 H 742.972 3.00527 -4.7927 0
M  V30 7822 H 741.529 3.13103 -5.71673 0
M  V30 7823 N 744.962 1.50701 -0.461195 0
M  V30 7824 C 746.211 2.01458 0.0988277 0
M  V30 7825 C 746.524 1.34863 1.41673 0
M  V30 7826 O 747.73 1.76721 2.06111 0
M  V30 7827 C 746.186 3.59186 0.226648 0
M  V30 7828 C 745.794 4.34732 -1.08223 0
M  V30 7829 C 747.538 4.18015 0.73916 0
M  V30 7830 C 745.445 5.8422 -0.918747 0
M  V30 7831 H 744.375 0.7529 0.040709 0
M  V30 7832 H 747.026 1.736 -0.594589 0
M  V30 7833 H 745.408 3.83589 0.983621 0
M  V30 7834 H 746.582 4.22059 -1.84939 0
M  V30 7835 H 744.897 3.87466 -1.52509 0
M  V30 7836 H 747.494 5.27436 0.878347 0
M  V30 7837 H 747.837 3.78746 1.72793 0
M  V30 7838 H 748.37 3.9778 0.0398469 0
M  V30 7839 H 745.109 6.27944 -1.88059 0
M  V30 7840 H 744.629 5.99493 -0.191801 0
M  V30 7841 H 746.308 6.44382 -0.581405 0
M  V30 7842 N 746.441 0.193421 1.56409 0
M  V30 7843 C 747.391 -0.74089 2.15627 0
M  V30 7844 C 748.375 -1.17747 1.09656 0
M  V30 7845 O 749.567 -1.13615 1.35723 0
M  V30 7846 C 746.696 -1.96091 2.81786 0
M  V30 7847 C 745.782 -1.54531 3.94944 0
M  V30 7848 N 746.173 -0.840569 4.98767 0
M  V30 7849 C 744.471 -1.83473 4.06514 0
M  V30 7850 C 745.172 -0.632571 5.7825 0
M  V30 7851 N 744.148 -1.18078 5.30621 0
M  V30 7852 H 747.95 -0.193718 2.93261 0
M  V30 7853 H 745.464 -0.00643211 1.62399 0
M  V30 7854 H 747.461 -2.64071 3.22602 0
M  V30 7855 H 746.121 -2.51282 2.05639 0
M  V30 7856 H 747.132 -0.496218 5.15517 0
M  V30 7857 H 743.809 -2.40184 3.41493 0
M  V30 7858 H 745.199 -0.0736433 6.7186 0
M  V30 7859 N 747.919 -1.57396 -0.0801906 0
M  V30 7860 C 749.335 -1.53564 -0.434778 0
M  V30 7861 C 749.535 -0.912372 -1.79661 0
M  V30 7862 O 748.591 -0.511268 -2.4727 0
M  V30 7863 C 749.904 -2.98244 -0.383561 0
M  V30 7864 C 751.452 -3.09536 -0.46435 0
M  V30 7865 C 751.927 -4.55851 -0.443128 0
M  V30 7866 N 753.418 -4.60456 -0.503448 0
M  V30 7867 C 754.153 -5.71135 -0.509106 0
M  V30 7868 N 753.649 -6.91203 -0.47008 0
M  V30 7869 N 755.442 -5.59353 -0.555035 0
M  V30 7870 H 747.593 -1.96281 0.811635 0
M  V30 7871 H 749.856 -0.898041 0.303689 0
M  V30 7872 H 749.562 -3.47369 0.550236 0
M  V30 7873 H 749.436 -3.57705 -1.19694 0
M  V30 7874 H 751.823 -2.6039 -1.38857 0
M  V30 7875 H 751.904 -2.53 0.377445 0
M  V30 7876 H 751.548 -5.05653 0.477207 0
M  V30 7877 H 751.478 -5.10242 -1.30234 0
M  V30 7878 H 753.969 -3.74048 -0.538199 0
M  V30 7879 H 754.282 -7.7132 -0.478091 0
M  V30 7880 H 752.627 -6.93625 -0.436897 0
M  V30 7881 H 755.818 -4.64453 -0.583158 0
M  V30 7882 H 755.991 -6.4561 -0.555976 0
M  V30 7883 N 749.397 0.351382 -1.53633 0
M  V30 7884 C 750.645 1.09034 -1.70165 0
M  V30 7885 C 750.966 1.89413 -0.463422 0
M  V30 7886 O 750.236 1.888 0.522624 0
M  V30 7887 H 748.816 0.405522 -0.627344 0
M  V30 7888 H 751.478 0.394554 -1.90865 0
M  V30 7889 H 750.574 1.77215 -2.56907 0
M  V30 7890 N 750.875 1.45233 0.611969 0
M  V30 7891 C 752.123 1.48727 1.36838 0
M  V30 7892 C 752.444 0.128616 1.94575 0
M  V30 7893 O 751.714 -0.84149 1.76906 0
M  V30 7894 H 750.294 0.547695 0.507976 0
M  V30 7895 H 752.956 1.81156 0.718925 0
M  V30 7896 H 752.052 2.2236 2.19003 0
M  V30 7897 N 752.353 -0.854086 1.3245 0
M  V30 7898 C 753.285 -1.96932 1.17262 0
M  V30 7899 C 754.298 -1.62445 0.107469 0
M  V30 7900 O 755.487 -1.74904 0.356481 0
M  V30 7901 C 752.587 -3.29971 0.772817 0
M  V30 7902 C 751.76 -3.92695 1.92638 0
M  V30 7903 C 750.819 -5.04068 1.51003 0
M  V30 7904 O 749.845 -5.24032 2.22213 0
M  V30 7905 N 751.047 -5.79076 0.406371 0
M  V30 7906 H 753.812 -2.10503 2.13327 0
M  V30 7907 H 751.373 -1.02897 1.24995 0
M  V30 7908 H 753.365 -4.01883 0.476684 0
M  V30 7909 H 751.935 -3.1245 -0.0967 0
M  V30 7910 H 751.155 -3.13563 2.38897 0
M  V30 7911 H 752.443 -4.31337 2.69863 0
M  V30 7912 H 751.841 -5.65393 -0.186302 0
M  V30 7913 H 750.398 -6.51579 0.169846 0
M  V30 7914 N 753.831 -1.1567 -1.07043 0
M  V30 7915 C 755.061 -0.956083 -1.83146 0
M  V30 7916 C 755.469 0.498969 -1.82502 0
M  V30 7917 O 754.812 1.35791 -1.23719 0
M  V30 7918 C 754.874 -1.39704 -3.31245 0
M  V30 7919 C 754.538 -2.87045 -3.55604 0
M  V30 7920 C 755.535 -3.85092 -3.49285 0
M  V30 7921 C 753.22 -3.24787 -3.8317 0
M  V30 7922 C 755.214 -5.18885 -3.70185 0
M  V30 7923 C 752.901 -4.58751 -4.03721 0
M  V30 7924 C 753.899 -5.55609 -3.97224 0
M  V30 7925 O 753.587 -6.87154 -4.17223 0
M  V30 7926 H 753.319 -0.339473 -0.58458 0
M  V30 7927 H 755.873 -1.53922 -1.36005 0
M  V30 7928 H 754.103 -0.757326 -3.79212 0
M  V30 7929 H 755.792 -1.16503 -3.88821 0
M  V30 7930 H 756.558 -3.5728 -3.27988 0
M  V30 7931 H 752.437 -2.49979 -3.87339 0
M  V30 7932 H 755.981 -5.94473 -3.6503 0
M  V30 7933 H 751.878 -4.86277 -4.24505 0
M  V30 7934 H 752.646 -6.93618 -4.34553 0
M  V30 7935 N 755.309 1.25446 -0.953992 0
M  V30 7936 C 756.556 1.93143 -0.608429 0
M  V30 7937 C 756.884 1.74727 0.854451 0
M  V30 7938 O 756.139 1.0855 1.62836 0
M  V30 7939 C 756.438 3.45555 -0.912496 0
M  V30 7940 C 756.104 3.84126 -2.36131 0
M  V30 7941 C 754.766 3.94367 -2.75732 0
M  V30 7942 C 757.118 4.0324 -3.30223 0
M  V30 7943 C 754.446 4.21127 -4.08496 0
M  V30 7944 C 756.798 4.31493 -4.62598 0
M  V30 7945 C 755.462 4.3995 -5.01996 0
M  V30 7946 H 754.732 0.706762 -0.22264 0
M  V30 7947 H 757.379 1.49005 -1.20291 0
M  V30 7948 H 755.684 3.91091 -0.235618 0
M  V30 7949 H 757.381 3.9612 -0.623714 0
M  V30 7950 H 753.971 3.76711 -2.04418 0
M  V30 7951 H 758.155 3.94744 -3.00817 0
M  V30 7952 H 753.411 4.2589 -4.38665 0
M  V30 7953 H 757.585 4.45227 -5.35486 0
M  V30 7954 H 755.212 4.60439 -6.04896 0
M  V30 7955 N 756.787 0.722489 1.40064 0
M  V30 7956 C 757.735 0.063329 2.32514 0
M  V30 7957 C 758.729 -0.73953 1.52405 0
M  V30 7958 O 759.935 -0.642122 1.68157 0
M  V30 7959 H 756.31 0.00167692 0.751998 0
M  V30 7960 H 758.281 0.859656 2.85749 0
M  V30 7961 C 757.03 -0.839219 3.3742 0
M  V30 7962 H 756.353 -0.230836 3.99133 0
M  V30 7963 H 757.793 -1.26827 4.04587 0
M  V30 7964 C 756.252 -1.96783 2.73456 0
M  V30 7965 O 756.782 -3.05933 2.60323 0
M  V30 7966 N 754.988 -1.75351 2.31734 0
M  V30 7967 H 754.535 -0.865787 2.42615 0
M  V30 7968 H 754.493 -2.51043 1.89275 0
M  V30 7969 N 758.265 -1.50454 0.469181 0
M  V30 7970 C 759.542 -1.9504 -0.147955 0
M  V30 7971 C 759.922 -1.40946 -1.57154 0
M  V30 7972 O 759.27 -0.609663 -2.20217 0
M  V30 7973 C 759.48 -3.48875 -0.0932198 0
M  V30 7974 C 760.828 -4.23655 -0.283056 0
M  V30 7975 O 761.852 -3.55795 -0.169892 0
M  V30 7976 O 760.711 -5.44102 -0.511396 0
M  V30 7977 H 757.805 -0.819283 -0.11271 0
M  V30 7978 H 760.351 -1.6123 0.529446 0
M  V30 7979 H 759.123 -3.80791 0.900784 0
M  V30 7980 H 758.746 -3.89217 -0.812161 0
M  V30 7981 N 759.743 -0.201713 -1.56304 0
M  V30 7982 C 760.69 0.716499 -2.19397 0
M  V30 7983 C 761.66 1.20494 -1.14326 0
M  V30 7984 O 762.845 1.26763 -1.42604 0
M  V30 7985 C 759.985 1.92762 -2.86246 0
M  V30 7986 C 759.098 1.47993 -4.0586 0
M  V30 7987 C 758.233 2.64706 -4.60547 0
M  V30 7988 C 757.272 2.16576 -5.72504 0
M  V30 7989 N 756.409 3.26491 -6.21569 0
M  V30 7990 H 761.249 0.171724 -2.97505 0
M  V30 7991 H 758.786 0.073016 -1.46919 0
M  V30 7992 H 760.744 2.6384 -3.23178 0
M  V30 7993 H 759.374 2.44559 -2.10691 0
M  V30 7994 H 758.426 0.66477 -3.74546 0
M  V30 7995 H 759.738 1.08686 -4.86815 0
M  V30 7996 H 758.892 3.43898 -4.99819 0
M  V30 7997 H 757.631 3.0729 -3.78713 0
M  V30 7998 H 756.636 1.3584 -5.32755 0
M  V30 7999 H 757.861 1.75015 -6.56161 0
M  V30 8000 H 755.807 3.68594 -5.42655 0
M  V30 8001 H 755.724 2.91374 -6.97594 0
M  V30 8002 H 756.992 4.05877 -6.65495 0
M  V30 8003 N 761.222 1.57436 0.0718424 0
M  V30 8004 C 762.469 1.87248 0.771007 0
M  V30 8005 C 762.797 0.793441 1.7758 0
M  V30 8006 O 762.052 -0.210565 1.94564 0
M  V30 8007 C 762.351 3.23723 1.51455 0
M  V30 8008 C 762.017 4.46194 0.649736 0
M  V30 8009 C 760.679 4.79438 0.411409 0
M  V30 8010 C 763.031 5.21176 0.05004 0
M  V30 8011 C 760.359 5.85077 -0.436096 0
M  V30 8012 C 762.711 6.27712 -0.784919 0
M  V30 8013 C 761.375 6.59457 -1.03312 0
M  V30 8014 H 760.645 0.685188 0.282132 0
M  V30 8015 H 763.292 1.91474 0.0317896 0
M  V30 8016 H 761.597 3.15287 2.32597 0
M  V30 8017 H 763.294 3.44023 2.06031 0
M  V30 8018 H 759.884 4.20175 0.84562 0
M  V30 8019 H 764.068 4.95806 0.221282 0
M  V30 8020 H 759.324 6.08071 -0.637136 0
M  V30 8021 H 763.498 6.84974 -1.25635 0
M  V30 8022 H 761.125 7.4114 -1.6916 0
M  V30 8023 N 762.7 -0.34323 1.53817 0
M  V30 8024 C 763.949 -1.08086 1.70295 0
M  V30 8025 C 764.262 -1.89794 0.47302 0
M  V30 8026 O 765.468 -2.66498 0.518754 0
M  V30 8027 C 763.924 -1.97097 3.01133 0
M  V30 8028 C 763.532 -1.20594 4.31464 0
M  V30 8029 C 765.276 -2.70715 3.26976 0
M  V30 8030 C 763.183 -2.08636 5.53376 0
M  V30 8031 H 762.113 -0.407228 0.634572 0
M  V30 8032 H 764.764 -0.340328 1.80316 0
M  V30 8033 H 763.146 -2.74971 2.84969 0
M  V30 8034 H 764.32 -0.476282 4.58332 0
M  V30 8035 H 762.635 -0.587426 4.12236 0
M  V30 8036 H 765.232 -3.36857 4.15248 0
M  V30 8037 H 765.575 -3.37299 2.43998 0
M  V30 8038 H 766.108 -1.99914 3.43917 0
M  V30 8039 H 762.847 -1.46594 6.38898 0
M  V30 8040 H 762.367 -2.7939 5.30755 0
M  V30 8041 H 764.046 -2.67682 5.89029 0
M  V30 8042 N 764.178 -1.45556 -0.604258 0
M  V30 8043 C 765.426 -1.4945 -1.36048 0
M  V30 8044 C 765.747 -0.138933 -1.94504 0
M  V30 8045 O 765.017 0.832097 -1.7735 0
M  V30 8046 H 763.597 -0.550381 -0.505064 0
M  V30 8047 H 766.259 -1.81535 -0.709308 0
M  V30 8048 H 765.355 -2.23519 -2.17821 0
M  V30 8049 N 765.656 0.84705 -1.32902 0
M  V30 8050 C 766.586 1.97166 -1.25091 0
M  V30 8051 C 767.567 1.69578 -0.133161 0
M  V30 8052 O 768.752 1.91519 -0.321591 0
M  V30 8053 C 765.882 3.33157 -0.981006 0
M  V30 8054 C 764.836 3.75119 -2.06082 0
M  V30 8055 C 764.162 5.08826 -1.64318 0
M  V30 8056 C 765.462 3.89774 -3.47669 0
M  V30 8057 H 767.156 2.03958 -2.19184 0
M  V30 8058 H 764.702 0.979907 -1.05517 0
M  V30 8059 H 766.655 4.11393 -0.912891 0
M  V30 8060 H 765.379 3.266 -0.00445559 0
M  V30 8061 H 764.038 2.9914 -2.11921 0
M  V30 8062 H 763.686 4.98732 -0.653876 0
M  V30 8063 H 763.386 5.37873 -2.36572 0
M  V30 8064 H 764.91 5.89546 -1.58958 0
M  V30 8065 H 766.324 4.58343 -3.44376 0
M  V30 8066 H 764.721 4.30248 -4.18338 0
M  V30 8067 H 765.791 2.92463 -3.86773 0
M  V30 8068 N 767.134 1.16236 1.06428 0
M  V30 8069 C 768.55 0.906983 1.31324 0
M  V30 8070 C 768.75 -0.440872 1.96618 0
M  V30 8071 O 767.806 -1.1807 2.23194 0
M  V30 8072 C 769.119 2.05501 2.19522 0
M  V30 8073 C 770.667 2.09061 2.32943 0
M  V30 8074 C 771.142 3.23214 3.24495 0
M  V30 8075 N 772.633 3.22922 3.32078 0
M  V30 8076 C 773.368 4.07889 4.03006 0
M  V30 8077 N 772.864 5.02941 4.76469 0
M  V30 8078 N 774.657 3.95881 3.99043 0
M  V30 8079 H 766.808 2.03015 0.624388 0
M  V30 8080 H 769.071 0.88576 0.337835 0
M  V30 8081 H 768.777 3.02847 1.78819 0
M  V30 8082 H 768.651 1.99538 3.201 0
M  V30 8083 H 771.038 1.12308 2.72893 0
M  V30 8084 H 771.119 2.19089 1.32037 0
M  V30 8085 H 770.763 4.20225 2.85261 0
M  V30 8086 H 770.693 3.10423 4.25377 0
M  V30 8087 H 773.184 2.54093 2.79724 0
M  V30 8088 H 773.497 5.64196 5.28112 0
M  V30 8089 H 771.842 5.06922 4.75453 0
M  V30 8090 H 775.033 3.20927 3.40769 0
M  V30 8091 H 775.206 4.62321 4.54052 0
M  V30 8092 N 768.612 -1.24939 0.960631 0
M  V30 8093 C 769.542 -2.28 0.503815 0
M  V30 8094 C 770.523 -1.63959 -0.452928 0
M  V30 8095 O 771.708 -1.91009 -0.350585 0
M  V30 8096 C 768.838 -3.46643 -0.213535 0
M  V30 8097 C 767.792 -4.22903 0.658535 0
M  V30 8098 C 767.118 -5.34363 -0.189902 0
M  V30 8099 C 768.418 -4.84949 1.93963 0
M  V30 8100 H 770.112 -2.66462 1.36521 0
M  V30 8101 H 767.658 -1.28093 0.657897 0
M  V30 8102 H 769.611 -4.1787 -0.544286 0
M  V30 8103 H 768.335 -3.07187 -1.10923 0
M  V30 8104 H 766.994 -3.53467 0.972455 0
M  V30 8105 H 766.642 -4.91147 -1.08553 0
M  V30 8106 H 766.342 -5.86302 0.390331 0
M  V30 8107 H 767.866 -6.0842 -0.515484 0
M  V30 8108 H 769.28 -5.48288 1.67491 0
M  V30 8109 H 767.677 -5.47091 2.46601 0
M  V30 8110 H 768.747 -4.06799 2.639 0
M  V30 8111 N 770.09 -0.729906 -1.39679 0
M  V30 8112 C 771.037 -0.0866063 -2.30637 0
M  V30 8113 C 772.007 0.735115 -1.48947 0
M  V30 8114 O 773.192 0.696125 -1.77648 0
M  V30 8115 C 770.332 0.818524 -3.35252 0
M  V30 8116 C 769.445 -0.0152635 -4.31997 0
M  V30 8117 C 768.58 0.890669 -5.2368 0
M  V30 8118 C 767.619 0.0518246 -6.12078 0
M  V30 8119 N 766.756 0.913411 -6.96133 0
M  V30 8120 H 771.596 -0.867925 -2.85081 0
M  V30 8121 H 769.133 -0.439673 -1.40376 0
M  V30 8122 H 771.091 1.3577 -3.9449 0
M  V30 8123 H 769.721 1.56587 -2.82277 0
M  V30 8124 H 768.773 -0.671794 -3.74421 0
M  V30 8125 H 770.085 -0.664086 -4.9436 0
M  V30 8126 H 769.239 1.49787 -5.87919 0
M  V30 8127 H 767.978 1.57328 -4.61627 0
M  V30 8128 H 766.983 -0.568209 -5.46856 0
M  V30 8129 H 768.208 -0.627497 -6.76195 0
M  V30 8130 H 766.154 1.58141 -6.36653 0
M  V30 8131 H 766.071 0.320952 -7.55318 0
M  V30 8132 H 767.339 1.50633 -7.64807 0
M  V30 8133 N 771.568 1.50203 -0.477153 0
M  V30 8134 C 772.793 2.07263 0.0754986 0
M  V30 8135 C 773.218 1.33801 1.32208 0
M  V30 8136 O 772.576 0.387482 1.77111 0
M  V30 8137 C 772.624 3.59028 0.336348 0
M  V30 8138 O 771.728 3.87339 1.4157 0
M  V30 8139 H 771.069 0.663815 -0.015662 0
M  V30 8140 H 773.599 1.93321 -0.669936 0
M  V30 8141 H 773.609 4.03927 0.575034 0
M  V30 8142 H 772.284 4.11912 -0.574551 0
M  V30 8143 H 770.861 3.54272 1.16385 0
M  V30 8144 N 773.046 0.209999 1.56195 0
M  V30 8145 C 774.292 -0.425442 1.98287 0
M  V30 8146 C 774.625 -1.60232 1.09724 0
M  V30 8147 O 773.9 -1.93902 0.152414 0
M  V30 8148 C 774.183 -0.871189 3.49403 0
M  V30 8149 C 774.036 0.308527 4.48741 0
M  V30 8150 C 775.355 -1.73146 4.04609 0
M  V30 8151 H 772.474 -0.153169 0.720908 0
M  V30 8152 H 775.116 0.303916 1.87554 0
M  V30 8153 H 773.266 -1.49266 3.58681 0
M  V30 8154 H 774.938 0.946487 4.51486 0
M  V30 8155 H 773.181 0.957878 4.23092 0
M  V30 8156 H 773.852 -0.0461143 5.51981 0
M  V30 8157 H 776.328 -1.2072 3.98203 0
M  V30 8158 H 775.204 -2.01228 5.10684 0
M  V30 8159 H 775.465 -2.69083 3.5078 0
M  V30 8160 N 774.524 -1.57472 -0.0634922 0
M  V30 8161 C 775.749 -1.92273 -0.77756 0
M  V30 8162 C 776.174 -0.807141 -1.69902 0
M  V30 8163 O 775.532 0.239523 -1.79711 0
M  V30 8164 C 775.58 -3.26054 -1.54017 0
M  V30 8165 O 774.684 -3.15873 -2.65138 0
M  V30 8166 H 774.025 -0.629389 -0.211579 0
M  V30 8167 H 776.555 -2.04579 -0.0292523 0
M  V30 8168 H 776.565 -3.60127 -1.91763 0
M  V30 8169 H 775.24 -4.06824 -0.864128 0
M  V30 8170 H 773.817 -2.93373 -2.30189 0
M  V30 8171 N 776.003 0.335068 -1.53997 0
M  V30 8172 C 777.25 1.07435 -1.71651 0
M  V30 8173 C 777.578 1.88378 -0.48413 0
M  V30 8174 O 776.833 1.8827 0.534139 0
M  V30 8175 C 777.132 2.0364 -2.9371 0
M  V30 8176 C 776.798 1.38942 -4.28959 0
M  V30 8177 C 775.46 1.21027 -4.65732 0
M  V30 8178 C 777.812 0.924083 -5.12943 0
M  V30 8179 C 775.14 0.552097 -5.84097 0
M  V30 8180 C 777.492 0.27978 -6.31981 0
M  V30 8181 C 776.156 0.0883843 -6.67441 0
M  V30 8182 H 775.426 0.393133 -0.628114 0
M  V30 8183 H 778.073 0.352712 -1.88224 0
M  V30 8184 H 776.378 2.82215 -2.71775 0
M  V30 8185 H 778.075 2.6085 -3.04562 0
M  V30 8186 H 774.665 1.53885 -4.00022 0
M  V30 8187 H 778.849 1.05032 -4.85059 0
M  V30 8188 H 774.105 0.392502 -6.10139 0
M  V30 8189 H 778.279 -0.0888479 -6.96343 0
M  V30 8190 H 775.906 -0.423657 -7.59019 0
M  V30 8191 N 777.481 1.45874 0.596531 0
M  V30 8192 C 778.391 1.57947 1.73464 0
M  V30 8193 C 779.407 0.463461 1.67714 0
M  V30 8194 O 780.583 0.725685 1.87872 0
M  V30 8195 C 777.648 1.55348 3.09948 0
M  V30 8196 C 776.709 2.78074 3.27068 0
M  V30 8197 C 775.942 2.75589 4.57041 0
M  V30 8198 O 776.165 1.83545 5.40063 0
M  V30 8199 O 775.099 3.66945 4.77111 0
M  V30 8200 H 778.925 2.54169 1.66228 0
M  V30 8201 H 776.51 1.2851 0.76194 0
M  V30 8202 H 778.392 1.56545 3.91244 0
M  V30 8203 H 777.067 0.622811 3.17652 0
M  V30 8204 H 775.974 2.82435 2.45319 0
M  V30 8205 H 777.307 3.70303 3.24248 0
M  V30 8206 N 778.959 -0.83999 1.33349 0
M  V30 8207 C 780.236 -1.57973 1.15342 0
M  V30 8208 C 780.616 -2.09226 -0.280632 0
M  V30 8209 O 779.964 -1.89317 -1.2795 0
M  V30 8210 C 780.174 -2.71446 2.19359 0
M  V30 8211 C 781.522 -3.40654 2.53456 0
M  V30 8212 O 782.546 -2.81686 2.18017 0
M  V30 8213 O 781.405 -4.47101 3.14266 0
M  V30 8214 H 778.499 -0.6964 0.446044 0
M  V30 8215 H 781.045 -0.882843 1.44927 0
M  V30 8216 H 779.817 -2.31205 3.1569 0
M  V30 8217 H 779.44 -3.488 1.90852 0
M  V30 8218 N 780.437 -1.16799 -1.0581 0
M  V30 8219 C 781.662 -0.977402 -1.82925 0
M  V30 8220 C 782.087 0.469514 -1.82146 0
M  V30 8221 O 781.445 1.33576 -1.22585 0
M  V30 8222 C 781.493 -1.51543 -3.27211 0
M  V30 8223 O 780.597 -0.725021 -4.05977 0
M  V30 8224 H 779.938 -0.347474 -0.565825 0
M  V30 8225 H 782.468 -1.55151 -1.33376 0
M  V30 8226 H 782.478 -1.53502 -3.78023 0
M  V30 8227 H 781.153 -2.56872 -3.27093 0
M  V30 8228 H 779.73 -0.77634 -3.64729 0
M  V30 8229 N 781.915 1.24427 -0.967243 0
M  V30 8230 C 782.845 2.2773 -0.515899 0
M  V30 8231 C 783.826 1.64197 0.444227 0
M  V30 8232 O 785.011 1.91193 0.340451 0
M  V30 8233 C 782.141 3.46751 0.195149 0
M  V30 8234 C 781.095 4.22548 -0.680953 0
M  V30 8235 C 780.421 5.34456 0.161561 0
M  V30 8236 C 781.721 4.83914 -1.96532 0
M  V30 8237 H 783.415 2.65735 -1.37933 0
M  V30 8238 H 780.961 1.27742 -0.664681 0
M  V30 8239 H 782.914 4.18153 0.522117 0
M  V30 8240 H 781.638 3.07771 1.09292 0
M  V30 8241 H 780.297 3.52946 -0.991186 0
M  V30 8242 H 779.945 4.91716 1.05947 0
M  V30 8243 H 779.645 5.86087 -0.421418 0
M  V30 8244 H 781.169 6.08685 0.483211 0
M  V30 8245 H 782.583 5.47392 -1.70396 0
M  V30 8246 H 780.98 5.45775 -2.49499 0
M  V30 8247 H 782.05 4.05393 -2.66053 0
M  V30 8248 N 783.393 0.737304 1.3929 0
M  V30 8249 C 784.64 0.286257 2.00467 0
M  V30 8250 C 784.968 -1.1272 1.58507 0
M  V30 8251 O 784.223 -1.7832 0.806257 0
M  V30 8252 C 784.522 0.338438 3.55794 0
M  V30 8253 C 784.188 1.70524 4.17411 0
M  V30 8254 C 782.85 2.07934 4.33955 0
M  V30 8255 C 785.202 2.60256 4.51571 0
M  V30 8256 C 782.53 3.34578 4.81948 0
M  V30 8257 C 784.882 3.86275 5.00974 0
M  V30 8258 C 783.546 4.23774 5.15725 0
M  V30 8259 H 782.816 0.104749 0.733559 0
M  V30 8260 H 785.463 0.944598 1.66582 0
M  V30 8261 H 783.768 -0.403478 3.89717 0
M  V30 8262 H 785.465 -0.0287255 4.0099 0
M  V30 8263 H 782.055 1.40439 4.04938 0
M  V30 8264 H 786.239 2.32624 4.38406 0
M  V30 8265 H 781.495 3.63572 4.91554 0
M  V30 8266 H 785.669 4.5596 5.26378 0
M  V30 8267 H 783.296 5.21972 5.52674 0
M  V30 8268 N 784.871 -1.49948 0.485112 0
M  V30 8269 C 785.781 -2.32587 -0.306697 0
M  V30 8270 C 786.797 -1.43598 -0.982632 0
M  V30 8271 O 787.973 -1.76638 -0.967519 0
M  V30 8272 C 785.038 -3.18638 -1.3664 0
M  V30 8273 C 784.099 -4.23462 -0.705589 0
M  V30 8274 C 783.332 -5.05401 -1.7148 0
M  V30 8275 O 783.555 -4.88618 -2.94293 0
M  V30 8276 O 782.489 -5.88157 -1.27889 0
M  V30 8277 H 786.315 -3.01447 0.369272 0
M  V30 8278 H 783.9 -1.47349 0.246709 0
M  V30 8279 H 785.782 -3.71992 -1.9799 0
M  V30 8280 H 784.457 -2.52491 -2.02559 0
M  V30 8281 H 783.364 -3.74063 -0.0527733 0
M  V30 8282 H 784.697 -4.92119 -0.0891187 0
M  V30 8283 N 786.349 -0.21828 -1.56081 0
M  V30 8284 C 787.259 0.704602 -2.23769 0
M  V30 8285 C 788.275 1.21633 -1.24425 0
M  V30 8286 O 789.451 1.25862 -1.57228 0
M  V30 8287 C 786.516 1.89725 -2.90182 0
M  V30 8288 C 785.577 1.42782 -4.0486 0
M  V30 8289 C 784.81 2.56361 -4.68097 0
M  V30 8290 O 785.033 3.74417 -4.30312 0
M  V30 8291 O 783.967 2.2775 -5.57148 0
M  V30 8292 H 787.793 0.158007 -3.03289 0
M  V30 8293 H 785.378 0.0120279 -1.49395 0
M  V30 8294 H 787.26 2.59382 -3.32113 0
M  V30 8295 H 785.935 2.432 -2.13624 0
M  V30 8296 H 784.842 0.699359 -3.67505 0
M  V30 8297 H 786.175 0.939474 -4.83151 0
M  V30 8298 N 787.827 1.57504 0.0551401 0
M  V30 8299 C 789.067 1.89895 0.756252 0
M  V30 8300 C 789.431 0.813983 1.73892 0
M  V30 8301 O 790.632 1.02145 2.48636 0
M  V30 8302 C 788.903 3.27494 1.43116 0
M  V30 8303 S 790.462 3.81669 2.16504 0
M  V30 8304 H 787.28 0.665173 0.251129 0
M  V30 8305 H 789.882 1.95496 0.0117193 0
M  V30 8306 H 788.586 4.04345 0.702391 0
M  V30 8307 H 788.117 3.25132 2.21479 0
M  V30 8308 H 790.132 3.58295 3.43277 0
M  V30 8309 N 789.305 -0.326896 1.54172 0
M  V30 8310 C 790.535 -1.08328 1.75922 0
M  V30 8311 C 790.943 -1.82302 0.50622 0
M  V30 8312 O 790.286 -1.7581 -0.532581 0
M  V30 8313 C 790.348 -2.1294 2.8965 0
M  V30 8314 C 790.012 -1.58394 4.28673 0
M  V30 8315 C 791.009 -1.02747 5.09646 0
M  V30 8316 C 788.694 -1.62737 4.75207 0
M  V30 8317 C 790.688 -0.52169 6.35261 0
M  V30 8318 C 788.375 -1.11772 6.00791 0
M  V30 8319 C 789.373 -0.565819 6.80652 0
M  V30 8320 O 789.061 -0.0638146 8.03875 0
M  V30 8321 H 788.793 -0.3282 0.590983 0
M  V30 8322 H 791.347 -0.37972 2.0186 0
M  V30 8323 H 789.577 -2.86903 2.59275 0
M  V30 8324 H 791.266 -2.74274 2.99213 0
M  V30 8325 H 792.032 -0.987007 4.74851 0
M  V30 8326 H 787.911 -2.04635 4.13093 0
M  V30 8327 H 791.455 -0.0902544 6.97542 0
M  V30 8328 H 787.352 -1.15524 6.35078 0
M  V30 8329 H 788.12 -0.17955 8.18303 0
M  V30 8330 N 790.784 -1.46188 -0.588786 0
M  V30 8331 C 792.031 -1.51184 -1.34721 0
M  V30 8332 C 792.359 -0.161084 -1.93832 0
M  V30 8333 O 791.614 0.842557 -1.76634 0
M  V30 8334 C 791.913 -2.55364 -2.50048 0
M  V30 8335 C 791.579 -3.99553 -2.08969 0
M  V30 8336 C 790.241 -4.38811 -1.9748 0
M  V30 8337 C 792.593 -4.90156 -1.77191 0
M  V30 8338 C 789.921 -5.66544 -1.52463 0
M  V30 8339 C 792.273 -6.1832 -1.33654 0
M  V30 8340 C 790.937 -6.5649 -1.20738 0
M  V30 8341 H 790.207 -0.55322 -0.49298 0
M  V30 8342 H 792.854 -1.79634 -0.663627 0
M  V30 8343 H 791.159 -2.20552 -3.23827 0
M  V30 8344 H 792.856 -2.5646 -3.08268 0
M  V30 8345 H 789.446 -3.68518 -2.18843 0
M  V30 8346 H 793.63 -4.60549 -1.84955 0
M  V30 8347 H 788.886 -5.94895 -1.411 0
M  V30 8348 H 793.06 -6.87956 -1.08117 0
M  V30 8349 H 790.687 -7.55362 -0.856307 0
M  V30 8350 N 792.262 0.832906 -1.33792 0
M  V30 8351 C 793.172 1.97514 -1.26592 0
M  V30 8352 C 794.188 1.73114 -0.175391 0
M  V30 8353 O 795.364 1.97387 -0.400062 0
M  V30 8354 C 792.429 3.31625 -1.01121 0
M  V30 8355 C 791.49 3.69101 -2.19233 0
M  V30 8356 C 790.723 4.96813 -1.94968 0
M  V30 8357 O 790.946 5.63208 -0.902955 0
M  V30 8358 O 789.88 5.31932 -2.8166 0
M  V30 8359 H 793.706 2.0653 -2.22664 0
M  V30 8360 H 791.291 0.966826 -1.13898 0
M  V30 8361 H 793.173 4.11968 -0.886571 0
M  V30 8362 H 791.848 3.23599 -0.080822 0
M  V30 8363 H 790.755 2.89243 -2.37253 0
M  V30 8364 H 792.088 3.818 -3.10628 0
M  V30 8365 N 793.74 1.17359 1.05189 0
M  V30 8366 C 795.017 0.871914 1.75091 0
M  V30 8367 C 795.397 -0.627821 2.01548 0
M  V30 8368 O 794.745 -1.5791 1.65156 0
M  V30 8369 C 794.955 1.70687 3.04413 0
M  V30 8370 C 796.303 1.92684 3.78362 0
M  V30 8371 O 797.327 1.67645 3.14282 0
M  V30 8372 O 796.186 2.34765 4.93505 0
M  V30 8373 H 793.28 0.322831 0.761386 0
M  V30 8374 H 795.826 1.28054 1.11357 0
M  V30 8375 H 794.598 2.72405 2.80911 0
M  V30 8376 H 794.221 1.29602 3.75884 0
M  V30 8377 N 795.218 -1.23913 0.973828 0
M  V30 8378 C 796.464 -1.92436 0.640026 0
M  V30 8379 C 796.797 -1.75875 -0.823512 0
M  V30 8380 O 796.072 -1.11563 -1.59323 0
M  V30 8381 C 796.355 -3.4526 1.0231 0
M  V30 8382 C 796.208 -3.70961 2.54378 0
M  V30 8383 C 797.527 -4.36495 0.562155 0
M  V30 8384 H 794.646 -0.698868 0.233992 0
M  V30 8385 H 797.288 -1.46163 1.21393 0
M  V30 8386 H 795.438 -3.84802 0.534751 0
M  V30 8387 H 797.11 -3.40941 3.10737 0
M  V30 8388 H 795.353 -3.15899 2.97305 0
M  V30 8389 H 796.024 -4.77912 2.76232 0
M  V30 8390 H 798.5 -4.04363 0.981333 0
M  V30 8391 H 797.376 -5.42142 0.858689 0
M  V30 8392 H 797.637 -4.38818 -0.537659 0
M  V30 8393 N 796.696 -0.74468 -1.38897 0
M  V30 8394 C 797.924 -0.307428 -2.04603 0
M  V30 8395 C 798.339 1.06115 -1.56157 0
M  V30 8396 O 797.696 1.67233 -0.730701 0
M  V30 8397 C 797.747 -0.31101 -3.6016 0
M  V30 8398 O 797.468 -1.62557 -4.06825 0
M  V30 8399 C 798.969 0.141213 -4.43075 0
M  V30 8400 H 796.189 -0.132741 -0.657739 0
M  V30 8401 H 798.733 -1.01104 -1.77759 0
M  V30 8402 H 796.888 0.343792 -3.85872 0
M  V30 8403 H 797.302 -1.54569 -5.01207 0
M  V30 8404 H 798.776 0.0875449 -5.51931 0
M  V30 8405 H 799.253 1.18782 -4.22833 0
M  V30 8406 H 799.859 -0.484383 -4.22533 0
M  V30 8407 N 798.174 1.49689 -0.493057 0
M  V30 8408 C 799.399 2.07331 0.0535114 0
M  V30 8409 C 799.824 1.35196 1.30781 0
M  V30 8410 O 799.182 0.406246 1.7669 0
M  V30 8411 C 799.23 3.59364 0.29825 0
M  V30 8412 O 798.334 3.88819 1.37454 0
M  V30 8413 H 797.675 0.663612 -0.0227018 0
M  V30 8414 H 800.205 1.926 -0.690402 0
M  V30 8415 H 800.215 4.04515 0.532159 0
M  V30 8416 H 798.89 4.1128 -0.618207 0
M  V30 8417 H 797.467 3.55487 1.12621 0
M  V30 8418 N 799.652 0.226554 1.55963 0
M  V30 8419 C 800.877 -0.411527 2.03276 0
M  V30 8420 C 801.302 -1.52206 1.10521 0
M  V30 8421 O 800.66 -1.81054 0.0943217 0
M  V30 8422 C 800.708 -0.915694 3.4878 0
M  V30 8423 O 799.812 -2.02672 3.59163 0
M  V30 8424 H 799.153 -0.0924907 0.657527 0
M  V30 8425 H 801.683 0.346656 2.01642 0
M  V30 8426 H 801.693 -1.22421 3.892 0
M  V30 8427 H 800.368 -0.102915 4.15773 0
M  V30 8428 H 798.945 -1.72445 3.30632 0
M  V30 8429 N 801.13 -1.57531 -0.0467866 0
M  V30 8430 C 802.078 -2.06455 -1.0714 0
M  V30 8431 C 803.072 -0.974744 -1.38546 0
M  V30 8432 O 804.278 -1.15974 -1.37659 0
M  V30 8433 H 800.653 -0.658607 -0.362962 0
M  V30 8434 H 802.624 -2.91613 -0.632813 0
M  V30 8435 C 801.373 -2.54481 -2.36927 0
M  V30 8436 H 800.696 -3.37946 -2.13617 0
M  V30 8437 H 802.136 -2.92442 -3.07007 0
M  V30 8438 C 800.595 -1.43836 -3.04652 0
M  V30 8439 O 801.125 -0.794531 -3.93764 0
M  V30 8440 N 799.331 -1.17727 -2.65686 0
M  V30 8441 H 798.878 -1.70265 -1.93307 0
M  V30 8442 H 798.836 -0.439051 -3.11319 0
M  V30 8443 N 802.608 0.318715 -1.54344 0
M  V30 8444 C 803.836 1.0755 -1.7675 0
M  V30 8445 C 804.251 1.81543 -0.518422 0
M  V30 8446 O 803.608 1.75198 0.511078 0
M  V30 8447 C 803.659 2.06983 -2.96378 0
M  V30 8448 O 803.38 1.35995 -4.16458 0
M  V30 8449 C 804.881 2.94841 -3.31034 0
M  V30 8450 H 802.101 0.319711 -0.589937 0
M  V30 8451 H 804.645 0.363369 -2.01246 0
M  V30 8452 H 802.8 2.73724 -2.74142 0
M  V30 8453 H 803.214 2.02623 -4.83781 0
M  V30 8454 H 804.688 3.60496 -4.18027 0
M  V30 8455 H 805.165 3.62199 -2.48412 0
M  V30 8456 H 805.771 2.33656 -3.55366 0
M  V30 8457 N 804.086 1.46499 0.581025 0
M  V30 8458 C 805.333 1.51896 1.33918 0
M  V30 8459 C 805.661 0.171361 1.93744 0
M  V30 8460 O 804.916 -0.833178 1.77078 0
M  V30 8461 C 805.215 2.56686 2.48691 0
M  V30 8462 C 804.881 4.00656 2.06847 0
M  V30 8463 C 803.543 4.39852 1.9515 0
M  V30 8464 C 805.895 4.91089 1.74589 0
M  V30 8465 C 803.223 5.67345 1.49456 0
M  V30 8466 C 805.575 6.1902 1.30373 0
M  V30 8467 C 804.239 6.57121 1.17255 0
M  V30 8468 H 803.509 0.555826 0.490039 0
M  V30 8469 H 806.156 1.79983 0.654092 0
M  V30 8470 H 804.461 2.22266 3.22653 0
M  V30 8471 H 806.158 2.58091 3.06904 0
M  V30 8472 H 802.748 3.69674 2.16886 0
M  V30 8473 H 806.932 4.61523 1.8251 0
M  V30 8474 H 802.188 5.95635 1.37944 0
M  V30 8475 H 806.362 6.8852 1.04467 0
M  V30 8476 H 803.989 7.55805 0.816236 0
M  V30 8477 N 805.565 -0.825799 1.34232 0
M  V30 8478 C 806.812 -1.58185 1.26427 0
M  V30 8479 C 807.14 -1.93786 -0.166533 0
M  V30 8480 O 806.395 -1.59986 -1.12707 0
M  V30 8481 C 806.694 -2.89362 2.09772 0
M  V30 8482 C 806.36 -2.73066 3.58812 0
M  V30 8483 C 805.022 -2.68329 3.99441 0
M  V30 8484 C 807.374 -2.56946 4.53462 0
M  V30 8485 C 804.702 -2.4539 5.32917 0
M  V30 8486 C 807.054 -2.35538 5.87115 0
M  V30 8487 C 805.718 -2.29212 6.26912 0
M  V30 8488 H 804.988 -0.57884 0.462629 0
M  V30 8489 H 807.635 -0.955714 1.65947 0
M  V30 8490 H 805.94 -3.56251 1.63071 0
M  V30 8491 H 807.637 -3.4694 2.01081 0
M  V30 8492 H 804.227 -2.77591 3.26559 0
M  V30 8493 H 808.411 -2.59631 4.22972 0
M  V30 8494 H 803.667 -2.38947 5.62774 0
M  V30 8495 H 807.841 -2.22051 6.6005 0
M  V30 8496 H 805.468 -2.11197 7.30274 0
M  V30 8497 N 807.043 -1.17915 -1.04565 0
M  V30 8498 C 808.459 -0.927761 -1.29864 0
M  V30 8499 C 808.659 0.409536 -1.97294 0
M  V30 8500 O 807.715 1.14505 -2.25044 0
M  V30 8501 C 809.028 -2.08967 -2.16225 0
M  V30 8502 C 810.576 -2.12741 -2.29587 0
M  V30 8503 C 811.051 -3.28335 -3.19312 0
M  V30 8504 N 812.542 -3.28164 -3.26898 0
M  V30 8505 C 813.277 -4.14249 -3.96466 0
M  V30 8506 N 812.773 -5.10457 -4.68407 0
M  V30 8507 N 814.566 -4.02179 -3.92694 0
M  V30 8508 H 806.717 -2.03983 -0.592011 0
M  V30 8509 H 808.98 -0.891023 -0.323701 0
M  V30 8510 H 808.686 -3.05654 -1.73979 0
M  V30 8511 H 808.56 -2.04606 -3.16885 0
M  V30 8512 H 810.947 -1.16636 -2.71072 0
M  V30 8513 H 811.028 -2.21162 -1.28535 0
M  V30 8514 H 810.672 -4.2471 -2.78539 0
M  V30 8515 H 810.602 -3.17151 -4.20384 0
M  V30 8516 H 813.093 -2.58511 -2.75646 0
M  V30 8517 H 813.406 -5.72526 -5.1907 0
M  V30 8518 H 811.751 -5.14422 -4.67328 0
M  V30 8519 H 814.942 -3.26308 -3.3562 0
M  V30 8520 H 815.115 -4.69486 -4.4664 0
M  V30 8521 N 808.521 1.23394 -0.980386 0
M  V30 8522 C 809.469 2.26872 -0.513018 0
M  V30 8523 C 810.463 1.63853 0.429948 0
M  V30 8524 O 811.669 1.77417 0.303842 0
M  V30 8525 H 808.044 0.737398 -0.147473 0
M  V30 8526 H 810.015 2.63654 -1.39746 0
M  V30 8527 C 808.764 3.47289 0.168962 0
M  V30 8528 H 808.087 3.96033 -0.547546 0
M  V30 8529 H 809.527 4.21502 0.459616 0
M  V30 8530 C 807.986 3.06425 1.40019 0
M  V30 8531 O 808.516 3.14708 2.49643 0
M  V30 8532 N 806.722 2.61339 1.27084 0
M  V30 8533 H 806.269 2.54799 0.378872 0
M  V30 8534 H 806.227 2.34364 2.09573 0
M  V30 8535 N 809.999 0.752036 1.385 0
M  V30 8536 C 811.239 0.312408 2.01998 0
M  V30 8537 C 811.603 -1.085 1.58404 0
M  V30 8538 O 812.804 -1.62365 2.14222 0
M  V30 8539 C 811.075 0.429423 3.54811 0
M  V30 8540 S 812.634 0.0721487 4.38741 0
M  V30 8541 H 809.452 0.1213 0.700576 0
M  V30 8542 H 812.054 0.982312 1.69029 0
M  V30 8543 H 810.758 1.44743 3.84028 0
M  V30 8544 H 810.289 -0.257716 3.92555 0
M  V30 8545 H 812.304 -1.13875 4.82957 0
M  V30 8546 N 811.477 -1.49425 0.500989 0
M  V30 8547 C 812.705 -2.06861 -0.0403443 0
M  V30 8548 C 813.12 -1.36132 -1.30819 0
M  V30 8549 O 812.477 -0.439647 -1.77125 0
M  V30 8550 C 812.528 -3.6027 -0.297902 0
M  V30 8551 O 812.249 -4.28338 0.919686 0
M  V30 8552 C 813.75 -4.34419 -0.882876 0
M  V30 8553 H 810.97 -0.670688 0.0204619 0
M  V30 8554 H 813.514 -1.92207 0.698342 0
M  V30 8555 H 811.669 -3.74627 -0.98657 0
M  V30 8556 H 812.083 -5.2004 0.682528 0
M  V30 8557 H 813.557 -5.42631 -1.01268 0
M  V30 8558 H 814.034 -3.96898 -1.88066 0
M  V30 8559 H 814.64 -4.24669 -0.231677 0
M  V30 8560 N 812.955 -0.234822 -1.55841 0
M  V30 8561 C 814.202 0.39326 -1.98645 0
M  V30 8562 C 814.53 1.58823 -1.12274 0
M  V30 8563 O 813.785 1.94954 -0.170731 0
M  V30 8564 C 814.084 0.858032 -3.46947 0
M  V30 8565 C 813.75 -0.227858 -4.50324 0
M  V30 8566 C 812.412 -0.526128 -4.78315 0
M  V30 8567 C 814.764 -0.961576 -5.12253 0
M  V30 8568 C 812.092 -1.5624 -5.65514 0
M  V30 8569 C 814.444 -1.98728 -6.00575 0
M  V30 8570 C 813.108 -2.29233 -6.26904 0
M  V30 8571 H 812.378 0.143904 -0.726892 0
M  V30 8572 H 815.025 -0.34012 -1.88455 0
M  V30 8573 H 813.33 1.67041 -3.54408 0
M  V30 8574 H 815.027 1.35407 -3.77447 0
M  V30 8575 H 811.617 0.0147624 -4.28597 0
M  V30 8576 H 815.801 -0.744388 -4.90686 0
M  V30 8577 H 811.057 -1.80422 -5.84173 0
M  V30 8578 H 815.231 -2.5608 -6.47608 0
M  V30 8579 H 812.858 -3.09671 -6.94268 0
M  V30 8580 N 814.433 1.57553 0.0384317 0
M  V30 8581 C 815.682 1.88022 0.730108 0
M  V30 8582 C 815.995 0.83209 1.77019 0
M  V30 8583 O 817.201 1.0257 2.51379 0
M  V30 8584 C 815.657 3.33637 1.3496 0
M  V30 8585 C 815.265 4.46659 0.346352 0
M  V30 8586 C 817.009 3.73266 2.02169 0
M  V30 8587 C 814.916 5.8333 0.973652 0
M  V30 8588 H 813.846 0.701496 0.276442 0
M  V30 8589 H 816.497 1.83493 -0.0158028 0
M  V30 8590 H 814.879 3.32882 2.1449 0
M  V30 8591 H 816.053 4.58868 -0.421558 0
M  V30 8592 H 814.368 4.15802 -0.223133 0
M  V30 8593 H 816.965 4.72689 2.49938 0
M  V30 8594 H 817.308 3.04776 2.8358 0
M  V30 8595 H 817.841 3.76156 1.29427 0
M  V30 8596 H 814.58 6.55197 0.199163 0
M  V30 8597 H 814.1 5.7486 1.71162 0
M  V30 8598 H 815.779 6.29757 1.48376 0
M  V30 8599 N 815.911 -0.310526 1.54511 0
M  V30 8600 C 816.859 -1.40272 1.85544 0
M  V30 8601 C 817.853 -1.52941 0.728377 0
M  V30 8602 O 819.059 -1.55172 0.912234 0
M  V30 8603 H 815.434 -0.468355 0.588343 0
M  V30 8604 H 817.405 -1.11329 2.76855 0
M  V30 8605 C 816.154 -2.76279 2.11105 0
M  V30 8606 H 815.477 -2.67308 2.97298 0
M  V30 8607 H 816.917 -3.51736 2.36765 0
M  V30 8608 C 815.376 -3.24472 0.906618 0
M  V30 8609 O 815.906 -4.01514 0.122358 0
M  V30 8610 N 814.112 -2.81676 0.714632 0
M  V30 8611 H 813.659 -2.19143 1.35404 0
M  V30 8612 H 813.617 -3.14272 -0.089703 0
M  V30 8613 N 817.389 -1.46805 -0.573248 0
M  V30 8614 C 818.617 -1.56191 -1.3569 0
M  V30 8615 C 819.032 -0.206362 -1.87669 0
M  V30 8616 O 818.389 0.797883 -1.64134 0
M  V30 8617 C 818.44 -2.57433 -2.53792 0
M  V30 8618 O 818.161 -3.87724 -2.03965 0
M  V30 8619 C 819.662 -2.76851 -3.4622 0
M  V30 8620 H 816.882 -0.527907 -0.414192 0
M  V30 8621 H 819.426 -1.92292 -0.695989 0
M  V30 8622 H 817.581 -2.24311 -3.15854 0
M  V30 8623 H 817.995 -4.42909 -2.80948 0
M  V30 8624 H 819.469 -3.5159 -4.25545 0
M  V30 8625 H 819.946 -1.84095 -3.98755 0
M  V30 8626 H 820.552 -3.11107 -2.89987 0
M  V30 8627 N 818.867 0.818669 -1.34668 0
M  V30 8628 C 820.113 1.57746 -1.27453 0
M  V30 8629 C 820.446 1.93588 0.154077 0
M  V30 8630 O 819.721 1.60371 1.10051 0
M  V30 8631 C 820.004 2.87414 -2.16945 0
M  V30 8632 C 819.857 2.58125 -3.68363 0
M  V30 8633 C 821.176 3.89021 -2.05792 0
M  V30 8634 H 818.295 0.572339 -0.464324 0
M  V30 8635 H 820.937 0.942784 -1.64959 0
M  V30 8636 H 819.087 3.41576 -1.85089 0
M  V30 8637 H 820.759 2.10239 -4.10606 0
M  V30 8638 H 819.002 1.91503 -3.89242 0
M  V30 8639 H 819.673 3.5061 -4.26353 0
M  V30 8640 H 822.149 3.44224 -2.33771 0
M  V30 8641 H 821.025 4.77548 -2.70628 0
M  V30 8642 H 821.286 4.29786 -1.03618 0
M  V30 8643 N 820.346 1.18468 1.03938 0
M  V30 8644 C 821.593 0.980833 1.77161 0
M  V30 8645 C 821.921 -0.489425 1.88242 0
M  V30 8646 O 821.176 -1.37961 1.388 0
M  V30 8647 C 821.475 1.58229 3.20466 0
M  V30 8648 C 821.141 3.07889 3.29416 0
M  V30 8649 C 819.803 3.48737 3.31566 0
M  V30 8650 C 822.155 4.03903 3.29411 0
M  V30 8651 C 819.483 4.84171 3.31355 0
M  V30 8652 C 821.835 5.39253 3.3074 0
M  V30 8653 C 820.499 5.79547 3.31182 0
M  V30 8654 H 819.769 0.358912 0.648277 0
M  V30 8655 H 822.416 1.47552 1.22069 0
M  V30 8656 H 820.721 1.00964 3.78568 0
M  V30 8657 H 822.418 1.39998 3.75768 0
M  V30 8658 H 819.008 2.75335 3.28464 0
M  V30 8659 H 823.192 3.73395 3.2694 0
M  V30 8660 H 818.448 5.14685 3.30015 0
M  V30 8661 H 822.622 6.13417 3.29686 0
M  V30 8662 H 820.249 6.84466 3.30772 0
M  V30 8663 N 821.824 -1.22873 0.986916 0
M  V30 8664 C 823.054 -1.95204 0.67668 0
M  V30 8665 C 823.462 -1.73193 -0.761641 0
M  V30 8666 O 822.805 -1.0243 -1.52492 0
M  V30 8667 C 822.867 -3.48173 0.895302 0
M  V30 8668 C 822.531 -3.93912 2.31695 0
M  V30 8669 C 823.528 -4.02064 3.29607 0
M  V30 8670 C 821.213 -4.26722 2.64978 0
M  V30 8671 C 823.207 -4.42391 4.58878 0
M  V30 8672 C 820.894 -4.66729 3.94471 0
M  V30 8673 C 821.892 -4.74531 4.91232 0
M  V30 8674 O 821.58 -5.13636 6.18412 0
M  V30 8675 H 821.312 -0.628105 0.24992 0
M  V30 8676 H 823.866 -1.5714 1.32274 0
M  V30 8677 H 822.096 -3.86223 0.192072 0
M  V30 8678 H 823.785 -4.01717 0.581233 0
M  V30 8679 H 824.551 -3.76912 3.05225 0
M  V30 8680 H 820.43 -4.19858 1.9037 0
M  V30 8681 H 823.974 -4.48395 5.34404 0
M  V30 8682 H 819.871 -4.91332 4.18645 0
M  V30 8683 H 820.639 -5.31728 6.2226 0
M  V30 8684 N 823.302 -0.75937 -1.38099 0
M  V30 8685 C 824.25 -0.124954 -2.32264 0
M  V30 8686 C 825.244 0.698863 -1.54312 0
M  V30 8687 O 826.45 0.597312 -1.698 0
M  V30 8688 H 822.825 -0.0216142 -0.751689 0
M  V30 8689 H 824.796 -0.935115 -2.83369 0
M  V30 8690 C 823.545 0.749463 -3.39527 0
M  V30 8691 H 822.868 0.124932 -3.99605 0
M  V30 8692 H 824.308 1.16055 -4.07808 0
M  V30 8693 C 822.767 1.89464 -2.78577 0
M  V30 8694 O 823.297 2.98923 -2.68343 0
M  V30 8695 N 821.503 1.69145 -2.36301 0
M  V30 8696 H 821.05 0.801157 -2.44825 0
M  V30 8697 H 821.008 2.45936 -1.95864 0
M  V30 8698 N 824.78 1.49157 -0.508906 0
M  V30 8699 C 826.008 2.06879 0.0293734 0
M  V30 8700 C 826.423 1.36823 1.30095 0
M  V30 8701 O 825.78 0.449034 1.7689 0
M  V30 8702 C 825.831 3.60423 0.278791 0
M  V30 8703 O 825.552 4.27844 -0.942389 0
M  V30 8704 C 827.053 4.34881 0.859825 0
M  V30 8705 H 824.273 0.67057 -0.0240184 0
M  V30 8706 H 826.817 1.91834 -0.708526 0
M  V30 8707 H 824.972 3.75145 0.966689 0
M  V30 8708 H 825.386 5.19671 -0.710097 0
M  V30 8709 H 826.86 5.43161 0.983884 0
M  V30 8710 H 827.337 3.9789 1.85958 0
M  V30 8711 H 827.943 4.24785 0.209152 0
M  V30 8712 N 826.258 0.243083 1.55714 0
M  V30 8713 C 827.535 -0.432851 1.90751 0
M  V30 8714 C 827.915 -1.76153 1.16333 0
M  V30 8715 O 827.263 -2.26783 0.279565 0
M  V30 8716 C 827.473 -0.604685 3.43722 0
M  V30 8717 C 828.821 -0.90231 4.14902 0
M  V30 8718 O 829.845 -0.690689 3.49439 0
M  V30 8719 O 828.704 -1.3051 5.30688 0
M  V30 8720 H 825.798 -0.231835 0.79384 0
M  V30 8721 H 828.344 0.286867 1.67258 0
M  V30 8722 H 827.116 0.331655 3.89892 0
M  V30 8723 H 826.739 -1.37509 3.73065 0
M  V30 8724 N 827.736 -1.57571 -0.0300757 0
M  V30 8725 C 828.666 -2.0953 -1.03051 0
M  V30 8726 C 829.647 -0.99761 -1.37774 0
M  V30 8727 O 830.832 -1.27279 -1.46676 0
M  V30 8728 C 827.962 -2.57385 -2.33174 0
M  V30 8729 C 826.916 -3.71409 -2.12696 0
M  V30 8730 C 826.242 -4.05467 -3.4857 0
M  V30 8731 C 827.542 -4.99877 -1.51396 0
M  V30 8732 H 829.236 -2.93367 -0.597999 0
M  V30 8733 H 826.782 -1.41127 -0.286203 0
M  V30 8734 H 828.735 -2.92355 -3.03491 0
M  V30 8735 H 827.459 -1.70629 -2.78484 0
M  V30 8736 H 826.118 -3.36786 -1.44813 0
M  V30 8737 H 825.766 -3.15779 -3.91526 0
M  V30 8738 H 825.466 -4.82269 -3.35694 0
M  V30 8739 H 826.99 -4.4297 -4.2025 0
M  V30 8740 H 828.404 -5.3281 -2.11629 0
M  V30 8741 H 826.801 -5.81283 -1.49098 0
M  V30 8742 H 827.871 -4.82522 -0.479676 0
M  V30 8743 N 829.214 0.302327 -1.54673 0
M  V30 8744 C 830.461 1.0377 -1.73891 0
M  V30 8745 C 830.789 1.87309 -0.523979 0
M  V30 8746 O 830.044 1.8936 0.494084 0
M  V30 8747 C 830.343 1.97365 -2.97963 0
M  V30 8748 C 830.009 1.29812 -4.3181 0
M  V30 8749 C 828.671 1.11121 -4.68194 0
M  V30 8750 C 831.023 0.815073 -5.14787 0
M  V30 8751 C 828.351 0.428077 -5.85136 0
M  V30 8752 C 830.703 0.145665 -6.32432 0
M  V30 8753 C 829.367 -0.0532098 -6.67479 0
M  V30 8754 H 828.637 0.379721 -0.636312 0
M  V30 8755 H 831.284 0.312708 -1.8893 0
M  V30 8756 H 829.589 2.76387 -2.777 0
M  V30 8757 H 831.286 2.54331 -3.10027 0
M  V30 8758 H 827.876 1.45366 -4.03196 0
M  V30 8759 H 832.06 0.947191 -4.87178 0
M  V30 8760 H 827.316 0.262995 -6.10834 0
M  V30 8761 H 831.49 -0.236533 -6.95998 0
M  V30 8762 H 829.117 -0.58456 -7.57949 0
M  V30 8763 N 830.692 1.47107 0.565454 0
M  V30 8764 C 831.602 1.61591 1.70075 0
M  V30 8765 C 832.618 0.498931 1.66693 0
M  V30 8766 O 833.794 0.765372 1.8629 0
M  V30 8767 C 830.859 1.61887 3.06583 0
M  V30 8768 C 829.92 2.84949 3.21096 0
M  V30 8769 C 829.153 2.85221 4.51093 0
M  V30 8770 O 829.376 1.94959 5.36048 0
M  V30 8771 O 828.31 3.76982 4.69221 0
M  V30 8772 H 832.136 2.57638 1.60799 0
M  V30 8773 H 829.721 1.30097 0.73451 0
M  V30 8774 H 831.603 1.64809 3.87835 0
M  V30 8775 H 830.278 0.69005 3.16259 0
M  V30 8776 H 829.185 2.87575 2.39273 0
M  V30 8777 H 830.518 3.77098 3.1632 0
M  V30 8778 N 832.17 -0.811516 1.35101 0
M  V30 8779 C 833.4 -1.59749 1.31011 0
M  V30 8780 C 833.808 -1.88847 -0.115566 0
M  V30 8781 O 833.151 -1.48854 -1.07649 0
M  V30 8782 C 833.213 -2.95714 2.04435 0
M  V30 8783 C 832.877 -2.89456 3.53645 0
M  V30 8784 C 833.874 -2.63237 4.48333 0
M  V30 8785 C 831.559 -3.08728 3.96222 0
M  V30 8786 C 833.553 -2.56361 5.83573 0
M  V30 8787 C 831.24 -3.01475 5.3156 0
M  V30 8788 C 832.238 -2.75326 6.25048 0
M  V30 8789 O 831.926 -2.68026 7.57903 0
M  V30 8790 H 831.658 -0.502889 0.45175 0
M  V30 8791 H 834.212 -1.01687 1.78462 0
M  V30 8792 H 832.442 -3.55739 1.51613 0
M  V30 8793 H 834.131 -3.56816 1.93487 0
M  V30 8794 H 834.897 -2.48072 4.16756 0
M  V30 8795 H 830.776 -3.28094 3.23845 0
M  V30 8796 H 834.32 -2.35871 6.56514 0
M  V30 8797 H 830.217 -3.16197 5.62752 0
M  V30 8798 H 830.985 -2.8367 7.67772 0
M  V30 8799 N 833.648 -1.19017 -1.03309 0
M  V30 8800 C 834.595 -0.924088 -2.11493 0
M  V30 8801 C 835.565 0.139464 -1.65513 0
M  V30 8802 O 836.75 -0.00178761 -1.908 0
M  V30 8803 C 833.89 -0.464255 -3.41963 0
M  V30 8804 C 833.003 -1.5941 -4.01513 0
M  V30 8805 C 832.138 -1.08622 -5.19976 0
M  V30 8806 C 831.177 -2.19024 -5.71572 0
M  V30 8807 N 830.314 -1.69575 -6.81314 0
M  V30 8808 H 835.154 -1.85039 -2.33591 0
M  V30 8809 H 832.691 -0.922593 -1.14572 0
M  V30 8810 H 834.649 -0.179078 -4.16815 0
M  V30 8811 H 833.279 0.425062 -3.19989 0
M  V30 8812 H 832.331 -1.99458 -3.23915 0
M  V30 8813 H 833.643 -2.42604 -4.35826 0
M  V30 8814 H 832.797 -0.756022 -6.01971 0
M  V30 8815 H 831.536 -0.223955 -4.87186 0
M  V30 8816 H 830.541 -2.5288 -4.88193 0
M  V30 8817 H 831.766 -3.05699 -6.06403 0
M  V30 8818 H 829.712 -0.856494 -6.50385 0
M  V30 8819 H 829.629 -2.46361 -7.14732 0
M  V30 8820 H 830.897 -1.39505 -7.66915 0
M  V30 8821 N 835.127 1.22348 -0.993418 0
M  V30 8822 C 836.374 1.9111 -0.669568 0
M  V30 8823 C 836.702 1.77357 0.79843 0
M  V30 8824 O 835.957 1.13675 1.593 0
M  V30 8825 C 836.256 3.42477 -1.02197 0
M  V30 8826 C 835.922 3.7642 -2.48232 0
M  V30 8827 C 834.584 3.85395 -2.88139 0
M  V30 8828 C 836.936 3.9253 -3.42884 0
M  V30 8829 C 834.264 4.07918 -4.21687 0
M  V30 8830 C 836.616 4.16557 -4.76091 0
M  V30 8831 C 835.28 4.23757 -5.15739 0
M  V30 8832 H 834.55 0.699321 -0.245012 0
M  V30 8833 H 837.197 1.45102 -1.2497 0
M  V30 8834 H 835.502 3.90143 -0.359921 0
M  V30 8835 H 837.199 3.93935 -0.74942 0
M  V30 8836 H 833.789 3.70017 -2.16299 0
M  V30 8837 H 837.973 3.84974 -3.13224 0
M  V30 8838 H 833.229 4.11719 -4.51993 0
M  V30 8839 H 837.403 4.27966 -5.4938 0
M  V30 8840 H 835.03 4.40962 -6.19239 0
M  V30 8841 N 836.605 0.766683 1.37694 0
M  V30 8842 C 837.851 0.329201 2.0011 0
M  V30 8843 C 838.184 -1.09004 1.60723 0
M  V30 8844 O 837.459 -1.74895 0.850989 0
M  V30 8845 C 837.742 0.466989 3.57059 0
M  V30 8846 C 837.595 1.92828 4.06371 0
M  V30 8847 C 838.914 -0.131792 4.39903 0
M  V30 8848 H 836.033 0.12109 0.726984 0
M  V30 8849 H 838.675 0.968779 1.63446 0
M  V30 8850 H 836.825 -0.0775023 3.88423 0
M  V30 8851 H 838.497 2.53208 3.85595 0
M  V30 8852 H 836.74 2.43884 3.58752 0
M  V30 8853 H 837.411 1.97577 5.15429 0
M  V30 8854 H 839.887 0.332731 4.14768 0
M  V30 8855 H 838.763 -0.005217 5.489 0
M  V30 8856 H 839.024 -1.22156 4.24889 0
M  V30 8857 N 838.083 -1.48885 0.516809 0
M  V30 8858 C 839.031 -2.31066 -0.266656 0
M  V30 8859 C 840.025 -1.40393 -0.94795 0
M  V30 8860 O 841.231 -1.57366 -0.873836 0
M  V30 8861 H 837.606 -0.744654 -0.104858 0
M  V30 8862 H 839.577 -2.95045 0.446236 0
M  V30 8863 C 838.326 -3.22131 -1.3087 0
M  V30 8864 H 837.649 -3.91839 -0.793865 0
M  V30 8865 H 839.089 -3.82544 -1.82856 0
M  V30 8866 C 837.548 -2.42825 -2.33533 0
M  V30 8867 O 838.078 -2.14364 -3.39722 0
M  V30 8868 N 836.284 -2.04559 -2.06407 0
M  V30 8869 H 835.831 -2.27905 -1.20071 0
M  V30 8870 H 835.789 -1.51807 -2.75322 0
M  V30 8871 N 839.561 -0.251338 -1.55583 0
M  V30 8872 C 840.786 0.379136 -2.03905 0
M  V30 8873 C 841.211 1.50428 -1.12929 0
M  V30 8874 O 840.569 1.80882 -0.123114 0
M  V30 8875 C 840.617 0.86009 -3.50193 0
M  V30 8876 O 839.721 1.96932 -3.62342 0
M  V30 8877 H 839.062 0.0820183 -0.658915 0
M  V30 8878 H 841.592 -0.378692 -2.01065 0
M  V30 8879 H 841.602 1.16214 -3.91099 0
M  V30 8880 H 840.277 0.0367559 -4.15884 0
M  V30 8881 H 838.854 1.67163 -3.33333 0
M  V30 8882 N 841.039 1.57585 0.0217189 0
M  V30 8883 C 842.455 1.55072 0.377484 0
M  V30 8884 C 842.655 0.978423 1.76151 0
M  V30 8885 O 841.711 0.602688 2.45202 0
M  V30 8886 C 843.024 2.99462 0.272605 0
M  V30 8887 C 844.572 3.11047 0.349148 0
M  V30 8888 C 845.047 4.57182 0.273636 0
M  V30 8889 N 846.538 4.62007 0.332206 0
M  V30 8890 C 847.273 5.72631 0.296782 0
M  V30 8891 N 846.769 6.92472 0.21322 0
M  V30 8892 N 848.562 5.61028 0.347053 0
M  V30 8893 H 840.713 1.93133 -0.883925 0
M  V30 8894 H 842.976 0.886151 -0.33681 0
M  V30 8895 H 842.682 3.45088 -0.67878 0
M  V30 8896 H 842.556 3.61901 1.06335 0
M  V30 8897 H 844.943 2.65364 1.29097 0
M  V30 8898 H 845.024 2.51425 -0.471085 0
M  V30 8899 H 844.668 5.03534 -0.664548 0
M  V30 8900 H 844.598 5.14724 1.11207 0
M  V30 8901 H 847.089 3.75788 0.399003 0
M  V30 8902 H 847.402 7.72563 0.191492 0
M  V30 8903 H 845.747 6.94769 0.179161 0
M  V30 8904 H 848.938 4.66298 0.410378 0
M  V30 8905 H 849.111 6.47229 0.315979 0
M  V30 8906 N 842.517 -0.29412 1.54831 0
M  V30 8907 C 843.447 -1.36757 1.89261 0
M  V30 8908 C 844.428 -1.52564 0.752214 0
M  V30 8909 O 845.613 -1.65958 1.00855 0
M  V30 8910 C 842.743 -2.73066 2.14597 0
M  V30 8911 C 841.697 -2.72017 3.3044 0
M  V30 8912 C 841.023 -4.11679 3.4121 0
M  V30 8913 C 842.323 -2.33149 4.67375 0
M  V30 8914 H 844.017 -1.08191 2.79169 0
M  V30 8915 H 841.563 -0.519014 1.34321 0
M  V30 8916 H 843.516 -3.48255 2.37269 0
M  V30 8917 H 842.24 -3.03172 1.21467 0
M  V30 8918 H 840.899 -1.99285 3.07703 0
M  V30 8919 H 840.547 -4.38973 2.45584 0
M  V30 8920 H 840.247 -4.11877 4.19084 0
M  V30 8921 H 841.771 -4.88637 3.6615 0
M  V30 8922 H 843.185 -2.98054 4.89731 0
M  V30 8923 H 841.582 -2.44546 5.48012 0
M  V30 8924 H 842.652 -1.28275 4.67626 0
M  V30 8925 N 843.995 -1.47404 -0.557645 0
M  V30 8926 C 845.244 -1.53268 -1.31118 0
M  V30 8927 C 845.557 -0.199414 -1.94581 0
M  V30 8928 O 846.763 -0.136039 -2.71159 0
M  V30 8929 C 845.219 -2.70178 -2.37764 0
M  V30 8930 C 844.827 -4.10032 -1.80493 0
M  V30 8931 C 846.571 -2.85334 -3.14301 0
M  V30 8932 C 844.478 -5.18244 -2.84916 0
M  V30 8933 H 843.408 -0.570491 -0.493007 0
M  V30 8934 H 846.059 -1.73678 -0.592308 0
M  V30 8935 H 844.441 -2.43147 -3.12563 0
M  V30 8936 H 845.615 -4.46964 -1.12069 0
M  V30 8937 H 843.93 -3.99759 -1.16542 0
M  V30 8938 H 846.527 -3.63347 -3.92279 0
M  V30 8939 H 846.87 -1.93761 -3.68459 0
M  V30 8940 H 847.403 -3.12133 -2.46613 0
M  V30 8941 H 844.142 -6.11691 -2.35614 0
M  V30 8942 H 843.662 -4.85829 -3.51753 0
M  V30 8943 H 845.341 -5.45174 -3.48417 0
M  V30 8944 N 845.473 0.80434 -1.35529 0
M  V30 8945 C 846.421 1.93769 -1.28671 0
M  V30 8946 C 847.415 1.68428 -0.181222 0
M  V30 8947 O 848.621 1.76617 -0.347338 0
M  V30 8948 H 844.996 0.636663 -0.400206 0
M  V30 8949 H 846.967 1.96673 -2.24415 0
M  V30 8950 C 845.716 3.30572 -1.07784 0
M  V30 8951 H 845.039 3.5063 -1.9209 0
M  V30 8952 H 846.479 4.1027 -1.07027 0
M  V30 8953 C 844.938 3.36193 0.218213 0
M  V30 8954 O 845.468 3.82941 1.21323 0
M  V30 8955 N 843.674 2.89455 0.257761 0
M  V30 8956 H 843.221 2.51604 -0.552562 0
M  V30 8957 H 843.179 2.93597 1.12465 0
M  V30 8958 N 846.951 1.19563 1.02676 0
M  V30 8959 C 848.176 1.02556 1.80269 0
M  V30 8960 C 848.601 -0.421056 1.83327 0
M  V30 8961 O 847.959 -1.30279 1.26084 0
M  V30 8962 C 848.007 1.60165 3.23078 0
M  V30 8963 O 847.111 0.832404 4.03912 0
M  V30 8964 H 846.452 0.362354 0.556413 0
M  V30 8965 H 848.982 1.58633 1.29216 0
M  V30 8966 H 848.992 1.6347 3.7382 0
M  V30 8967 H 847.667 2.65454 3.20167 0
M  V30 8968 H 846.244 0.872768 3.62543 0
M  V30 8969 N 848.429 -1.21819 0.999893 0
M  V30 8970 C 849.657 -1.94758 0.698359 0
M  V30 8971 C 850.072 -1.73771 -0.738183 0
M  V30 8972 O 849.429 -1.04113 -1.49889 0
M  V30 8973 C 849.48 -3.47292 1.00353 0
M  V30 8974 O 849.201 -3.67579 2.38363 0
M  V30 8975 C 850.702 -4.37403 0.72068 0
M  V30 8976 H 847.922 -0.619512 0.257771 0
M  V30 8977 H 850.466 -1.54778 1.33656 0
M  V30 8978 H 848.621 -3.85213 0.411018 0
M  V30 8979 H 849.035 -4.61719 2.48829 0
M  V30 8980 H 850.509 -5.43151 0.984422 0
M  V30 8981 H 850.986 -4.3784 -0.345309 0
M  V30 8982 H 851.592 -4.05119 1.29456 0
M  V30 8983 N 849.908 -0.773975 -1.37286 0
M  V30 8984 C 851.155 -0.339306 -1.99637 0
M  V30 8985 C 851.483 1.08478 -1.61439 0
M  V30 8986 O 850.738 1.7612 -0.853252 0
M  V30 8987 C 851.037 -0.432651 -3.54772 0
M  V30 8988 C 850.703 -1.81531 -4.12744 0
M  V30 8989 C 849.365 -2.19366 -4.2829 0
M  V30 8990 C 851.717 -2.72137 -4.44512 0
M  V30 8991 C 849.045 -3.47239 -4.72908 0
M  V30 8992 C 851.397 -3.99421 -4.90556 0
M  V30 8993 C 850.061 -4.37298 -5.04308 0
M  V30 8994 H 849.331 -0.124161 -0.730524 0
M  V30 8995 H 851.978 -0.988432 -1.64019 0
M  V30 8996 H 850.283 0.30001 -3.9065 0
M  V30 8997 H 851.98 -0.0776 -4.00925 0
M  V30 8998 H 848.57 -1.51126 -4.01072 0
M  V30 8999 H 852.754 -2.44165 -4.32084 0
M  V30 9000 H 848.01 -3.76477 -4.81742 0
M  V30 9001 H 852.184 -4.69756 -5.14104 0
M  V30 9002 H 849.811 -5.36442 -5.38641 0
M  V30 9003 N 851.386 1.48609 -0.524698 0
M  V30 9004 C 852.316 2.32366 0.229837 0
M  V30 9005 C 853.297 1.41759 0.940129 0
M  V30 9006 O 854.482 1.7065 0.926936 0
M  V30 9007 C 851.612 3.22835 1.28043 0
M  V30 9008 C 850.566 4.22424 0.688603 0
M  V30 9009 C 849.892 5.0199 1.84146 0
M  V30 9010 C 851.192 5.21217 -0.336176 0
M  V30 9011 H 852.886 2.95698 -0.469339 0
M  V30 9012 H 850.432 1.42197 -0.227156 0
M  V30 9013 H 852.385 3.80253 1.8162 0
M  V30 9014 H 851.109 2.57492 2.00912 0
M  V30 9015 H 849.768 3.66185 0.174402 0
M  V30 9016 H 849.416 4.33076 2.5584 0
M  V30 9017 H 849.116 5.69392 1.45142 0
M  V30 9018 H 850.64 5.62259 2.38111 0
M  V30 9019 H 852.054 5.7319 0.112307 0
M  V30 9020 H 850.451 5.96642 -0.643324 0
M  V30 9021 H 851.521 4.68676 -1.24381 0
M  V30 9022 N 852.864 0.259585 1.55447 0
M  V30 9023 C 853.814 -0.648769 2.18575 0
M  V30 9024 C 854.798 -1.1299 1.14552 0
M  V30 9025 O 855.99 -1.07756 1.4042 0
M  V30 9026 C 853.119 -1.83963 2.89849 0
M  V30 9027 C 852.205 -1.37641 4.01143 0
M  V30 9028 N 852.596 -0.628269 5.01883 0
M  V30 9029 C 850.894 -1.66066 4.1393 0
M  V30 9030 C 851.595 -0.386746 5.80413 0
M  V30 9031 N 850.571 -0.954665 5.35151 0
M  V30 9032 H 854.373 -0.0691616 2.93819 0
M  V30 9033 H 851.887 0.0624525 1.6228 0
M  V30 9034 H 853.884 -2.50151 3.33512 0
M  V30 9035 H 852.544 -2.42334 2.16112 0
M  V30 9036 H 853.555 -0.277123 5.17158 0
M  V30 9037 H 850.232 -2.25484 3.51373 0
M  V30 9038 H 851.622 0.211382 6.71567 0
M  V30 9039 N 854.342 -1.57594 -0.0133615 0
M  V30 9040 C 855.29 -2.08682 -1.02736 0
M  V30 9041 C 856.284 -1.00391 -1.36448 0
M  V30 9042 O 857.49 -1.18868 -1.35168 0
M  V30 9043 H 853.865 -0.666158 -0.34891 0
M  V30 9044 H 855.836 -2.9289 -0.570815 0
M  V30 9045 C 854.585 -2.5945 -2.31476 0
M  V30 9046 H 853.908 -3.42401 -2.06401 0
M  V30 9047 H 855.348 -2.98888 -3.00735 0
M  V30 9048 C 853.807 -1.50266 -3.01533 0
M  V30 9049 O 854.337 -0.877875 -3.9199 0
M  V30 9050 N 852.543 -1.23336 -2.63129 0
M  V30 9051 H 852.09 -1.74327 -1.89652 0
M  V30 9052 H 852.048 -0.504987 -3.10318 0
M  V30 9053 N 855.82 0.285905 -1.54985 0
M  V30 9054 C 856.767 1.35306 -1.86978 0
M  V30 9055 C 857.737 1.49682 -0.720046 0
M  V30 9056 O 858.922 1.64297 -0.970107 0
M  V30 9057 C 856.062 2.71059 -2.13591 0
M  V30 9058 C 855.175 2.6501 -3.41165 0
M  V30 9059 C 854.31 3.92856 -3.57544 0
M  V30 9060 C 853.349 3.81266 -4.78855 0
M  V30 9061 N 852.486 5.00919 -4.9196 0
M  V30 9062 H 857.326 1.07323 -2.78003 0
M  V30 9063 H 854.863 0.518776 -1.37649 0
M  V30 9064 H 856.821 3.50026 -2.27019 0
M  V30 9065 H 855.451 2.97271 -1.25816 0
M  V30 9066 H 854.503 1.77824 -3.36278 0
M  V30 9067 H 855.815 2.52342 -4.30262 0
M  V30 9068 H 854.969 4.80263 -3.70718 0
M  V30 9069 H 853.708 4.08377 -2.66608 0
M  V30 9070 H 852.713 2.92243 -4.65698 0
M  V30 9071 H 853.938 3.67277 -5.71213 0
M  V30 9072 H 851.884 5.16875 -4.03951 0
M  V30 9073 H 851.801 4.90732 -5.75081 0
M  V30 9074 H 853.069 5.89935 -5.09507 0
M  V30 9075 N 857.298 1.47698 0.54982 0
M  V30 9076 C 858.208 1.63386 1.68351 0
M  V30 9077 C 859.224 0.516583 1.66155 0
M  V30 9078 O 860.4 0.785088 1.85468 0
M  V30 9079 C 857.465 1.6513 3.04849 0
M  V30 9080 C 856.526 2.88338 3.18056 0
M  V30 9081 C 855.759 2.8999 4.48042 0
M  V30 9082 O 855.982 2.00633 5.3395 0
M  V30 9083 O 854.916 3.81938 4.65196 0
M  V30 9084 H 858.742 2.59329 1.58057 0
M  V30 9085 H 856.327 1.30869 0.72067 0
M  V30 9086 H 858.209 1.68913 3.86065 0
M  V30 9087 H 856.884 0.723555 3.1551 0
M  V30 9088 H 855.791 2.90097 2.36209 0
M  V30 9089 H 857.124 3.80431 3.12302 0
M  V30 9090 N 858.776 -0.797141 1.35954 0
M  V30 9091 C 860.024 -1.55161 1.29497 0
M  V30 9092 C 860.345 -1.94582 -0.127659 0
M  V30 9093 O 859.615 -1.64343 -1.06622 0
M  V30 9094 H 858.195 -0.575413 0.47635 0
M  V30 9095 H 860.857 -0.950282 1.70164 0
M  V30 9096 H 859.953 -2.46272 1.9172 0
M  V30 9097 N 860.254 -1.20106 -1.0204 0
M  V30 9098 C 861.494 -1.02013 -1.77123 0
M  V30 9099 C 861.858 0.440439 -1.8688 0
M  V30 9100 O 863.059 0.74144 -2.58372 0
M  V30 9101 C 861.33 -1.68058 -3.15423 0
M  V30 9102 S 862.889 -1.65016 -4.0659 0
M  V30 9103 H 859.707 -0.365882 -0.609632 0
M  V30 9104 H 862.309 -1.52597 -1.22206 0
M  V30 9105 H 861.013 -2.73544 -3.05944 0
M  V30 9106 H 860.544 -1.17589 -3.75415 0
M  V30 9107 H 862.559 -0.680341 -4.91514 0
M  V30 9108 N 861.732 1.21287 -1.00634 0
M  V30 9109 C 863.143 1.72136 -0.722914 0
M  V30 9110 C 863.494 1.8091 0.759338 0
M  V30 9111 O 862.619 1.46458 1.59308 0
M  V30 9112 C 863.214 3.12633 -1.30561 0
M  V30 9113 C 861.773 3.60833 -1.07127 0
M  V30 9114 C 860.92 2.38326 -1.4176 0
M  V30 9115 H 863.871 1.06445 -1.17708 0
M  V30 9116 H 863.892 3.74174 -0.690937 0
M  V30 9117 H 863.404 3.06215 -2.38441 0
M  V30 9118 H 861.505 3.72599 -0.00968671 0
M  V30 9119 H 861.618 4.46226 -1.74411 0
M  V30 9120 H 859.982 2.40575 -0.836412 0
M  V30 9121 H 860.765 2.34558 -2.50674 0
M  V30 9122 N 863.21 0.781244 1.36873 0
M  V30 9123 C 864.14 0.188128 2.32741 0
M  V30 9124 C 865.121 -0.672326 1.56249 0
M  V30 9125 O 866.306 -0.607835 1.84442 0
M  V30 9126 C 863.436 -0.684341 3.40491 0
M  V30 9127 C 862.39 0.0755641 4.27933 0
M  V30 9128 C 861.716 -0.916968 5.26779 0
M  V30 9129 C 863.016 1.26006 5.06873 0
M  V30 9130 H 864.71 0.989016 2.82593 0
M  V30 9131 H 862.256 0.477038 1.35869 0
M  V30 9132 H 864.209 -1.10915 4.06541 0
M  V30 9133 H 862.933 -1.51785 2.89187 0
M  V30 9134 H 861.592 0.481258 3.63427 0
M  V30 9135 H 861.24 -1.74528 4.71751 0
M  V30 9136 H 860.94 -0.413 5.86147 0
M  V30 9137 H 862.464 -1.34052 5.95703 0
M  V30 9138 H 863.878 0.911425 5.66009 0
M  V30 9139 H 862.275 1.69676 5.75613 0
M  V30 9140 H 863.345 2.05948 4.38991 0
M  V30 9141 N 864.689 -1.48329 0.532571 0
M  V30 9142 C 865.966 -1.95492 -0.0650985 0
M  V30 9143 C 866.346 -1.47485 -1.51034 0
M  V30 9144 O 865.694 -0.702516 -2.17433 0
M  V30 9145 C 865.904 -3.48957 0.0548341 0
M  V30 9146 C 867.252 -4.24475 -0.103115 0
M  V30 9147 O 868.276 -3.56195 -0.0188343 0
M  V30 9148 O 867.135 -5.45781 -0.280164 0
M  V30 9149 H 864.229 -0.823327 -0.0778603 0
M  V30 9150 H 866.775 -1.58839 0.597353 0
M  V30 9151 H 865.547 -3.76628 1.06148 0
M  V30 9152 H 865.17 -3.92311 -0.64635 0
M  V30 9153 N 866.167 -0.267825 -1.55308 0
M  V30 9154 C 867.413 0.351556 -1.9973 0
M  V30 9155 C 867.746 1.56049 -1.15596 0
M  V30 9156 O 867.021 1.93203 -0.224274 0
M  V30 9157 C 867.304 0.74091 -3.52395 0
M  V30 9158 C 867.157 -0.474861 -4.47286 0
M  V30 9159 C 868.476 1.5801 -4.10756 0
M  V30 9160 H 865.595 0.126308 -0.726096 0
M  V30 9161 H 868.237 -0.373316 -1.86296 0
M  V30 9162 H 866.387 1.35851 -3.63973 0
M  V30 9163 H 868.059 -1.1134 -4.47662 0
M  V30 9164 H 866.302 -1.11425 -4.19246 0
M  V30 9165 H 866.973 -0.158782 -5.51772 0
M  V30 9166 H 869.449 1.05857 -4.0241 0
M  V30 9167 H 868.325 1.82135 -5.17801 0
M  V30 9168 H 868.586 2.55878 -3.60526 0
M  V30 9169 N 867.645 1.57599 0.00500368 0
M  V30 9170 C 868.873 1.94626 0.702016 0
M  V30 9171 C 869.288 0.86953 1.67585 0
M  V30 9172 O 868.645 -0.15199 1.81866 0
M  V30 9173 C 868.696 3.31658 1.43824 0
M  V30 9174 O 868.417 4.35197 0.503467 0
M  V30 9175 C 869.918 3.83114 2.23021 0
M  V30 9176 H 867.138 0.641785 0.195841 0
M  V30 9177 H 869.682 2.04451 -0.0446287 0
M  V30 9178 H 867.837 3.23156 2.13655 0
M  V30 9179 H 868.251 5.1444 1.02235 0
M  V30 9180 H 869.725 4.81438 2.7004 0
M  V30 9181 H 870.202 3.15559 3.05482 0
M  V30 9182 H 870.808 3.94775 1.58216 0
M  V30 9183 N 869.123 -0.277682 1.55134 0
M  V30 9184 C 870.371 -1.00791 1.75173 0
M  V30 9185 C 870.692 -1.86987 0.553266 0
M  V30 9186 O 869.962 -1.91079 -0.43195 0
M  V30 9187 H 868.542 -0.375129 0.645978 0
M  V30 9188 H 871.204 -0.303041 1.9253 0
M  V30 9189 H 870.3 -1.64756 2.6507 0
M  V30 9190 N 870.601 -1.47988 -0.541979 0
M  V30 9191 C 871.829 -1.59034 -1.32347 0
M  V30 9192 C 872.244 -0.246123 -1.87189 0
M  V30 9193 O 871.601 0.762889 -1.6579 0
M  V30 9194 C 871.652 -2.62759 -2.48274 0
M  V30 9195 O 871.373 -3.91963 -1.95695 0
M  V30 9196 C 872.874 -2.84133 -3.4027 0
M  V30 9197 H 870.094 -0.536574 -0.402901 0
M  V30 9198 H 872.638 -1.93725 -0.655045 0
M  V30 9199 H 870.793 -2.3096 -3.11025 0
M  V30 9200 H 871.207 -4.48769 -2.7149 0
M  V30 9201 H 872.681 -3.60538 -4.17991 0
M  V30 9202 H 873.158 -1.92512 -3.9476 0
M  V30 9203 H 873.764 -3.17188 -2.83322 0
M  V30 9204 N 872.079 0.78992 -1.36375 0
M  V30 9205 C 873.327 1.54472 -1.30319 0
M  V30 9206 C 873.648 1.94647 0.117338 0
M  V30 9207 O 872.918 1.64906 1.05748 0
M  V30 9208 H 871.498 0.572879 -0.479394 0
M  V30 9209 H 874.16 0.941245 -1.70665 0
M  V30 9210 H 873.256 2.45252 -1.93024 0
M  V30 9211 N 873.557 1.20646 1.01402 0
M  V30 9212 C 874.467 0.973385 2.13453 0
M  V30 9213 C 875.483 -0.0715865 1.73853 0
M  V30 9214 O 876.659 0.116438 2.01063 0
M  V30 9215 C 873.724 0.531285 3.42605 0
M  V30 9216 C 872.785 1.64741 3.96433 0
M  V30 9217 C 872.018 1.22631 5.1942 0
M  V30 9218 O 872.241 0.0960891 5.70319 0
M  V30 9219 O 871.175 2.03474 5.66465 0
M  V30 9220 H 875.001 1.91164 2.35987 0
M  V30 9221 H 872.586 0.990553 1.11841 0
M  V30 9222 H 874.468 0.294095 4.20373 0
M  V30 9223 H 873.143 -0.378358 3.21481 0
M  V30 9224 H 872.05 1.93891 3.19933 0
M  V30 9225 H 873.383 2.53415 4.2195 0
M  V30 9226 N 875.035 -1.20752 1.01276 0
M  V30 9227 C 876.283 -1.89645 0.698505 0
M  V30 9228 C 876.604 -1.78986 -0.773883 0
M  V30 9229 O 875.874 -1.18977 -1.55632 0
M  V30 9230 H 874.454 -0.701992 0.255375 0
M  V30 9231 H 877.116 -1.46668 1.28353 0
M  V30 9232 H 876.212 -2.96364 0.978512 0
M  V30 9233 N 876.513 -0.788492 -1.36457 0
M  V30 9234 C 877.476 -0.192209 -2.28393 0
M  V30 9235 C 878.476 0.609916 -1.48784 0
M  V30 9236 O 879.666 0.431046 -1.68783 0
M  V30 9237 C 876.798 0.734096 -3.32902 0
M  V30 9238 H 877.991 -1.00284 -2.82636 0
M  V30 9239 H 875.544 -0.557852 -1.46006 0
M  V30 9240 H 876.279 1.5691 -2.83813 0
M  V30 9241 H 876.064 0.160875 -3.9177 0
M  V30 9242 H 877.554 1.1462 -4.01562 0
M  V30 9243 N 877.991 1.48044 -0.54043 0
M  V30 9244 C 879.221 2.06595 -0.0144943 0
M  V30 9245 C 879.629 1.39593 1.27713 0
M  V30 9246 O 878.972 0.480794 1.77297 0
M  V30 9247 C 879.034 3.5849 0.269316 0
M  V30 9248 C 878.698 4.47429 -0.930372 0
M  V30 9249 C 879.695 4.8657 -1.83155 0
M  V30 9250 C 877.38 4.89185 -1.14032 0
M  V30 9251 C 879.374 5.66246 -2.92649 0
M  V30 9252 C 877.061 5.6863 -2.23838 0
M  V30 9253 C 878.059 6.07069 -3.12979 0
M  V30 9254 O 877.747 6.84917 -4.20884 0
M  V30 9255 H 877.479 0.675086 -0.0351467 0
M  V30 9256 H 880.033 1.91275 -0.74853 0
M  V30 9257 H 878.263 3.71961 1.05745 0
M  V30 9258 H 879.952 3.99124 0.738595 0
M  V30 9259 H 880.718 4.54924 -1.68134 0
M  V30 9260 H 876.597 4.58742 -0.455717 0
M  V30 9261 H 880.141 5.96169 -3.62254 0
M  V30 9262 H 876.038 5.99688 -2.38839 0
M  V30 9263 H 876.806 7.03287 -4.18723 0
M  V30 9264 N 879.47 0.276058 1.55163 0
M  V30 9265 C 880.403 -0.652386 2.18676 0
M  V30 9266 C 881.381 -1.15151 1.148 0
M  V30 9267 O 882.565 -1.22431 1.43328 0
M  V30 9268 C 879.692 -1.88982 2.81076 0
M  V30 9269 C 878.738 -1.52609 3.98262 0
M  V30 9270 S 879.571 -0.603445 5.32089 0
M  V30 9271 C 880.727 -1.84923 5.97958 0
M  V30 9272 H 880.96 -0.112733 2.97086 0
M  V30 9273 H 878.493 0.0603118 1.54282 0
M  V30 9274 H 880.451 -2.60007 3.17658 0
M  V30 9275 H 879.112 -2.40061 2.02557 0
M  V30 9276 H 878.305 -2.44689 4.40617 0
M  V30 9277 H 877.907 -0.89601 3.63108 0
M  V30 9278 H 880.199 -2.79303 6.17249 0
M  V30 9279 H 881.142 -1.46868 6.92702 0
M  V30 9280 H 881.55 -2.0146 5.27327 0
M  V30 9281 N 880.948 -1.576 0.00335426 0
M  V30 9282 C 882.194 -1.90996 -0.681799 0
M  V30 9283 C 882.527 -0.877643 -1.73237 0
M  V30 9284 O 881.802 0.103183 -1.94226 0
M  V30 9285 C 882.085 -3.34961 -1.32187 0
M  V30 9286 C 881.938 -4.48911 -0.28261 0
M  V30 9287 C 883.257 -3.78408 -2.24711 0
M  V30 9288 H 880.376 -0.694596 -0.246386 0
M  V30 9289 H 883.018 -1.89919 0.055336 0
M  V30 9290 H 881.168 -3.36008 -1.95014 0
M  V30 9291 H 882.84 -4.59999 0.346241 0
M  V30 9292 H 881.083 -4.32 0.394768 0
M  V30 9293 H 881.754 -5.46609 -0.769576 0
M  V30 9294 H 884.23 -3.78934 -1.71897 0
M  V30 9295 H 883.106 -4.79885 -2.66461 0
M  V30 9296 H 883.367 -3.12464 -3.1276 0
M  V30 9297 N 882.426 0.269451 -1.5528 0
M  V30 9298 C 883.656 1.01724 -1.79821 0
M  V30 9299 C 884.064 1.80298 -0.573532 0
M  V30 9300 O 883.407 1.77666 0.466963 0
M  V30 9301 C 883.469 2.02043 -2.97353 0
M  V30 9302 C 883.133 1.42375 -4.34256 0
M  V30 9303 C 884.13 0.837611 -5.13108 0
M  V30 9304 C 881.815 1.44988 -4.8092 0
M  V30 9305 C 883.809 0.285557 -6.3676 0
M  V30 9306 C 881.496 0.893969 -6.04526 0
M  V30 9307 C 882.494 0.312809 -6.82283 0
M  V30 9308 O 882.182 -0.234582 -8.03558 0
M  V30 9309 H 881.914 0.30604 -0.602757 0
M  V30 9310 H 884.468 0.30454 -2.0313 0
M  V30 9311 H 882.698 2.77082 -2.69745 0
M  V30 9312 H 884.387 2.6298 -3.09187 0
M  V30 9313 H 885.153 0.81009 -4.78187 0
M  V30 9314 H 881.032 1.89162 -4.20403 0
M  V30 9315 H 884.576 -0.168696 -6.97396 0
M  V30 9316 H 880.473 0.918742 -6.38928 0
M  V30 9317 H 881.241 -0.124282 -8.18406 0
M  V30 9318 N 883.904 1.48273 0.534124 0
M  V30 9319 C 885.151 1.56079 1.29017 0
M  V30 9320 C 885.479 0.232912 1.931 0
M  V30 9321 O 884.734 -0.77642 1.79639 0
M  V30 9322 C 885.033 2.64468 2.40398 0
M  V30 9323 C 884.699 4.07034 1.93995 0
M  V30 9324 C 883.361 4.45838 1.81058 0
M  V30 9325 C 885.713 4.96395 1.58877 0
M  V30 9326 C 883.041 5.71812 1.31331 0
M  V30 9327 C 885.393 6.22854 1.10614 0
M  V30 9328 C 884.057 6.60518 0.962895 0
M  V30 9329 H 883.327 0.571135 0.472108 0
M  V30 9330 H 885.974 1.81973 0.5965 0
M  V30 9331 H 884.279 2.32419 3.15418 0
M  V30 9332 H 885.976 2.67725 2.98537 0
M  V30 9333 H 882.566 3.76387 2.05015 0
M  V30 9334 H 886.75 4.67096 1.67734 0
M  V30 9335 H 882.006 5.99722 1.18924 0
M  V30 9336 H 886.18 6.91495 0.825095 0
M  V30 9337 H 883.807 7.58019 0.575369 0
M  V30 9338 N 885.382 -0.782676 1.36792 0
M  V30 9339 C 886.628 -1.54311 1.3159 0
M  V30 9340 C 886.961 -1.93928 -0.102696 0
M  V30 9341 O 886.236 -1.63233 -1.05761 0
M  V30 9342 C 886.519 -2.81561 2.24489 0
M  V30 9343 C 886.372 -2.48268 3.75078 0
M  V30 9344 C 887.691 -3.83428 2.16034 0
M  V30 9345 H 884.81 -0.559828 0.479335 0
M  V30 9346 H 887.452 -0.898717 1.67401 0
M  V30 9347 H 885.602 -3.36549 1.9408 0
M  V30 9348 H 887.274 -1.99279 4.16036 0
M  V30 9349 H 885.517 -1.81116 3.94182 0
M  V30 9350 H 886.188 -3.39183 4.35499 0
M  V30 9351 H 888.664 -3.37905 2.42815 0
M  V30 9352 H 887.54 -4.70204 2.83194 0
M  V30 9353 H 887.801 -4.26887 1.14976 0
M  V30 9354 N 886.86 -1.21182 -1.00761 0
M  V30 9355 C 888.085 -1.05411 -1.78615 0
M  V30 9356 C 888.51 0.391837 -1.83973 0
M  V30 9357 O 887.868 1.28256 -1.28141 0
M  V30 9358 C 887.916 -1.65285 -3.20489 0
M  V30 9359 O 887.02 -0.896558 -4.02536 0
M  V30 9360 H 886.361 -0.37116 -0.550578 0
M  V30 9361 H 888.891 -1.60669 -1.26676 0
M  V30 9362 H 888.901 -1.69397 -3.71172 0
M  V30 9363 H 887.576 -2.70514 -3.15904 0
M  V30 9364 H 886.153 -0.930335 -3.61108 0
M  V30 9365 N 888.338 1.20213 -1.01915 0
M  V30 9366 C 889.585 1.89647 -0.709955 0
M  V30 9367 C 889.913 1.7901 0.760631 0
M  V30 9368 O 889.168 1.17028 1.56853 0
M  V30 9369 C 889.467 3.40232 -1.09438 0
M  V30 9370 C 889.133 3.7107 -2.5616 0
M  V30 9371 C 887.795 3.79196 -2.96249 0
M  V30 9372 C 890.147 3.85169 -3.51133 0
M  V30 9373 C 887.475 3.98882 -4.30244 0
M  V30 9374 C 889.827 4.06365 -4.8482 0
M  V30 9375 C 888.491 4.12722 -5.24611 0
M  V30 9376 H 887.761 0.693967 -0.259791 0
M  V30 9377 H 890.408 1.42419 -1.2802 0
M  V30 9378 H 888.713 3.89292 -0.442596 0
M  V30 9379 H 890.41 3.92257 -0.832811 0
M  V30 9380 H 887 3.65346 -2.24099 0
M  V30 9381 H 891.184 3.78243 -3.21319 0
M  V30 9382 H 886.44 4.02039 -4.60624 0
M  V30 9383 H 890.614 4.16216 -5.58334 0
M  V30 9384 H 888.241 4.27728 -6.28453 0
M  V30 9385 N 889.816 0.795718 1.36037 0
M  V30 9386 C 890.746 0.212803 2.32528 0
M  V30 9387 C 891.727 -0.655716 1.56953 0
M  V30 9388 O 892.912 -0.588238 1.85077 0
M  V30 9389 C 890.042 -0.648189 3.41198 0
M  V30 9390 C 888.996 0.120948 4.27829 0
M  V30 9391 C 888.322 -0.861044 5.27722 0
M  V30 9392 C 889.622 1.31375 5.05508 0
M  V30 9393 H 891.316 1.01893 2.81528 0
M  V30 9394 H 888.862 0.491422 1.35355 0
M  V30 9395 H 890.815 -1.06597 4.07695 0
M  V30 9396 H 889.539 -1.48709 2.9078 0
M  V30 9397 H 888.198 0.519777 3.62897 0
M  V30 9398 H 887.846 -1.69515 4.73575 0
M  V30 9399 H 887.546 -0.350808 5.86552 0
M  V30 9400 H 889.07 -1.27726 5.97092 0
M  V30 9401 H 890.484 0.971406 5.6501 0
M  V30 9402 H 888.881 1.75772 5.73781 0
M  V30 9403 H 889.951 2.10593 4.36782 0
M  V30 9404 N 891.294 -1.47756 0.548274 0
M  V30 9405 C 892.542 -2.02089 0.0208542 0
M  V30 9406 C 892.863 -1.42589 -1.33017 0
M  V30 9407 O 892.133 -0.597825 -1.86555 0
M  V30 9408 H 890.713 -0.746985 0.00472023 0
M  V30 9409 H 893.375 -1.81262 0.716257 0
M  V30 9410 H 892.471 -3.12012 -0.0739016 0
M  V30 9411 N 892.772 -0.284283 -1.55015 0
M  V30 9412 C 894 0.332948 -2.04203 0
M  V30 9413 C 894.415 1.48783 -1.16229 0
M  V30 9414 O 893.772 1.81567 -0.184323 0
M  V30 9415 C 893.823 0.805207 -3.52418 0
M  V30 9416 O 893.544 -0.303689 -4.37046 0
M  V30 9417 C 895.045 1.48931 -4.17534 0
M  V30 9418 H 892.265 0.0747447 -0.666824 0
M  V30 9419 H 894.809 -0.419048 -2.00161 0
M  V30 9420 H 892.964 1.50727 -3.56876 0
M  V30 9421 H 893.378 0.0609703 -5.24465 0
M  V30 9422 H 894.852 1.77108 -5.22816 0
M  V30 9423 H 895.329 2.42389 -3.66257 0
M  V30 9424 H 895.935 0.830867 -4.17105 0
M  V30 9425 N 894.251 1.57596 -0.0117121 0
M  V30 9426 C 895.181 2.12188 0.9746 0
M  V30 9427 C 896.162 1.03379 1.35081 0
M  V30 9428 O 897.347 1.31123 1.4325 0
M  V30 9429 C 894.477 2.63477 2.26268 0
M  V30 9430 C 893.431 3.76917 2.02774 0
M  V30 9431 C 892.757 4.14566 3.37697 0
M  V30 9432 C 894.057 5.03715 1.38089 0
M  V30 9433 H 895.751 2.9485 0.520007 0
M  V30 9434 H 893.297 1.41836 0.248685 0
M  V30 9435 H 895.25 3.00299 2.95633 0
M  V30 9436 H 893.974 1.77953 2.73862 0
M  V30 9437 H 892.633 3.40507 1.35832 0
M  V30 9438 H 892.281 3.26048 3.83016 0
M  V30 9439 H 891.981 4.91 3.22789 0
M  V30 9440 H 893.505 4.53956 4.08358 0
M  V30 9441 H 894.919 5.38233 1.97428 0
M  V30 9442 H 893.316 5.85032 1.33634 0
M  V30 9443 H 894.386 4.83624 0.351575 0
M  V30 9444 N 895.729 -0.261212 1.5542 0
M  V30 9445 C 896.692 -1.30645 1.8832 0
M  V30 9446 C 897.692 -1.41782 0.758588 0
M  V30 9447 O 898.882 -1.40729 1.02669 0
M  V30 9448 C 896.014 -2.6862 2.09895 0
M  V30 9449 H 897.207 -1.02698 2.81768 0
M  V30 9450 H 894.76 -0.499838 1.48092 0
M  V30 9451 H 895.495 -3.0173 1.18868 0
M  V30 9452 H 895.28 -2.61921 2.91787 0
M  V30 9453 H 896.77 -3.44121 2.36581 0
M  V30 9454 N 897.207 -1.48554 -0.526253 0
M  V30 9455 C 898.453 -1.56994 -1.28378 0
M  V30 9456 C 898.786 -0.244701 -1.92652 0
M  V30 9457 O 898.061 0.749636 -1.79473 0
M  V30 9458 C 898.344 -2.71092 -2.37026 0
M  V30 9459 C 898.197 -4.13331 -1.77418 0
M  V30 9460 C 899.516 -2.80934 -3.38769 0
M  V30 9461 H 896.635 -0.571466 -0.465398 0
M  V30 9462 H 899.277 -1.80742 -0.585861 0
M  V30 9463 H 897.427 -2.50973 -2.96555 0
M  V30 9464 H 899.099 -4.44899 -1.21912 0
M  V30 9465 H 897.342 -4.20158 -1.07936 0
M  V30 9466 H 898.013 -4.88994 -2.56104 0
M  V30 9467 H 900.489 -2.9917 -2.892 0
M  V30 9468 H 899.365 -3.62489 -4.12181 0
M  V30 9469 H 899.626 -1.89244 -3.99549 0
M  V30 9470 N 898.685 0.775411 -1.37205 0
M  V30 9471 C 899.615 1.90258 -1.35367 0
M  V30 9472 C 900.596 1.68634 -0.222864 0
M  V30 9473 O 901.781 1.89545 -0.422659 0
M  V30 9474 C 898.911 3.27488 -1.15623 0
M  V30 9475 C 897.865 3.63668 -2.25676 0
M  V30 9476 C 897.191 4.994 -1.91059 0
M  V30 9477 C 898.491 3.70797 -3.67841 0
M  V30 9478 H 900.185 1.92053 -2.29687 0
M  V30 9479 H 897.731 0.922597 -1.10563 0
M  V30 9480 H 899.684 4.05976 -1.12968 0
M  V30 9481 H 898.408 3.26117 -0.177573 0
M  V30 9482 H 897.067 2.87486 -2.2748 0
M  V30 9483 H 896.715 4.94565 -0.917324 0
M  V30 9484 H 896.415 5.24576 -2.64751 0
M  V30 9485 H 897.939 5.80291 -1.89985 0
M  V30 9486 H 899.353 4.39444 -3.68187 0
M  V30 9487 H 897.75 4.07468 -4.40556 0
M  V30 9488 H 898.82 2.71549 -4.01732 0
M  V30 9489 N 900.163 1.21714 1.00117 0
M  V30 9490 C 901.574 1.03477 1.55401 0
M  V30 9491 C 901.925 -0.40429 1.91989 0
M  V30 9492 O 901.05 -1.28807 1.7389 0
M  V30 9493 C 901.645 1.87213 2.82377 0
M  V30 9494 C 900.204 1.73297 3.34133 0
M  V30 9495 C 899.351 1.84189 2.07291 0
M  V30 9496 H 902.302 1.3568 0.823195 0
M  V30 9497 H 902.323 1.38465 3.54412 0
M  V30 9498 H 901.835 2.91944 2.55715 0
M  V30 9499 H 899.936 0.712662 3.65721 0
M  V30 9500 H 900.049 2.55486 4.05294 0
M  V30 9501 H 898.413 1.27538 2.20468 0
M  V30 9502 H 899.196 2.90435 1.83037 0
M  V30 9503 N 901.641 -1.19671 1.02551 0
M  V30 9504 C 902.889 -1.88894 0.71858 0
M  V30 9505 C 903.21 -1.79797 -0.754856 0
M  V30 9506 O 902.48 -1.20621 -1.54362 0
M  V30 9507 H 901.06 -0.699244 0.262806 0
M  V30 9508 H 903.722 -1.45298 1.29902 0
M  V30 9509 H 902.818 -2.95309 1.00989 0
M  V30 9510 N 903.119 -0.802921 -1.35613 0
M  V30 9511 C 904.067 -0.198783 -2.31749 0
M  V30 9512 C 905.061 0.649416 -1.56458 0
M  V30 9513 O 906.267 0.542989 -1.71615 0
M  V30 9514 H 902.642 -0.0455177 -0.750621 0
M  V30 9515 H 904.613 -1.02479 -2.80251 0
M  V30 9516 C 903.362 0.641066 -3.41739 0
M  V30 9517 H 902.685 -0.00226244 -3.998 0
M  V30 9518 H 904.125 1.03022 -4.11294 0
M  V30 9519 C 902.584 1.80505 -2.84464 0
M  V30 9520 O 903.114 2.90235 -2.77717 0
M  V30 9521 N 901.32 1.61542 -2.41563 0
M  V30 9522 H 900.867 0.722863 -2.4725 0
M  V30 9523 H 900.825 2.39581 -2.03589 0
M  V30 9524 N 904.597 1.47463 -0.556102 0
M  V30 9525 C 905.846 2.01678 -0.029492 0
M  V30 9526 C 906.159 1.436 1.32809 0
M  V30 9527 O 907.365 1.89472 1.94455 0
M  V30 9528 C 905.821 3.599 -0.00223937 0
M  V30 9529 C 905.429 4.26969 -1.35651 0
M  V30 9530 C 907.173 4.2187 0.471822 0
M  V30 9531 C 905.08 5.77194 -1.28843 0
M  V30 9532 H 904.01 0.753965 -0.00725504 0
M  V30 9533 H 906.661 1.69467 -0.703789 0
M  V30 9534 H 905.043 3.89068 0.737682 0
M  V30 9535 H 906.217 4.09444 -2.11406 0
M  V30 9536 H 904.532 3.76983 -1.76842 0
M  V30 9537 H 907.129 5.31955 0.541139 0
M  V30 9538 H 907.472 3.88968 1.48356 0
M  V30 9539 H 908.005 3.97228 -0.213207 0
M  V30 9540 H 904.744 6.14713 -2.27613 0
M  V30 9541 H 904.264 5.9706 -0.572668 0
M  V30 9542 H 905.943 6.3938 -0.990031 0
M  V30 9543 N 906.075 0.2925 1.54862 0
M  V30 9544 C 907.321 -0.319736 2.00264 0
M  V30 9545 C 907.654 -1.5419 1.18064 0
M  V30 9546 O 906.929 -1.92821 0.254983 0
M  V30 9547 C 907.212 -0.684753 3.5353 0
M  V30 9548 C 907.065 0.545961 4.46474 0
M  V30 9549 C 908.384 -1.51456 4.13218 0
M  V30 9550 H 905.503 -0.11474 0.728014 0
M  V30 9551 H 908.145 0.402907 1.85679 0
M  V30 9552 H 906.295 -1.30044 3.66089 0
M  V30 9553 H 907.967 1.18448 4.45834 0
M  V30 9554 H 906.21 1.1808 4.1742 0
M  V30 9555 H 906.881 0.246544 5.51449 0
M  V30 9556 H 909.357 -0.994421 4.04043 0
M  V30 9557 H 908.233 -1.73875 5.20633 0
M  V30 9558 H 908.494 -2.5011 3.64551 0
M  V30 9559 N 907.553 -1.57587 0.0200696 0
M  V30 9560 C 908.778 -1.96124 -0.674547 0
M  V30 9561 C 909.203 -0.896068 -1.65385 0
M  V30 9562 O 908.561 0.143925 -1.80728 0
M  V30 9563 C 908.609 -3.3376 -1.36517 0
M  V30 9564 O 907.713 -3.29483 -2.48022 0
M  V30 9565 H 907.054 -0.639719 -0.177919 0
M  V30 9566 H 909.584 -2.04447 0.0792317 0
M  V30 9567 H 909.594 -3.69785 -1.72403 0
M  V30 9568 H 908.269 -4.10832 -0.647265 0
M  V30 9569 H 906.846 -3.05162 -2.14314 0
M  V30 9570 N 909.032 0.252966 -1.55557 0
M  V30 9571 C 909.995 1.29645 -1.8901 0
M  V30 9572 C 910.995 1.41378 -0.766096 0
M  V30 9573 O 912.185 1.40183 -1.03414 0
M  V30 9574 C 909.317 2.67504 -2.11316 0
M  V30 9575 H 910.51 1.01202 -2.82309 0
M  V30 9576 H 908.063 0.491977 -1.48355 0
M  V30 9577 H 908.798 3.01095 -1.20466 0
M  V30 9578 H 908.583 2.6037 -2.93172 0
M  V30 9579 H 910.073 3.42861 -2.38403 0
M  V30 9580 N 910.51 1.48831 0.518367 0
M  V30 9581 C 911.44 1.67119 1.63075 0
M  V30 9582 C 912.421 0.519948 1.61958 0
M  V30 9583 O 913.606 0.753824 1.78972 0
M  V30 9584 C 910.736 1.72158 3.01627 0
M  V30 9585 C 909.69 2.86898 3.17606 0
M  V30 9586 C 909.016 2.77035 4.57335 0
M  V30 9587 C 910.316 4.28057 2.99274 0
M  V30 9588 H 912.01 2.60248 1.48025 0
M  V30 9589 H 909.556 1.2524 0.710694 0
M  V30 9590 H 911.509 1.83539 3.7933 0
M  V30 9591 H 910.233 0.756157 3.17726 0
M  V30 9592 H 908.892 2.75091 2.42323 0
M  V30 9593 H 908.54 1.78438 4.70286 0
M  V30 9594 H 908.24 3.54036 4.6897 0
M  V30 9595 H 909.764 2.904 5.37122 0
M  V30 9596 H 911.178 4.40636 3.6676 0
M  V30 9597 H 909.575 5.06145 3.22393 0
M  V30 9598 H 910.645 4.4371 1.95574 0
M  V30 9599 N 911.988 -0.768124 1.37614 0
M  V30 9600 C 912.918 -1.89537 1.36374 0
M  V30 9601 C 913.899 -1.68513 0.231803 0
M  V30 9602 O 915.084 -1.89318 0.432705 0
M  V30 9603 C 912.214 -3.26871 1.17358 0
M  V30 9604 C 911.168 -3.62466 2.27602 0
M  V30 9605 C 910.494 -4.9838 1.93705 0
M  V30 9606 C 911.794 -3.68841 3.69802 0
M  V30 9607 H 913.488 -1.90832 2.30702 0
M  V30 9608 H 911.034 -0.91672 1.11051 0
M  V30 9609 H 912.987 -4.05371 1.15119 0
M  V30 9610 H 911.711 -3.26018 0.194865 0
M  V30 9611 H 910.37 -2.86276 2.29002 0
M  V30 9612 H 910.018 -4.94071 0.943539 0
M  V30 9613 H 909.718 -5.23165 2.6753 0
M  V30 9614 H 911.242 -5.79276 1.93059 0
M  V30 9615 H 912.656 -4.37485 3.70513 0
M  V30 9616 H 911.053 -4.05126 4.42711 0
M  V30 9617 H 912.123 -2.69415 4.03167 0
M  V30 9618 N 913.466 -1.22244 -0.994698 0
M  V30 9619 C 914.399 -0.934168 -2.08203 0
M  V30 9620 C 915.377 0.122231 -1.6214 0
M  V30 9621 O 916.561 -0.00896598 -1.88498 0
M  V30 9622 C 913.688 -0.404646 -3.36274 0
M  V30 9623 C 912.734 -1.44544 -4.01259 0
M  V30 9624 S 913.567 -3.01816 -4.42343 0
M  V30 9625 C 914.723 -2.50497 -5.73587 0
M  V30 9626 H 914.956 -1.85493 -2.32335 0
M  V30 9627 H 912.489 -1.0533 -1.12893 0
M  V30 9628 H 914.447 -0.105719 -4.10364 0
M  V30 9629 H 913.108 0.494971 -3.10176 0
M  V30 9630 H 912.301 -1.02478 -4.93472 0
M  V30 9631 H 911.903 -1.69298 -3.33488 0
M  V30 9632 H 914.195 -1.91626 -6.49835 0
M  V30 9633 H 915.138 -3.41193 -6.20478 0
M  V30 9634 H 915.546 -1.91845 -5.30901 0
M  V30 9635 N 914.944 1.19125 -1.03184 0
M  V30 9636 C 916.221 1.84674 -0.644574 0
M  V30 9637 C 916.601 1.92042 0.876534 0
M  V30 9638 O 915.949 1.43965 1.77444 0
M  V30 9639 C 916.159 3.23477 -1.3101 0
M  V30 9640 C 917.507 3.99608 -1.43524 0
M  V30 9641 O 918.531 3.32886 -1.2675 0
M  V30 9642 O 917.39 5.19132 -1.70776 0
M  V30 9643 H 914.484 0.795968 -0.22442 0
M  V30 9644 H 917.03 1.2659 -1.13018 0
M  V30 9645 H 915.802 3.12967 -2.34878 0
M  V30 9646 H 915.425 3.89209 -0.812547 0
M  V30 9647 N 916.422 0.810101 1.35185 0
M  V30 9648 C 917.369 0.220927 2.2974 0
M  V30 9649 C 918.339 -0.647024 1.5298 0
M  V30 9650 O 919.524 -0.591367 1.81404 0
M  V30 9651 C 916.664 -0.62167 3.39454 0
M  V30 9652 C 915.777 0.267104 4.31173 0
M  V30 9653 C 914.912 -0.583833 5.27982 0
M  V30 9654 C 913.951 0.305123 6.11339 0
M  V30 9655 N 913.088 -0.505992 7.00274 0
M  V30 9656 H 917.928 1.03266 2.79536 0
M  V30 9657 H 915.465 0.520768 1.37573 0
M  V30 9658 H 917.423 -1.12539 4.01735 0
M  V30 9659 H 916.053 -1.39863 2.90926 0
M  V30 9660 H 915.105 0.88895 3.69867 0
M  V30 9661 H 916.417 0.951182 4.89647 0
M  V30 9662 H 915.571 -1.15254 5.95652 0
M  V30 9663 H 914.31 -1.30146 4.70014 0
M  V30 9664 H 913.315 0.886075 5.42613 0
M  V30 9665 H 914.54 1.02067 6.71386 0
M  V30 9666 H 912.486 -1.20753 6.4479 0
M  V30 9667 H 912.403 0.119966 7.55905 0
M  V30 9668 H 913.671 -1.05787 7.72288 0
M  V30 9669 N 917.9 -1.47166 0.563914 0
M  V30 9670 C 919.149 -2.0166 0.0401871 0
M  V30 9671 C 919.462 -1.44303 -1.32046 0
M  V30 9672 O 920.668 -1.905 -1.93448 0
M  V30 9673 C 919.124 -3.59894 0.0213257 0
M  V30 9674 C 918.732 -4.26244 1.37914 0
M  V30 9675 C 920.476 -4.22114 -0.449442 0
M  V30 9676 C 918.383 -5.76503 1.31902 0
M  V30 9677 H 917.313 -0.753916 0.0112534 0
M  V30 9678 H 919.964 -1.69091 0.712766 0
M  V30 9679 H 918.346 -3.89454 -0.717038 0
M  V30 9680 H 919.52 -4.08317 2.13574 0
M  V30 9681 H 917.835 -3.76039 1.78839 0
M  V30 9682 H 920.432 -5.32234 -0.51292 0
M  V30 9683 H 920.775 -3.89749 -1.46291 0
M  V30 9684 H 921.308 -3.9711 0.23427 0
M  V30 9685 H 918.047 -6.13498 2.3087 0
M  V30 9686 H 917.567 -5.96748 0.604324 0
M  V30 9687 H 919.246 -6.38846 1.02392 0
M  V30 9688 N 919.378 -0.300708 -1.54705 0
M  V30 9689 C 920.626 0.308044 -1.99739 0
M  V30 9690 C 920.947 1.54433 -1.19061 0
M  V30 9691 O 920.217 1.93794 -0.286507 0
M  V30 9692 H 918.797 0.116811 -0.73781 0
M  V30 9693 H 921.459 -0.41197 -1.90496 0
M  V30 9694 H 920.555 0.580287 -3.06658 0
M  V30 9695 N 920.856 1.57574 -0.0284266 0
M  V30 9696 C 922.272 1.56194 0.327958 0
M  V30 9697 C 922.472 1.03397 1.72949 0
M  V30 9698 O 921.528 0.680392 2.4316 0
M  V30 9699 C 922.841 3.00177 0.177196 0
M  V30 9700 C 924.389 3.12 0.250014 0
M  V30 9701 C 924.864 4.57821 0.128049 0
M  V30 9702 N 926.355 4.6283 0.185054 0
M  V30 9703 C 927.09 5.73286 0.114454 0
M  V30 9704 N 926.586 6.928 -0.00719225 0
M  V30 9705 N 928.379 5.61848 0.16839 0
M  V30 9706 H 920.53 1.90224 -0.944921 0
M  V30 9707 H 922.793 0.874987 -0.364832 0
M  V30 9708 H 922.499 3.42753 -0.788224 0
M  V30 9709 H 922.373 3.65101 0.94768 0
M  V30 9710 H 924.76 2.69337 1.20589 0
M  V30 9711 H 924.841 2.49799 -0.550835 0
M  V30 9712 H 924.485 5.01165 -0.824407 0
M  V30 9713 H 924.415 5.18001 0.947753 0
M  V30 9714 H 926.906 3.76867 0.279247 0
M  V30 9715 H 927.219 7.72781 -0.0543903 0
M  V30 9716 H 925.564 6.94987 -0.0419648 0
M  V30 9717 H 928.755 4.67367 0.261821 0
M  V30 9718 H 928.928 6.47907 0.109908 0
M  V30 9719 N 922.334 -0.244713 1.55689 0
M  V30 9720 C 923.264 -1.30667 1.93516 0
M  V30 9721 C 924.245 -1.50094 0.800371 0
M  V30 9722 O 925.43 -1.62665 1.06083 0
M  V30 9723 C 922.56 -2.66101 2.23176 0
M  V30 9724 C 921.514 -2.61366 3.38927 0
M  V30 9725 C 920.84 -4.00616 3.54134 0
M  V30 9726 C 922.14 -2.18161 4.74555 0
M  V30 9727 H 923.834 -0.992546 2.82469 0
M  V30 9728 H 921.38 -0.476018 1.35905 0
M  V30 9729 H 923.333 -3.4053 2.48228 0
M  V30 9730 H 922.057 -2.99154 1.31051 0
M  V30 9731 H 920.716 -1.89395 3.13887 0
M  V30 9732 H 920.364 -4.30938 2.59426 0
M  V30 9733 H 920.064 -3.98335 4.31975 0
M  V30 9734 H 921.588 -4.76741 3.8151 0
M  V30 9735 H 923.002 -2.82323 4.98965 0
M  V30 9736 H 921.399 -2.26988 5.55515 0
M  V30 9737 H 922.469 -1.13333 4.7147 0
M  V30 9738 N 923.813 -1.49104 -0.510467 0
M  V30 9739 C 925.229 -1.35657 -0.840797 0
M  V30 9740 C 925.429 -0.382425 -1.97838 0
M  V30 9741 O 924.485 0.189331 -2.51789 0
M  V30 9742 C 925.798 -2.76155 -1.18992 0
M  V30 9743 C 927.346 -2.84786 -1.29868 0
M  V30 9744 C 927.821 -4.2603 -1.68115 0
M  V30 9745 N 929.312 -4.28796 -1.75181 0
M  V30 9746 C 930.047 -5.35041 -2.062 0
M  V30 9747 N 929.543 -6.51543 -2.35508 0
M  V30 9748 N 931.336 -5.2245 -2.07371 0
M  V30 9749 H 923.487 -2.11042 0.23982 0
M  V30 9750 H 925.75 -0.946946 0.0446824 0
M  V30 9751 H 925.456 -3.49092 -0.427484 0
M  V30 9752 H 925.33 -3.10922 -2.13558 0
M  V30 9753 H 927.717 -2.12092 -2.05186 0
M  V30 9754 H 927.798 -2.53613 -0.333758 0
M  V30 9755 H 927.442 -4.99247 -0.933512 0
M  V30 9756 H 927.372 -4.5466 -2.65691 0
M  V30 9757 H 929.863 -3.44771 -1.5473 0
M  V30 9758 H 930.176 -7.28342 -2.58337 0
M  V30 9759 H 928.521 -6.54785 -2.32985 0
M  V30 9760 H 931.712 -4.30444 -1.83945 0
M  V30 9761 H 931.885 -6.05347 -2.31212 0
M  V30 9762 N 925.291 0.760815 -1.38019 0
M  V30 9763 C 926.224 1.88212 -1.2904 0
M  V30 9764 C 927.202 1.61721 -0.168805 0
M  V30 9765 O 928.386 1.85318 -0.344893 0
M  V30 9766 C 925.513 3.23672 -0.997702 0
M  V30 9767 C 924.559 3.6906 -2.13769 0
M  V30 9768 S 925.392 3.81445 -3.75845 0
M  V30 9769 C 926.548 5.19736 -3.48748 0
M  V30 9770 H 926.781 1.95541 -2.23944 0
M  V30 9771 H 924.314 0.923051 -1.2377 0
M  V30 9772 H 926.272 4.01904 -0.835657 0
M  V30 9773 H 924.933 3.14031 -0.065967 0
M  V30 9774 H 924.126 4.67295 -1.88816 0
M  V30 9775 H 923.728 2.97961 -2.26043 0
M  V30 9776 H 926.02 6.05259 -3.04414 0
M  V30 9777 H 926.963 5.49706 -4.46351 0
M  V30 9778 H 927.371 4.88191 -2.83425 0
M  V30 9779 N 926.769 1.22769 0.988202 0
M  V30 9780 C 927.699 1.02627 2.09738 0
M  V30 9781 C 928.68 -0.0543211 1.70013 0
M  V30 9782 O 929.865 0.108811 1.93895 0
M  V30 9783 C 926.995 0.608302 3.41931 0
M  V30 9784 C 925.949 1.63536 3.95525 0
M  V30 9785 C 925.275 1.07308 5.23822 0
M  V30 9786 C 926.575 3.02649 4.25677 0
M  V30 9787 H 928.269 1.954 2.26847 0
M  V30 9788 H 925.815 0.940888 1.09011 0
M  V30 9789 H 927.768 0.454478 4.18942 0
M  V30 9790 H 926.492 -0.355095 3.24664 0
M  V30 9791 H 925.151 1.77704 3.20651 0
M  V30 9792 H 924.799 0.100894 5.02899 0
M  V30 9793 H 924.499 1.75925 5.60646 0
M  V30 9794 H 926.023 0.930938 6.03462 0
M  V30 9795 H 927.437 2.91828 4.93467 0
M  V30 9796 H 925.834 3.68434 4.73684 0
M  V30 9797 H 926.904 3.52228 3.33262 0
M  V30 9798 N 928.247 -1.18576 1.03814 0
M  V30 9799 C 929.21 -2.2033 0.63146 0
M  V30 9800 C 930.21 -1.57787 -0.309816 0
M  V30 9801 O 931.4 -1.73938 -0.0955598 0
M  V30 9802 C 928.532 -3.40818 -0.0745963 0
M  V30 9803 H 929.725 -2.57824 1.53189 0
M  V30 9804 H 927.278 -1.32416 0.830398 0
M  V30 9805 H 928.013 -3.08853 -0.988947 0
M  V30 9806 H 927.798 -3.87453 0.6019 0
M  V30 9807 H 929.288 -4.16166 -0.345727 0
M  V30 9808 N 929.725 -0.817259 -1.34754 0
M  V30 9809 C 930.973 -0.401852 -1.98065 0
M  V30 9810 C 931.294 1.03718 -1.65129 0
M  V30 9811 O 930.564 1.71921 -0.939141 0
M  V30 9812 H 929.144 -0.145603 -0.732672 0
M  V30 9813 H 931.806 -1.04545 -1.64488 0
M  V30 9814 H 930.902 -0.516241 -3.07801 0
M  V30 9815 N 931.203 1.46865 -0.571711 0
M  V30 9816 C 932.428 2.07323 -0.0564655 0
M  V30 9817 C 932.853 1.41938 1.23431 0
M  V30 9818 O 932.211 0.499334 1.74288 0
M  V30 9819 C 932.259 3.6044 0.107339 0
M  V30 9820 O 931.363 3.95558 1.1665 0
M  V30 9821 H 930.704 0.661475 -0.0578465 0
M  V30 9822 H 933.234 1.88669 -0.791524 0
M  V30 9823 H 933.244 4.06767 0.316987 0
M  V30 9824 H 931.919 4.07425 -0.835348 0
M  V30 9825 H 930.496 3.60957 0.936189 0
M  V30 9826 N 932.681 0.308908 1.54543 0
M  V30 9827 C 933.906 -0.303196 2.05172 0
M  V30 9828 C 934.331 -1.46133 1.18434 0
M  V30 9829 O 933.689 -1.803 0.190162 0
M  V30 9830 C 933.737 -0.729526 3.53143 0
M  V30 9831 O 932.841 -1.83348 3.69401 0
M  V30 9832 H 932.182 -0.0575066 0.661505 0
M  V30 9833 H 934.712 0.453055 1.99521 0
M  V30 9834 H 934.722 -1.01619 3.95143 0
M  V30 9835 H 933.397 0.117622 4.15734 0
M  V30 9836 H 931.974 -1.54676 3.39308 0
M  V30 9837 N 934.159 -1.57557 0.0367827 0
M  V30 9838 C 935.405 -1.92399 -0.641133 0
M  V30 9839 C 935.738 -0.914191 -1.71336 0
M  V30 9840 O 935.013 0.0619616 -1.94401 0
M  V30 9841 C 935.296 -3.37689 -1.25052 0
M  V30 9842 C 935.149 -4.4941 -0.187326 0
M  V30 9843 C 936.468 -3.8309 -2.16634 0
M  V30 9844 H 933.587 -0.699666 -0.231597 0
M  V30 9845 H 936.229 -1.89759 0.0956083 0
M  V30 9846 H 934.379 -3.40069 -1.87843 0
M  V30 9847 H 936.051 -4.59161 0.443736 0
M  V30 9848 H 934.294 -4.31065 0.486313 0
M  V30 9849 H 934.965 -5.48119 -0.653459 0
M  V30 9850 H 937.441 -3.82494 -1.63821 0
M  V30 9851 H 936.317 -4.85429 -2.56222 0
M  V30 9852 H 936.578 -3.19028 -3.06062 0
M  V30 9853 N 935.637 0.236453 -1.55816 0
M  V30 9854 C 936.57 1.3196 -1.86177 0
M  V30 9855 C 937.548 1.459 -0.717769 0
M  V30 9856 O 938.732 1.61949 -0.964606 0
M  V30 9857 C 935.859 2.69183 -2.05568 0
M  V30 9858 C 934.905 2.72338 -3.28229 0
M  V30 9859 S 935.738 2.27898 -4.84585 0
M  V30 9860 C 936.894 3.67025 -5.06994 0
M  V30 9861 H 937.127 1.06011 -2.77757 0
M  V30 9862 H 934.66 0.437961 -1.48058 0
M  V30 9863 H 936.618 3.48191 -2.17423 0
M  V30 9864 H 935.279 2.92365 -1.14811 0
M  V30 9865 H 934.472 3.7314 -3.38795 0
M  V30 9866 H 934.074 2.01382 -3.15153 0
M  V30 9867 H 936.366 4.62604 -4.94979 0
M  V30 9868 H 937.309 3.61385 -6.08939 0
M  V30 9869 H 937.717 3.60022 -4.34792 0
M  V30 9870 N 937.115 1.49373 0.502552 0
M  V30 9871 C 938.34 1.62752 1.28556 0
M  V30 9872 C 938.765 0.298285 1.8572 0
M  V30 9873 O 938.123 -0.733885 1.65782 0
M  V30 9874 C 938.171 2.69778 2.39274 0
M  V30 9875 O 937.275 2.28843 3.43081 0
M  V30 9876 H 936.616 0.544799 0.379592 0
M  V30 9877 H 939.146 1.9555 0.601792 0
M  V30 9878 H 939.156 2.91899 2.8506 0
M  V30 9879 H 937.831 3.66266 1.97033 0
M  V30 9880 H 936.408 2.17047 3.03224 0
M  V30 9881 N 938.594 -0.753485 1.38421 0
M  V30 9882 C 939.834 -1.52544 1.3605 0
M  V30 9883 C 940.198 -1.91937 -0.0493257 0
M  V30 9884 O 941.399 -2.6807 -0.197908 0
M  V30 9885 C 939.67 -2.74432 2.28958 0
M  V30 9886 S 941.229 -3.64297 2.44607 0
M  V30 9887 H 938.047 -0.522017 0.48272 0
M  V30 9888 H 940.649 -0.884503 1.74347 0
M  V30 9889 H 939.353 -2.43602 3.30282 0
M  V30 9890 H 938.884 -3.43471 1.91811 0
M  V30 9891 H 940.899 -4.67245 1.67022 0
M  V30 9892 N 940.072 -1.23292 -0.981677 0
M  V30 9893 C 941.318 -1.06582 -1.72535 0
M  V30 9894 C 941.651 0.396538 -1.90108 0
M  V30 9895 O 940.926 1.29363 -1.45243 0
M  V30 9896 C 941.209 -1.7904 -3.12437 0
M  V30 9897 C 941.062 -3.32941 -3.02441 0
M  V30 9898 C 942.381 -1.55185 -4.11832 0
M  V30 9899 H 939.5 -0.388585 -0.626236 0
M  V30 9900 H 942.142 -1.51779 -1.14293 0
M  V30 9901 H 940.292 -1.40619 -3.62158 0
M  V30 9902 H 941.964 -3.80875 -2.60254 0
M  V30 9903 H 940.207 -3.62039 -2.38977 0
M  V30 9904 H 940.878 -3.78827 -4.0149 0
M  V30 9905 H 943.354 -1.88581 -3.70913 0
M  V30 9906 H 942.23 -2.08362 -5.07815 0
M  V30 9907 H 942.491 -0.486925 -4.3941 0
M  V30 9908 N 941.55 1.18024 -1.04442 0
M  V30 9909 C 942.775 1.92573 -0.770097 0
M  V30 9910 C 943.2 1.75871 0.667169 0
M  V30 9911 O 942.558 1.07136 1.46258 0
M  V30 9912 C 942.606 3.41904 -1.14602 0
M  V30 9913 O 941.71 4.11491 -0.273712 0
M  V30 9914 H 941.051 0.600636 -0.283076 0
M  V30 9915 H 943.581 1.49645 -1.39526 0
M  V30 9916 H 943.591 3.92623 -1.10956 0
M  V30 9917 H 942.266 3.53382 -2.19304 0
M  V30 9918 H 940.843 3.71059 -0.370124 0
M  V30 9919 N 943.028 0.824394 1.34319 0
M  V30 9920 C 944.268 0.419044 2.00058 0
M  V30 9921 C 944.632 -0.999504 1.63933 0
M  V30 9922 O 945.833 -1.50781 2.22527 0
M  V30 9923 C 944.104 0.616897 3.52036 0
M  V30 9924 S 945.663 0.304614 4.37741 0
M  V30 9925 H 942.481 0.158265 0.693162 0
M  V30 9926 H 945.083 1.07053 1.63585 0
M  V30 9927 H 943.787 1.64896 3.75816 0
M  V30 9928 H 943.318 -0.0492693 3.93369 0
M  V30 9929 H 945.333 -0.88114 4.88314 0
M  V30 9930 N 944.506 -1.46559 0.579492 0
M  V30 9931 C 945.753 -2.02399 0.0638418 0
M  V30 9932 C 946.081 -1.45135 -1.29484 0
M  V30 9933 O 945.336 -0.605061 -1.86112 0
M  V30 9934 C 945.635 -3.57357 -0.0552803 0
M  V30 9935 C 945.301 -4.33646 1.23539 0
M  V30 9936 C 943.963 -4.54207 1.589 0
M  V30 9937 C 946.315 -4.77476 2.08965 0
M  V30 9938 C 943.643 -5.1585 2.79492 0
M  V30 9939 C 945.995 -5.4045 3.2878 0
M  V30 9940 C 944.659 -5.5924 3.64427 0
M  V30 9941 H 943.929 -0.740632 0.0233614 0
M  V30 9942 H 946.576 -1.75968 0.755482 0
M  V30 9943 H 944.881 -3.82907 -0.83003 0
M  V30 9944 H 946.578 -3.98237 -0.469964 0
M  V30 9945 H 943.168 -4.17937 0.9501 0
M  V30 9946 H 947.352 -4.61349 1.8295 0
M  V30 9947 H 942.608 -5.28589 3.07252 0
M  V30 9948 H 946.782 -5.73371 3.95245 0
M  V30 9949 H 944.409 -6.06775 4.57961 0
M  V30 9950 N 945.984 -0.3171 -1.54377 0
M  V30 9951 C 947.231 0.28741 -2.0045 0
M  V30 9952 C 947.559 1.52648 -1.20535 0
M  V30 9953 O 946.814 1.93775 -0.273831 0
M  V30 9954 C 947.113 0.672917 -3.51008 0
M  V30 9955 C 946.779 -0.466245 -4.48483 0
M  V30 9956 C 945.441 -0.778933 -4.74854 0
M  V30 9957 C 947.793 -1.23176 -5.06436 0
M  V30 9958 C 945.121 -1.85997 -5.56437 0
M  V30 9959 C 947.473 -2.30284 -5.89196 0
M  V30 9960 C 946.137 -2.62141 -6.13872 0
M  V30 9961 H 945.407 0.105171 -0.733499 0
M  V30 9962 H 948.054 -0.439538 -1.86388 0
M  V30 9963 H 946.359 1.48019 -3.62764 0
M  V30 9964 H 948.056 1.15209 -3.84094 0
M  V30 9965 H 944.646 -0.212449 -4.28073 0
M  V30 9966 H 948.83 -1.00344 -4.8605 0
M  V30 9967 H 944.086 -2.11134 -5.73788 0
M  V30 9968 H 948.26 -2.90048 -6.33123 0
M  V30 9969 H 945.887 -3.46037 -6.76877 0
M  V30 9970 N 947.462 1.57535 -0.0451378 0
M  V30 9971 C 948.392 2.14208 0.929372 0
M  V30 9972 C 949.373 1.06221 1.32858 0
M  V30 9973 O 950.558 1.34132 1.40436 0
M  V30 9974 C 947.688 2.68217 2.20629 0
M  V30 9975 C 946.642 3.81134 1.94734 0
M  V30 9976 C 945.968 4.21636 3.28828 0
M  V30 9977 C 947.268 5.06531 1.27374 0
M  V30 9978 H 948.962 2.95886 0.457348 0
M  V30 9979 H 946.508 1.42332 0.218544 0
M  V30 9980 H 948.461 3.06502 2.89196 0
M  V30 9981 H 947.185 1.83722 2.70026 0
M  V30 9982 H 945.844 3.43312 1.28579 0
M  V30 9983 H 945.492 3.34099 3.76014 0
M  V30 9984 H 945.192 4.97736 3.12302 0
M  V30 9985 H 946.716 4.62516 3.98637 0
M  V30 9986 H 948.13 5.423 1.85967 0
M  V30 9987 H 946.527 5.87735 1.21194 0
M  V30 9988 H 947.597 4.84261 0.248913 0
M  V30 9989 N 948.94 -0.228186 1.55939 0
M  V30 9990 C 950.165 -0.974795 1.83064 0
M  V30 9991 C 950.59 -1.77426 0.624624 0
M  V30 9992 O 949.948 -1.76211 -0.426556 0
M  V30 9993 C 949.996 -1.87342 3.08116 0
M  V30 9994 O 949.1 -2.96784 2.86344 0
M  V30 9995 H 948.441 -0.276379 0.603747 0
M  V30 9996 H 950.971 -0.243507 2.03146 0
M  V30 9997 H 950.981 -2.28451 3.38045 0
M  V30 9998 H 949.656 -1.28575 3.95526 0
M  V30 9999 H 948.233 -2.59669 2.67631 0
M  V30 10000 N 950.418 -1.49637 -0.494624 0
M  V30 10001 C 951.665 -1.59445 -1.24834 0
M  V30 10002 C 951.993 -0.284028 -1.92415 0
M  V30 10003 O 951.248 0.728519 -1.81634 0
M  V30 10004 C 951.547 -2.70749 -2.33302 0
M  V30 10005 C 951.213 -4.12034 -1.83135 0
M  V30 10006 C 949.875 -4.50482 -1.69173 0
M  V30 10007 C 952.227 -5.00432 -1.4566 0
M  V30 10008 C 949.555 -5.75093 -1.16124 0
M  V30 10009 C 951.907 -6.25568 -0.940608 0
M  V30 10010 C 950.571 -6.62839 -0.787432 0
M  V30 10011 H 949.841 -0.583451 -0.456799 0
M  V30 10012 H 952.488 -1.8349 -0.548044 0
M  V30 10013 H 950.793 -2.407 -3.09145 0
M  V30 10014 H 952.49 -2.75546 -2.91334 0
M  V30 10015 H 949.08 -3.8169 -1.94964 0
M  V30 10016 H 953.264 -4.71379 -1.55291 0
M  V30 10017 H 948.52 -6.02665 -1.02982 0
M  V30 10018 H 952.694 -6.93439 -0.641467 0
M  V30 10019 H 950.321 -7.59279 -0.374191 0
M  V30 10020 N 951.896 0.746133 -1.38819 0
M  V30 10021 C 953.144 1.50247 -1.35167 0
M  V30 10022 C 953.465 1.94921 0.0553531 0
M  V30 10023 O 952.735 1.68187 1.00449 0
M  V30 10024 H 951.315 0.557337 -0.497377 0
M  V30 10025 H 953.977 0.886472 -1.73573 0
M  V30 10026 H 953.073 2.38986 -2.00728 0
M  V30 10027 N 953.375 1.23811 0.975125 0
M  V30 10028 C 954.323 1.02149 2.0897 0
M  V30 10029 C 955.317 -0.0412172 1.6935 0
M  V30 10030 O 956.523 0.112726 1.79647 0
M  V30 10031 H 952.898 0.313259 0.683647 0
M  V30 10032 H 954.869 1.96686 2.24404 0
M  V30 10033 C 953.618 0.635023 3.41852 0
M  V30 10034 H 952.941 1.44449 3.72793 0
M  V30 10035 H 954.381 0.52301 4.20762 0
M  V30 10036 C 952.84 -0.657207 3.30428 0
M  V30 10037 O 953.37 -1.70494 3.63723 0
M  V30 10038 N 951.576 -0.635122 2.83575 0
M  V30 10039 H 951.123 0.21784 2.56677 0
M  V30 10040 H 951.081 -1.49995 2.76313 0
M  V30 10041 N 954.853 -1.17469 1.05066 0
M  V30 10042 C 956.078 -1.92162 0.780298 0
M  V30 10043 C 956.503 -1.76222 -0.657832 0
M  V30 10044 O 955.861 -1.0791 -1.45688 0
M  V30 10045 C 955.909 -3.41292 1.16414 0
M  V30 10046 O 955.013 -4.1134 0.295531 0
M  V30 10047 H 954.354 -0.599127 0.286257 0
M  V30 10048 H 956.884 -1.48903 1.40318 0
M  V30 10049 H 956.894 -3.92029 1.13036 0
M  V30 10050 H 955.569 -3.52214 2.21175 0
M  V30 10051 H 954.146 -3.70857 0.389797 0
M  V30 10052 N 956.331 -0.831506 -1.3388 0
M  V30 10053 C 957.241 -0.261688 -2.33136 0
M  V30 10054 C 958.257 0.608429 -1.63016 0
M  V30 10055 O 959.433 0.514297 -1.94723 0
M  V30 10056 C 956.498 0.559957 -3.42148 0
M  V30 10057 C 955.559 -0.333569 -4.28002 0
M  V30 10058 C 954.792 0.448956 -5.31808 0
M  V30 10059 O 955.015 1.6814 -5.45055 0
M  V30 10060 O 953.949 -0.173197 -6.01651 0
M  V30 10061 H 957.775 -1.08343 -2.83717 0
M  V30 10062 H 955.36 -0.593849 -1.3709 0
M  V30 10063 H 957.242 1.02712 -4.08691 0
M  V30 10064 H 955.917 1.35888 -2.93796 0
M  V30 10065 H 954.824 -0.848416 -3.64352 0
M  V30 10066 H 956.157 -1.09707 -4.79818 0
M  V30 10067 N 957.809 1.4625 -0.587256 0
M  V30 10068 C 959.034 2.07252 -0.0784517 0
M  V30 10069 C 959.459 1.43239 1.21919 0
M  V30 10070 O 958.817 0.517791 1.73749 0
M  V30 10071 C 958.865 3.60534 0.0691037 0
M  V30 10072 O 957.969 3.96773 1.12448 0
M  V30 10073 H 957.31 0.660825 -0.064859 0
M  V30 10074 H 959.84 1.87819 -0.811491 0
M  V30 10075 H 959.85 4.0708 0.273826 0
M  V30 10076 H 958.525 4.06516 -0.878514 0
M  V30 10077 H 957.102 3.6193 0.897852 0
M  V30 10078 N 959.287 0.325282 1.54207 0
M  V30 10079 C 960.25 -0.527228 2.23054 0
M  V30 10080 C 961.25 -1.04217 1.22456 0
M  V30 10081 O 962.44 -0.934325 1.47024 0
M  V30 10082 C 959.572 -1.7325 2.93594 0
M  V30 10083 H 960.765 0.0746423 2.99807 0
M  V30 10084 H 958.318 0.0763872 1.56113 0
M  V30 10085 H 959.053 -2.37356 2.20981 0
M  V30 10086 H 958.838 -1.37065 3.67363 0
M  V30 10087 H 960.328 -2.3376 3.46043 0
M  V30 10088 N 960.765 -1.57509 0.0534917 0
M  V30 10089 C 961.698 -2.0723 -0.955554 0
M  V30 10090 C 962.676 -0.973313 -1.30251 0
M  V30 10091 O 963.86 -1.24541 -1.41498 0
M  V30 10092 C 960.987 -2.51473 -2.2689 0
M  V30 10093 C 960.033 -3.7263 -2.07482 0
M  V30 10094 S 960.866 -5.18177 -1.35104 0
M  V30 10095 C 962.022 -5.65736 -2.67757 0
M  V30 10096 H 962.255 -2.92494 -0.532407 0
M  V30 10097 H 959.788 -1.53581 -0.158831 0
M  V30 10098 H 961.746 -2.77626 -3.02381 0
M  V30 10099 H 960.407 -1.66511 -2.66332 0
M  V30 10100 H 959.6 -4.01515 -3.04633 0
M  V30 10101 H 959.202 -3.46756 -1.4013 0
M  V30 10102 H 961.494 -5.71463 -3.63918 0
M  V30 10103 H 962.437 -6.64914 -2.43506 0
M  V30 10104 H 962.845 -4.93475 -2.74123 0
M  V30 10105 N 962.243 0.219913 -1.56058 0
M  V30 10106 C 963.492 0.942119 -1.78345 0
M  V30 10107 C 963.805 1.85435 -0.622344 0
M  V30 10108 O 965.011 2.61533 -0.728886 0
M  V30 10109 C 963.467 1.72544 -3.15843 0
M  V30 10110 C 963.075 0.859263 -4.39682 0
M  V30 10111 C 964.819 2.43876 -3.47455 0
M  V30 10112 C 962.726 1.64003 -5.68205 0
M  V30 10113 H 961.656 0.355514 -0.664925 0
M  V30 10114 H 964.307 0.195963 -1.82451 0
M  V30 10115 H 962.689 2.51456 -3.05918 0
M  V30 10116 H 963.863 0.110562 -4.60667 0
M  V30 10117 H 962.178 0.257985 -4.156 0
M  V30 10118 H 964.775 3.02794 -4.40704 0
M  V30 10119 H 965.118 3.16843 -2.7003 0
M  V30 10120 H 965.651 1.71952 -3.58716 0
M  V30 10121 H 962.39 0.953606 -6.48526 0
M  V30 10122 H 961.91 2.3633 -5.51279 0
M  V30 10123 H 963.589 2.20028 -6.08438 0
M  V30 10124 N 963.721 1.49897 0.486681 0
M  V30 10125 C 964.684 1.67086 1.56891 0
M  V30 10126 C 965.684 0.54209 1.51387 0
M  V30 10127 O 966.874 0.80883 1.54284 0
M  V30 10128 C 964.006 1.68159 2.96539 0
M  V30 10129 H 965.199 2.63626 1.42974 0
M  V30 10130 H 962.752 1.39143 0.711954 0
M  V30 10131 H 963.487 0.732562 3.15918 0
M  V30 10132 H 963.272 2.50147 3.01942 0
M  V30 10133 H 964.762 1.83466 3.7514 0
M  V30 10134 N 965.199 -0.738761 1.39212 0
M  V30 10135 C 966.129 -1.86602 1.40364 0
M  V30 10136 C 967.11 -1.67984 0.267495 0
M  V30 10137 O 968.295 -1.88358 0.472765 0
M  V30 10138 C 965.425 -3.24308 1.24265 0
M  V30 10139 C 964.379 -3.57557 2.35239 0
M  V30 10140 C 963.705 -4.94159 2.04233 0
M  V30 10141 C 965.005 -3.60914 3.77543 0
M  V30 10142 H 966.699 -1.85896 2.34698 0
M  V30 10143 H 964.245 -0.892959 1.1297 0
M  V30 10144 H 966.198 -4.02838 1.23692 0
M  V30 10145 H 964.922 -3.25531 0.263974 0
M  V30 10146 H 963.581 -2.81354 2.35022 0
M  V30 10147 H 963.229 -4.91959 1.04813 0
M  V30 10148 H 962.929 -5.17373 2.78567 0
M  V30 10149 H 964.453 -5.7505 2.05303 0
M  V30 10150 H 965.867 -4.29528 3.79709 0
M  V30 10151 H 964.264 -3.95644 4.51205 0
M  V30 10152 H 965.334 -2.60803 4.08791 0
M  V30 10153 N 966.677 -1.24326 -0.968545 0
M  V30 10154 C 967.607 -1.05951 -2.08079 0
M  V30 10155 C 968.588 0.0272666 -1.70078 0
M  V30 10156 O 969.773 -0.139644 -1.93697 0
M  V30 10157 C 966.903 -0.662623 -3.4092 0
M  V30 10158 C 965.857 -1.69807 -3.92873 0
M  V30 10159 C 965.183 -1.15628 -5.22048 0
M  V30 10160 C 966.483 -3.09383 -4.20808 0
M  V30 10161 H 968.177 -1.98984 -2.23709 0
M  V30 10162 H 965.723 -0.958112 -1.075 0
M  V30 10163 H 967.676 -0.521071 -4.18166 0
M  V30 10164 H 966.4 0.303399 -3.25188 0
M  V30 10165 H 965.059 -1.82783 -3.17783 0
M  V30 10166 H 964.707 -0.180888 -5.02675 0
M  V30 10167 H 964.407 -1.84822 -5.57776 0
M  V30 10168 H 965.931 -1.02683 -6.01904 0
M  V30 10169 H 967.345 -2.99642 -4.88761 0
M  V30 10170 H 965.742 -3.75923 -4.67763 0
M  V30 10171 H 966.812 -3.57486 -3.27616 0
M  V30 10172 N 968.156 1.1691 -1.05688 0
M  V30 10173 C 969.396 1.88972 -0.779044 0
M  V30 10174 C 969.76 1.7949 0.681708 0
M  V30 10175 O 970.961 2.46418 1.07386 0
M  V30 10176 C 969.232 3.34737 -1.25242 0
M  V30 10177 S 970.791 4.24718 -1.10272 0
M  V30 10178 H 967.609 0.652349 -0.282776 0
M  V30 10179 H 970.211 1.41162 -1.35254 0
M  V30 10180 H 968.915 3.39175 -2.3106 0
M  V30 10181 H 968.446 3.87593 -0.673417 0
M  V30 10182 H 970.461 4.96191 -0.0299004 0
M  V30 10183 N 969.634 0.838594 1.33437 0
M  V30 10184 C 970.564 0.286672 2.31734 0
M  V30 10185 C 971.545 -0.605451 1.5896 0
M  V30 10186 O 972.73 -0.529059 1.86854 0
M  V30 10187 C 969.86 -0.539311 3.43087 0
M  V30 10188 C 968.814 0.256997 4.27228 0
M  V30 10189 C 968.14 -0.692718 5.30194 0
M  V30 10190 C 969.44 1.47391 5.01072 0
M  V30 10191 H 971.134 1.10798 2.78144 0
M  V30 10192 H 968.68 0.534235 1.33723 0
M  V30 10193 H 970.633 -0.935724 4.1088 0
M  V30 10194 H 969.357 -1.39383 2.95364 0
M  V30 10195 H 968.016 0.634967 3.61059 0
M  V30 10196 H 967.664 -1.54363 4.78729 0
M  V30 10197 H 967.364 -0.164023 5.87371 0
M  V30 10198 H 968.888 -1.08665 6.00853 0
M  V30 10199 H 970.302 1.15067 5.61634 0
M  V30 10200 H 968.699 1.93937 5.67898 0
M  V30 10201 H 969.769 2.24382 4.29861 0
M  V30 10202 N 971.112 -1.45937 0.595003 0
M  V30 10203 C 972.359 -2.0232 0.0853053 0
M  V30 10204 C 972.687 -1.465 -1.27937 0
M  V30 10205 O 971.942 -0.624767 -1.85459 0
M  V30 10206 C 972.241 -3.57396 -0.0173747 0
M  V30 10207 C 971.907 -4.32311 1.28131 0
M  V30 10208 C 970.569 -4.52496 1.63708 0
M  V30 10209 C 972.921 -4.75233 2.14017 0
M  V30 10210 C 970.249 -5.12857 2.84947 0
M  V30 10211 C 972.601 -5.36933 3.34493 0
M  V30 10212 C 971.265 -5.55343 3.70338 0
M  V30 10213 H 970.535 -0.740342 0.0312154 0
M  V30 10214 H 973.182 -1.75157 0.774103 0
M  V30 10215 H 971.487 -3.83766 -0.789371 0
M  V30 10216 H 973.184 -3.98713 -0.427699 0
M  V30 10217 H 969.774 -4.16905 0.994374 0
M  V30 10218 H 973.958 -4.59383 1.87833 0
M  V30 10219 H 969.214 -5.253 3.12841 0
M  V30 10220 H 973.388 -5.69147 4.01304 0
M  V30 10221 H 971.015 -6.01883 4.64371 0
M  V30 10222 N 972.59 -0.333456 -1.54032 0
M  V30 10223 C 973.838 0.265608 -2.00347 0
M  V30 10224 C 974.159 1.51873 -1.2231 0
M  V30 10225 O 973.429 1.93142 -0.327549 0
M  V30 10226 H 972.009 0.101135 -0.740122 0
M  V30 10227 H 974.671 -0.452285 -1.8958 0
M  V30 10228 H 973.767 0.51511 -3.0782 0
M  V30 10229 N 974.068 1.57479 -0.061844 0
M  V30 10230 C 975.316 1.92727 0.608336 0
M  V30 10231 C 975.637 0.941799 1.70749 0
M  V30 10232 O 974.907 -0.0116608 1.95897 0
M  V30 10233 H 973.487 0.71145 0.2277 0
M  V30 10234 H 976.149 1.94546 -0.117359 0
M  V30 10235 H 975.245 2.9426 1.04007 0
M  V30 10236 N 975.546 -0.211634 1.56173 0
M  V30 10237 C 976.792 -0.935935 1.79911 0
M  V30 10238 C 977.125 -1.83589 0.633155 0
M  V30 10239 O 976.4 -1.91004 -0.367132 0
M  V30 10240 C 976.683 -1.76638 3.13801 0
M  V30 10241 C 976.536 -0.892259 4.40861 0
M  V30 10242 C 977.855 -2.74224 3.44223 0
M  V30 10243 H 974.974 -0.338822 0.654499 0
M  V30 10244 H 977.616 -0.20422 1.88899 0
M  V30 10245 H 975.766 -2.39021 3.0627 0
M  V30 10246 H 977.438 -0.284407 4.60422 0
M  V30 10247 H 975.681 -0.198145 4.33347 0
M  V30 10248 H 976.352 -1.50793 5.31004 0
M  V30 10249 H 978.828 -2.21975 3.51946 0
M  V30 10250 H 977.704 -3.29424 4.39057 0
M  V30 10251 H 977.965 -3.52455 2.66885 0
M  V30 10252 N 977.024 -1.50153 -0.478725 0
M  V30 10253 C 978.249 -1.64776 -1.2595 0
M  V30 10254 C 978.674 -0.327794 -1.85222 0
M  V30 10255 O 978.032 0.707418 -1.66929 0
M  V30 10256 C 978.08 -2.73551 -2.34952 0
M  V30 10257 O 977.184 -2.34273 -3.39397 0
M  V30 10258 H 976.525 -0.550769 -0.370877 0
M  V30 10259 H 979.055 -1.96482 -0.570605 0
M  V30 10260 H 979.065 -2.96397 -2.8038 0
M  V30 10261 H 977.74 -3.69354 -1.91181 0
M  V30 10262 H 976.317 -2.21844 -2.99733 0
M  V30 10263 N 978.502 0.731368 -1.39602 0
M  V30 10264 C 979.751 1.48647 -1.36334 0
M  V30 10265 C 980.064 1.95565 0.0367383 0
M  V30 10266 O 981.27 2.7082 0.192017 0
M  V30 10267 C 979.726 2.68616 -2.39528 0
M  V30 10268 C 979.334 2.28632 -3.85268 0
M  V30 10269 C 981.078 3.46422 -2.45341 0
M  V30 10270 C 978.985 3.45345 -4.80095 0
M  V30 10271 H 977.915 0.558218 -0.506861 0
M  V30 10272 H 980.566 0.797467 -1.65266 0
M  V30 10273 H 978.948 3.39609 -2.03671 0
M  V30 10274 H 980.122 1.65162 -4.30184 0
M  V30 10275 H 978.437 1.63909 -3.82783 0
M  V30 10276 H 981.034 4.33241 -3.13379 0
M  V30 10277 H 981.377 3.8914 -1.47904 0
M  V30 10278 H 981.91 2.82461 -2.80108 0
M  V30 10279 H 978.649 3.07674 -5.78807 0
M  V30 10280 H 978.169 4.07784 -4.39855 0
M  V30 10281 H 979.848 4.1163 -4.99169 0
M  V30 10282 N 979.98 1.24838 0.961938 0
M  V30 10283 C 980.943 1.04674 2.03902 0
M  V30 10284 C 981.943 0.00204674 1.608 0
M  V30 10285 O 983.133 0.243555 1.72489 0
M  V30 10286 C 980.265 0.587736 3.35795 0
M  V30 10287 H 981.458 2.00278 2.23223 0
M  V30 10288 H 979.011 1.07142 1.138 0
M  V30 10289 H 979.746 -0.371244 3.22168 0
M  V30 10290 H 979.531 1.34182 3.68426 0
M  V30 10291 H 981.021 0.467867 4.14971 0
M  V30 10292 N 981.458 -1.16348 1.06306 0
M  V30 10293 C 982.683 -1.91323 0.800636 0
M  V30 10294 C 983.108 -1.7691 -0.639105 0
M  V30 10295 O 982.466 -1.0945 -1.44535 0
M  V30 10296 C 982.514 -3.40038 1.20027 0
M  V30 10297 O 981.618 -4.11003 0.339142 0
M  V30 10298 H 980.959 -0.596057 0.292595 0
M  V30 10299 H 983.489 -1.47406 1.41889 0
M  V30 10300 H 983.499 -3.90808 1.17188 0
M  V30 10301 H 982.174 -3.49848 2.24898 0
M  V30 10302 H 980.751 -3.70423 0.42911 0
M  V30 10303 N 982.937 -0.845659 -1.3299 0
M  V30 10304 C 984.183 -0.454563 -1.98256 0
M  V30 10305 C 984.538 0.976983 -1.65749 0
M  V30 10306 O 983.831 1.67481 -0.930631 0
M  V30 10307 C 984.025 -0.6201 -3.51979 0
M  V30 10308 C 983.854 -2.06619 -3.99423 0
M  V30 10309 C 982.624 -2.70283 -4.26937 0
M  V30 10310 C 984.822 -3.03573 -4.15148 0
M  V30 10311 N 982.804 -4.05896 -4.60567 0
M  V30 10312 C 984.175 -4.24149 -4.52214 0
M  V30 10313 C 986.23 -2.99888 -3.97457 0
M  V30 10314 C 984.933 -5.41527 -4.73435 0
M  V30 10315 C 986.959 -4.16502 -4.19858 0
M  V30 10316 C 986.321 -5.35835 -4.57231 0
M  V30 10317 H 982.42 -0.214896 -0.751893 0
M  V30 10318 H 985.004 -1.09515 -1.6098 0
M  V30 10319 H 983.175 -0.00926528 -3.88399 0
M  V30 10320 H 984.907 -0.199782 -4.04207 0
M  V30 10321 H 981.662 -2.21377 -4.18676 0
M  V30 10322 H 982.086 -4.75824 -4.81581 0
M  V30 10323 H 986.728 -2.08753 -3.67671 0
M  V30 10324 H 984.446 -6.332 -5.02079 0
M  V30 10325 H 988.032 -4.15075 -4.07681 0
M  V30 10326 H 986.912 -6.24568 -4.74219 0
M  V30 10327 N 984.415 1.45619 -0.602734 0
M  V30 10328 C 985.363 2.32228 0.131484 0
M  V30 10329 C 986.357 1.45681 0.864484 0
M  V30 10330 O 987.563 1.62193 0.7806 0
M  V30 10331 H 983.938 0.7495 0.0612638 0
M  V30 10332 H 985.909 2.91941 -0.617496 0
M  V30 10333 C 984.658 3.29213 1.11866 0
M  V30 10334 H 983.981 3.95801 0.564061 0
M  V30 10335 H 985.421 3.92554 1.60242 0
M  V30 10336 C 983.88 2.56028 2.18978 0
M  V30 10337 O 984.41 2.33806 3.26646 0
M  V30 10338 N 982.616 2.16245 1.94129 0
M  V30 10339 H 982.163 2.34518 1.06579 0
M  V30 10340 H 982.121 1.67601 2.66003 0
M  V30 10341 N 985.893 0.34162 1.53853 0
M  V30 10342 C 986.856 -0.503541 2.236 0
M  V30 10343 C 987.856 -1.02912 1.23554 0
M  V30 10344 O 989.046 -0.918678 1.48007 0
M  V30 10345 C 986.178 -1.70126 2.95415 0
M  V30 10346 H 987.371 0.106437 2.99711 0
M  V30 10347 H 984.924 0.0929408 1.56023 0
M  V30 10348 H 985.659 -2.34999 2.23486 0
M  V30 10349 H 985.444 -1.33161 3.68796 0
M  V30 10350 H 986.934 -2.30077 3.48503 0
M  V30 10351 N 987.371 -1.57444 0.0701946 0
M  V30 10352 C 988.301 -2.15659 -0.895176 0
M  V30 10353 C 989.282 -1.08321 -1.31151 0
M  V30 10354 O 990.467 -1.36349 -1.38284 0
M  V30 10355 C 987.597 -2.71693 -2.16334 0
M  V30 10356 C 986.551 -3.84183 -1.88645 0
M  V30 10357 C 985.877 -4.26814 -3.22078 0
M  V30 10358 C 987.177 -5.08493 -1.19299 0
M  V30 10359 H 988.871 -2.96576 -0.410217 0
M  V30 10360 H 986.417 -1.42662 -0.195872 0
M  V30 10361 H 988.37 -3.11064 -2.84284 0
M  V30 10362 H 987.094 -1.87994 -2.67069 0
M  V30 10363 H 985.753 -3.45314 -1.23101 0
M  V30 10364 H 985.401 -3.40039 -3.70651 0
M  V30 10365 H 985.101 -5.02642 -3.04344 0
M  V30 10366 H 986.625 -4.68799 -3.91228 0
M  V30 10367 H 988.039 -5.4519 -1.77316 0
M  V30 10368 H 986.436 -5.89588 -1.11828 0
M  V30 10369 H 987.506 -4.84595 -0.171839 0
M  V30 10370 N 988.849 0.203349 -1.56283 0
M  V30 10371 C 990.126 0.950415 -1.70958 0
M  V30 10372 C 990.506 2.01708 -0.622647 0
M  V30 10373 O 989.854 2.25523 0.367635 0
M  V30 10374 C 990.064 1.54434 -3.12971 0
M  V30 10375 C 991.412 2.02964 -3.72949 0
M  V30 10376 O 992.436 1.64293 -3.16048 0
M  V30 10377 O 991.295 2.74097 -4.72793 0
M  V30 10378 H 988.389 0.445154 -0.69697 0
M  V30 10379 H 990.935 0.193695 -1.68591 0
M  V30 10380 H 989.707 0.77505 -3.83547 0
M  V30 10381 H 989.33 2.36611 -3.19532 0
M  V30 10382 N 990.327 1.50405 0.470755 0
M  V30 10383 C 991.573 1.6165 1.22462 0
M  V30 10384 C 991.906 0.316034 1.91611 0
M  V30 10385 O 991.181 -0.682509 1.82132 0
M  V30 10386 C 991.464 2.79702 2.26801 0
M  V30 10387 C 991.317 4.19631 1.61955 0
M  V30 10388 C 992.636 2.93313 3.28109 0
M  V30 10389 H 989.755 0.588345 0.443868 0
M  V30 10390 H 992.397 1.82792 0.518376 0
M  V30 10391 H 990.547 2.61807 2.87036 0
M  V30 10392 H 992.219 4.49117 1.05316 0
M  V30 10393 H 990.462 4.23874 0.922674 0
M  V30 10394 H 991.133 4.98162 2.37779 0
M  V30 10395 H 993.609 3.09697 2.77897 0
M  V30 10396 H 992.485 3.77537 3.98443 0
M  V30 10397 H 992.746 2.03942 3.9225 0
M  V30 10398 N 991.805 -0.723954 1.39988 0
M  V30 10399 C 992.735 -1.85103 1.42335 0
M  V30 10400 C 993.716 -1.6769 0.285297 0
M  V30 10401 O 994.901 -1.87846 0.492716 0
M  V30 10402 C 992.031 -3.22972 1.27697 0
M  V30 10403 C 990.985 -3.55041 2.39018 0
M  V30 10404 C 990.311 -4.91965 2.09462 0
M  V30 10405 C 991.611 -3.56889 3.8135 0
M  V30 10406 H 993.305 -1.83396 2.36656 0
M  V30 10407 H 990.851 -0.880926 1.13911 0
M  V30 10408 H 992.804 -4.01503 1.27958 0
M  V30 10409 H 991.528 -3.25233 0.298487 0
M  V30 10410 H 990.187 -2.78845 2.37993 0
M  V30 10411 H 989.835 -4.90819 1.10025 0
M  V30 10412 H 989.535 -5.14389 2.84038 0
M  V30 10413 H 991.059 -5.7284 2.11391 0
M  V30 10414 H 992.473 -4.25476 3.84243 0
M  V30 10415 H 990.87 -3.90836 4.55376 0
M  V30 10416 H 991.94 -2.56452 4.11534 0
M  V30 10417 N 993.283 -1.25346 -0.955304 0
M  V30 10418 C 994.511 -1.12793 -1.73451 0
M  V30 10419 C 994.926 0.318344 -1.86097 0
M  V30 10420 O 994.283 1.21897 -1.35821 0
M  V30 10421 C 994.334 -1.77603 -3.14864 0
M  V30 10422 O 994.055 -3.16577 -3.02837 0
M  V30 10423 C 995.556 -1.70821 -4.09066 0
M  V30 10424 H 992.776 -0.393457 -0.543537 0
M  V30 10425 H 995.32 -1.65696 -1.19855 0
M  V30 10426 H 993.475 -1.28673 -3.65407 0
M  V30 10427 H 993.889 -3.48433 -3.92039 0
M  V30 10428 H 995.363 -2.2083 -5.05903 0
M  V30 10429 H 995.84 -0.671858 -4.34031 0
M  V30 10430 H 996.446 -2.19237 -3.64438 0
M  V30 10431 N 994.761 1.15782 -1.06922 0
M  V30 10432 C 996.007 1.86741 -0.790922 0
M  V30 10433 C 996.34 1.81863 0.681149 0
M  V30 10434 O 995.615 1.23871 1.49954 0
M  V30 10435 C 995.898 3.36038 -1.29422 0
M  V30 10436 C 995.751 3.49573 -2.83052 0
M  V30 10437 C 997.07 4.30647 -0.907239 0
M  V30 10438 H 994.189 0.678064 -0.288787 0
M  V30 10439 H 996.831 1.36054 -1.32624 0
M  V30 10440 H 994.981 3.79336 -0.838843 0
M  V30 10441 H 996.653 3.1517 -3.36847 0
M  V30 10442 H 994.896 2.91275 -3.21467 0
M  V30 10443 H 995.567 4.5445 -3.13335 0
M  V30 10444 H 998.043 3.95286 -1.29956 0
M  V30 10445 H 996.919 5.33604 -1.28679 0
M  V30 10446 H 997.18 4.41703 0.187251 0
M  V30 10447 N 996.239 0.8527 1.3254 0
M  V30 10448 C 997.149 0.298744 2.3269 0
M  V30 10449 C 998.165 -0.582418 1.63963 0
M  V30 10450 O 999.341 -0.483253 1.95516 0
M  V30 10451 C 996.406 -0.505453 3.42996 0
M  V30 10452 C 995.467 0.401618 4.27417 0
M  V30 10453 C 994.7 -0.364294 5.32455 0
M  V30 10454 O 994.923 -1.59448 5.47661 0
M  V30 10455 O 993.857 0.268892 6.01299 0
M  V30 10456 H 997.683 1.12843 2.81958 0
M  V30 10457 H 995.268 0.615584 1.36128 0
M  V30 10458 H 997.15 -0.961974 4.10273 0
M  V30 10459 H 995.825 -1.31197 2.95921 0
M  V30 10460 H 994.732 0.906274 3.62957 0
M  V30 10461 H 996.065 1.17327 4.78012 0
M  V30 10462 N 997.718 -1.45297 0.610449 0
M  V30 10463 C 998.648 -2.33311 -0.0939698 0
M  V30 10464 C 999.629 -1.46999 -0.85588 0
M  V30 10465 O 1000.81 -1.75764 -0.825865 0
M  V30 10466 C 997.944 -3.29751 -1.09003 0
M  V30 10467 C 996.898 -4.2572 -0.441146 0
M  V30 10468 C 996.224 -5.11873 -1.54566 0
M  V30 10469 C 997.524 -5.1837 0.639489 0
M  V30 10470 H 999.218 -2.92459 0.640941 0
M  V30 10471 H 996.764 -1.40631 0.309675 0
M  V30 10472 H 998.717 -3.90195 -1.59141 0
M  V30 10473 H 997.441 -2.68768 -1.85557 0
M  V30 10474 H 996.1 -3.66579 0.0393908 0
M  V30 10475 H 995.748 -4.47256 -2.30155 0
M  V30 10476 H 995.448 -5.76886 -1.11698 0
M  V30 10477 H 996.972 -5.75185 -2.04925 0
M  V30 10478 H 998.386 -5.7287 0.22207 0
M  V30 10479 H 996.783 -5.91876 0.990089 0
M  V30 10480 H 997.853 -4.60627 1.51495 0
M  V30 10481 N 999.196 -0.349774 -1.5367 0
M  V30 10482 C 1000.43 0.245682 -2.05134 0
M  V30 10483 C 1000.83 1.44269 -1.22406 0
M  V30 10484 O 1000.18 1.81938 -0.25379 0
M  V30 10485 C 1000.24 0.718439 -3.52248 0
M  V30 10486 C 999.903 -0.35975 -4.55582 0
M  V30 10487 C 1000.9 -1.20449 -5.05755 0
M  V30 10488 C 998.585 -0.515463 -4.99648 0
M  V30 10489 C 1000.58 -2.19043 -5.98581 0
M  V30 10490 C 998.266 -1.50479 -5.92283 0
M  V30 10491 C 999.264 -2.34072 -6.41638 0
M  V30 10492 O 998.952 -3.31319 -7.3245 0
M  V30 10493 H 998.684 0.0501122 -0.67414 0
M  V30 10494 H 1001.24 -0.5018 -1.99176 0
M  V30 10495 H 999.468 1.51727 -3.55691 0
M  V30 10496 H 1001.16 1.23513 -3.86651 0
M  V30 10497 H 1001.92 -1.09531 -4.7247 0
M  V30 10498 H 997.802 0.12537 -4.60829 0
M  V30 10499 H 1001.35 -2.84327 -6.37027 0
M  V30 10500 H 997.243 -1.61451 -6.24983 0
M  V30 10501 H 998.011 -3.26863 -7.50402 0
M  V30 10502 N 1000.67 1.57404 -0.0785433 0
M  V30 10503 C 1002.08 1.81118 0.45311 0
M  V30 10504 C 1002.44 0.992963 1.69218 0
M  V30 10505 O 1001.56 0.217448 2.15305 0
M  V30 10506 C 1002.16 3.28506 0.82882 0
M  V30 10507 C 1000.71 3.53042 1.3053 0
M  V30 10508 C 999.862 2.75739 0.29378 0
M  V30 10509 H 1002.81 1.55758 -0.304171 0
M  V30 10510 H 1002.83 3.40924 1.68971 0
M  V30 10511 H 1002.35 3.88031 -0.0731826 0
M  V30 10512 H 1000.45 2.98829 2.22558 0
M  V30 10513 H 1000.56 4.61724 1.27857 0
M  V30 10514 H 998.924 2.42703 0.772477 0
M  V30 10515 H 999.707 3.38005 -0.600613 0
M  V30 10516 N 1002.15 -0.195058 1.56388 0
M  V30 10517 C 1003.38 -0.935745 1.85091 0
M  V30 10518 C 1003.8 -1.76061 0.662118 0
M  V30 10519 O 1003.16 -1.77076 -0.389083 0
M  V30 10520 C 1003.21 -1.80764 3.1202 0
M  V30 10521 O 1002.31 -2.90643 2.92575 0
M  V30 10522 H 1001.65 -0.26351 0.609474 0
M  V30 10523 H 1004.18 -0.200362 2.03617 0
M  V30 10524 H 1004.19 -2.21229 3.42815 0
M  V30 10525 H 1002.87 -1.20157 3.98165 0
M  V30 10526 H 1001.44 -2.53934 2.73079 0
M  V30 10527 N 1003.63 -1.50653 -0.462772 0
M  V30 10528 C 1004.91 -1.5258 -1.22387 0
M  V30 10529 C 1005.29 -0.275263 -2.09298 0
M  V30 10530 O 1004.63 0.740943 -2.16153 0
M  V30 10531 C 1004.84 -2.82611 -2.04773 0
M  V30 10532 C 1006.19 -3.33592 -2.62681 0
M  V30 10533 O 1007.22 -2.83989 -2.15008 0
M  V30 10534 O 1006.08 -4.20081 -3.49563 0
M  V30 10535 H 1003.17 -0.612367 -0.55582 0
M  V30 10536 H 1005.72 -1.62948 -0.473914 0
M  V30 10537 H 1004.49 -3.65098 -1.40781 0
M  V30 10538 H 1004.11 -2.75286 -2.86886 0
M  V30 10539 N 1005.11 0.71652 -1.4037 0
M  V30 10540 C 1006.06 1.8306 -1.40562 0
M  V30 10541 C 1007.03 1.64009 -0.262697 0
M  V30 10542 O 1008.21 1.85157 -0.460619 0
M  V30 10543 C 1005.35 3.2076 -1.27307 0
M  V30 10544 C 1004.46 3.51389 -2.51296 0
M  V30 10545 C 1003.6 4.78589 -2.30491 0
M  V30 10546 C 1002.64 5.02119 -3.50061 0
M  V30 10547 N 1001.77 6.20533 -3.28457 0
M  V30 10548 H 1006.61 1.82231 -2.35788 0
M  V30 10549 H 1004.15 0.890198 -1.17106 0
M  V30 10550 H 1006.11 4.00274 -1.17628 0
M  V30 10551 H 1004.74 3.2082 -0.357005 0
M  V30 10552 H 1003.79 2.66436 -2.71507 0
M  V30 10553 H 1005.1 3.64686 -3.40302 0
M  V30 10554 H 1004.26 5.66119 -2.1816 0
M  V30 10555 H 1003 4.67499 -1.38909 0
M  V30 10556 H 1002 4.13044 -3.6287 0
M  V30 10557 H 1003.23 5.15082 -4.42569 0
M  V30 10558 H 1001.17 6.10695 -2.39556 0
M  V30 10559 H 1001.09 6.34502 -4.11027 0
M  V30 10560 H 1002.36 7.10853 -3.19857 0
M  V30 10561 N 1006.59 1.25851 0.948643 0
M  V30 10562 C 1008 1.02802 1.22081 0
M  V30 10563 C 1008.2 -0.251461 1.99925 0
M  V30 10564 O 1007.26 -0.962592 2.33432 0
M  V30 10565 C 1008.57 2.25489 1.98936 0
M  V30 10566 C 1010.12 2.30312 2.11956 0
M  V30 10567 C 1010.59 3.52671 2.92211 0
M  V30 10568 N 1012.09 3.53103 2.99787 0
M  V30 10569 C 1012.82 4.44445 3.62294 0
M  V30 10570 N 1012.32 5.46065 4.26362 0
M  V30 10571 N 1014.11 4.32113 3.59493 0
M  V30 10572 H 1006.26 2.08042 0.428044 0
M  V30 10573 H 1008.52 0.913928 0.251872 0
M  V30 10574 H 1008.23 3.18513 1.4914 0
M  V30 10575 H 1008.1 2.2914 2.99624 0
M  V30 10576 H 1010.49 1.37808 2.60946 0
M  V30 10577 H 1010.57 2.30676 1.10554 0
M  V30 10578 H 1010.22 4.45501 2.43909 0
M  V30 10579 H 1010.15 3.49554 3.93853 0
M  V30 10580 H 1012.64 2.79597 2.54232 0
M  V30 10581 H 1012.95 6.11964 4.71932 0
M  V30 10582 H 1011.29 5.49931 4.24972 0
M  V30 10583 H 1014.49 3.51946 3.08629 0
M  V30 10584 H 1014.66 5.03493 4.0792 0
M  V30 10585 N 1008.06 -1.15214 1.07534 0
M  V30 10586 C 1009.29 -1.89922 0.820804 0
M  V30 10587 C 1009.71 -1.78114 -0.626177 0
M  V30 10588 O 1009.06 -1.13435 -1.42964 0
M  V30 10589 C 1009.12 -3.40207 1.22236 0
M  V30 10590 O 1008.84 -3.51676 2.61257 0
M  V30 10591 C 1010.34 -4.31934 0.997393 0
M  V30 10592 H 1007.56 -0.601865 0.296647 0
M  V30 10593 H 1010.1 -1.45965 1.43229 0
M  V30 10594 H 1008.26 -3.8182 0.655167 0
M  V30 10595 H 1008.67 -4.44959 2.77689 0
M  V30 10596 H 1010.14 -5.35791 1.32785 0
M  V30 10597 H 1010.62 -4.3915 -0.0661599 0
M  V30 10598 H 1011.23 -3.96066 1.54958 0
M  V30 10599 N 1009.54 -0.859717 -1.32086 0
M  V30 10600 C 1010.77 -0.479724 -2.01262 0
M  V30 10601 C 1011.19 0.924985 -1.64589 0
M  V30 10602 O 1010.54 1.60439 -0.869803 0
M  V30 10603 C 1010.59 -0.615128 -3.56228 0
M  V30 10604 O 1010.31 -1.96451 -3.91585 0
M  V30 10605 C 1011.82 -0.234804 -4.42678 0
M  V30 10606 H 1009.04 -0.188007 -0.644123 0
M  V30 10607 H 1011.58 -1.15805 -1.68551 0
M  V30 10608 H 1009.73 0.0155268 -3.87397 0
M  V30 10609 H 1010.15 -1.96491 -4.86304 0
M  V30 10610 H 1011.62 -0.380534 -5.50687 0
M  V30 10611 H 1012.1 0.825189 -4.31378 0
M  V30 10612 H 1012.71 -0.840739 -4.16907 0
M  V30 10613 N 1011.02 1.44971 -0.618145 0
M  V30 10614 C 1011.98 2.29044 0.0846739 0
M  V30 10615 C 1012.98 1.40341 0.784921 0
M  V30 10616 O 1014.17 1.62351 0.631479 0
M  V30 10617 C 1011.31 3.21617 1.13027 0
M  V30 10618 H 1012.5 2.92668 -0.654612 0
M  V30 10619 H 1010.05 1.51668 -0.377672 0
M  V30 10620 H 1010.79 2.62815 1.89997 0
M  V30 10621 H 1010.57 3.86969 0.63224 0
M  V30 10622 H 1012.06 3.84805 1.62218 0
M  V30 10623 N 1012.5 0.357919 1.53482 0
M  V30 10624 C 1013.75 -0.234163 2.01142 0
M  V30 10625 C 1014.07 -1.49399 1.2454 0
M  V30 10626 O 1013.33 -1.92981 0.325111 0
M  V30 10627 C 1013.63 -0.579617 3.52669 0
M  V30 10628 C 1013.29 0.584988 4.47089 0
M  V30 10629 C 1011.96 0.904558 4.72622 0
M  V30 10630 C 1014.31 1.3656 5.02992 0
M  V30 10631 C 1011.64 2.00685 5.5131 0
M  V30 10632 C 1013.99 2.45824 5.82884 0
M  V30 10633 C 1012.65 2.78325 6.06706 0
M  V30 10634 H 1011.92 -0.0856863 0.736029 0
M  V30 10635 H 1014.57 0.488801 1.85157 0
M  V30 10636 H 1012.87 -1.38349 3.66561 0
M  V30 10637 H 1014.57 -1.04985 3.87013 0
M  V30 10638 H 1011.16 0.32587 4.27359 0
M  V30 10639 H 1015.34 1.13196 4.83219 0
M  V30 10640 H 1010.6 2.26272 5.67988 0
M  V30 10641 H 1014.77 3.06732 6.25211 0
M  V30 10642 H 1012.4 3.63862 6.67464 0
M  V30 10643 N 1013.98 -1.5736 0.0868897 0
M  V30 10644 C 1015.22 -1.9367 -0.577598 0
M  V30 10645 C 1015.55 -0.968844 -1.69229 0
M  V30 10646 O 1014.82 -0.0195061 -1.9589 0
M  V30 10647 H 1013.4 -0.714983 -0.216353 0
M  V30 10648 H 1016.06 -1.94335 0.148294 0
M  V30 10649 H 1015.15 -2.95877 -0.993128 0
M  V30 10650 N 1015.45 0.186762 -1.56489 0
M  V30 10651 C 1016.7 0.905852 -1.81109 0
M  V30 10652 C 1017.03 1.82906 -0.661477 0
M  V30 10653 O 1016.28 1.92504 0.35226 0
M  V30 10654 C 1016.58 1.74719 -3.11782 0
M  V30 10655 C 1016.25 0.974238 -4.40249 0
M  V30 10656 C 1014.91 0.760856 -4.75147 0
M  V30 10657 C 1017.26 0.430971 -5.19415 0
M  V30 10658 C 1014.59 -0.00714216 -5.867 0
M  V30 10659 C 1016.94 -0.323859 -6.3177 0
M  V30 10660 C 1015.61 -0.548183 -6.65245 0
M  V30 10661 H 1014.88 0.331475 -0.662726 0
M  V30 10662 H 1017.52 0.171703 -1.90729 0
M  V30 10663 H 1015.83 2.55027 -2.97437 0
M  V30 10664 H 1017.53 2.30634 -3.28038 0
M  V30 10665 H 1014.12 1.15057 -4.12868 0
M  V30 10666 H 1018.3 0.583205 -4.92861 0
M  V30 10667 H 1013.56 -0.190832 -6.11102 0
M  V30 10668 H 1017.73 -0.752155 -6.92326 0
M  V30 10669 H 1015.36 -1.14518 -7.51525 0
M  V30 10670 N 1016.93 1.50896 0.454776 0
M  V30 10671 C 1017.86 1.73885 1.5584 0
M  V30 10672 C 1018.84 0.588172 1.59607 0
M  V30 10673 O 1020.03 0.829054 1.75614 0
M  V30 10674 C 1017.16 1.84796 2.94054 0
M  V30 10675 C 1016.11 3.00111 3.05152 0
M  V30 10676 C 1015.44 2.96183 4.45174 0
M  V30 10677 C 1016.74 4.40365 2.80849 0
M  V30 10678 H 1018.43 2.66292 1.36854 0
M  V30 10679 H 1015.98 1.28142 0.656936 0
M  V30 10680 H 1017.93 1.99462 3.71204 0
M  V30 10681 H 1016.66 0.890235 3.14233 0
M  V30 10682 H 1015.31 2.85121 2.30438 0
M  V30 10683 H 1014.96 1.98224 4.62295 0
M  V30 10684 H 1014.66 3.73608 4.53532 0
M  V30 10685 H 1016.19 3.1292 5.24322 0
M  V30 10686 H 1017.6 4.55795 3.47741 0
M  V30 10687 H 1016 5.19363 3.00636 0
M  V30 10688 H 1017.07 4.51606 1.76579 0
M  V30 10689 N 1018.41 -0.709066 1.40748 0
M  V30 10690 C 1019.36 -1.84445 1.41714 0
M  V30 10691 C 1020.35 -1.66779 0.296818 0
M  V30 10692 O 1021.56 -1.73805 0.468181 0
M  V30 10693 H 1017.93 -0.607581 0.443114 0
M  V30 10694 H 1019.9 -1.80747 2.3743 0
M  V30 10695 C 1018.65 -3.22362 1.303 0
M  V30 10696 H 1017.98 -3.36565 2.15787 0
M  V30 10697 H 1019.42 -4.01922 1.35036 0
M  V30 10698 C 1017.88 -3.36897 0.0139015 0
M  V30 10699 O 1018.41 -3.90389 -0.946553 0
M  V30 10700 N 1016.61 -2.90543 -0.0577491 0
M  V30 10701 H 1016.16 -2.472 0.724574 0
M  V30 10702 H 1016.12 -3.00647 -0.919721 0
M  V30 10703 N 1019.89 -1.26353 -0.941956 0
M  V30 10704 C 1020.85 -1.07904 -2.02211 0
M  V30 10705 C 1021.85 -0.0276283 -1.60776 0
M  V30 10706 O 1023.04 -0.270965 -1.7208 0
M  V30 10707 C 1020.17 -0.641084 -3.34818 0
M  V30 10708 H 1021.37 -2.03804 -2.20009 0
M  V30 10709 H 1018.92 -1.08939 -1.12081 0
M  V30 10710 H 1019.66 0.319943 -3.22718 0
M  V30 10711 H 1019.44 -1.40027 -3.66244 0
M  V30 10712 H 1020.93 -0.533826 -4.14174 0
M  V30 10713 N 1021.37 1.14642 -1.08144 0
M  V30 10714 C 1022.3 2.21775 -0.730609 0
M  V30 10715 C 1023.28 1.67683 0.285702 0
M  V30 10716 O 1024.46 1.93567 0.156667 0
M  V30 10717 C 1021.59 3.47033 -0.136242 0
M  V30 10718 C 1020.55 4.14134 -1.0806 0
M  V30 10719 C 1019.87 5.33563 -0.348585 0
M  V30 10720 C 1021.17 4.62978 -2.41761 0
M  V30 10721 H 1022.87 2.51378 -1.62633 0
M  V30 10722 H 1020.41 1.20825 -0.783411 0
M  V30 10723 H 1022.37 4.21226 0.121182 0
M  V30 10724 H 1021.09 3.16786 0.7946 0
M  V30 10725 H 1019.75 3.41892 -1.32308 0
M  V30 10726 H 1019.4 4.99575 0.585974 0
M  V30 10727 H 1019.1 5.79402 -0.978122 0
M  V30 10728 H 1020.62 6.10519 -0.0991508 0
M  V30 10729 H 1022.04 5.28659 -2.21795 0
M  V30 10730 H 1020.43 5.1951 -3.00383 0
M  V30 10731 H 1021.5 3.78189 -3.03482 0
M  V30 10732 N 1022.85 0.866709 1.31628 0
M  V30 10733 C 1024.09 0.482479 1.98624 0
M  V30 10734 C 1024.45 -0.946844 1.6703 0
M  V30 10735 O 1025.65 -1.43626 2.27212 0
M  V30 10736 C 1023.92 0.728582 3.49895 0
M  V30 10737 S 1025.48 0.443724 4.36551 0
M  V30 10738 H 1022.3 0.180238 0.687776 0
M  V30 10739 H 1024.9 1.12203 1.60096 0
M  V30 10740 H 1023.6 1.76769 3.70379 0
M  V30 10741 H 1023.14 0.075903 3.93327 0
M  V30 10742 H 1025.15 -0.72534 4.9087 0
M  V30 10743 N 1024.32 -1.44642 0.625825 0
M  V30 10744 C 1025.27 -2.30653 -0.082259 0
M  V30 10745 C 1026.24 -1.43174 -0.842052 0
M  V30 10746 O 1027.43 -1.72082 -0.824151 0
M  V30 10747 C 1024.57 -3.2837 -1.06146 0
M  V30 10748 C 1023.68 -4.30953 -0.300638 0
M  V30 10749 C 1022.81 -5.15766 -1.27118 0
M  V30 10750 C 1021.85 -6.10061 -0.499215 0
M  V30 10751 N 1020.99 -6.87591 -1.41995 0
M  V30 10752 H 1025.83 -2.90664 0.657161 0
M  V30 10753 H 1023.37 -1.43215 0.335859 0
M  V30 10754 H 1025.32 -3.83507 -1.6425 0
M  V30 10755 H 1023.95 -2.70072 -1.76807 0
M  V30 10756 H 1023.01 -3.78331 0.396234 0
M  V30 10757 H 1024.32 -4.97892 0.300851 0
M  V30 10758 H 1023.47 -5.75394 -1.92372 0
M  V30 10759 H 1022.21 -4.48888 -1.9066 0
M  V30 10760 H 1021.22 -5.49547 0.166848 0
M  V30 10761 H 1022.44 -6.78973 0.131409 0
M  V30 10762 H 1020.39 -6.23387 -2.04267 0
M  V30 10763 H 1020.3 -7.5095 -0.872354 0
M  V30 10764 H 1021.57 -7.51746 -2.0615 0
M  V30 10765 N 1025.8 -0.366053 -1.5329 0
M  V30 10766 C 1026.73 0.47211 -2.28677 0
M  V30 10767 C 1027.71 1.08353 -1.31125 0
M  V30 10768 O 1028.9 1.10069 -1.59995 0
M  V30 10769 C 1026.03 1.61174 -3.07637 0
M  V30 10770 C 1024.98 1.12755 -4.12881 0
M  V30 10771 C 1024.31 2.35745 -4.79925 0
M  V30 10772 C 1025.61 0.211954 -5.2187 0
M  V30 10773 H 1027.3 -0.156838 -2.98989 0
M  V30 10774 H 1024.85 -0.0768709 -1.43795 0
M  V30 10775 H 1026.8 2.20473 -3.59123 0
M  V30 10776 H 1025.52 2.26793 -2.35016 0
M  V30 10777 H 1024.18 0.557234 -3.6234 0
M  V30 10778 H 1023.83 2.99821 -4.03877 0
M  V30 10779 H 1023.53 2.04019 -5.51044 0
M  V30 10780 H 1025.06 2.95729 -5.34207 0
M  V30 10781 H 1026.47 0.71244 -5.68856 0
M  V30 10782 H 1024.87 -0.0144501 -6.00098 0
M  V30 10783 H 1025.94 -0.745753 -4.79131 0
M  V30 10784 N 1027.28 1.57312 -0.0952337 0
M  V30 10785 C 1028.24 2.12889 0.849161 0
M  V30 10786 C 1029.24 1.05819 1.21075 0
M  V30 10787 O 1030.43 1.31704 1.14016 0
M  V30 10788 C 1027.56 2.6496 2.14498 0
M  V30 10789 H 1028.76 2.97651 0.366566 0
M  V30 10790 H 1026.31 1.55542 0.153762 0
M  V30 10791 H 1027.05 1.83718 2.67242 0
M  V30 10792 H 1026.83 3.43244 1.89542 0
M  V30 10793 H 1028.32 3.07952 2.82056 0
M  V30 10794 N 1028.76 -0.17846 1.56586 0
M  V30 10795 C 1029.72 -1.20479 1.94981 0
M  V30 10796 C 1030.72 -1.37561 0.832677 0
M  V30 10797 O 1031.91 -1.35089 1.09984 0
M  V30 10798 C 1029.04 -2.57117 2.23839 0
M  V30 10799 H 1030.24 -0.876173 2.86816 0
M  V30 10800 H 1027.79 -0.420635 1.50534 0
M  V30 10801 H 1028.52 -2.95005 1.34695 0
M  V30 10802 H 1028.31 -2.46086 3.05261 0
M  V30 10803 H 1029.8 -3.31096 2.5449 0
M  V30 10804 N 1030.24 -1.51135 -0.446768 0
M  V30 10805 C 1031.48 -1.63578 -1.19875 0
M  V30 10806 C 1031.81 -0.346478 -1.91084 0
M  V30 10807 O 1031.09 0.653447 -1.83195 0
M  V30 10808 C 1031.37 -2.83275 -2.22323 0
M  V30 10809 C 1031.23 -4.22155 -1.55259 0
M  V30 10810 C 1032.54 -2.98496 -3.23401 0
M  V30 10811 H 1029.66 -0.595333 -0.434452 0
M  V30 10812 H 1032.31 -1.83593 -0.48923 0
M  V30 10813 H 1030.46 -2.6634 -2.82834 0
M  V30 10814 H 1032.13 -4.50736 -0.981571 0
M  V30 10815 H 1030.37 -4.25288 -0.855122 0
M  V30 10816 H 1031.04 -5.01882 -2.29823 0
M  V30 10817 H 1033.52 -3.14079 -2.72935 0
M  V30 10818 H 1032.39 -3.83828 -3.92386 0
M  V30 10819 H 1032.65 -2.10157 -3.88956 0
M  V30 10820 N 1031.71 0.701592 -1.41122 0
M  V30 10821 C 1032.64 1.82815 -1.45262 0
M  V30 10822 C 1033.62 1.67215 -0.311939 0
M  V30 10823 O 1034.81 1.87038 -0.522538 0
M  V30 10824 C 1031.94 3.20899 -1.32819 0
M  V30 10825 C 1030.89 3.51194 -2.44636 0
M  V30 10826 C 1030.22 4.8857 -2.17263 0
M  V30 10827 C 1031.52 3.50777 -3.86979 0
M  V30 10828 H 1033.21 1.79608 -2.39544 0
M  V30 10829 H 1030.76 0.862693 -1.15298 0
M  V30 10830 H 1032.71 3.99417 -1.34329 0
M  V30 10831 H 1031.44 3.24717 -0.350191 0
M  V30 10832 H 1030.1 2.75024 -2.42399 0
M  V30 10833 H 1029.74 4.89007 -1.17819 0
M  V30 10834 H 1029.44 5.09805 -2.92186 0
M  V30 10835 H 1030.97 5.69405 -2.20478 0
M  V30 10836 H 1032.38 4.19309 -3.90964 0
M  V30 10837 H 1030.78 3.83542 -4.61536 0
M  V30 10838 H 1031.85 2.49873 -4.15562 0
M  V30 10839 N 1033.19 1.2685 0.935242 0
M  V30 10840 C 1034.44 1.12522 1.67878 0
M  V30 10841 C 1034.76 -0.330894 1.92172 0
M  V30 10842 O 1034.03 -1.23259 1.52263 0
M  V30 10843 H 1032.61 0.413418 0.622169 0
M  V30 10844 H 1035.27 1.59267 1.12339 0
M  V30 10845 H 1034.37 1.64853 2.65009 0
M  V30 10846 N 1034.67 -1.14067 1.0875 0
M  V30 10847 C 1035.92 -1.84535 0.814235 0
M  V30 10848 C 1036.23 -1.84044 -0.662355 0
M  V30 10849 O 1037.44 -2.50336 -1.05091 0
M  V30 10850 C 1035.89 -3.31273 1.40663 0
M  V30 10851 C 1035.5 -3.40171 2.91526 0
M  V30 10852 C 1037.25 -4.0683 1.21201 0
M  V30 10853 C 1035.15 -4.81141 3.43885 0
M  V30 10854 H 1034.08 -0.691346 0.300926 0
M  V30 10855 H 1036.73 -1.28562 1.30935 0
M  V30 10856 H 1035.12 -3.87005 0.839215 0
M  V30 10857 H 1036.29 -2.94471 3.54434 0
M  V30 10858 H 1034.61 -2.78073 3.09942 0
M  V30 10859 H 1037.2 -5.10891 1.57781 0
M  V30 10860 H 1037.55 -4.16022 0.152092 0
M  V30 10861 H 1038.08 -3.57408 1.74655 0
M  V30 10862 H 1034.82 -4.77138 4.49466 0
M  V30 10863 H 1034.34 -5.27365 2.85738 0
M  V30 10864 H 1036.02 -5.50042 3.40681 0
M  V30 10865 N 1036.15 -0.873678 -1.31166 0
M  V30 10866 C 1037.37 -0.500242 -2.01277 0
M  V30 10867 C 1037.8 0.900811 -1.65127 0
M  V30 10868 O 1037.16 1.59504 -0.861862 0
M  V30 10869 C 1037.2 -0.668976 -3.5434 0
M  V30 10870 O 1036.31 0.290096 -4.11378 0
M  V30 10871 H 1035.65 -0.198507 -0.633633 0
M  V30 10872 H 1038.18 -1.17811 -1.67277 0
M  V30 10873 H 1038.19 -0.563673 -4.04088 0
M  V30 10874 H 1036.86 -1.69055 -3.79991 0
M  V30 10875 H 1035.44 0.139437 -3.72639 0
M  V30 10876 N 1037.63 1.44308 -0.633487 0
M  V30 10877 C 1038.88 2.01239 -0.136356 0
M  V30 10878 C 1039.19 1.50438 1.25011 0
M  V30 10879 O 1040.39 1.99513 1.84138 0
M  V30 10880 C 1038.85 3.59382 -0.193011 0
M  V30 10881 C 1038.46 4.19178 -1.58093 0
M  V30 10882 C 1040.2 4.23778 0.247534 0
M  V30 10883 C 1038.11 5.69553 -1.59258 0
M  V30 10884 H 1037.04 0.752521 -0.0472109 0
M  V30 10885 H 1039.69 1.65498 -0.79263 0
M  V30 10886 H 1038.07 3.92432 0.530408 0
M  V30 10887 H 1039.25 3.97662 -2.32813 0
M  V30 10888 H 1037.56 3.67079 -1.96576 0
M  V30 10889 H 1040.16 5.34075 0.258401 0
M  V30 10890 H 1040.5 3.96285 1.27529 0
M  V30 10891 H 1041.03 3.9554 -0.423469 0
M  V30 10892 H 1037.77 6.01784 -2.59878 0
M  V30 10893 H 1037.29 5.93185 -0.888352 0
M  V30 10894 H 1038.97 6.33234 -1.32756 0
M  V30 10895 N 1039.1 0.374177 1.53094 0
M  V30 10896 C 1040.35 -0.212816 2.01379 0
M  V30 10897 C 1040.68 -1.48069 1.26118 0
M  V30 10898 O 1039.93 -1.92625 0.345561 0
M  V30 10899 C 1040.23 -0.542179 3.53264 0
M  V30 10900 C 1039.9 0.632375 4.46444 0
M  V30 10901 C 1038.56 0.954635 4.71636 0
M  V30 10902 C 1040.91 1.41887 5.01515 0
M  V30 10903 C 1038.24 2.06521 5.4915 0
M  V30 10904 C 1040.59 2.51993 5.80243 0
M  V30 10905 C 1039.26 2.84744 6.03719 0
M  V30 10906 H 1038.53 -0.0778749 0.736897 0
M  V30 10907 H 1041.17 0.508412 1.84628 0
M  V30 10908 H 1039.48 -1.34454 3.68007 0
M  V30 10909 H 1041.18 -1.00874 3.88105 0
M  V30 10910 H 1037.77 0.371179 4.2699 0
M  V30 10911 H 1041.95 1.18315 4.81991 0
M  V30 10912 H 1037.21 2.32284 5.65557 0
M  V30 10913 H 1041.38 3.13346 6.21922 0
M  V30 10914 H 1039.01 3.70921 6.63568 0
M  V30 10915 N 1040.58 -1.57259 0.103575 0
M  V30 10916 C 1041.81 -1.99 -0.566275 0
M  V30 10917 C 1042.23 -0.982909 -1.61197 0
M  V30 10918 O 1041.58 0.026345 -1.82481 0
M  V30 10919 C 1041.63 -3.40778 -1.20635 0
M  V30 10920 O 1041.35 -4.37632 -0.202472 0
M  V30 10921 C 1042.86 -3.97567 -1.961 0
M  V30 10922 H 1040.08 -0.653751 -0.151164 0
M  V30 10923 H 1042.62 -2.03658 0.185365 0
M  V30 10924 H 1040.77 -3.37107 -1.90886 0
M  V30 10925 H 1041.19 -5.2026 -0.665535 0
M  V30 10926 H 1042.66 -4.98897 -2.36233 0
M  V30 10927 H 1043.14 -3.35853 -2.83018 0
M  V30 10928 H 1043.75 -4.04737 -1.30645 0
M  V30 10929 N 1042.06 0.170153 -1.56679 0
M  V30 10930 C 1043.29 0.90618 -1.86556 0
M  V30 10931 C 1043.71 1.74986 -0.690044 0
M  V30 10932 O 1043.07 1.77672 0.360862 0
M  V30 10933 C 1043.12 1.75777 -3.14857 0
M  V30 10934 O 1042.22 2.85952 -2.97162 0
M  V30 10935 H 1041.56 0.253781 -0.613589 0
M  V30 10936 H 1044.09 0.167943 -2.0391 0
M  V30 10937 H 1044.1 2.15747 -3.46291 0
M  V30 10938 H 1042.78 1.13807 -4.00026 0
M  V30 10939 H 1041.35 2.49557 -2.77084 0
M  V30 10940 N 1043.54 1.5137 0.438746 0
M  V30 10941 C 1044.79 1.63969 1.1883 0
M  V30 10942 C 1045.11 0.355245 1.91228 0
M  V30 10943 O 1044.37 -0.660605 1.84213 0
M  V30 10944 C 1044.67 2.79221 2.23093 0
M  V30 10945 C 1044.33 4.18547 1.67717 0
M  V30 10946 C 1043 4.5645 1.52337 0
M  V30 10947 C 1045.35 5.05494 1.26986 0
M  V30 10948 C 1042.68 5.79007 0.946996 0
M  V30 10949 C 1045.03 6.28628 0.707785 0
M  V30 10950 C 1043.69 6.65305 0.540881 0
M  V30 10951 H 1042.96 0.600003 0.43483 0
M  V30 10952 H 1045.61 1.85398 0.479565 0
M  V30 10953 H 1043.91 2.52008 2.99999 0
M  V30 10954 H 1045.61 2.86168 2.80907 0
M  V30 10955 H 1042.2 3.88663 1.80663 0
M  V30 10956 H 1046.38 4.76818 1.37689 0
M  V30 10957 H 1041.64 6.06072 0.805432 0
M  V30 10958 H 1045.81 6.95342 0.38366 0
M  V30 10959 H 1043.44 7.60144 0.0921324 0
M  V30 10960 N 1045.02 -0.694098 1.41492 0
M  V30 10961 C 1046.26 -1.4563 1.41137 0
M  V30 10962 C 1046.6 -1.94189 0.0208428 0
M  V30 10963 O 1045.87 -1.69628 -0.951655 0
M  V30 10964 C 1046.15 -2.66714 2.41941 0
M  V30 10965 C 1046.01 -2.23912 3.90107 0
M  V30 10966 C 1047.33 -3.68913 2.39981 0
M  V30 10967 H 1044.44 -0.52821 0.513968 0
M  V30 10968 H 1047.09 -0.790437 1.72778 0
M  V30 10969 H 1045.24 -3.23525 2.1509 0
M  V30 10970 H 1046.91 -1.72417 4.27867 0
M  V30 10971 H 1045.15 -1.5568 4.04903 0
M  V30 10972 H 1045.82 -3.108 4.56188 0
M  V30 10973 H 1048.3 -3.21779 2.63813 0
M  V30 10974 H 1047.17 -4.51242 3.12524 0
M  V30 10975 H 1047.44 -4.18711 1.41892 0
M  V30 10976 N 1046.49 -1.27344 -0.928501 0
M  V30 10977 C 1047.74 -1.13411 -1.67279 0
M  V30 10978 C 1048.06 0.320698 -1.92345 0
M  V30 10979 O 1047.33 1.2245 -1.52915 0
M  V30 10980 H 1045.91 -0.416712 -0.619968 0
M  V30 10981 H 1048.58 -1.5986 -1.11493 0
M  V30 10982 H 1047.67 -1.66256 -2.64131 0
M  V30 10983 N 1047.97 1.13488 -1.09353 0
M  V30 10984 C 1049.22 1.841 -0.82401 0
M  V30 10985 C 1049.53 1.84393 0.652586 0
M  V30 10986 O 1050.74 2.5089 1.03762 0
M  V30 10987 C 1049.2 3.30523 -1.42418 0
M  V30 10988 C 1048.8 3.38621 -2.93326 0
M  V30 10989 C 1050.55 4.06182 -1.23356 0
M  V30 10990 C 1048.46 4.79311 -3.46432 0
M  V30 10991 H 1047.39 0.68974 -0.304589 0
M  V30 10992 H 1050.04 1.27866 -1.31615 0
M  V30 10993 H 1048.42 3.86555 -0.859727 0
M  V30 10994 H 1049.59 2.92587 -3.5599 0
M  V30 10995 H 1047.91 2.76426 -3.11412 0
M  V30 10996 H 1050.5 5.10047 -1.60488 0
M  V30 10997 H 1050.85 4.15936 -0.174152 0
M  V30 10998 H 1051.38 3.56477 -1.76547 0
M  V30 10999 H 1048.12 4.74748 -4.5199 0
M  V30 11000 H 1047.64 5.25842 -2.8853 0
M  V30 11001 H 1049.32 5.48227 -3.43593 0
M  V30 11002 N 1049.45 0.880621 1.30701 0
M  V30 11003 C 1050.68 0.511682 2.00473 0
M  V30 11004 C 1051.09 -0.898684 1.6604 0
M  V30 11005 O 1050.45 -1.59035 0.895218 0
M  V30 11006 C 1050.5 0.671723 3.55204 0
M  V30 11007 O 1050.22 2.02656 3.8841 0
M  V30 11008 C 1051.72 0.3052 4.42248 0
M  V30 11009 H 1048.94 0.198231 0.64105 0
M  V30 11010 H 1051.49 1.18472 1.66687 0
M  V30 11011 H 1049.64 0.0461066 3.87373 0
M  V30 11012 H 1050.06 2.04202 4.83117 0
M  V30 11013 H 1051.53 0.468095 5.50012 0
M  V30 11014 H 1052.01 -0.756456 4.32637 0
M  V30 11015 H 1052.61 0.906959 4.15517 0
M  V30 11016 N 1050.93 -1.4397 0.641131 0
M  V30 11017 C 1051.88 -2.30728 -0.0577905 0
M  V30 11018 C 1052.85 -1.44059 -0.826819 0
M  V30 11019 O 1054.03 -1.72947 -0.805853 0
M  V30 11020 C 1051.17 -3.29478 -1.02657 0
M  V30 11021 C 1050.28 -4.31247 -0.254913 0
M  V30 11022 C 1049.42 -5.17085 -1.2164 0
M  V30 11023 C 1048.46 -6.10556 -0.434481 0
M  V30 11024 N 1047.6 -6.89059 -1.34694 0
M  V30 11025 H 1052.44 -2.8995 0.687953 0
M  V30 11026 H 1049.97 -1.4285 0.351029 0
M  V30 11027 H 1051.93 -3.85228 -1.60173 0
M  V30 11028 H 1050.56 -2.71932 -1.73933 0
M  V30 11029 H 1049.61 -3.77889 0.436338 0
M  V30 11030 H 1050.92 -4.97545 0.353642 0
M  V30 11031 H 1050.08 -5.77402 -1.86258 0
M  V30 11032 H 1048.82 -4.50885 -1.85888 0
M  V30 11033 H 1047.82 -5.49339 0.225125 0
M  V30 11034 H 1049.05 -6.78795 0.203415 0
M  V30 11035 H 1046.99 -6.25518 -1.97644 0
M  V30 11036 H 1046.91 -7.51833 -0.792657 0
M  V30 11037 H 1048.18 -7.5389 -1.98165 0
M  V30 11038 N 1052.41 -0.382291 -1.52893 0
M  V30 11039 C 1053.37 0.44408 -2.24857 0
M  V30 11040 C 1054.37 0.996004 -1.26239 0
M  V30 11041 O 1055.56 0.879114 -1.5039 0
M  V30 11042 C 1052.69 1.62234 -2.99822 0
M  V30 11043 H 1053.89 -0.185862 -2.99324 0
M  V30 11044 H 1051.44 -0.134275 -1.55722 0
M  V30 11045 H 1052.17 2.28991 -2.29638 0
M  V30 11046 H 1051.96 1.23336 -3.72197 0
M  V30 11047 H 1053.45 2.20756 -3.54481 0
M  V30 11048 N 1053.89 1.57202 -0.111913 0
M  V30 11049 C 1054.85 2.13778 0.826534 0
M  V30 11050 C 1055.85 1.07097 1.19945 0
M  V30 11051 O 1057.04 1.32906 1.12613 0
M  V30 11052 C 1054.17 2.6722 2.11675 0
M  V30 11053 H 1055.36 2.98023 0.334975 0
M  V30 11054 H 1052.92 1.55696 0.137256 0
M  V30 11055 H 1053.65 1.86542 2.65278 0
M  V30 11056 H 1053.44 3.45235 1.8589 0
M  V30 11057 H 1054.93 3.10926 2.78774 0
M  V30 11058 N 1055.36 -0.161842 1.56767 0
M  V30 11059 C 1056.77 -0.723385 1.72116 0
M  V30 11060 C 1057.13 -1.82355 0.723961 0
M  V30 11061 O 1056.25 -2.16107 -0.112643 0
M  V30 11062 C 1056.85 -1.31895 3.12072 0
M  V30 11063 C 1055.4 -1.82722 3.29074 0
M  V30 11064 C 1054.55 -0.709863 2.6806 0
M  V30 11065 H 1057.5 0.0636647 1.58572 0
M  V30 11066 H 1057.52 -2.18871 3.11249 0
M  V30 11067 H 1057.04 -0.51801 3.84627 0
M  V30 11068 H 1055.14 -2.6543 2.61491 0
M  V30 11069 H 1055.25 -1.96614 4.36898 0
M  V30 11070 H 1053.61 -1.13273 2.28126 0
M  V30 11071 H 1054.4 0.0793884 3.43208 0
M  V30 11072 N 1056.84 -1.516 -0.430713 0
M  V30 11073 C 1058.09 -1.63829 -1.17657 0
M  V30 11074 C 1058.4 -0.363605 -1.92191 0
M  V30 11075 O 1059.61 -0.365358 -2.6903 0
M  V30 11076 C 1058.07 -2.89357 -2.14011 0
M  V30 11077 C 1057.67 -4.23854 -1.45094 0
M  V30 11078 C 1059.42 -3.10944 -2.88988 0
M  V30 11079 C 1057.32 -5.40526 -2.3997 0
M  V30 11080 H 1056.25 -0.610221 -0.442884 0
M  V30 11081 H 1058.91 -1.78073 -0.442984 0
M  V30 11082 H 1057.29 -2.68762 -2.90832 0
M  V30 11083 H 1058.46 -4.54854 -0.737853 0
M  V30 11084 H 1056.78 -4.08197 -0.822429 0
M  V30 11085 H 1059.37 -3.95286 -3.60074 0
M  V30 11086 H 1059.72 -2.24291 -3.50712 0
M  V30 11087 H 1060.25 -3.3191 -2.19272 0
M  V30 11088 H 1056.99 -6.29459 -1.82925 0
M  V30 11089 H 1056.51 -5.13893 -3.09313 0
M  V30 11090 H 1058.19 -5.72741 -3.00959 0
M  V30 11091 N 1058.32 0.686584 -1.41858 0
M  V30 11092 C 1059.25 1.81264 -1.47193 0
M  V30 11093 C 1060.23 1.66875 -0.329657 0
M  V30 11094 O 1061.42 1.86473 -0.542347 0
M  V30 11095 C 1058.55 3.19472 -1.36216 0
M  V30 11096 C 1057.5 3.4858 -2.48347 0
M  V30 11097 C 1056.83 4.86239 -2.22432 0
M  V30 11098 C 1058.13 3.46653 -3.90678 0
M  V30 11099 H 1059.82 1.77057 -2.41436 0
M  V30 11100 H 1057.37 0.850415 -1.16206 0
M  V30 11101 H 1059.32 3.97969 -1.38558 0
M  V30 11102 H 1058.04 3.24327 -0.384611 0
M  V30 11103 H 1056.7 2.72437 -2.45303 0
M  V30 11104 H 1056.35 4.8773 -1.22999 0
M  V30 11105 H 1056.05 5.06677 -2.97577 0
M  V30 11106 H 1057.57 5.67034 -2.26505 0
M  V30 11107 H 1058.99 4.15139 -3.95389 0
M  V30 11108 H 1057.38 3.78625 -4.65578 0
M  V30 11109 H 1058.45 2.45451 -4.18189 0
M  V30 11110 N 1059.8 1.27835 0.921735 0
M  V30 11111 C 1061.04 1.14523 1.67005 0
M  V30 11112 C 1061.37 -0.307776 1.92049 0
M  V30 11113 O 1060.63 -1.24103 1.51317 0
M  V30 11114 C 1060.93 1.88054 3.03925 0
M  V30 11115 C 1060.59 3.37886 2.9857 0
M  V30 11116 C 1059.25 3.78752 2.96817 0
M  V30 11117 C 1061.61 4.33462 2.89414 0
M  V30 11118 C 1058.93 5.13549 2.83698 0
M  V30 11119 C 1061.29 5.68322 2.77836 0
M  V30 11120 C 1059.95 6.08475 2.74436 0
M  V30 11121 H 1059.22 0.419068 0.611116 0
M  V30 11122 H 1061.87 1.58515 1.07449 0
M  V30 11123 H 1060.17 1.36587 3.67221 0
M  V30 11124 H 1061.87 1.75176 3.60714 0
M  V30 11125 H 1058.46 3.05389 3.00725 0
M  V30 11126 H 1062.64 4.02857 2.89862 0
M  V30 11127 H 1057.9 5.43796 2.79456 0
M  V30 11128 H 1062.07 6.42048 2.69717 0
M  V30 11129 H 1059.7 7.12877 2.64027 0
M  V30 11130 N 1061.28 -1.12907 1.09954 0
M  V30 11131 C 1062.24 -2.16673 0.747364 0
M  V30 11132 C 1063.24 -1.59208 -0.225741 0
M  V30 11133 O 1064.43 -1.742 -0.00322482 0
M  V30 11134 C 1061.56 -3.40735 0.106169 0
M  V30 11135 H 1062.75 -2.49341 1.6664 0
M  V30 11136 H 1060.31 -1.27828 0.899421 0
M  V30 11137 H 1061.04 -3.13661 -0.82384 0
M  V30 11138 H 1060.83 -3.83717 0.806434 0
M  V30 11139 H 1062.32 -4.17414 -0.12464 0
M  V30 11140 N 1062.75 -0.88754 -1.30232 0
M  V30 11141 C 1063.98 -0.521562 -2.00735 0
M  V30 11142 C 1064.4 0.883247 -1.66073 0
M  V30 11143 O 1063.76 1.58581 -0.878731 0
M  V30 11144 C 1063.81 -0.706521 -3.53611 0
M  V30 11145 O 1062.91 0.246447 -4.11663 0
M  V30 11146 H 1062.25 -0.205216 -0.631492 0
M  V30 11147 H 1064.78 -1.19579 -1.66018 0
M  V30 11148 H 1064.79 -0.606501 -4.03467 0
M  V30 11149 H 1063.47 -1.73076 -3.78177 0
M  V30 11150 H 1062.05 0.0999062 -3.72766 0
M  V30 11151 N 1064.23 1.43628 -0.648757 0
M  V30 11152 C 1065.2 2.29172 0.0360713 0
M  V30 11153 C 1066.2 1.41974 0.754976 0
M  V30 11154 O 1067.39 1.63654 0.5969 0
M  V30 11155 C 1064.52 3.23942 1.0618 0
M  V30 11156 H 1065.71 2.91214 -0.716544 0
M  V30 11157 H 1063.26 1.50833 -0.409759 0
M  V30 11158 H 1064 2.66786 1.8438 0
M  V30 11159 H 1063.78 3.88223 0.550016 0
M  V30 11160 H 1065.27 3.8816 1.54019 0
M  V30 11161 N 1065.71 0.390394 1.52688 0
M  V30 11162 C 1066.67 -0.432149 2.25089 0
M  V30 11163 C 1067.67 -0.989296 1.26766 0
M  V30 11164 O 1068.86 -0.871126 1.50854 0
M  V30 11165 C 1066 -1.60642 3.00678 0
M  V30 11166 H 1067.19 0.201734 2.99221 0
M  V30 11167 H 1064.74 0.142531 1.55649 0
M  V30 11168 H 1065.48 -2.2777 2.3085 0
M  V30 11169 H 1065.26 -1.21361 3.72846 0
M  V30 11170 H 1066.75 -2.18873 3.55647 0
M  V30 11171 N 1067.19 -1.57141 0.120249 0
M  V30 11172 C 1068.12 -2.18398 -0.826112 0
M  V30 11173 C 1069.1 -1.12439 -1.27638 0
M  V30 11174 O 1070.28 -1.40679 -1.33877 0
M  V30 11175 C 1067.41 -2.78438 -2.0758 0
M  V30 11176 C 1066.37 -3.89991 -1.76327 0
M  V30 11177 C 1065.69 -4.36844 -3.08336 0
M  V30 11178 C 1066.99 -5.12031 -1.03062 0
M  V30 11179 H 1068.69 -2.97731 -0.315656 0
M  V30 11180 H 1066.23 -1.43213 -0.150387 0
M  V30 11181 H 1068.19 -3.19951 -2.74243 0
M  V30 11182 H 1066.91 -1.96396 -2.60953 0
M  V30 11183 H 1065.57 -3.49055 -1.12053 0
M  V30 11184 H 1065.22 -3.51659 -3.59646 0
M  V30 11185 H 1064.92 -5.1207 -2.88199 0
M  V30 11186 H 1066.44 -4.81009 -3.76116 0
M  V30 11187 H 1067.86 -5.50555 -1.59881 0
M  V30 11188 H 1066.25 -5.92848 -0.930146 0
M  V30 11189 H 1067.32 -4.84897 -0.017582 0
M  V30 11190 N 1068.67 0.153526 -1.5685 0
M  V30 11191 C 1069.63 1.17362 -1.96873 0
M  V30 11192 C 1070.63 1.36219 -0.854456 0
M  V30 11193 O 1071.82 1.33322 -1.1212 0
M  V30 11194 C 1068.95 2.53523 -2.27901 0
M  V30 11195 H 1070.14 0.830432 -2.88173 0
M  V30 11196 H 1067.7 0.396633 -1.51184 0
M  V30 11197 H 1068.43 2.92824 -1.39371 0
M  V30 11198 H 1068.22 2.41198 -3.09137 0
M  V30 11199 H 1069.71 3.27006 -2.59725 0
M  V30 11200 N 1070.14 1.51827 0.422667 0
M  V30 11201 C 1071.07 1.77152 1.52117 0
M  V30 11202 C 1072.06 0.621895 1.58324 0
M  V30 11203 O 1073.24 0.866118 1.73816 0
M  V30 11204 C 1070.37 1.90991 2.90068 0
M  V30 11205 C 1069.32 3.06516 2.98717 0
M  V30 11206 C 1068.65 3.05559 4.38791 0
M  V30 11207 C 1069.95 4.46223 2.71445 0
M  V30 11208 H 1071.64 2.69135 1.31175 0
M  V30 11209 H 1069.19 1.29507 0.629607 0
M  V30 11210 H 1071.14 2.07291 3.6689 0
M  V30 11211 H 1069.87 0.956688 3.12274 0
M  V30 11212 H 1068.53 2.89945 2.24338 0
M  V30 11213 H 1068.17 2.07985 4.57986 0
M  V30 11214 H 1067.87 3.83144 4.45505 0
M  V30 11215 H 1069.4 3.23971 5.17566 0
M  V30 11216 H 1070.81 4.63069 3.37994 0
M  V30 11217 H 1069.21 5.25623 2.89552 0
M  V30 11218 H 1070.28 4.5525 1.6696 0
M  V30 11219 N 1071.62 -0.679052 1.4222 0
M  V30 11220 C 1072.87 -1.43627 1.42182 0
M  V30 11221 C 1073.19 -1.94964 0.0377095 0
M  V30 11222 O 1072.46 -1.72788 -0.923098 0
M  V30 11223 H 1071.04 -0.532972 0.523402 0
M  V30 11224 H 1073.7 -0.802649 1.77605 0
M  V30 11225 H 1072.8 -2.29137 2.11902 0
M  V30 11226 N 1073.1 -1.28322 -0.914942 0
M  V30 11227 C 1074.33 -1.1837 -1.70304 0
M  V30 11228 C 1074.75 0.254291 -1.86373 0
M  V30 11229 O 1074.11 1.18398 -1.37301 0
M  V30 11230 C 1074.16 -1.88603 -3.07346 0
M  V30 11231 O 1073.26 -1.19268 -3.94777 0
M  V30 11232 H 1072.6 -0.410978 -0.52153 0
M  V30 11233 H 1075.13 -1.69622 -1.14409 0
M  V30 11234 H 1075.14 -1.96463 -3.57584 0
M  V30 11235 H 1073.82 -2.93201 -2.94967 0
M  V30 11236 H 1072.39 -1.19563 -3.53212 0
M  V30 11237 N 1074.58 1.12322 -1.10551 0
M  V30 11238 C 1075.8 1.8822 -0.871093 0
M  V30 11239 C 1076.23 1.7916 0.573005 0
M  V30 11240 O 1075.59 1.14738 1.40374 0
M  V30 11241 C 1075.63 3.35349 -1.32565 0
M  V30 11242 O 1074.74 4.09461 -0.49145 0
M  V30 11243 H 1074.08 0.584787 -0.314516 0
M  V30 11244 H 1076.61 1.42039 -1.47262 0
M  V30 11245 H 1076.62 3.86189 -1.31612 0
M  V30 11246 H 1075.29 3.4126 -2.37728 0
M  V30 11247 H 1073.87 3.68575 -0.566294 0
M  V30 11248 N 1076.06 0.894434 1.2976 0
M  V30 11249 C 1076.99 0.3847 2.30309 0
M  V30 11250 C 1077.97 -0.537486 1.61385 0
M  V30 11251 O 1079.15 -0.449332 1.8893 0
M  V30 11252 C 1076.28 -0.393311 3.45066 0
M  V30 11253 C 1075.24 0.437968 4.25753 0
M  V30 11254 C 1074.56 -0.467221 5.32655 0
M  V30 11255 C 1075.86 1.6851 4.9437 0
M  V30 11256 H 1077.56 1.22496 2.73194 0
M  V30 11257 H 1075.1 0.590471 1.31337 0
M  V30 11258 H 1077.06 -0.760614 4.14479 0
M  V30 11259 H 1075.78 -1.2673 3.0101 0
M  V30 11260 H 1074.44 0.787533 3.58041 0
M  V30 11261 H 1074.09 -1.33919 4.84845 0
M  V30 11262 H 1073.79 0.0852482 5.87538 0
M  V30 11263 H 1075.31 -0.830833 6.04921 0
M  V30 11264 H 1076.72 1.38784 5.56248 0
M  V30 11265 H 1075.12 2.17849 5.59162 0
M  V30 11266 H 1076.19 2.42412 4.19958 0
M  V30 11267 N 1077.53 -1.43282 0.656365 0
M  V30 11268 C 1078.5 -2.29188 -0.0239173 0
M  V30 11269 C 1079.5 -1.42373 -0.747436 0
M  V30 11270 O 1080.69 -1.63969 -0.588213 0
M  V30 11271 C 1077.82 -3.24501 -1.0446 0
M  V30 11272 H 1079.01 -2.9083 0.731978 0
M  V30 11273 H 1076.57 -1.50614 0.417752 0
M  V30 11274 H 1077.3 -2.6776 -1.82962 0
M  V30 11275 H 1077.09 -3.88509 -0.52942 0
M  V30 11276 H 1078.58 -3.88971 -1.51958 0
M  V30 11277 N 1079.01 -0.398486 -1.52479 0
M  V30 11278 C 1079.94 0.423498 -2.29627 0
M  V30 11279 C 1080.92 1.05547 -1.33394 0
M  V30 11280 O 1082.11 1.0665 -1.62294 0
M  V30 11281 C 1079.24 1.54612 -3.10986 0
M  V30 11282 C 1078.19 1.03971 -4.15179 0
M  V30 11283 C 1077.52 2.25512 -4.84818 0
M  V30 11284 C 1078.82 0.10121 -5.22202 0
M  V30 11285 H 1080.51 -0.220222 -2.98589 0
M  V30 11286 H 1078.06 -0.107355 -1.43599 0
M  V30 11287 H 1080.01 2.12806 -3.63719 0
M  V30 11288 H 1078.74 2.21756 -2.39774 0
M  V30 11289 H 1077.4 0.480251 -3.63441 0
M  V30 11290 H 1077.04 2.91187 -4.10145 0
M  V30 11291 H 1076.74 1.92285 -5.55248 0
M  V30 11292 H 1078.27 2.84331 -5.40359 0
M  V30 11293 H 1079.68 0.591617 -5.70239 0
M  V30 11294 H 1078.08 -0.141737 -5.99933 0
M  V30 11295 H 1079.15 -0.847216 -4.77441 0
M  V30 11296 N 1080.49 1.57075 -0.12858 0
M  V30 11297 C 1081.44 2.15816 0.818064 0
M  V30 11298 C 1082.41 1.08581 1.25696 0
M  V30 11299 O 1083.59 1.36535 1.33277 0
M  V30 11300 C 1080.73 2.76943 2.05905 0
M  V30 11301 C 1079.85 3.98514 1.66764 0
M  V30 11302 C 1078.98 4.47698 2.85902 0
M  V30 11303 C 1078.02 5.61778 2.43047 0
M  V30 11304 N 1077.16 6.05662 3.5513 0
M  V30 11305 H 1082 2.9638 0.310318 0
M  V30 11306 H 1079.53 1.46418 0.141472 0
M  V30 11307 H 1081.49 3.10519 2.78629 0
M  V30 11308 H 1080.12 1.99053 2.54122 0
M  V30 11309 H 1079.17 3.71038 0.838766 0
M  V30 11310 H 1080.49 4.81215 1.31277 0
M  V30 11311 H 1079.64 4.83233 3.66839 0
M  V30 11312 H 1078.38 3.63967 3.24622 0
M  V30 11313 H 1077.38 5.25838 1.60544 0
M  V30 11314 H 1078.61 6.47282 2.05433 0
M  V30 11315 H 1076.56 5.2487 3.93506 0
M  V30 11316 H 1076.47 6.83242 3.23598 0
M  V30 11317 H 1077.74 6.45838 4.36479 0
M  V30 11318 N 1081.97 -0.145205 1.5693 0
M  V30 11319 C 1082.9 -1.18096 2.01434 0
M  V30 11320 C 1083.88 -1.447 0.894204 0
M  V30 11321 O 1085.07 -1.55589 1.16214 0
M  V30 11322 C 1082.2 -2.51369 2.39647 0
M  V30 11323 C 1081.15 -2.39283 3.54863 0
M  V30 11324 C 1080.48 -3.77283 3.78895 0
M  V30 11325 C 1081.78 -1.8754 4.87469 0
M  V30 11326 H 1083.47 -0.810897 2.8821 0
M  V30 11327 H 1081.02 -0.388624 1.38657 0
M  V30 11328 H 1082.97 -3.24054 2.69382 0
M  V30 11329 H 1081.69 -2.90214 1.49811 0
M  V30 11330 H 1080.35 -1.6905 3.25296 0
M  V30 11331 H 1080 -4.13567 2.86307 0
M  V30 11332 H 1079.7 -3.70057 4.56433 0
M  V30 11333 H 1081.22 -4.51514 4.11057 0
M  V30 11334 H 1082.64 -2.50019 5.1591 0
M  V30 11335 H 1081.03 -1.912 5.68826 0
M  V30 11336 H 1082.1 -0.831194 4.77723 0
M  V30 11337 N 1083.45 -1.52049 -0.414609 0
M  V30 11338 C 1084.86 -1.58062 -0.993638 0
M  V30 11339 C 1085.21 -0.417795 -1.917 0
M  V30 11340 O 1084.33 0.462558 -2.11399 0
M  V30 11341 C 1084.93 -2.86471 -1.80886 0
M  V30 11342 C 1083.49 -2.94981 -2.33801 0
M  V30 11343 C 1082.64 -2.52949 -1.13631 0
M  V30 11344 H 1085.59 -1.57497 -0.19504 0
M  V30 11345 H 1085.61 -2.71515 -2.66571 0
M  V30 11346 H 1085.12 -3.71085 -1.13657 0
M  V30 11347 H 1083.22 -2.14849 -3.04419 0
M  V30 11348 H 1083.33 -3.99111 -2.65042 0
M  V30 11349 H 1081.7 -2.0667 -1.48861 0
M  V30 11350 H 1082.48 -3.39931 -0.479765 0
M  V30 11351 N 1084.93 0.6715 -1.42579 0
M  V30 11352 C 1085.84 1.81435 -1.48723 0
M  V30 11353 C 1086.85 1.69895 -0.375716 0
M  V30 11354 O 1088.03 1.91388 -0.627115 0
M  V30 11355 C 1085.09 3.17599 -1.39038 0
M  V30 11356 C 1084.15 3.41071 -2.60709 0
M  V30 11357 C 1083.39 4.7074 -2.51476 0
M  V30 11358 O 1083.61 5.48868 -1.55243 0
M  V30 11359 O 1082.54 4.95528 -3.41666 0
M  V30 11360 H 1086.37 1.79206 -2.45191 0
M  V30 11361 H 1083.95 0.827666 -1.24379 0
M  V30 11362 H 1085.84 3.98847 -1.3601 0
M  V30 11363 H 1084.51 3.20458 -0.456966 0
M  V30 11364 H 1083.42 2.59659 -2.69311 0
M  V30 11365 H 1084.75 3.43045 -3.5296 0
M  V30 11366 N 1086.4 1.28806 0.908124 0
M  V30 11367 C 1087.63 1.19153 1.69146 0
M  V30 11368 C 1088.05 -0.249056 1.8715 0
M  V30 11369 O 1087.4 -1.16772 1.40251 0
M  V30 11370 C 1087.45 1.89167 3.08055 0
M  V30 11371 O 1087.18 3.27599 2.90879 0
M  V30 11372 C 1088.68 1.85886 4.02444 0
M  V30 11373 H 1085.9 0.413359 0.528559 0
M  V30 11374 H 1088.44 1.7003 1.13622 0
M  V30 11375 H 1086.6 1.42146 3.60379 0
M  V30 11376 H 1087.01 3.62743 3.78837 0
M  V30 11377 H 1088.48 2.39454 4.97359 0
M  V30 11378 H 1088.96 0.832483 4.31238 0
M  V30 11379 H 1089.57 2.32612 3.5605 0
M  V30 11380 N 1087.88 -1.11734 1.11145 0
M  V30 11381 C 1089.3 -1.35412 0.844736 0
M  V30 11382 C 1089.5 -1.94347 -0.532111 0
M  V30 11383 O 1088.55 -2.17443 -1.28353 0
M  V30 11384 C 1089.87 -2.28869 1.95037 0
M  V30 11385 C 1091.41 -2.42442 1.97967 0
M  V30 11386 C 1091.89 -3.39219 3.07725 0
M  V30 11387 N 1093.38 -3.4678 3.07079 0
M  V30 11388 C 1094.12 -4.21595 3.88646 0
M  V30 11389 N 1093.61 -4.99411 4.80167 0
M  V30 11390 N 1095.4 -4.17075 3.76835 0
M  V30 11391 H 1087.56 -0.718412 1.99881 0
M  V30 11392 H 1089.82 -0.378787 0.869037 0
M  V30 11393 H 1089.52 -1.92752 2.94176 0
M  V30 11394 H 1089.4 -3.2906 1.84389 0
M  V30 11395 H 1091.79 -2.77835 0.994561 0
M  V30 11396 H 1091.87 -1.42113 2.12691 0
M  V30 11397 H 1091.51 -3.04553 4.0646 0
M  V30 11398 H 1091.44 -4.39394 2.90242 0
M  V30 11399 H 1093.93 -2.91272 2.40767 0
M  V30 11400 H 1094.24 -5.53856 5.38946 0
M  V30 11401 H 1092.59 -4.98582 4.84191 0
M  V30 11402 H 1095.78 -3.55369 3.04681 0
M  V30 11403 H 1095.95 -4.75125 4.40637 0
M  V30 11404 N 1089.36 -0.901303 -1.29284 0
M  V30 11405 C 1090.61 -0.527 -1.95108 0
M  V30 11406 C 1090.93 0.930065 -1.71391 0
M  V30 11407 O 1090.2 1.65601 -1.04658 0
M  V30 11408 H 1088.78 -0.191903 -0.721929 0
M  V30 11409 H 1091.44 -1.14795 -1.57506 0
M  V30 11410 H 1090.54 -0.710945 -3.03895 0
M  V30 11411 N 1090.84 1.42931 -0.663954 0
M  V30 11412 C 1091.77 2.29122 0.0598878 0
M  V30 11413 C 1092.78 1.43094 0.776404 0
M  V30 11414 O 1093.97 1.66923 0.63237 0
M  V30 11415 C 1091.07 3.20268 1.10822 0
M  V30 11416 C 1090.24 4.34892 0.4677 0
M  V30 11417 C 1089.3 5.06836 1.41435 0
M  V30 11418 O 1088.33 5.61735 0.918818 0
M  V30 11419 N 1089.53 5.11336 2.74801 0
M  V30 11420 H 1092.3 2.91885 -0.679945 0
M  V30 11421 H 1089.86 1.53739 -0.507543 0
M  V30 11422 H 1091.85 3.65264 1.74255 0
M  V30 11423 H 1090.42 2.59031 1.7499 0
M  V30 11424 H 1089.64 3.92679 -0.34593 0
M  V30 11425 H 1090.93 5.08796 0.0210237 0
M  V30 11426 H 1090.33 4.68124 3.1761 0
M  V30 11427 H 1088.88 5.60013 3.33509 0
M  V30 11428 N 1092.32 0.406567 1.52266 0
M  V30 11429 C 1093.56 -0.170305 2.02084 0
M  V30 11430 C 1093.89 -1.45008 1.29176 0
M  V30 11431 O 1093.17 -1.90399 0.39731 0
M  V30 11432 C 1093.45 -0.420627 3.57635 0
M  V30 11433 C 1093.31 0.87564 4.41194 0
M  V30 11434 C 1094.62 -1.20387 4.23314 0
M  V30 11435 H 1091.74 -0.0604219 0.734519 0
M  V30 11436 H 1094.39 0.539529 1.82179 0
M  V30 11437 H 1092.54 -1.0253 3.74726 0
M  V30 11438 H 1094.21 1.51192 4.35819 0
M  V30 11439 H 1092.45 1.48718 4.07511 0
M  V30 11440 H 1093.12 0.654916 5.48101 0
M  V30 11441 H 1095.6 -0.691972 4.10306 0
M  V30 11442 H 1094.47 -1.34776 5.32096 0
M  V30 11443 H 1094.73 -2.2238 3.82099 0
M  V30 11444 N 1093.79 -1.57004 0.136909 0
M  V30 11445 C 1094.72 -2.19262 -0.802902 0
M  V30 11446 C 1095.71 -1.13786 -1.26439 0
M  V30 11447 O 1096.89 -1.42091 -1.32377 0
M  V30 11448 C 1094.02 -2.80624 -2.04615 0
M  V30 11449 C 1092.97 -3.91839 -1.72181 0
M  V30 11450 C 1092.3 -4.4009 -3.03686 0
M  V30 11451 C 1093.6 -5.13095 -0.976249 0
M  V30 11452 H 1095.29 -2.98049 -0.28406 0
M  V30 11453 H 1092.84 -1.43364 -0.135189 0
M  V30 11454 H 1094.79 -3.22842 -2.70834 0
M  V30 11455 H 1093.52 -1.99153 -2.58855 0
M  V30 11456 H 1092.18 -3.50224 -1.08344 0
M  V30 11457 H 1091.82 -3.55454 -3.55896 0
M  V30 11458 H 1091.52 -5.15098 -2.82751 0
M  V30 11459 H 1093.05 -4.84971 -3.70993 0
M  V30 11460 H 1094.46 -5.5222 -1.54033 0
M  V30 11461 H 1092.86 -5.93801 -0.867214 0
M  V30 11462 H 1093.93 -4.84888 0.0338488 0
M  V30 11463 N 1095.27 0.136881 -1.57004 0
M  V30 11464 C 1096.2 1.19402 -1.95642 0
M  V30 11465 C 1097.22 1.38635 -0.853478 0
M  V30 11466 O 1098.41 1.38027 -1.13185 0
M  V30 11467 C 1095.51 2.55716 -2.22402 0
M  V30 11468 C 1094.68 2.57325 -3.53698 0
M  V30 11469 C 1093.74 3.75253 -3.68879 0
M  V30 11470 O 1092.76 3.5966 -4.41173 0
M  V30 11471 N 1093.97 4.93112 -3.06302 0
M  V30 11472 H 1096.73 0.865504 -2.8693 0
M  V30 11473 H 1094.29 0.326346 -1.58577 0
M  V30 11474 H 1096.28 3.33135 -2.29789 0
M  V30 11475 H 1094.85 2.80819 -1.37329 0
M  V30 11476 H 1094.07 1.65749 -3.5766 0
M  V30 11477 H 1095.36 2.55441 -4.40031 0
M  V30 11478 H 1094.76 5.08684 -2.47502 0
M  V30 11479 H 1093.32 5.68271 -3.19236 0
M  V30 11480 O 1096.79 1.59029 0.28145 0
M  V30 11481 H 1097.48 1.70065 0.92723 0
M  V30 END ATOM
M  V30 BEGIN BOND
M  V30 END BOND
M  V30 END CTAB
M  END
$$$$
