drugbank_target|P25084 Transcriptional activator protein LasR (DB08324)
 OpenBabel12092120503D

  0  0  0     0  0            999 V3000
M  V30 BEGIN CTAB
M  V30 COUNTS 3731 3775 0 0 0
M  V30 BEGIN ATOM
M  V30 1 H -0.908 1.98254 -0.117106 0
M  V30 2 N 0 1.576 0 0
M  V30 3 C 0.933 2.03868 1.02534 0
M  V30 4 C 1.911 0.928543 1.3348 0
M  V30 5 O 3.095 1.19667 1.45644 0
M  V30 6 C 0.222 2.43627 2.35294 0
M  V30 7 C -0.732 3.65373 2.2001 0
M  V30 8 S 0.101 5.13292 1.52614 0
M  V30 9 C 1.257 5.56322 2.86805 0
M  V30 10 H 1.49 2.90518 0.631377 0
M  V30 11 H -0.977 1.52953 0.210867 0
M  V30 12 H 0.981 2.67203 3.11629 0
M  V30 13 H -0.358 1.57376 2.7183 0
M  V30 14 H -1.165 3.90944 3.18086 0
M  V30 15 H -1.563 3.418 1.51819 0
M  V30 16 H 0.729 5.58782 3.83104 0
M  V30 17 H 1.672 6.56266 2.65933 0
M  V30 18 H 2.08 4.83886 2.90714 0
M  V30 19 N 1.4781 -0.272755 1.55222 0
M  V30 20 C 2.4411 -1.32041 1.87344 0
M  V30 21 C 3.4411 -1.42342 0.74803 0
M  V30 22 O 4.6311 -1.41488 1.0162 0
M  V30 23 C 1.7631 -2.70173 2.07893 0
M  V30 24 H 2.9561 -1.04789 2.80997 0
M  V30 25 H 0.5091 -0.51083 1.47717 0
M  V30 26 H 1.2441 -3.02605 1.16622 0
M  V30 27 H 1.0291 -2.64082 2.89833 0
M  V30 28 H 2.5191 -3.45869 2.34017 0
M  V30 29 N 2.9562 -1.48159 -0.537278 0
M  V30 30 C 3.8862 -1.65029 -1.6519 0
M  V30 31 C 4.8672 -0.499281 -1.62607 0
M  V30 32 O 6.0522 -0.730972 -1.79918 0
M  V30 33 C 3.1822 -1.68303 -3.03795 0
M  V30 34 C 2.1362 -2.8283 -3.21234 0
M  V30 35 C 1.4622 -2.71189 -4.60826 0
M  V30 36 C 2.7622 -4.24211 -3.04701 0
M  V30 37 H 4.4562 -2.58341 -1.51328 0
M  V30 38 H 2.0022 -1.24325 -0.726585 0
M  V30 39 H 3.9552 -1.78693 -3.81637 0
M  V30 40 H 2.6792 -0.715635 -3.18663 0
M  V30 41 H 1.3382 -2.71983 -2.45807 0
M  V30 42 H 0.9862 -1.72435 -4.7252 0
M  V30 43 H 0.6862 -3.48035 -4.7344 0
M  V30 44 H 2.2102 -2.83537 -5.40777 0
M  V30 45 H 3.6242 -4.3593 -3.72341 0
M  V30 46 H 2.0212 -5.01998 -3.28813 0
M  V30 47 H 3.0912 -4.41184 -2.01209 0
M  V30 48 N 4.4343 0.785586 -1.36625 0
M  V30 49 C 5.6803 1.54591 -1.31261 0
M  V30 50 C 6.0133 1.93906 0.106823 0
M  V30 51 O 5.2883 1.63007 1.06108 0
M  V30 52 C 5.5713 2.82038 -2.23889 0
M  V30 53 C 5.4243 2.49066 -3.74548 0
M  V30 54 C 6.7433 3.83887 -2.15217 0
M  V30 55 H 3.8623 0.560846 -0.478143 0
M  V30 56 H 6.5043 0.902278 -1.67209 0
M  V30 57 H 4.6543 3.36961 -1.93363 0
M  V30 58 H 6.3263 2.00164 -4.15611 0
M  V30 59 H 4.5693 1.81954 -3.93796 0
M  V30 60 H 5.2403 3.40109 -4.34776 0
M  V30 61 H 7.7163 3.38421 -2.42096 0
M  V30 62 H 6.5923 4.70806 -2.82193 0
M  V30 63 H 6.8533 4.27131 -1.14068 0
M  V30 64 N 5.9124 1.20967 1.01018 0
M  V30 65 C 7.1894 0.93264 1.71934 0
M  V30 66 C 7.5694 -0.55692 2.03621 0
M  V30 67 O 6.9174 -1.52035 1.7058 0
M  V30 68 C 7.1274 1.81233 2.98254 0
M  V30 69 C 8.4754 2.05804 3.71389 0
M  V30 70 O 9.4994 1.78539 3.08225 0
M  V30 71 O 8.3584 2.51888 4.84989 0
M  V30 72 H 5.4524 0.349272 0.749625 0
M  V30 73 H 7.9984 1.31871 1.06808 0
M  V30 74 H 6.7704 2.82067 2.71208 0
M  V30 75 H 6.3934 1.42674 3.7112 0
M  V30 76 N 7.3905 -1.2043 1.01659 0
M  V30 77 C 8.6385 -1.89423 0.704522 0
M  V30 78 C 8.9595 -1.79231 -0.768197 0
M  V30 79 O 8.2295 -1.1947 -1.55254 0
M  V30 80 H 6.8095 -0.701178 0.257602 0
M  V30 81 H 9.4715 -1.4626 1.28818 0
M  V30 82 H 8.5675 -2.96052 0.987916 0
M  V30 83 N 8.8686 -0.792821 -1.36206 0
M  V30 84 C 10.1156 -0.366786 -1.99151 0
M  V30 85 C 10.4436 1.06243 -1.62919 0
M  V30 86 O 9.6986 1.74927 -0.877442 0
M  V30 87 C 9.9976 -0.481501 -3.54142 0
M  V30 88 C 9.6636 -1.87202 -4.10203 0
M  V30 89 C 8.3256 -2.25248 -4.25226 0
M  V30 90 C 10.6776 -2.78237 -4.40719 0
M  V30 91 C 8.0056 -3.53723 -4.68078 0
M  V30 92 C 10.3576 -4.06144 -4.85005 0
M  V30 93 C 9.0216 -4.44207 -4.98234 0
M  V30 94 H 8.2916 -0.134217 -0.728743 0
M  V30 95 H 10.9386 -1.01094 -1.62641 0
M  V30 96 H 9.2436 0.246146 -3.91026 0
M  V30 97 H 10.9406 -0.132844 -4.0078 0
M  V30 98 H 7.5306 -1.56639 -3.98951 0
M  V30 99 H 11.7146 -2.50097 -4.28679 0
M  V30 100 H 6.9706 -3.8308 -4.76508 0
M  V30 101 H 11.1446 -4.76796 -5.07581 0
M  V30 102 H 8.7716 -5.43814 -5.31197 0
M  V30 103 N 10.3467 1.47872 -0.545128 0
M  V30 104 C 11.2767 2.32661 0.197793 0
M  V30 105 C 12.2577 1.43041 0.920504 0
M  V30 106 O 13.4427 1.71912 0.90333 0
M  V30 107 C 10.5727 3.24569 1.23582 0
M  V30 108 C 9.5267 4.23333 0.630323 0
M  V30 109 C 8.8527 5.0448 1.77211 0
M  V30 110 C 10.1527 5.20704 -0.407974 0
M  V30 111 H 11.8467 2.95024 -0.510045 0
M  V30 112 H 9.3927 1.4187 -0.246731 0
M  V30 113 H 11.3457 3.8272 1.76362 0
M  V30 114 H 10.0697 2.60236 1.97344 0
M  V30 115 H 8.7287 3.6639 0.123922 0
M  V30 116 H 8.3767 4.36561 2.49847 0
M  V30 117 H 8.0767 5.71339 1.37281 0
M  V30 118 H 9.6007 5.65487 2.3034 0
M  V30 119 H 11.0147 5.7329 0.033305 0
M  V30 120 H 9.4117 5.95699 -0.725486 0
M  V30 121 H 10.4817 4.66917 -1.30828 0
M  V30 122 N 11.8248 0.280983 1.55075 0
M  V30 123 C 12.7348 -0.61388 2.26426 0
M  V30 124 C 13.7508 -1.16521 1.29224 0
M  V30 125 O 14.9268 -1.19426 1.62171 0
M  V30 126 C 11.9918 -1.7788 2.9759 0
M  V30 127 C 11.0528 -1.26355 4.10284 0
M  V30 128 C 10.2858 -2.37295 4.78045 0
M  V30 129 O 10.5088 -3.56777 4.45047 0
M  V30 130 O 9.4428 -2.05119 5.65871 0
M  V30 131 H 13.2688 -0.0356932 3.03679 0
M  V30 132 H 10.8538 0.0481686 1.49322 0
M  V30 133 H 12.7358 -2.45791 3.42293 0
M  V30 134 H 11.4108 -2.34397 2.23249 0
M  V30 135 H 10.3178 -0.550735 3.70024 0
M  V30 136 H 11.6508 -0.744065 4.86543 0
M  V30 137 N 13.3029 -1.57598 0.00835791 0
M  V30 138 C 14.2329 -2.1198 -0.979113 0
M  V30 139 C 15.2139 -1.03091 -1.35301 0
M  V30 140 O 16.3989 -1.30818 -1.43528 0
M  V30 141 C 13.5289 -2.62995 -2.26828 0
M  V30 142 C 12.4829 -3.76485 -2.03576 0
M  V30 143 C 11.8089 -4.13846 -3.38579 0
M  V30 144 C 13.1089 -5.0342 -1.39161 0
M  V30 145 H 14.8029 -2.94738 -0.526281 0
M  V30 146 H 12.3489 -1.41783 -0.251704 0
M  V30 147 H 14.3019 -2.99669 -2.96271 0
M  V30 148 H 13.0259 -1.7737 -2.7424 0
M  V30 149 H 11.6849 -3.40217 -1.36557 0
M  V30 150 H 11.3329 -3.25232 -3.83709 0
M  V30 151 H 11.0329 -4.90312 -3.23834 0
M  V30 152 H 12.5569 -4.53086 -4.09323 0
M  V30 153 H 13.9709 -5.37812 -1.98573 0
M  V30 154 H 12.3679 -5.84746 -1.34878 0
M  V30 155 H 13.4379 -4.83548 -0.361868 0
M  V30 156 N 14.781 0.264519 -1.55364 0
M  V30 157 C 15.691 1.34902 -1.91934 0
M  V30 158 C 16.707 1.53595 -0.817593 0
M  V30 159 O 17.883 1.67558 -1.11742 0
M  V30 160 C 14.948 2.68676 -2.19121 0
M  V30 161 C 14.009 2.58657 -3.4263 0
M  V30 162 C 13.242 3.86051 -3.68511 0
M  V30 163 O 13.465 4.87126 -2.96757 0
M  V30 164 O 12.399 3.85744 -4.62045 0
M  V30 165 H 16.225 1.06883 -2.8427 0
M  V30 166 H 13.81 0.463775 -1.42019 0
M  V30 167 H 15.692 3.47759 -2.37995 0
M  V30 168 H 14.367 2.96463 -1.29966 0
M  V30 169 H 13.274 1.7792 -3.29082 0
M  V30 170 H 14.607 2.35818 -4.32031 0
M  V30 171 N 16.2591 1.48442 0.529413 0
M  V30 172 C 17.6751 1.34575 0.858004 0
M  V30 173 C 17.8751 0.3572 1.98309 0
M  V30 174 O 16.9311 -0.221379 2.51528 0
M  V30 175 C 18.2441 2.74617 1.22499 0
M  V30 176 C 19.7921 2.83109 1.33484 0
M  V30 177 C 20.2671 4.23854 1.73526 0
M  V30 178 N 21.7581 4.2653 1.80628 0
M  V30 179 C 22.4931 5.32372 2.12997 0
M  V30 180 N 21.9891 6.48491 2.43786 0
M  V30 181 N 23.7821 5.19766 2.14008 0
M  V30 182 H 15.9331 2.1133 -0.212925 0
M  V30 183 H 18.1961 0.947439 -0.0326199 0
M  V30 184 H 17.9021 3.4852 0.471905 0
M  V30 185 H 17.7761 3.08177 2.17501 0
M  V30 186 H 20.1631 2.09462 2.0787 0
M  V30 187 H 20.2441 2.53168 0.366027 0
M  V30 188 H 19.8881 4.98018 0.997013 0
M  V30 189 H 19.8181 4.5124 2.71459 0
M  V30 190 H 22.3091 3.42772 1.59108 0
M  V30 191 H 22.6221 7.24993 2.67592 0
M  V30 192 H 20.9671 6.51765 2.41304 0
M  V30 193 H 24.1581 4.28066 1.89412 0
M  V30 194 H 24.3311 6.02354 2.38902 0
M  V30 195 N 17.7372 -0.778329 1.37039 0
M  V30 196 C 18.9622 -1.57248 1.35233 0
M  V30 197 C 19.3872 -1.87999 -0.0615568 0
M  V30 198 O 18.7452 -1.48734 -1.03672 0
M  V30 199 C 18.7932 -2.86353 2.19167 0
M  V30 200 O 17.8972 -3.80442 1.59178 0
M  V30 201 H 17.2382 -0.476569 0.462362 0
M  V30 202 H 19.7682 -0.963853 1.80474 0
M  V30 203 H 19.7782 -3.35519 2.32145 0
M  V30 204 H 18.4532 -2.63299 3.21942 0
M  V30 205 H 17.0302 -3.39067 1.55203 0
M  V30 206 N 19.2153 -1.21501 -1.00376 0
M  V30 207 C 20.4403 -1.05977 -1.78279 0
M  V30 208 C 20.8653 0.385994 -1.84097 0
M  V30 209 O 20.2233 1.27849 -1.28547 0
M  V30 210 C 20.2713 -1.66302 -3.19963 0
M  V30 211 O 19.3753 -0.909333 -4.0225 0
M  V30 212 H 18.7163 -0.372906 -0.549397 0
M  V30 213 H 21.2463 -1.6107 -1.26165 0
M  V30 214 H 21.2563 -1.70574 -3.70632 0
M  V30 215 H 19.9313 -2.71515 -3.15043 0
M  V30 216 H 18.5083 -0.941795 -3.60811 0
M  V30 217 N 20.6934 1.19889 -1.02296 0
M  V30 218 C 21.9414 1.89046 -0.714558 0
M  V30 219 C 22.2624 1.79636 0.758681 0
M  V30 220 O 21.5324 1.20292 1.54618 0
M  V30 221 H 20.1124 0.699802 -0.261317 0
M  V30 222 H 22.7744 1.45574 -1.29592 0
M  V30 223 H 21.8704 2.95524 -1.0036 0
M  V30 224 N 22.1715 0.800033 1.35784 0
M  V30 225 C 23.1185 0.203848 2.29898 0
M  V30 226 C 24.0885 -0.658375 1.52495 0
M  V30 227 O 25.2735 -0.604832 1.8096 0
M  V30 228 C 22.4135 -0.64688 3.38983 0
M  V30 229 C 21.5265 0.235054 4.3136 0
M  V30 230 C 20.6615 -0.623054 5.27533 0
M  V30 231 C 19.7005 0.259682 6.11549 0
M  V30 232 N 18.8375 -0.558019 6.99879 0
M  V30 233 H 23.6775 1.01186 2.80295 0
M  V30 234 H 21.2145 0.51053 1.37957 0
M  V30 235 H 23.1725 -1.15521 4.00887 0
M  V30 236 H 21.8025 -1.42021 2.89879 0
M  V30 237 H 20.8545 0.861438 3.70518 0
M  V30 238 H 22.1665 0.914768 4.9034 0
M  V30 239 H 21.3205 -1.19678 5.94779 0
M  V30 240 H 20.0595 -1.33636 4.69034 0
M  V30 241 H 19.0645 0.845726 5.43256 0
M  V30 242 H 20.2895 0.970748 6.72126 0
M  V30 243 H 18.2355 -1.25542 6.43875 0
M  V30 244 H 18.1525 0.0637872 7.55973 0
M  V30 245 H 19.4205 -1.11523 7.71481 0
M  V30 246 N 23.6496 -1.47581 0.552962 0
M  V30 247 C 24.5796 -2.32762 -0.185451 0
M  V30 248 C 25.5606 -1.43527 -0.912905 0
M  V30 249 O 26.7456 -1.72388 -0.894201 0
M  V30 250 C 23.8756 -3.25219 -1.21859 0
M  V30 251 C 22.8296 -4.23661 -0.607864 0
M  V30 252 C 22.1556 -5.05413 -1.74533 0
M  V30 253 C 23.4556 -5.20481 0.435582 0
M  V30 254 H 25.1496 -2.94749 0.525684 0
M  V30 255 H 22.6956 -1.41738 0.254251 0
M  V30 256 H 24.6486 -3.8365 -1.7433 0
M  V30 257 H 23.3726 -2.61279 -1.95961 0
M  V30 258 H 22.0316 -3.66451 -0.104489 0
M  V30 259 H 21.6796 -4.3788 -2.47529 0
M  V30 260 H 21.3796 -5.72059 -1.34249 0
M  V30 261 H 22.9036 -5.66701 -2.27338 0
M  V30 262 H 24.3176 -5.733 -0.00290157 0
M  V30 263 H 22.7146 -5.95305 0.757067 0
M  V30 264 H 23.7846 -4.66217 1.33303 0
M  V30 265 N 25.1277 -0.289203 -1.54924 0
M  V30 266 C 26.0377 0.601863 -2.26748 0
M  V30 267 C 27.0537 1.15834 -1.2984 0
M  V30 268 O 28.2297 1.18564 -1.62802 0
M  V30 269 C 25.2947 1.76299 -2.98529 0
M  V30 270 C 24.3557 1.24178 -4.10948 0
M  V30 271 C 23.5887 2.34757 -4.79296 0
M  V30 272 O 23.8117 3.54411 -4.46933 0
M  V30 273 O 22.7457 2.02115 -5.66951 0
M  V30 274 H 26.5717 0.0195879 -3.03694 0
M  V30 275 H 24.1567 -0.0560868 -1.49295 0
M  V30 276 H 26.0387 2.43973 -3.43592 0
M  V30 277 H 24.7137 2.33209 -2.24488 0
M  V30 278 H 23.6207 0.531104 -3.70311 0
M  V30 279 H 24.9537 0.718252 -4.86931 0
M  V30 280 N 26.6058 1.57591 -0.0167156 0
M  V30 281 C 27.8518 1.92399 0.659861 0
M  V30 282 C 28.2068 0.892561 1.70444 0
M  V30 283 O 27.4998 -0.0930755 1.91374 0
M  V30 284 C 27.6938 3.3172 1.33029 0
M  V30 285 C 27.5228 4.48319 0.352174 0
M  V30 286 C 26.2928 5.05281 -0.0434883 0
M  V30 287 C 28.4908 5.12831 -0.388474 0
M  V30 288 N 26.4728 6.05399 -1.01807 0
M  V30 289 C 27.8438 6.07934 -1.2172 0
M  V30 290 C 29.8988 4.95858 -0.450513 0
M  V30 291 C 28.6018 6.87891 -2.10235 0
M  V30 292 C 30.6278 5.76413 -1.32295 0
M  V30 293 C 29.9898 6.71123 -2.13948 0
M  V30 294 H 26.0888 0.752106 0.21415 0
M  V30 295 H 28.6728 1.94532 -0.0809846 0
M  V30 296 H 26.8438 3.3043 2.04134 0
M  V30 297 H 28.5758 3.5391 1.9629 0
M  V30 298 H 25.3308 4.7246 0.328384 0
M  V30 299 H 25.7548 6.60145 -1.50123 0
M  V30 300 H 30.3968 4.22472 0.166512 0
M  V30 301 H 28.1148 7.60591 -2.72997 0
M  V30 302 H 31.7008 5.65317 -1.37508 0
M  V30 303 H 30.5808 7.3237 -2.80364 0
M  V30 304 N 28.0839 -0.256276 1.55502 0
M  V30 305 C 29.3089 -1.00766 1.81276 0
M  V30 306 C 29.7339 -1.78524 0.59252 0
M  V30 307 O 29.0919 -1.75413 -0.45827 0
M  V30 308 C 29.1399 -1.92869 3.04687 0
M  V30 309 O 28.2439 -3.019 2.80945 0
M  V30 310 H 27.5849 -0.287224 0.598664 0
M  V30 311 H 30.1149 -0.280109 2.02674 0
M  V30 312 H 30.1249 -2.34511 3.33869 0
M  V30 313 H 28.7999 -1.35689 3.93143 0
M  V30 314 H 27.3769 -2.64454 2.62904 0
M  V30 315 N 29.562 -1.4872 -0.521534 0
M  V30 316 C 30.525 -1.63379 -1.60748 0
M  V30 317 C 31.525 -0.50661 -1.52611 0
M  V30 318 O 32.715 -0.772601 -1.5613 0
M  V30 319 C 29.847 -1.61192 -3.00383 0
M  V30 320 H 31.04 -2.60217 -1.49087 0
M  V30 321 H 28.593 -1.37444 -0.744235 0
M  V30 322 H 29.328 -0.65863 -3.17541 0
M  V30 323 H 29.113 -2.43032 -3.07698 0
M  V30 324 H 30.603 -1.7466 -3.7932 0
M  V30 325 N 31.0401 0.771051 -1.3745 0
M  V30 326 C 32.2891 1.52491 -1.3202 0
M  V30 327 C 32.6021 1.9538 0.0927347 0
M  V30 328 O 33.8081 2.70159 0.269503 0
M  V30 329 C 32.2641 2.75366 -2.31736 0
M  V30 330 C 31.8721 2.39573 -3.78562 0
M  V30 331 C 33.6161 3.53307 -2.35318 0
M  V30 332 C 31.5231 3.58954 -4.70007 0
M  V30 333 H 30.4531 0.572506 -0.490666 0
M  V30 334 H 33.1041 0.844474 -1.62914 0
M  V30 335 H 31.4861 3.45303 -1.93861 0
M  V30 336 H 32.6601 1.77415 -4.25277 0
M  V30 337 H 30.9751 1.74805 -3.77932 0
M  V30 338 H 33.5721 4.42039 -3.00842 0
M  V30 339 H 33.9151 3.93217 -1.36698 0
M  V30 340 H 34.4481 2.90367 -2.71904 0
M  V30 341 H 31.1871 3.24125 -5.69757 0
M  V30 342 H 30.7071 4.20214 -4.27996 0
M  V30 343 H 32.3861 4.25758 -4.87175 0
M  V30 344 N 32.5182 1.22032 0.997298 0
M  V30 345 C 33.4482 1.01065 2.10495 0
M  V30 346 C 34.4292 -0.0669542 1.69968 0
M  V30 347 O 35.6142 0.0943987 1.9397 0
M  V30 348 C 32.7442 0.582874 3.42374 0
M  V30 349 C 31.6982 1.60592 3.96729 0
M  V30 350 C 31.0242 1.03412 5.24605 0
M  V30 351 C 32.3242 2.99478 4.27914 0
M  V30 352 H 34.0182 1.93708 2.28292 0
M  V30 353 H 31.5642 0.932761 1.09707 0
M  V30 354 H 33.5172 0.423332 4.19268 0
M  V30 355 H 32.2412 -0.379213 3.24391 0
M  V30 356 H 30.9002 1.75316 3.21963 0
M  V30 357 H 30.5482 0.063518 5.0296 0
M  V30 358 H 30.2482 1.71754 5.61938 0
M  V30 359 H 31.7722 0.886066 6.04137 0
M  V30 360 H 33.1862 2.88153 4.95622 0
M  V30 361 H 31.5832 3.64903 4.76409 0
M  V30 362 H 32.6532 3.49742 3.3587 0
M  V30 363 N 33.9963 -1.19345 1.0293 0
M  V30 364 C 34.9283 -2.22036 0.56857 0
M  V30 365 C 35.9413 -1.58865 -0.355779 0
M  V30 366 O 37.1303 -1.77851 -0.152103 0
M  V30 367 C 34.2303 -3.38363 -0.190752 0
M  V30 368 C 33.4033 -4.31118 0.738643 0
M  V30 369 C 32.4623 -5.26194 0.0246497 0
M  V30 370 O 31.4883 -5.65461 0.651354 0
M  V30 371 N 32.6903 -5.66971 -1.24594 0
M  V30 372 H 35.4553 -2.6219 1.45177 0
M  V30 373 H 33.0163 -1.34015 0.908381 0
M  V30 374 H 35.0083 -3.98981 -0.677961 0
M  V30 375 H 33.5783 -2.96994 -0.975366 0
M  V30 376 H 32.7983 -3.68276 1.40593 0
M  V30 377 H 34.0863 -4.90001 1.37029 0
M  V30 378 H 33.4843 -5.37104 -1.77583 0
M  V30 379 H 32.0413 -6.2984 -1.67764 0
M  V30 380 N 35.4744 -0.807222 -1.35358 0
M  V30 381 C 36.4214 -0.216037 -2.29787 0
M  V30 382 C 37.3914 0.650278 -1.52842 0
M  V30 383 O 38.5764 0.595227 -1.81278 0
M  V30 384 C 35.7164 0.628893 -3.39321 0
M  V30 385 C 34.8294 -0.257927 -4.31229 0
M  V30 386 C 33.9644 0.595069 -5.27856 0
M  V30 387 C 33.0034 -0.292111 -6.11403 0
M  V30 388 N 32.1404 0.520895 -7.00165 0
M  V30 389 H 36.9804 -1.02671 -2.79755 0
M  V30 390 H 34.5174 -0.517839 -1.37684 0
M  V30 391 H 36.4754 1.13393 -4.01494 0
M  V30 392 H 35.1054 1.40482 -2.90628 0
M  V30 393 H 34.1574 -0.881076 -3.70056 0
M  V30 394 H 35.4694 -0.940759 -4.89848 0
M  V30 395 H 34.6234 1.16522 -5.95405 0
M  V30 396 H 33.3624 1.31146 -4.69736 0
M  V30 397 H 32.3674 -0.874525 -5.428 0
M  V30 398 H 33.5924 -1.00638 -6.71602 0
M  V30 399 H 31.5384 1.22125 -6.44532 0
M  V30 400 H 31.4554 -0.103877 -7.55929 0
M  V30 401 H 32.7234 1.0743 -7.72062 0
M  V30 402 N 36.9525 1.47285 -0.560781 0
M  V30 403 C 37.8855 2.27009 0.232821 0
M  V30 404 C 38.8635 1.34273 0.917039 0
M  V30 405 O 40.0475 1.63659 0.935315 0
M  V30 406 C 37.1745 3.11406 1.33206 0
M  V30 407 C 36.2205 4.19746 0.756019 0
M  V30 408 S 37.0535 5.34003 -0.400165 0
M  V30 409 C 38.2095 6.21964 0.700805 0
M  V30 410 H 38.4425 2.93971 -0.443683 0
M  V30 411 H 35.9755 1.50446 -0.347181 0
M  V30 412 H 37.9335 3.60601 1.96156 0
M  V30 413 H 36.5945 2.438 1.98041 0
M  V30 414 H 35.7875 4.78541 1.5816 0
M  V30 415 H 35.3895 3.73451 0.202619 0
M  V30 416 H 37.6815 6.58529 1.59202 0
M  V30 417 H 38.6245 7.07941 0.150126 0
M  V30 418 H 39.0325 5.5566 0.995083 0
M  V30 419 N 38.4306 0.297415 1.54768 0
M  V30 420 C 39.3936 -0.567375 2.22066 0
M  V30 421 C 40.3936 -1.06409 1.20556 0
M  V30 422 O 41.5836 -0.960691 1.45315 0
M  V30 423 C 38.7156 -1.78517 2.90421 0
M  V30 424 H 39.9086 0.0205534 2.99893 0
M  V30 425 H 37.4616 0.0482163 1.56226 0
M  V30 426 H 38.1966 -2.41303 2.16664 0
M  V30 427 H 37.9816 -1.43669 3.64831 0
M  V30 428 H 39.4716 -2.39964 3.41771 0
M  V30 429 N 39.9087 -1.5758 0.0250728 0
M  V30 430 C 41.1337 -1.96337 -0.668317 0
M  V30 431 C 41.5587 -0.901314 -1.651 0
M  V30 432 O 40.9167 0.138187 -1.80773 0
M  V30 433 C 40.9647 -3.34191 -1.35457 0
M  V30 434 O 40.0687 -3.30269 -2.46974 0
M  V30 435 H 39.4097 -0.640281 -0.175887 0
M  V30 436 H 41.9397 -2.0442 0.0857224 0
M  V30 437 H 41.9497 -3.70331 -1.71228 0
M  V30 438 H 40.6247 -4.11036 -0.634218 0
M  V30 439 H 39.2017 -3.05841 -2.13344 0
M  V30 440 N 41.3868 0.248026 -1.55636 0
M  V30 441 C 42.6638 0.998988 -1.68165 0
M  V30 442 C 43.0438 2.03409 -0.564621 0
M  V30 443 O 42.3918 2.24378 0.432076 0
M  V30 444 C 42.6018 1.63334 -3.0842 0
M  V30 445 C 43.9498 2.13562 -3.66983 0
M  V30 446 O 44.9738 1.73277 -3.11213 0
M  V30 447 O 43.8328 2.87526 -4.64749 0
M  V30 448 H 40.9268 0.464933 -0.683935 0
M  V30 449 H 43.4728 0.241902 -1.67967 0
M  V30 450 H 42.2448 0.884583 -3.8117 0
M  V30 451 H 41.8678 2.45666 -3.12624 0
M  V30 452 N 42.8649 1.48995 0.513639 0
M  V30 453 C 43.7949 1.67636 1.62544 0
M  V30 454 C 44.7759 0.525087 1.61793 0
M  V30 455 O 45.9609 0.759502 1.78732 0
M  V30 456 C 43.0909 1.73114 3.01079 0
M  V30 457 C 42.0449 2.87905 3.16693 0
M  V30 458 C 41.3709 2.78486 4.56453 0
M  V30 459 C 42.6709 4.29005 2.97913 0
M  V30 460 H 44.3649 2.60716 1.47198 0
M  V30 461 H 41.9109 1.25465 0.706714 0
M  V30 462 H 43.8639 1.84742 3.78746 0
M  V30 463 H 42.5879 0.766241 3.17484 0
M  V30 464 H 41.2469 2.75859 2.41448 0
M  V30 465 H 40.8949 1.7993 4.69717 0
M  V30 466 H 40.5949 3.55523 4.67843 0
M  V30 467 H 42.1189 2.92104 5.36197 0
M  V30 468 H 43.5329 4.41798 3.65359 0
M  V30 469 H 41.9299 5.07166 3.20785 0
M  V30 470 H 42.9999 4.44329 1.94165 0
M  V30 471 N 44.343 -0.763751 1.37857 0
M  V30 472 C 45.591 -1.51957 1.33243 0
M  V30 473 C 45.912 -1.94835 -0.0801709 0
M  V30 474 O 45.182 -1.66894 -1.02582 0
M  V30 475 H 43.762 -0.563626 0.49024 0
M  V30 476 H 46.424 -0.908504 1.7243 0
M  V30 477 H 45.52 -2.41523 1.97669 0
M  V30 478 N 45.8211 -1.22559 -0.990812 0
M  V30 479 C 47.0681 -1.05141 -1.73065 0
M  V30 480 C 47.3961 0.413191 -1.9006 0
M  V30 481 O 46.6511 1.32257 -1.44245 0
M  V30 482 C 46.9501 -1.71011 -3.13831 0
M  V30 483 C 46.6161 -3.20911 -3.16745 0
M  V30 484 C 45.2781 -3.61812 -3.17247 0
M  V30 485 C 47.6301 -4.16846 -3.12872 0
M  V30 486 C 44.9581 -4.97127 -3.1158 0
M  V30 487 C 47.3101 -5.5214 -3.08746 0
M  V30 488 C 45.9741 -5.92419 -3.07565 0
M  V30 489 H 45.2441 -0.384738 -0.633291 0
M  V30 490 H 47.8911 -1.5235 -1.16025 0
M  V30 491 H 46.1961 -1.16133 -3.74193 0
M  V30 492 H 47.8931 -1.55023 -3.69823 0
M  V30 493 H 44.4831 -2.88344 -3.17105 0
M  V30 494 H 48.6671 -3.86263 -3.11632 0
M  V30 495 H 43.9231 -5.27562 -3.09012 0
M  V30 496 H 48.0971 -6.26201 -3.04705 0
M  V30 497 H 45.7241 -6.97236 -3.02929 0
M  V30 498 N 47.2992 1.18797 -1.03562 0
M  V30 499 C 48.5242 1.9314 -0.755764 0
M  V30 500 C 48.9492 1.7537 0.68022 0
M  V30 501 O 48.3072 1.06046 1.47051 0
M  V30 502 C 48.3552 3.42747 -1.12058 0
M  V30 503 O 47.4592 4.11683 -0.243124 0
M  V30 504 H 46.8002 0.602724 -0.278604 0
M  V30 505 H 49.3302 1.50678 -1.3841 0
M  V30 506 H 49.3402 3.93437 -1.08035 0
M  V30 507 H 48.0152 3.55002 -2.16672 0
M  V30 508 H 46.5922 3.71323 -0.342539 0
M  V30 509 N 48.7773 0.814389 1.34928 0
M  V30 510 C 49.7243 0.22822 2.29669 0
M  V30 511 C 50.6943 -0.642164 1.53184 0
M  V30 512 O 51.8793 -0.585605 1.81591 0
M  V30 513 C 49.0193 -0.61089 3.3965 0
M  V30 514 C 48.1323 0.280792 4.31086 0
M  V30 515 C 47.2673 -0.567067 5.28165 0
M  V30 516 C 46.3063 0.324531 6.11239 0
M  V30 517 N 45.4433 -0.483756 7.00431 0
M  V30 518 H 50.2833 1.04153 2.79206 0
M  V30 519 H 47.8203 0.525133 1.37407 0
M  V30 520 H 49.7783 -1.11263 4.0209 0
M  V30 521 H 48.4083 -1.38939 2.91369 0
M  V30 522 H 47.4603 0.900688 3.69583 0
M  V30 523 H 48.7723 0.966723 4.89342 0
M  V30 524 H 47.9263 -1.13363 5.96015 0
M  V30 525 H 46.6653 -1.28654 4.70425 0
M  V30 526 H 45.6703 0.903298 5.42329 0
M  V30 527 H 46.8953 1.04198 6.71059 0
M  V30 528 H 44.8413 -1.18706 6.45171 0
M  V30 529 H 44.7583 0.143965 7.55863 0
M  V30 530 H 46.0263 -1.03334 7.7262 0
M  V30 531 N 50.2554 -1.46986 0.568584 0
M  V30 532 C 51.5044 -2.01646 0.0465894 0
M  V30 533 C 51.8174 -1.44721 -1.31587 0
M  V30 534 O 53.0234 -1.91113 -1.92842 0
M  V30 535 C 51.4794 -3.59885 0.032752 0
M  V30 536 C 51.0874 -4.25804 1.39266 0
M  V30 537 C 52.8314 -4.22255 -0.436038 0
M  V30 538 C 50.7384 -5.76081 1.33732 0
M  V30 539 H 49.6684 -0.753876 0.013647 0
M  V30 540 H 52.3194 -1.68864 0.718131 0
M  V30 541 H 50.7014 -3.8968 -0.704669 0
M  V30 542 H 51.8754 -4.07637 2.1487 0
M  V30 543 H 50.1904 -3.7547 1.80032 0
M  V30 544 H 52.7874 -5.32394 -0.49602 0
M  V30 545 H 53.1304 -3.90212 -1.45053 0
M  V30 546 H 53.6634 -3.97033 0.246877 0
M  V30 547 H 50.4024 -6.12761 2.32817 0
M  V30 548 H 49.9224 -5.96553 0.623267 0
M  V30 549 H 51.6014 -6.38518 1.0442 0
M  V30 550 N 51.7335 -0.305618 -1.54608 0
M  V30 551 C 52.6635 0.561482 -2.26649 0
M  V30 552 C 53.6445 1.13415 -1.26772 0
M  V30 553 O 54.8295 1.16262 -1.55553 0
M  V30 554 C 51.9595 1.73122 -3.01075 0
M  V30 555 C 50.9135 1.2887 -4.08138 0
M  V30 556 C 50.2395 2.54396 -4.70305 0
M  V30 557 C 51.5395 0.416578 -5.20636 0
M  V30 558 H 53.2335 -0.0393902 -2.99374 0
M  V30 559 H 50.7795 -0.020385 -1.43986 0
M  V30 560 H 52.7325 2.34396 -3.50195 0
M  V30 561 H 51.4565 2.3584 -2.25936 0
M  V30 562 H 50.1155 0.698991 -3.59875 0
M  V30 563 H 49.7635 3.15439 -3.918 0
M  V30 564 H 49.4635 2.25486 -5.42614 0
M  V30 565 H 50.9875 3.16464 -5.2219 0
M  V30 566 H 52.4015 0.935116 -5.65622 0
M  V30 567 H 50.7985 0.221046 -5.99693 0
M  V30 568 H 51.8685 -0.557162 -4.81688 0
M  V30 569 N 53.2116 1.57565 -0.0334293 0
M  V30 570 C 54.4586 1.91978 0.644272 0
M  V30 571 C 54.7866 0.910231 1.71887 0
M  V30 572 O 54.0416 -0.0801961 1.95536 0
M  V30 573 C 54.3406 3.33112 1.29504 0
M  V30 574 C 54.0066 4.49537 0.350388 0
M  V30 575 C 52.6686 4.81115 0.0903974 0
M  V30 576 C 55.0206 5.20347 -0.298032 0
M  V30 577 C 52.3486 5.8086 -0.825746 0
M  V30 578 C 54.7006 6.2107 -1.20226 0
M  V30 579 C 53.3646 6.51088 -1.4711 0
M  V30 580 H 52.6346 0.702496 0.235756 0
M  V30 581 H 55.2816 1.91259 -0.0961176 0
M  V30 582 H 53.5866 3.30113 2.11028 0
M  V30 583 H 55.2836 3.57011 1.82603 0
M  V30 584 H 51.8736 4.24883 0.563205 0
M  V30 585 H 56.0576 4.96178 -0.110234 0
M  V30 586 H 51.3136 6.02461 -1.04169 0
M  V30 587 H 55.4876 6.75057 -1.71086 0
M  V30 588 H 53.1146 7.28193 -2.18264 0
M  V30 589 N 54.6897 -0.239769 1.55765 0
M  V30 590 C 55.9377 -0.964892 1.77579 0
M  V30 591 C 56.2587 -1.85582 0.598699 0
M  V30 592 O 55.5287 -1.92075 -0.385226 0
M  V30 593 H 54.1087 -0.359265 0.654933 0
M  V30 594 H 56.7707 -0.256001 1.93211 0
M  V30 595 H 55.8667 -1.58243 2.69009 0
M  V30 596 N 56.1678 -1.49265 -0.50573 0
M  V30 597 C 57.0978 -1.68495 -1.61653 0
M  V30 598 C 58.0788 -0.53366 -1.61512 0
M  V30 599 O 59.2638 -0.76897 -1.78327 0
M  V30 600 C 56.3938 -1.74709 -3.00157 0
M  V30 601 C 55.3478 -2.89581 -3.15162 0
M  V30 602 C 54.6738 -2.80903 -4.5497 0
M  V30 603 C 55.9738 -4.30578 -2.95634 0
M  V30 604 H 57.6678 -2.61493 -1.45814 0
M  V30 605 H 55.2138 -1.25838 -0.70005 0
M  V30 606 H 57.1668 -1.86748 -3.77761 0
M  V30 607 H 55.8908 -0.783067 -3.17074 0
M  V30 608 H 54.5498 -2.77136 -2.39982 0
M  V30 609 H 54.1978 -1.82419 -4.68756 0
M  V30 610 H 53.8978 -3.57999 -4.65951 0
M  V30 611 H 55.4218 -2.94944 -5.34641 0
M  V30 612 H 56.8358 -4.4373 -3.63011 0
M  V30 613 H 55.2328 -5.0886 -3.18091 0
M  V30 614 H 56.3028 -4.45352 -1.91806 0
M  V30 615 N 57.6459 0.756429 -1.3826 0
M  V30 616 C 58.5759 1.88374 -1.37976 0
M  V30 617 C 59.5569 1.68311 -0.246082 0
M  V30 618 O 60.7419 1.88944 -0.44874 0
M  V30 619 C 57.8719 3.25864 -1.20125 0
M  V30 620 C 56.8259 3.60523 -2.30666 0
M  V30 621 C 56.1519 4.9672 -1.97923 0
M  V30 622 C 57.4519 3.65692 -3.72916 0
M  V30 623 H 59.1459 1.88869 -2.32312 0
M  V30 624 H 56.6919 0.907272 -1.11824 0
M  V30 625 H 58.6449 4.0438 -1.18552 0
M  V30 626 H 57.3689 3.25841 -0.222498 0
M  V30 627 H 56.0279 2.84324 -2.3142 0
M  V30 628 H 55.6759 4.93253 -0.985393 0
M  V30 629 H 55.3759 5.20878 -2.71955 0
M  V30 630 H 56.8999 5.77618 -1.97964 0
M  V30 631 H 58.3139 4.34328 -3.74208 0
M  V30 632 H 56.7109 4.01358 -4.4613 0
M  V30 633 H 57.7809 2.65987 -4.05436 0
M  V30 634 N 59.124 1.23083 0.984299 0
M  V30 635 C 60.535 1.05609 1.5396 0
M  V30 636 C 60.886 -0.377793 1.92528 0
M  V30 637 O 60.011 -1.26398 1.75649 0
M  V30 638 C 60.606 1.91087 2.7977 0
M  V30 639 C 59.165 1.77885 3.31713 0
M  V30 640 C 58.312 1.87028 2.04733 0
M  V30 641 H 61.263 1.36802 0.804419 0
M  V30 642 H 61.284 1.43336 3.5247 0
M  V30 643 H 60.796 2.9544 2.51668 0
M  V30 644 H 58.897 0.762995 3.64704 0
M  V30 645 H 59.01 2.61047 4.01735 0
M  V30 646 H 57.374 1.30565 2.18689 0
M  V30 647 H 58.157 2.92929 1.79017 0
M  V30 648 N 60.6021 -1.18246 1.0419 0
M  V30 649 C 61.5491 -2.2192 0.634037 0
M  V30 650 C 62.5191 -1.62179 -0.358765 0
M  V30 651 O 63.7041 -1.89122 -0.252466 0
M  V30 652 C 60.8441 -3.451 0.00445535 0
M  V30 653 C 59.9571 -4.19174 1.04487 0
M  V30 654 C 59.0921 -5.29813 0.383676 0
M  V30 655 C 58.1311 -5.9566 1.4091 0
M  V30 656 N 57.2681 -6.97834 0.772784 0
M  V30 657 H 62.1081 -2.56164 1.52263 0
M  V30 658 H 59.6451 -1.25843 0.761701 0
M  V30 659 H 61.6031 -4.15485 -0.377919 0
M  V30 660 H 60.2331 -3.11472 -0.847652 0
M  V30 661 H 59.2851 -3.47604 1.54518 0
M  V30 662 H 60.5971 -4.64267 1.82368 0
M  V30 663 H 59.7511 -6.06677 -0.0528366 0
M  V30 664 H 58.4901 -4.85825 -0.427208 0
M  V30 665 H 57.4951 -5.17535 1.85574 0
M  V30 666 H 58.7201 -6.4173 2.22171 0
M  V30 667 H 56.6661 -6.55998 -0.0177708 0
M  V30 668 H 56.5831 -7.41186 1.48928 0
M  V30 669 H 57.8511 -7.78665 0.36071 0
M  V30 670 N 62.0802 -0.821533 -1.34494 0
M  V30 671 C 63.3572 -0.33159 -1.92769 0
M  V30 672 C 63.7372 1.18088 -1.74981 0
M  V30 673 O 63.0852 1.98733 -1.12772 0
M  V30 674 C 63.2952 -0.759398 -3.40638 0
M  V30 675 C 64.6432 -0.757433 -4.1779 0
M  V30 676 O 65.6672 -0.70189 -3.49216 0
M  V30 677 O 64.5262 -0.829361 -5.4017 0
M  V30 678 H 61.6202 -0.0902502 -0.822061 0
M  V30 679 H 64.1662 -0.906231 -1.43477 0
M  V30 680 H 62.9382 -1.8012 -3.47379 0
M  V30 681 H 62.5612 -0.160378 -3.97276 0
M  V30 682 N 63.5583 1.46682 -0.576371 0
M  V30 683 C 64.7833 2.07304 -0.0630475 0
M  V30 684 C 65.2083 1.42329 1.2298 0
M  V30 685 O 64.5663 0.504865 1.74129 0
M  V30 686 C 64.6143 3.60472 0.095895 0
M  V30 687 O 63.7183 3.95927 1.15394 0
M  V30 688 H 63.0593 0.661288 -0.0599463 0
M  V30 689 H 65.5893 1.88417 -0.797511 0
M  V30 690 H 65.5993 4.06865 0.304071 0
M  V30 691 H 64.2743 4.07157 -0.84828 0
M  V30 692 H 62.8513 3.61252 0.924724 0
M  V30 693 N 65.0364 0.313813 1.54444 0
M  V30 694 C 65.9684 -0.590425 2.21465 0
M  V30 695 C 66.9814 -1.08753 1.21147 0
M  V30 696 O 68.1704 -1.00278 1.4767 0
M  V30 697 C 65.2704 -1.82179 2.85769 0
M  V30 698 C 64.4434 -1.46502 4.12136 0
M  V30 699 C 63.5024 -2.55288 4.60124 0
M  V30 700 O 62.5284 -2.19842 5.25032 0
M  V30 701 N 63.7304 -3.86053 4.33525 0
M  V30 702 H 66.4954 -0.0166033 2.99695 0
M  V30 703 H 64.0564 0.136578 1.61323 0
M  V30 704 H 66.0484 -2.54328 3.14801 0
M  V30 705 H 64.6184 -2.30369 2.11303 0
M  V30 706 H 63.8384 -0.575595 3.89975 0
M  V30 707 H 65.1264 -1.20221 4.94393 0
M  V30 708 H 64.5244 -4.17654 3.81552 0
M  V30 709 H 63.0814 -4.54461 4.67235 0
M  V30 710 N 66.5145 -1.57545 0.0417849 0
M  V30 711 C 67.7915 -1.83642 -0.673433 0
M  V30 712 C 68.1715 -0.928298 -1.89594 0
M  V30 713 O 67.5195 0.0129955 -2.28496 0
M  V30 714 C 67.7295 -3.33155 -1.03964 0
M  V30 715 C 69.0775 -3.99941 -1.42592 0
M  V30 716 O 70.1015 -3.37725 -1.13226 0
M  V30 717 O 68.9605 -5.09619 -1.9736 0
M  V30 718 H 66.0545 -0.757638 -0.331533 0
M  V30 719 H 68.6005 -1.69554 0.070433 0
M  V30 720 H 67.3725 -3.9093 -0.170098 0
M  V30 721 H 66.9955 -3.52396 -1.84126 0
M  V30 722 N 67.9926 0.231505 -1.5589 0
M  V30 723 C 69.2226 0.973092 -1.82248 0
M  V30 724 C 69.6306 1.78845 -0.617328 0
M  V30 725 O 68.9736 1.78752 0.423499 0
M  V30 726 C 69.0356 1.94732 -3.02192 0
M  V30 727 C 68.6996 1.31743 -4.37599 0
M  V30 728 C 69.6966 0.712238 -5.14998 0
M  V30 729 C 67.3816 1.33218 -4.84312 0
M  V30 730 C 69.3756 0.130195 -6.37267 0
M  V30 731 C 67.0626 0.746286 -6.06526 0
M  V30 732 C 68.0606 0.146337 -6.82843 0
M  V30 733 O 67.7486 -0.430465 -8.02747 0
M  V30 734 H 67.4806 0.29125 -0.61004 0
M  V30 735 H 70.0346 0.254915 -2.03812 0
M  V30 736 H 68.2646 2.70422 -2.76422 0
M  V30 737 H 69.9536 2.55362 -3.15508 0
M  V30 738 H 70.7196 0.69324 -4.8002 0
M  V30 739 H 66.5986 1.78854 -4.24891 0
M  V30 740 H 70.1426 -0.33871 -6.96777 0
M  V30 741 H 66.0396 0.762663 -6.40979 0
M  V30 742 H 66.8076 -0.323818 -8.17859 0
M  V30 743 N 69.4707 1.49531 0.497807 0
M  V30 744 C 70.3807 1.69176 1.62532 0
M  V30 745 C 71.3967 0.5744 1.64246 0
M  V30 746 O 72.5727 0.849497 1.82608 0
M  V30 747 C 69.6377 1.75695 2.98885 0
M  V30 748 C 68.6987 2.9929 3.07773 0
M  V30 749 C 67.9317 3.05488 4.37622 0
M  V30 750 O 68.1547 2.19192 5.26603 0
M  V30 751 O 67.0887 3.9798 4.51548 0
M  V30 752 H 70.9147 2.647 1.48887 0
M  V30 753 H 68.4997 1.3331 0.674441 0
M  V30 754 H 70.3817 1.82317 3.79919 0
M  V30 755 H 69.0567 0.8335 3.12785 0
M  V30 756 H 67.9637 2.98183 2.25915 0
M  V30 757 H 69.2967 3.91125 2.98801 0
M  V30 758 N 70.9488 -0.749086 1.3866 0
M  V30 759 C 71.8968 -1.88428 1.36373 0
M  V30 760 C 72.8908 -1.67561 0.248929 0
M  V30 761 O 74.0968 -1.75074 0.41821 0
M  V30 762 H 70.4718 -0.620023 0.42553 0
M  V30 763 H 72.4428 -1.87473 2.32156 0
M  V30 764 C 71.1918 -3.25961 1.21014 0
M  V30 765 H 70.5148 -3.42607 2.06059 0
M  V30 766 H 71.9548 -4.05625 1.23469 0
M  V30 767 C 70.4138 -3.36799 -0.0825941 0
M  V30 768 O 70.9438 -3.87517 -1.05797 0
M  V30 769 N 69.1498 -2.90258 -0.140939 0
M  V30 770 H 68.6968 -2.49174 0.653477 0
M  V30 771 H 68.6548 -2.97889 -1.00545 0
M  V30 772 N 72.4269 -1.23603 -0.977757 0
M  V30 773 C 73.3899 -1.02069 -2.05218 0
M  V30 774 C 74.3899 0.0184305 -1.60789 0
M  V30 775 O 75.5799 -0.221569 -1.72785 0
M  V30 776 C 72.7119 -0.544926 -3.36517 0
M  V30 777 H 73.9049 -1.9742 -2.25755 0
M  V30 778 H 71.4579 -1.05684 -1.15155 0
M  V30 779 H 72.1929 0.412241 -3.21669 0
M  V30 780 H 71.9779 -1.2948 -3.70105 0
M  V30 781 H 73.4679 -0.414985 -4.15533 0
M  V30 782 N 73.905 1.17692 -1.04816 0
M  V30 783 C 75.152 1.87859 -0.75599 0
M  V30 784 C 75.48 1.80812 0.716752 0
M  V30 785 O 74.735 1.20819 1.53952 0
M  V30 786 C 75.034 3.37462 -1.17703 0
M  V30 787 C 74.7 3.64713 -2.65133 0
M  V30 788 C 73.362 3.71859 -3.05408 0
M  V30 789 C 75.714 3.76492 -3.60421 0
M  V30 790 C 73.042 3.88271 -4.39843 0
M  V30 791 C 75.394 3.94421 -4.94585 0
M  V30 792 C 74.058 3.99806 -5.3452 0
M  V30 793 H 73.328 0.687425 -0.276636 0
M  V30 794 H 75.975 1.39255 -1.31455 0
M  V30 795 H 74.28 3.88097 -0.537395 0
M  V30 796 H 75.977 3.90109 -0.928218 0
M  V30 797 H 72.567 3.59772 -2.32942 0
M  V30 798 H 76.751 3.70295 -3.30447 0
M  V30 799 H 72.007 3.90687 -4.70291 0
M  V30 800 H 76.181 4.02477 -5.68318 0
M  V30 801 H 73.808 4.12276 -6.38696 0
M  V30 802 N 75.3831 0.828654 1.34056 0
M  V30 803 C 76.6321 0.415828 1.97367 0
M  V30 804 C 76.9451 -1.02796 1.6641 0
M  V30 805 O 78.1511 -1.54497 2.23255 0
M  V30 806 C 76.6071 0.692601 3.53173 0
M  V30 807 C 76.2151 2.15038 3.93017 0
M  V30 808 C 77.9591 0.346222 4.23086 0
M  V30 809 C 75.8661 2.37174 5.41758 0
M  V30 810 H 74.7961 0.151755 0.738571 0
M  V30 811 H 77.4471 1.01581 1.52819 0
M  V30 812 H 75.8291 0.0223764 3.95994 0
M  V30 813 H 77.0031 2.86024 3.61285 0
M  V30 814 H 75.3181 2.45875 3.36057 0
M  V30 815 H 77.9151 0.48937 5.32456 0
M  V30 816 H 78.2581 -0.709842 4.10204 0
M  V30 817 H 78.7911 0.971258 3.85761 0
M  V30 818 H 75.5301 3.41308 5.59633 0
M  V30 819 H 75.0501 1.70738 5.74986 0
M  V30 820 H 76.7291 2.19818 6.08514 0
M  V30 821 N 76.8612 -1.46375 0.584142 0
M  V30 822 C 78.1072 -2.02678 0.0703716 0
M  V30 823 C 78.4402 -1.4545 -1.28678 0
M  V30 824 O 77.7152 -0.62014 -1.84349 0
M  V30 825 C 77.9982 -3.60099 0.00614674 0
M  V30 826 C 77.8512 -4.27709 1.3923 0
M  V30 827 C 79.1702 -4.34598 -0.693742 0
M  V30 828 H 76.2892 -0.736504 0.027047 0
M  V30 829 H 78.9312 -1.74501 0.751615 0
M  V30 830 H 77.0812 -3.84236 -0.574009 0
M  V30 831 H 78.7532 -4.14832 2.01773 0
M  V30 832 H 76.9962 -3.87016 1.95962 0
M  V30 833 H 77.6672 -5.36478 1.29982 0
M  V30 834 H 80.1432 -4.15615 -0.200869 0
M  V30 835 H 79.0192 -5.44318 -0.707714 0
M  V30 836 H 79.2802 -4.05759 -1.75533 0
M  V30 837 N 78.3393 -0.321999 -1.54275 0
M  V30 838 C 79.5873 0.280489 -2.00144 0
M  V30 839 C 79.9083 1.52777 -1.21178 0
M  V30 840 O 79.1783 1.9338 -0.313187 0
M  V30 841 H 77.7583 0.106632 -0.73935 0
M  V30 842 H 80.4203 -0.438184 -1.8991 0
M  V30 843 H 79.5163 0.537972 -3.07428 0
M  V30 844 N 79.8174 1.5752 -0.0501392 0
M  V30 845 C 80.7654 2.12651 0.942459 0
M  V30 846 C 81.7594 1.05807 1.32292 0
M  V30 847 O 82.9654 1.24217 1.3027 0
M  V30 848 H 79.3404 0.679673 0.321789 0
M  V30 849 H 81.3114 2.94951 0.452356 0
M  V30 850 C 80.0604 2.68565 2.20836 0
M  V30 851 H 79.3834 3.50439 1.92439 0
M  V30 852 H 80.8234 3.10761 2.8845 0
M  V30 853 C 79.2824 1.62291 2.95234 0
M  V30 854 O 79.8124 1.03508 3.88135 0
M  V30 855 N 78.0184 1.33836 2.57946 0
M  V30 856 H 77.5654 1.81826 1.82475 0
M  V30 857 H 77.5234 0.629595 3.08032 0
M  V30 858 N 81.2955 -0.223234 1.56011 0
M  V30 859 C 82.5255 -0.963413 1.82762 0
M  V30 860 C 82.9335 -1.78516 0.626804 0
M  V30 861 O 82.2765 -1.78974 -0.414014 0
M  V30 862 C 82.3385 -1.93126 3.0322 0
M  V30 863 C 82.0025 -1.2942 4.38291 0
M  V30 864 C 82.9995 -0.684916 5.15369 0
M  V30 865 C 80.6845 -1.30647 4.85012 0
M  V30 866 C 82.6785 -0.0963971 6.37327 0
M  V30 867 C 80.3655 -0.71411 6.06913 0
M  V30 868 C 81.3635 -0.110123 6.82911 0
M  V30 869 O 81.0515 0.47303 8.02507 0
M  V30 870 H 80.7835 -0.288011 0.611576 0
M  V30 871 H 83.3375 -0.244103 2.03944 0
M  V30 872 H 81.5675 -2.68952 2.77852 0
M  V30 873 H 83.2565 -2.53685 3.16857 0
M  V30 874 H 84.0225 -0.667774 4.80381 0
M  V30 875 H 79.9015 -1.76598 4.25833 0
M  V30 876 H 83.4455 0.375657 6.96588 0
M  V30 877 H 79.3425 -0.728659 6.41374 0
M  V30 878 H 80.1105 0.367186 8.17676 0
M  V30 879 N 82.7736 -1.49793 -0.48987 0
M  V30 880 C 84.1846 -1.52914 -1.07118 0
M  V30 881 C 84.5356 -0.321738 -1.93544 0
M  V30 882 O 83.6606 0.567338 -2.08831 0
M  V30 883 C 84.2556 -2.771 -1.94938 0
M  V30 884 C 82.8146 -2.82963 -2.48212 0
M  V30 885 C 81.9616 -2.46972 -1.26096 0
M  V30 886 H 84.9126 -1.56329 -0.273289 0
M  V30 887 H 84.9336 -2.57892 -2.79771 0
M  V30 888 H 84.4456 -3.64959 -1.32009 0
M  V30 889 H 82.5466 -1.99411 -3.14748 0
M  V30 890 H 82.6596 -3.85406 -2.84603 0
M  V30 891 H 81.0236 -1.98994 -1.58976 0
M  V30 892 H 81.8066 -3.37118 -0.648581 0
M  V30 893 N 84.2517 0.741722 -1.39055 0
M  V30 894 C 85.2147 1.83733 -1.37021 0
M  V30 895 C 86.2147 1.58542 -0.268534 0
M  V30 896 O 87.4047 1.66067 -0.526076 0
M  V30 897 C 84.5367 3.2141 -1.13617 0
M  V30 898 H 85.7297 1.86941 -2.34506 0
M  V30 899 H 83.2827 0.944676 -1.24521 0
M  V30 900 H 84.0177 3.23865 -0.167863 0
M  V30 901 H 83.8027 3.4109 -1.93391 0
M  V30 902 H 85.2927 4.01477 -1.14918 0
M  V30 903 N 85.7298 1.2412 0.971189 0
M  V30 904 C 86.6928 1.03156 2.04674 0
M  V30 905 C 87.6928 -0.00990322 1.60797 0
M  V30 906 O 88.8828 0.230729 1.72665 0
M  V30 907 C 86.0148 0.562765 3.36223 0
M  V30 908 H 87.2078 1.98614 2.24705 0
M  V30 909 H 84.7608 1.06293 1.14593 0
M  V30 910 H 85.4958 -0.395176 3.21883 0
M  V30 911 H 85.2808 1.31441 3.69413 0
M  V30 912 H 86.7708 0.437015 4.15307 0
M  V30 913 N 87.2079 -1.17134 1.05439 0
M  V30 914 C 88.4539 -1.87979 0.776872 0
M  V30 915 C 88.8089 -1.7965 -0.688751 0
M  V30 916 O 88.1019 -1.19535 -1.4974 0
M  V30 917 C 88.2959 -3.36833 1.19491 0
M  V30 918 C 88.1249 -3.59653 2.69963 0
M  V30 919 C 86.8949 -3.76234 3.37307 0
M  V30 920 C 89.0929 -3.59091 3.68182 0
M  V30 921 N 87.0749 -3.86922 4.76618 0
M  V30 922 C 88.4459 -3.75659 4.93235 0
M  V30 923 C 90.5009 -3.42255 3.61616 0
M  V30 924 C 89.2039 -3.77133 6.12506 0
M  V30 925 C 91.2299 -3.45018 4.8033 0
M  V30 926 C 90.5919 -3.62096 6.04207 0
M  V30 927 H 86.6909 -0.705876 0.336546 0
M  V30 928 H 89.2749 -1.40602 1.34682 0
M  V30 929 H 87.4459 -3.82873 0.652884 0
M  V30 930 H 89.1779 -3.95305 0.866966 0
M  V30 931 H 85.9329 -3.76193 2.87708 0
M  V30 932 H 86.3569 -3.96055 5.49062 0
M  V30 933 H 90.9989 -3.27986 2.66805 0
M  V30 934 H 88.7169 -3.90186 7.07659 0
M  V30 935 H 92.3029 -3.33246 4.76905 0
M  V30 936 H 91.1829 -3.64142 6.94529 0
M  V30 937 N 88.686 -0.835752 -1.33615 0
M  V30 938 C 90.102 -0.523139 -1.50783 0
M  V30 939 C 90.302 0.950171 -1.77691 0
M  V30 940 O 89.358 1.73411 -1.83534 0
M  V30 941 C 90.671 -1.39378 -2.66448 0
M  V30 942 C 92.219 -1.39223 -2.80332 0
M  V30 943 C 92.694 -2.24765 -3.99055 0
M  V30 944 N 94.185 -2.22458 -4.06284 0
M  V30 945 C 94.92 -2.85386 -4.97336 0
M  V30 946 N 94.416 -3.57354 -5.93523 0
M  V30 947 N 96.209 -2.74872 -4.90308 0
M  V30 948 H 88.36 -1.78952 -1.14411 0
M  V30 949 H 90.623 -0.763297 -0.562212 0
M  V30 950 H 90.329 -2.44061 -2.53234 0
M  V30 951 H 90.203 -1.0676 -3.61776 0
M  V30 952 H 92.59 -0.353136 -2.92979 0
M  V30 953 H 92.671 -1.75846 -1.85773 0
M  V30 954 H 92.315 -3.28732 -3.87167 0
M  V30 955 H 92.245 -1.85485 -4.92852 0
M  V30 956 H 94.736 -1.70119 -3.37443 0
M  V30 957 H 95.049 -4.02584 -6.59656 0
M  V30 958 H 93.394 -3.61461 -5.93608 0
M  V30 959 H 96.585 -2.18213 -4.14126 0
M  V30 960 H 96.758 -3.24199 -5.61069 0
M  V30 961 N 90.1641 1.46063 -0.591896 0
M  V30 962 C 91.0741 2.34192 0.13831 0
M  V30 963 C 92.0901 1.50305 0.876608 0
M  V30 964 O 93.2661 1.8315 0.837728 0
M  V30 965 C 90.3311 3.27656 1.13326 0
M  V30 966 C 89.3921 4.27445 0.39863 0
M  V30 967 C 88.6251 5.16443 1.34618 0
M  V30 968 O 88.8481 5.08553 2.58321 0
M  V30 969 O 87.7821 5.95843 0.851768 0
M  V30 970 H 91.6081 2.98002 -0.58552 0
M  V30 971 H 89.1931 1.45188 -0.352239 0
M  V30 972 H 91.0751 3.85291 1.70671 0
M  V30 973 H 89.7501 2.6643 1.83839 0
M  V30 974 H 88.6571 3.73471 -0.216895 0
M  V30 975 H 89.9901 4.91482 -0.265709 0
M  V30 976 N 91.6422 0.330177 1.54103 0
M  V30 977 C 92.5922 -0.548456 2.21305 0
M  V30 978 C 93.5762 -1.07651 1.19583 0
M  V30 979 O 94.7682 -1.01243 1.45186 0
M  V30 980 C 91.8972 -1.70559 2.97934 0
M  V30 981 C 90.9832 -1.19212 4.07 0
M  V30 982 N 91.3742 -0.398831 5.04225 0
M  V30 983 C 89.6722 -1.47024 4.2107 0
M  V30 984 C 90.3732 -0.121761 5.81573 0
M  V30 985 N 89.3492 -0.709722 5.38947 0
M  V30 986 H 93.1512 0.0648483 2.93828 0
M  V30 987 H 90.6652 0.136363 1.61826 0
M  V30 988 H 92.6622 -2.34688 3.44568 0
M  V30 989 H 91.3222 -2.32231 2.26934 0
M  V30 990 H 92.3332 -0.0410869 5.17884 0
M  V30 991 H 89.0102 -2.09232 3.61287 0
M  V30 992 H 90.4002 0.517298 6.69906 0
M  V30 993 N 93.1203 -1.57491 0.0584922 0
M  V30 994 C 94.3503 -1.9701 -0.622134 0
M  V30 995 C 94.7583 -0.935034 -1.6448 0
M  V30 996 O 94.1013 0.0882904 -1.83488 0
M  V30 997 C 94.1633 -3.32794 -1.35972 0
M  V30 998 C 93.8273 -4.54343 -0.492043 0
M  V30 999 C 94.8243 -5.19323 0.244901 0
M  V30 1000 C 92.5093 -5.00534 -0.420821 0
M  V30 1001 C 94.5033 -6.28835 1.04143 0
M  V30 1002 C 92.1903 -6.09921 0.379389 0
M  V30 1003 C 93.1883 -6.73933 1.10919 0
M  V30 1004 O 92.8763 -7.81216 1.89623 0
M  V30 1005 H 92.6083 -0.653127 -0.174359 0
M  V30 1006 H 95.1623 -2.05029 0.123418 0
M  V30 1007 H 93.3923 -3.21351 -2.15105 0
M  V30 1008 H 95.0813 -3.5701 -1.93129 0
M  V30 1009 H 95.8473 -4.8459 0.19939 0
M  V30 1010 H 91.7263 -4.50496 -0.978474 0
M  V30 1011 H 95.2703 -6.7873 1.61157 0
M  V30 1012 H 91.1673 -6.44089 0.426512 0
M  V30 1013 H 91.9353 -7.98029 1.81913 0
M  V30 1014 N 94.5984 0.214957 -1.56127 0
M  V30 1015 C 95.8754 0.963093 -1.70247 0
M  V30 1016 C 96.2554 2.02166 -0.60764 0
M  V30 1017 O 95.6034 2.25244 0.384385 0
M  V30 1018 C 95.8134 1.56756 -3.11815 0
M  V30 1019 C 97.1614 2.0573 -3.7143 0
M  V30 1020 O 98.1854 1.66637 -3.14818 0
M  V30 1021 O 97.0444 2.77603 -4.70743 0
M  V30 1022 H 94.1384 0.450321 -0.693643 0
M  V30 1023 H 96.6844 0.206219 -1.68442 0
M  V30 1024 H 95.4564 0.803533 -3.82961 0
M  V30 1025 H 95.0794 2.3898 -3.17765 0
M  V30 1026 N 96.0765 1.50051 0.48192 0
M  V30 1027 C 97.4925 1.37237 0.814756 0
M  V30 1028 C 97.6925 0.420109 1.97072 0
M  V30 1029 O 96.7485 -0.141246 2.52105 0
M  V30 1030 C 98.0615 2.78375 1.13701 0
M  V30 1031 C 99.6095 2.87213 1.2441 0
M  V30 1032 C 100.084 4.29161 1.59954 0
M  V30 1033 N 101.575 4.32061 1.66967 0
M  V30 1034 C 102.31 5.38879 1.95952 0
M  V30 1035 N 101.806 6.55918 2.23031 0
M  V30 1036 N 103.599 5.26312 1.97363 0
M  V30 1037 H 95.7505 2.10546 -0.28005 0
M  V30 1038 H 98.0135 0.945921 -0.0627454 0
M  V30 1039 H 97.7195 3.49845 0.360787 0
M  V30 1040 H 97.5935 3.14941 2.07586 0
M  V30 1041 H 99.9805 2.15969 2.01101 0
M  V30 1042 H 100.061 2.54204 0.285299 0
M  V30 1043 H 99.7055 5.00938 0.838067 0
M  V30 1044 H 99.6355 4.59648 2.56966 0
M  V30 1045 H 102.126 3.47661 1.48123 0
M  V30 1046 H 102.439 7.33139 2.44391 0
M  V30 1047 H 100.784 6.59112 2.20447 0
M  V30 1048 H 103.975 4.33876 1.75697 0
M  V30 1049 H 104.148 6.09649 2.19618 0
M  V30 1050 N 97.5546 -0.734337 1.39446 0
M  V30 1051 C 98.5176 -1.83004 1.37994 0
M  V30 1052 C 99.5176 -1.58397 0.276938 0
M  V30 1053 O 100.708 -1.65785 0.534875 0
M  V30 1054 C 97.8396 -3.20802 1.1532 0
M  V30 1055 H 99.0326 -1.85694 2.35494 0
M  V30 1056 H 96.5856 -0.938059 1.25021 0
M  V30 1057 H 97.3206 -3.23772 0.185036 0
M  V30 1058 H 97.1056 -3.4006 1.95197 0
M  V30 1059 H 98.5956 -4.00862 1.17046 0
M  V30 1060 N 99.0327 -1.24633 -0.964593 0
M  V30 1061 C 100.281 -1.08573 -1.70459 0
M  V30 1062 C 100.602 0.375655 -1.91347 0
M  V30 1063 O 99.8717 1.26779 -1.49345 0
M  V30 1064 H 98.4517 -0.398784 -0.631649 0
M  V30 1065 H 101.114 -1.56601 -1.16026 0
M  V30 1066 H 100.21 -1.58623 -2.68785 0
M  V30 1067 N 100.511 1.16574 -1.06058 0
M  V30 1068 C 101.741 1.90675 -0.795397 0
M  V30 1069 C 102.149 1.77547 0.653735 0
M  V30 1070 O 101.492 1.11611 1.45907 0
M  V30 1071 C 101.554 3.42011 -1.10764 0
M  V30 1072 C 101.218 3.78924 -2.55471 0
M  V30 1073 C 102.215 3.81042 -3.53699 0
M  V30 1074 C 99.8998 4.09626 -2.90708 0
M  V30 1075 C 101.894 4.13346 -4.85205 0
M  V30 1076 C 99.5808 4.41597 -4.22416 0
M  V30 1077 C 100.579 4.43436 -5.19474 0
M  V30 1078 O 100.267 4.74649 -6.48817 0
M  V30 1079 H 99.9988 0.611554 -0.288058 0
M  V30 1080 H 102.553 1.48711 -1.41683 0
M  V30 1081 H 100.783 3.84312 -0.429128 0
M  V30 1082 H 102.472 3.97384 -0.827077 0
M  V30 1083 H 103.238 3.57437 -3.27817 0
M  V30 1084 H 99.1168 4.07361 -2.15819 0
M  V30 1085 H 102.661 4.14696 -5.60957 0
M  V30 1086 H 98.5578 4.64667 -4.48056 0
M  V30 1087 H 99.3258 4.9247 -6.5377 0
M  V30 1088 N 101.989 0.842826 1.3317 0
M  V30 1089 C 102.952 0.284065 2.27433 0
M  V30 1090 C 103.952 -0.54948 1.5112 0
M  V30 1091 O 105.142 -0.362699 1.70382 0
M  V30 1092 C 102.274 -0.599384 3.35589 0
M  V30 1093 H 103.467 1.11589 2.78366 0
M  V30 1094 H 101.02 0.616221 1.4364 0
M  V30 1095 H 101.755 -1.45349 2.89904 0
M  V30 1096 H 101.54 -0.00291266 3.921 0
M  V30 1097 H 103.03 -0.983488 4.05854 0
M  V30 1098 N 103.467 -1.45747 0.599634 0
M  V30 1099 C 104.883 -1.57424 0.26264 0
M  V30 1100 C 105.083 -1.59222 -1.23493 0
M  V30 1101 O 104.139 -1.51825 -2.01756 0
M  V30 1102 C 105.452 -2.86061 0.926795 0
M  V30 1103 C 107 -2.99722 0.901967 0
M  V30 1104 C 107.475 -4.31119 1.54598 0
M  V30 1105 N 108.966 -4.37858 1.5111 0
M  V30 1106 C 109.701 -5.3818 1.97863 0
M  V30 1107 N 109.197 -6.45083 2.52666 0
M  V30 1108 N 110.99 -5.29487 1.88679 0
M  V30 1109 H 103.141 -1.42823 1.57211 0
M  V30 1110 H 105.404 -0.68235 0.658105 0
M  V30 1111 H 105.11 -2.90605 1.98095 0
M  V30 1112 H 104.984 -3.74563 0.445238 0
M  V30 1113 H 107.371 -2.9475 -0.143617 0
M  V30 1114 H 107.452 -2.12652 1.42171 0
M  V30 1115 H 107.096 -4.36849 2.59085 0
M  V30 1116 H 107.026 -5.16992 1.00132 0
M  V30 1117 H 109.517 -3.61209 1.11068 0
M  V30 1118 H 109.83 -7.17869 2.86155 0
M  V30 1119 H 108.175 -6.45856 2.56701 0
M  V30 1120 H 111.366 -4.44877 1.4561 0
M  V30 1121 H 111.539 -6.07524 2.25429 0
M  V30 1122 N 104.945 -0.338344 -1.53925 0
M  V30 1123 C 106.191 0.260143 -2.01125 0
M  V30 1124 C 106.524 1.50617 -1.22589 0
M  V30 1125 O 105.799 1.91979 -0.312113 0
M  V30 1126 C 106.082 0.579499 -3.55407 0
M  V30 1127 C 105.935 -0.678264 -4.44657 0
M  V30 1128 C 107.254 1.39122 -4.17532 0
M  V30 1129 H 104.373 0.0930772 -0.731099 0
M  V30 1130 H 107.015 -0.457852 -1.84401 0
M  V30 1131 H 105.165 1.19118 -3.69788 0
M  V30 1132 H 106.837 -1.31631 -4.42121 0
M  V30 1133 H 105.08 -1.3042 -4.13731 0
M  V30 1134 H 105.751 -0.410143 -5.50474 0
M  V30 1135 H 108.227 0.874035 -4.06817 0
M  V30 1136 H 107.103 1.58342 -5.25565 0
M  V30 1137 H 107.364 2.39178 -3.71815 0
M  V30 1138 N 106.423 1.57458 -0.0668435 0
M  V30 1139 C 107.7 1.8469 0.644132 0
M  V30 1140 C 108.08 0.958343 1.88093 0
M  V30 1141 O 107.428 0.0233579 2.28488 0
M  V30 1142 C 107.638 3.34767 0.986509 0
M  V30 1143 C 108.986 4.02159 1.36212 0
M  V30 1144 O 110.01 3.39484 1.07839 0
M  V30 1145 O 108.869 5.12694 1.89227 0
M  V30 1146 H 105.963 0.762816 0.319437 0
M  V30 1147 H 108.509 1.6942 -0.0973986 0
M  V30 1148 H 107.281 3.91151 0.107883 0
M  V30 1149 H 106.904 3.55281 1.78497 0
M  V30 1150 N 107.901 -0.206675 1.56239 0
M  V30 1151 C 109.312 -0.772383 1.69974 0
M  V30 1152 C 109.663 -1.84353 0.671436 0
M  V30 1153 O 108.788 -2.15695 -0.174491 0
M  V30 1154 C 109.383 -1.40779 3.08167 0
M  V30 1155 C 107.942 -1.92072 3.23706 0
M  V30 1156 C 107.089 -0.786347 2.65917 0
M  V30 1157 H 110.04 0.0182223 1.5869 0
M  V30 1158 H 110.061 -2.27696 3.04852 0
M  V30 1159 H 109.573 -0.627958 3.82986 0
M  V30 1160 H 107.674 -2.7281 2.53782 0
M  V30 1161 H 107.787 -2.09046 4.31087 0
M  V30 1162 H 106.151 -1.1976 2.24788 0
M  V30 1163 H 106.934 -0.0189416 3.43295 0
M  V30 1164 N 109.379 -1.50304 -0.473955 0
M  V30 1165 C 110.607 -1.64902 -1.24959 0
M  V30 1166 C 111.022 -0.331198 -1.85872 0
M  V30 1167 O 110.379 0.68652 -1.69095 0
M  V30 1168 C 110.43 -2.73803 -2.36038 0
M  V30 1169 O 110.151 -4.00477 -1.77624 0
M  V30 1170 C 111.652 -2.99349 -3.26964 0
M  V30 1171 H 108.872 -0.554383 -0.378022 0
M  V30 1172 H 111.416 -1.9651 -0.566054 0
M  V30 1173 H 109.571 -2.44898 -3.00173 0
M  V30 1174 H 109.985 -4.60678 -2.5075 0
M  V30 1175 H 111.459 -3.79217 -4.01121 0
M  V30 1176 H 111.936 -2.10307 -3.85574 0
M  V30 1177 H 112.542 -3.29774 -2.68569 0
M  V30 1178 N 110.857 0.726932 -1.39834 0
M  V30 1179 C 112.103 1.48884 -1.377 0
M  V30 1180 C 112.436 1.94185 0.0244852 0
M  V30 1181 O 111.711 1.67361 0.990986 0
M  V30 1182 C 111.994 2.72288 -2.3565 0
M  V30 1183 C 111.847 2.32956 -3.84775 0
M  V30 1184 C 113.166 3.74414 -2.31306 0
M  V30 1185 H 110.285 0.540062 -0.5015 0
M  V30 1186 H 112.927 0.830547 -1.70886 0
M  V30 1187 H 111.077 3.28457 -2.07481 0
M  V30 1188 H 112.749 1.82356 -4.23726 0
M  V30 1189 H 110.992 1.65088 -4.01159 0
M  V30 1190 H 111.663 3.21362 -4.4881 0
M  V30 1191 H 114.139 3.27849 -2.56231 0
M  V30 1192 H 113.015 4.58414 -3.01907 0
M  V30 1193 H 113.276 4.21909 -1.32081 0
M  V30 1194 N 112.336 1.25143 0.95797 0
M  V30 1195 C 113.561 1.12521 1.74223 0
M  V30 1196 C 113.986 -0.317402 1.85403 0
M  V30 1197 O 113.344 -1.2299 1.33204 0
M  V30 1198 C 113.392 1.78062 3.1357 0
M  V30 1199 O 112.496 1.058 3.98598 0
M  V30 1200 H 111.837 0.39304 0.535178 0
M  V30 1201 H 114.367 1.65641 1.201 0
M  V30 1202 H 114.377 1.84213 3.64046 0
M  V30 1203 H 113.052 2.83021 3.04749 0
M  V30 1204 H 111.629 1.07506 3.57067 0
M  V30 1205 N 113.814 -1.1601 1.06675 0
M  V30 1206 C 114.764 -2.18512 0.650888 0
M  V30 1207 C 115.748 -1.57677 -0.320441 0
M  V30 1208 O 116.94 -1.76482 -0.135266 0
M  V30 1209 C 114.069 -3.43273 0.0429255 0
M  V30 1210 C 113.155 -4.11176 1.03898 0
M  V30 1211 N 113.546 -4.54672 2.216 0
M  V30 1212 C 111.844 -4.37417 0.870779 0
M  V30 1213 C 112.545 -5.07248 2.84736 0
M  V30 1214 N 111.521 -5.0037 2.12441 0
M  V30 1215 H 115.323 -2.49863 1.54745 0
M  V30 1216 H 112.837 -1.32503 0.938975 0
M  V30 1217 H 114.834 -4.16006 -0.272857 0
M  V30 1218 H 113.494 -3.13408 -0.84884 0
M  V30 1219 H 114.505 -4.4828 2.59356 0
M  V30 1220 H 111.182 -4.17488 0.0313293 0
M  V30 1221 H 112.572 -5.50912 3.84636 0
M  V30 1222 N 115.292 -0.849877 -1.32721 0
M  V30 1223 C 116.532 -0.457146 -1.99222 0
M  V30 1224 C 116.896 0.968038 -1.6581 0
M  V30 1225 O 118.097 1.46507 -2.25364 0
M  V30 1226 C 116.368 -0.683966 -3.50794 0
M  V30 1227 S 117.927 -0.388095 -4.3708 0
M  V30 1228 H 114.745 -0.171464 -0.690015 0
M  V30 1229 H 117.347 -1.10155 -1.61512 0
M  V30 1230 H 116.051 -1.72038 -3.726 0
M  V30 1231 H 115.582 -0.0258086 -3.93392 0
M  V30 1232 H 117.597 0.787791 -4.89906 0
M  V30 1233 N 116.77 1.45427 -0.607355 0
M  V30 1234 C 117.998 2.06614 -0.108814 0
M  V30 1235 C 118.413 1.45204 1.2067 0
M  V30 1236 O 117.77 0.566132 1.73497 0
M  V30 1237 C 117.821 3.61481 0.0375347 0
M  V30 1238 O 117.542 4.20598 -1.22593 0
M  V30 1239 C 119.043 4.39652 0.567561 0
M  V30 1240 H 116.263 0.66747 -0.0687351 0
M  V30 1241 H 118.807 1.86675 -0.835022 0
M  V30 1242 H 116.962 3.80762 0.714068 0
M  V30 1243 H 117.376 5.1377 -1.05547 0
M  V30 1244 H 118.85 5.48518 0.61905 0
M  V30 1245 H 119.327 4.09417 1.58978 0
M  V30 1246 H 119.933 4.25234 -0.0749202 0
M  V30 1247 N 118.248 0.346503 1.53744 0
M  V30 1248 C 119.18 -0.543316 2.22667 0
M  V30 1249 C 120.193 -1.06159 1.23427 0
M  V30 1250 O 121.382 -0.971235 1.49764 0
M  V30 1251 C 118.482 -1.76076 2.89569 0
M  V30 1252 C 117.655 -1.37727 4.15151 0
M  V30 1253 C 116.714 -2.45471 4.65436 0
M  V30 1254 O 115.74 -2.08655 5.29577 0
M  V30 1255 N 116.942 -3.7677 4.41616 0
M  V30 1256 H 119.707 0.0469703 2.99663 0
M  V30 1257 H 117.268 0.170766 1.60997 0
M  V30 1258 H 119.26 -2.47593 3.20125 0
M  V30 1259 H 117.83 -2.25835 2.16142 0
M  V30 1260 H 117.05 -0.492746 3.91108 0
M  V30 1261 H 118.338 -1.09708 4.96832 0
M  V30 1262 H 117.736 -4.09467 3.90325 0
M  V30 1263 H 116.293 -4.44448 4.7677 0
M  V30 1264 N 119.726 -1.57421 0.075193 0
M  V30 1265 C 120.951 -1.98364 -0.605515 0
M  V30 1266 C 121.376 -0.953383 -1.62149 0
M  V30 1267 O 120.734 0.0806053 -1.81121 0
M  V30 1268 C 120.782 -3.38332 -1.24756 0
M  V30 1269 O 119.886 -3.37959 -2.36342 0
M  V30 1270 H 119.227 -0.645553 -0.155428 0
M  V30 1271 H 121.757 -2.04044 0.150714 0
M  V30 1272 H 121.767 -3.75591 -1.5936 0
M  V30 1273 H 120.442 -4.12846 -0.503129 0
M  V30 1274 H 119.019 -3.12474 -2.03506 0
M  V30 1275 N 121.204 0.198386 -1.56346 0
M  V30 1276 C 122.45 0.920648 -1.80698 0
M  V30 1277 C 122.783 1.83045 -0.648697 0
M  V30 1278 O 122.058 1.91308 0.350925 0
M  V30 1279 C 122.341 1.73971 -3.15287 0
M  V30 1280 C 122.194 0.85485 -4.41602 0
M  V30 1281 C 123.513 2.71296 -3.46535 0
M  V30 1282 H 120.632 0.333261 -0.657348 0
M  V30 1283 H 123.274 0.188198 -1.89066 0
M  V30 1284 H 121.424 2.36416 -3.08285 0
M  V30 1285 H 123.096 0.245362 -4.60647 0
M  V30 1286 H 121.339 0.161398 -4.335 0
M  V30 1287 H 122.01 1.46286 -5.32264 0
M  V30 1288 H 124.486 2.18983 -3.53816 0
M  V30 1289 H 123.362 3.2569 -4.41834 0
M  V30 1290 H 123.623 3.5018 -2.69864 0
M  V30 1291 N 122.682 1.50554 0.465978 0
M  V30 1292 C 123.612 1.72722 1.57128 0
M  V30 1293 C 124.593 0.576294 1.6004 0
M  V30 1294 O 125.778 0.81598 1.76225 0
M  V30 1295 C 122.908 1.82605 2.95419 0
M  V30 1296 C 121.862 2.97835 3.07373 0
M  V30 1297 C 121.188 2.92867 4.47363 0
M  V30 1298 C 122.488 4.38265 2.84114 0
M  V30 1299 H 124.182 2.65267 1.38829 0
M  V30 1300 H 121.728 1.2765 0.666441 0
M  V30 1301 H 123.681 1.96698 3.72677 0
M  V30 1302 H 122.405 0.866858 3.14886 0
M  V30 1303 H 121.064 2.83401 2.3255 0
M  V30 1304 H 120.712 1.94783 4.63755 0
M  V30 1305 H 120.412 3.70227 4.56296 0
M  V30 1306 H 121.936 3.09015 5.26633 0
M  V30 1307 H 123.35 4.53198 3.51118 0
M  V30 1308 H 121.747 5.17115 3.04487 0
M  V30 1309 H 122.817 4.50281 1.7993 0
M  V30 1310 N 124.16 -0.719506 1.40217 0
M  V30 1311 C 125.571 -1.29848 1.34151 0
M  V30 1312 C 125.922 -1.96196 0.0131349 0
M  V30 1313 O 125.047 -1.973 -0.88892 0
M  V30 1314 C 125.642 -2.36118 2.42968 0
M  V30 1315 C 124.201 -2.8965 2.40374 0
M  V30 1316 C 123.348 -1.63393 2.24049 0
M  V30 1317 H 126.299 -0.51591 1.5008 0
M  V30 1318 H 126.32 -3.16871 2.10649 0
M  V30 1319 H 125.832 -1.878 3.39636 0
M  V30 1320 H 123.933 -3.42208 1.47392 0
M  V30 1321 H 124.046 -3.4171 3.35814 0
M  V30 1322 H 122.41 -1.88312 1.71495 0
M  V30 1323 H 123.193 -1.17104 3.2271 0
M  V30 1324 N 125.638 -1.25649 -0.95132 0
M  V30 1325 C 126.887 -1.09988 -1.69073 0
M  V30 1326 C 127.2 0.358355 -1.92289 0
M  V30 1327 O 128.406 0.635466 -2.63958 0
M  V30 1328 C 126.862 -1.92012 -3.044 0
M  V30 1329 C 126.47 -3.42347 -2.88968 0
M  V30 1330 C 128.214 -1.8493 -3.82101 0
M  V30 1331 C 126.121 -4.16655 -4.19705 0
M  V30 1332 H 125.051 -0.407993 -0.63408 0
M  V30 1333 H 127.702 -1.49873 -1.05879 0
M  V30 1334 H 126.084 -1.44952 -3.68517 0
M  V30 1335 H 127.258 -3.97104 -2.33762 0
M  V30 1336 H 125.573 -3.50557 -2.24719 0
M  V30 1337 H 128.17 -2.37739 -4.78941 0
M  V30 1338 H 128.513 -0.817883 -4.08187 0
M  V30 1339 H 129.046 -2.29758 -3.2474 0
M  V30 1340 H 125.785 -5.20224 -3.98807 0
M  V30 1341 H 125.305 -3.66681 -4.74663 0
M  V30 1342 H 126.984 -4.24551 -4.88227 0
M  V30 1343 N 127.117 1.15442 -1.07289 0
M  V30 1344 C 128.364 1.86213 -0.795668 0
M  V30 1345 C 128.692 1.82291 0.678238 0
M  V30 1346 O 127.947 1.24057 1.51355 0
M  V30 1347 C 128.246 3.3489 -1.24834 0
M  V30 1348 C 127.912 3.59007 -2.72809 0
M  V30 1349 C 126.574 3.65298 -3.13227 0
M  V30 1350 C 128.926 3.68762 -3.68326 0
M  V30 1351 C 126.254 3.78854 -4.4798 0
M  V30 1352 C 128.606 3.83842 -5.0284 0
M  V30 1353 C 127.27 3.88378 -5.4288 0
M  V30 1354 H 126.54 0.681403 -0.291155 0
M  V30 1355 H 129.187 1.36435 -1.34379 0
M  V30 1356 H 127.492 3.8687 -0.619595 0
M  V30 1357 H 129.189 3.88052 -1.01076 0
M  V30 1358 H 125.779 3.5475 -2.40521 0
M  V30 1359 H 129.963 3.63202 -3.38227 0
M  V30 1360 H 125.219 3.80623 -4.78472 0
M  V30 1361 H 129.393 3.90332 -5.76727 0
M  V30 1362 H 127.02 3.98635 -6.47298 0
M  V30 1363 N 128.595 0.856903 1.32268 0
M  V30 1364 C 129.841 0.471355 1.97863 0
M  V30 1365 C 130.196 -0.962896 1.66572 0
M  V30 1366 O 129.489 -1.66686 0.944797 0
M  V30 1367 C 129.683 0.649919 3.51441 0
M  V30 1368 C 129.512 2.09997 3.97657 0
M  V30 1369 C 128.282 2.73893 4.2463 0
M  V30 1370 C 130.48 3.07081 4.1256 0
M  V30 1371 N 128.462 4.09786 4.57109 0
M  V30 1372 C 129.833 4.27968 4.48602 0
M  V30 1373 C 131.888 3.03247 3.949 0
M  V30 1374 C 130.591 5.45521 4.68827 0
M  V30 1375 C 132.617 4.20046 4.16311 0
M  V30 1376 C 131.979 5.39692 4.52672 0
M  V30 1377 H 128.078 0.221263 0.750044 0
M  V30 1378 H 130.662 1.10876 1.60045 0
M  V30 1379 H 128.833 0.0421938 3.88377 0
M  V30 1380 H 130.565 0.234044 4.04023 0
M  V30 1381 H 127.32 2.24918 4.16784 0
M  V30 1382 H 127.744 4.7989 4.7753 0
M  V30 1383 H 132.386 2.11863 3.65888 0
M  V30 1384 H 130.104 6.37434 4.96693 0
M  V30 1385 H 133.69 4.18517 4.04147 0
M  V30 1386 H 132.57 6.28566 4.68907 0
M  V30 1387 N 130.073 -1.45103 0.615059 0
M  V30 1388 C 130.983 -2.34382 -0.101034 0
M  V30 1389 C 131.999 -1.51681 -0.852585 0
M  V30 1390 O 133.175 -1.8446 -0.808484 0
M  V30 1391 C 130.24 -3.29417 -1.08099 0
M  V30 1392 C 129.301 -4.28025 -0.330577 0
M  V30 1393 C 128.534 -5.1852 -1.26385 0
M  V30 1394 O 128.757 -5.12598 -2.50198 0
M  V30 1395 O 127.691 -5.97122 -0.756866 0
M  V30 1396 H 131.517 -2.97033 0.632855 0
M  V30 1397 H 129.102 -1.4461 0.375293 0
M  V30 1398 H 130.984 -3.87958 -1.6452 0
M  V30 1399 H 129.659 -2.69321 -1.79577 0
M  V30 1400 H 128.566 -3.73078 0.276283 0
M  V30 1401 H 129.899 -4.90997 0.343866 0
M  V30 1402 N 131.551 -0.354651 -1.53558 0
M  V30 1403 C 132.962 0.126902 -1.86268 0
M  V30 1404 C 133.313 1.49075 -1.27558 0
M  V30 1405 O 132.438 2.08105 -0.5934 0
M  V30 1406 C 133.033 0.237046 -3.3797 0
M  V30 1407 C 131.592 0.662842 -3.70518 0
M  V30 1408 C 130.739 -0.196652 -2.76602 0
M  V30 1409 H 133.69 -0.573849 -1.47962 0
M  V30 1410 H 133.711 1.06259 -3.65362 0
M  V30 1411 H 133.223 -0.755725 -3.80671 0
M  V30 1412 H 131.324 1.66424 -3.33367 0
M  V30 1413 H 131.437 0.445034 -4.77029 0
M  V30 1414 H 129.801 0.332763 -2.52517 0
M  V30 1415 H 130.584 -1.18676 -3.22135 0
M  V30 1416 N 133.029 1.57378 -0.0835403 0
M  V30 1417 C 134.254 1.98682 0.594987 0
M  V30 1418 C 134.679 0.961969 1.61641 0
M  V30 1419 O 134.037 -0.0709989 1.81161 0
M  V30 1420 C 134.085 3.38988 1.2296 0
M  V30 1421 O 133.189 3.39208 2.34546 0
M  V30 1422 H 132.53 0.646368 0.152002 0
M  V30 1423 H 135.06 2.03961 -0.161533 0
M  V30 1424 H 135.07 3.76431 1.57366 0
M  V30 1425 H 133.745 4.13107 0.481228 0
M  V30 1426 H 132.322 3.13548 2.01846 0
M  V30 1427 N 134.507 -0.190092 1.56449 0
M  V30 1428 C 135.756 -0.907912 1.80111 0
M  V30 1429 C 136.069 -1.84214 0.657619 0
M  V30 1430 O 137.275 -2.60094 0.778663 0
M  V30 1431 C 135.731 -1.66485 3.19078 0
M  V30 1432 C 135.339 -0.7752 4.41242 0
M  V30 1433 C 137.083 -2.37201 3.52045 0
M  V30 1434 C 134.99 -1.53129 5.71231 0
M  V30 1435 H 133.92 -0.34276 0.671589 0
M  V30 1436 H 136.571 -0.161109 1.82791 0
M  V30 1437 H 134.953 -2.45572 3.10661 0
M  V30 1438 H 136.127 -0.0226298 4.60794 0
M  V30 1439 H 134.442 -0.178627 4.16017 0
M  V30 1440 H 137.039 -2.94329 4.46402 0
M  V30 1441 H 137.382 -3.11632 2.76028 0
M  V30 1442 H 137.915 -1.65075 3.61932 0
M  V30 1443 H 134.654 -0.82967 6.50228 0
M  V30 1444 H 134.174 -2.25767 5.55688 0
M  V30 1445 H 135.853 -2.08377 6.12526 0
M  V30 1446 N 135.985 -1.50799 -0.457987 0
M  V30 1447 C 137.215 -1.65977 -1.23025 0
M  V30 1448 C 137.623 -0.347918 -1.85974 0
M  V30 1449 O 136.966 0.68148 -1.70592 0
M  V30 1450 C 137.028 -2.70309 -2.3701 0
M  V30 1451 C 136.692 -4.135 -1.94594 0
M  V30 1452 C 137.689 -4.98949 -1.46101 0
M  V30 1453 C 135.374 -4.5949 -2.02915 0
M  V30 1454 C 137.368 -6.28442 -1.06489 0
M  V30 1455 C 135.055 -5.88984 -1.62914 0
M  V30 1456 C 136.053 -6.73286 -1.1478 0
M  V30 1457 O 135.741 -8.00362 -0.75339 0
M  V30 1458 H 135.473 -0.56064 -0.377702 0
M  V30 1459 H 138.027 -1.97857 -0.551537 0
M  V30 1460 H 136.257 -2.337 -3.08093 0
M  V30 1461 H 137.946 -2.74574 -2.98938 0
M  V30 1462 H 138.712 -4.6463 -1.39084 0
M  V30 1463 H 134.591 -3.94009 -2.39328 0
M  V30 1464 H 138.135 -6.94194 -0.688488 0
M  V30 1465 H 134.032 -6.22822 -1.69595 0
M  V30 1466 H 134.8 -8.13744 -0.88108 0
M  V30 1467 N 137.463 0.71206 -1.40597 0
M  V30 1468 C 138.395 1.83704 -1.37061 0
M  V30 1469 C 139.408 1.60453 -0.275426 0
M  V30 1470 O 140.597 1.70262 -0.53602 0
M  V30 1471 C 137.697 3.20172 -1.11099 0
M  V30 1472 C 136.87 3.7059 -2.3234 0
M  V30 1473 C 135.929 4.85681 -2.02485 0
M  V30 1474 O 134.955 4.9815 -2.75382 0
M  V30 1475 N 136.157 5.71735 -1.00497 0
M  V30 1476 H 138.922 1.87235 -2.34016 0
M  V30 1477 H 136.483 0.893739 -1.34996 0
M  V30 1478 H 138.475 3.94768 -0.891064 0
M  V30 1479 H 137.045 3.11767 -0.227989 0
M  V30 1480 H 136.265 2.87085 -2.7014 0
M  V30 1481 H 137.553 4.01011 -3.13157 0
M  V30 1482 H 136.951 5.64275 -0.401298 0
M  V30 1483 H 135.508 6.463 -0.844942 0
M  V30 1484 N 138.941 1.26152 0.944643 0
M  V30 1485 C 140.169 1.14259 1.72489 0
M  V30 1486 C 140.584 -0.302555 1.8636 0
M  V30 1487 O 139.941 -1.20741 1.36849 0
M  V30 1488 C 139.992 1.80266 3.13347 0
M  V30 1489 O 139.713 3.19133 3.00143 0
M  V30 1490 C 141.214 1.74283 4.07603 0
M  V30 1491 H 138.434 0.398051 0.540181 0
M  V30 1492 H 140.978 1.66706 1.18446 0
M  V30 1493 H 139.133 1.31766 3.64303 0
M  V30 1494 H 139.547 3.51744 3.89071 0
M  V30 1495 H 141.021 2.25111 5.04013 0
M  V30 1496 H 141.498 0.708631 4.33446 0
M  V30 1497 H 142.104 2.22319 3.62567 0
M  V30 1498 N 140.419 -1.14872 1.07899 0
M  V30 1499 C 141.835 -1.37776 0.805606 0
M  V30 1500 C 142.035 -1.92743 -0.587555 0
M  V30 1501 O 141.091 -2.13678 -1.34528 0
M  V30 1502 C 142.404 -2.34361 1.88402 0
M  V30 1503 C 143.952 -2.48012 1.90942 0
M  V30 1504 C 144.427 -3.47893 2.97883 0
M  V30 1505 N 145.918 -3.55433 2.97021 0
M  V30 1506 C 146.653 -4.32553 3.76412 0
M  V30 1507 N 146.149 -5.12959 4.65666 0
M  V30 1508 N 147.942 -4.27697 3.64735 0
M  V30 1509 H 140.093 -0.775365 1.97742 0
M  V30 1510 H 142.356 -0.403521 0.857831 0
M  V30 1511 H 142.062 -2.01098 2.88535 0
M  V30 1512 H 141.936 -3.34206 1.74889 0
M  V30 1513 H 144.323 -2.8057 0.914579 0
M  V30 1514 H 144.404 -1.48147 2.08534 0
M  V30 1515 H 144.048 -3.16069 3.97571 0
M  V30 1516 H 143.978 -4.47527 2.77538 0
M  V30 1517 H 146.469 -2.98048 2.32326 0
M  V30 1518 H 146.782 -5.69065 5.22862 0
M  V30 1519 H 145.127 -5.12245 4.69712 0
M  V30 1520 H 148.318 -3.63949 2.94378 0
M  V30 1521 H 148.491 -4.8755 4.26848 0
M  V30 1522 N 141.898 -0.863906 -1.31812 0
M  V30 1523 C 142.845 -0.313303 -2.28664 0
M  V30 1524 C 143.815 0.584868 -1.55462 0
M  V30 1525 O 145 0.517805 -1.83639 0
M  V30 1526 C 142.14 0.48441 -3.41683 0
M  V30 1527 C 141.253 -0.440594 -4.29747 0
M  V30 1528 C 140.388 0.370652 -5.29905 0
M  V30 1529 C 139.427 -0.551164 -6.09613 0
M  V30 1530 N 138.564 0.223462 -7.01744 0
M  V30 1531 H 143.404 -1.14444 -2.75148 0
M  V30 1532 H 140.941 -0.575769 -1.35364 0
M  V30 1533 H 142.899 0.962627 -4.05943 0
M  V30 1534 H 141.529 1.28029 -2.96325 0
M  V30 1535 H 140.581 -1.03724 -3.65986 0
M  V30 1536 H 141.893 -1.14767 -4.85417 0
M  V30 1537 H 141.047 0.911638 -5.99812 0
M  V30 1538 H 139.786 1.11105 -4.74876 0
M  V30 1539 H 138.791 -1.10396 -5.38603 0
M  V30 1540 H 140.016 -1.29032 -6.66729 0
M  V30 1541 H 137.962 0.946787 -6.49132 0
M  V30 1542 H 137.879 -0.424399 -7.54808 0
M  V30 1543 H 139.147 0.745876 -7.75923 0
M  V30 1544 N 143.376 1.44774 -0.622745 0
M  V30 1545 C 144.308 2.28856 0.125485 0
M  V30 1546 C 145.321 1.40811 0.817069 0
M  V30 1547 O 146.51 1.65044 0.679918 0
M  V30 1548 C 143.61 3.16963 1.19949 0
M  V30 1549 C 142.783 4.33374 0.592064 0
M  V30 1550 C 141.842 5.02577 1.55893 0
M  V30 1551 O 140.868 5.58873 1.07933 0
M  V30 1552 N 142.07 5.03256 2.89334 0
M  V30 1553 H 144.835 2.93713 -0.596068 0
M  V30 1554 H 142.396 1.55129 -0.463303 0
M  V30 1555 H 144.388 3.60123 1.84644 0
M  V30 1556 H 142.958 2.53913 1.82337 0
M  V30 1557 H 142.178 3.93509 -0.233322 0
M  V30 1558 H 143.466 5.08527 0.166738 0
M  V30 1559 H 142.864 4.58836 3.30887 0
M  V30 1560 H 141.421 5.50232 3.49412 0
M  V30 1561 N 144.854 0.36279 1.53368 0
M  V30 1562 C 145.804 -0.501391 2.22419 0
M  V30 1563 C 146.788 -1.0509 1.2184 0
M  V30 1564 O 147.98 -0.981404 1.47301 0
M  V30 1565 C 145.109 -1.64201 3.01484 0
M  V30 1566 C 144.195 -1.10552 4.09438 0
M  V30 1567 N 144.586 -0.291788 5.04958 0
M  V30 1568 C 142.884 -1.3806 4.24094 0
M  V30 1569 C 143.585 0.00162655 5.817 0
M  V30 1570 N 142.561 -0.595244 5.40331 0
M  V30 1571 H 146.363 0.127159 2.93625 0
M  V30 1572 H 143.877 0.170658 1.61501 0
M  V30 1573 H 145.874 -2.27326 3.49469 0
M  V30 1574 H 144.534 -2.27365 2.31809 0
M  V30 1575 H 145.545 0.0687731 5.17854 0
M  V30 1576 H 142.222 -2.01522 3.65644 0
M  V30 1577 H 143.612 0.659278 6.68658 0
M  V30 1578 N 146.332 -1.57332 0.0918853 0
M  V30 1579 C 147.242 -2.17368 -0.882505 0
M  V30 1580 C 148.258 -1.14226 -1.31257 0
M  V30 1581 O 149.434 -1.46582 -1.38115 0
M  V30 1582 C 146.499 -2.73962 -2.12476 0
M  V30 1583 C 145.56 -3.92048 -1.7492 0
M  V30 1584 C 144.793 -4.45933 -2.93223 0
M  V30 1585 O 145.016 -3.98764 -4.07852 0
M  V30 1586 O 143.95 -5.36999 -2.71875 0
M  V30 1587 H 147.776 -3.01031 -0.40172 0
M  V30 1588 H 145.361 -1.48813 -0.132291 0
M  V30 1589 H 147.243 -3.10147 -2.85283 0
M  V30 1590 H 145.918 -1.93347 -2.59613 0
M  V30 1591 H 144.825 -3.6068 -0.993025 0
M  V30 1592 H 146.158 -4.74017 -1.32548 0
M  V30 1593 N 147.81 0.181792 -1.56548 0
M  V30 1594 C 149.057 0.900097 -1.81396 0
M  V30 1595 C 149.385 1.82695 -0.667281 0
M  V30 1596 O 148.64 1.92614 0.346146 0
M  V30 1597 C 148.939 1.73728 -3.12335 0
M  V30 1598 C 148.605 0.960255 -4.40556 0
M  V30 1599 C 147.267 0.745766 -4.75386 0
M  V30 1600 C 149.619 0.414477 -5.19549 0
M  V30 1601 C 146.947 -0.0257694 -5.86694 0
M  V30 1602 C 149.299 -0.343916 -6.31664 0
M  V30 1603 C 147.963 -0.569301 -6.65068 0
M  V30 1604 H 147.233 0.329369 -0.663775 0
M  V30 1605 H 149.88 0.165647 -1.90782 0
M  V30 1606 H 148.185 2.54081 -2.98245 0
M  V30 1607 H 149.882 2.29591 -3.28769 0
M  V30 1608 H 146.472 1.13746 -4.13231 0
M  V30 1609 H 150.656 0.567554 -4.93044 0
M  V30 1610 H 145.912 -0.210233 -6.11038 0
M  V30 1611 H 150.086 -0.774133 -6.92084 0
M  V30 1612 H 147.713 -1.16903 -7.51158 0
M  V30 1613 N 149.288 1.51039 0.449983 0
M  V30 1614 C 150.535 1.63081 1.20045 0
M  V30 1615 C 150.863 0.341024 1.91487 0
M  V30 1616 O 150.118 -0.674276 1.83717 0
M  V30 1617 C 150.417 2.77556 2.25161 0
M  V30 1618 C 150.083 4.17289 1.70823 0
M  V30 1619 C 148.745 4.55305 1.55725 0
M  V30 1620 C 151.097 5.04536 1.3074 0
M  V30 1621 C 148.425 5.78287 0.989999 0
M  V30 1622 C 150.777 6.28085 0.754482 0
M  V30 1623 C 149.441 6.64885 0.590308 0
M  V30 1624 H 148.711 0.596755 0.439277 0
M  V30 1625 H 151.358 1.85037 0.49333 0
M  V30 1626 H 149.663 2.49771 3.01863 0
M  V30 1627 H 151.36 2.84073 2.83026 0
M  V30 1628 H 147.95 3.8731 1.83546 0
M  V30 1629 H 152.134 4.75782 1.41229 0
M  V30 1630 H 147.39 6.05456 0.850451 0
M  V30 1631 H 151.564 6.95038 0.435324 0
M  V30 1632 H 149.191 7.60055 0.14862 0
M  V30 1633 N 150.766 -0.704594 1.40972 0
M  V30 1634 C 151.676 -1.84856 1.44448 0
M  V30 1635 C 152.692 -1.70726 0.335961 0
M  V30 1636 O 153.868 -1.92799 0.582276 0
M  V30 1637 C 150.933 -3.20758 1.31587 0
M  V30 1638 C 149.994 -3.47063 2.52677 0
M  V30 1639 C 149.227 -4.76481 2.4042 0
M  V30 1640 O 149.45 -5.52341 1.42391 0
M  V30 1641 O 148.384 -5.03367 3.30007 0
M  V30 1642 H 152.21 -1.8488 2.40942 0
M  V30 1643 H 149.795 -0.85647 1.22413 0
M  V30 1644 H 151.677 -4.01913 1.26665 0
M  V30 1645 H 150.352 -3.21438 0.382049 0
M  V30 1646 H 149.259 -2.65873 2.63177 0
M  V30 1647 H 150.592 -3.5119 3.44858 0
M  V30 1648 N 152.244 -1.26651 -0.937939 0
M  V30 1649 C 153.154 -1.10276 -2.07066 0
M  V30 1650 C 154.17 -0.0354197 -1.73964 0
M  V30 1651 O 155.346 -0.239816 -1.99967 0
M  V30 1652 C 152.411 -0.740887 -3.38691 0
M  V30 1653 C 151.472 -1.88799 -3.85556 0
M  V30 1654 C 150.705 -1.54329 -5.10899 0
M  V30 1655 O 150.928 -0.446494 -5.6865 0
M  V30 1656 O 149.862 -2.37911 -5.52885 0
M  V30 1657 H 153.688 -2.05309 -2.23789 0
M  V30 1658 H 151.273 -1.05743 -1.0554 0
M  V30 1659 H 153.155 -0.55195 -4.1777 0
M  V30 1660 H 151.83 0.180022 -3.23199 0
M  V30 1661 H 150.737 -2.13191 -3.07409 0
M  V30 1662 H 152.07 -2.78874 -4.05574 0
M  V30 1663 N 153.722 1.14298 -1.08507 0
M  V30 1664 C 154.685 2.17607 -0.719711 0
M  V30 1665 C 155.685 1.58907 0.245997 0
M  V30 1666 O 156.875 1.74181 0.0254081 0
M  V30 1667 C 154.007 3.40842 -0.0627695 0
M  V30 1668 H 155.2 2.51443 -1.63452 0
M  V30 1669 H 152.753 1.28963 -0.88307 0
M  V30 1670 H 153.488 3.12587 0.863716 0
M  V30 1671 H 153.273 3.84713 -0.757504 0
M  V30 1672 H 154.763 4.17221 0.177786 0
M  V30 1673 N 155.201 0.870884 1.31352 0
M  V30 1674 C 156.426 0.495957 2.01383 0
M  V30 1675 C 156.851 -0.904324 1.64935 0
M  V30 1676 O 156.209 -1.59687 0.858466 0
M  V30 1677 C 156.257 0.661433 3.54482 0
M  V30 1678 O 155.361 -0.298851 4.11316 0
M  V30 1679 H 154.702 0.197158 0.634054 0
M  V30 1680 H 157.232 1.17455 1.67527 0
M  V30 1681 H 157.242 0.555072 4.04207 0
M  V30 1682 H 155.917 1.68246 3.8035 0
M  V30 1683 H 154.494 -0.147368 3.72609 0
M  V30 1684 N 156.679 -1.44442 0.630414 0
M  V30 1685 C 157.642 -2.29107 -0.0652523 0
M  V30 1686 C 158.642 -1.41002 -0.772995 0
M  V30 1687 O 159.832 -1.62881 -0.617692 0
M  V30 1688 C 156.964 -3.22564 -1.10296 0
M  V30 1689 H 158.157 -2.92103 0.679401 0
M  V30 1690 H 155.71 -1.51343 0.390517 0
M  V30 1691 H 156.445 -2.64416 -1.87762 0
M  V30 1692 H 156.23 -3.87491 -0.59941 0
M  V30 1693 H 157.72 -3.86167 -1.5895 0
M  V30 1694 N 158.157 -0.370918 -1.53173 0
M  V30 1695 C 159.12 0.460778 -2.24521 0
M  V30 1696 C 160.12 1.00536 -1.25496 0
M  V30 1697 O 161.31 0.890266 -1.49733 0
M  V30 1698 C 158.442 1.64457 -2.98608 0
M  V30 1699 H 159.635 -0.163613 -2.99453 0
M  V30 1700 H 157.188 -0.122699 -1.55818 0
M  V30 1701 H 157.923 2.30691 -2.2793 0
M  V30 1702 H 157.708 1.26099 -3.7127 0
M  V30 1703 H 159.198 2.23384 -3.5283 0
M  V30 1704 N 159.635 1.57281 -0.100228 0
M  V30 1705 C 160.883 1.94153 0.561157 0
M  V30 1706 C 161.204 0.983157 1.68401 0
M  V30 1707 O 160.474 0.0361132 1.95867 0
M  V30 1708 H 159.054 0.716791 0.210283 0
M  V30 1709 H 161.716 1.94202 -0.164765 0
M  V30 1710 H 160.812 2.96709 0.968008 0
M  V30 1711 N 161.113 -0.173488 1.56642 0
M  V30 1712 C 162.043 -1.2171 1.99271 0
M  V30 1713 C 163.024 -1.46289 0.867959 0
M  V30 1714 O 164.209 -1.5766 1.13388 0
M  V30 1715 C 161.339 -2.55651 2.35074 0
M  V30 1716 C 160.293 -2.45645 3.50489 0
M  V30 1717 C 159.619 -3.84056 3.72028 0
M  V30 1718 C 160.919 -1.96302 4.84007 0
M  V30 1719 H 162.613 -0.86275 2.867 0
M  V30 1720 H 160.159 -0.413571 1.37933 0
M  V30 1721 H 162.112 -3.2886 2.63494 0
M  V30 1722 H 160.836 -2.92869 1.44552 0
M  V30 1723 H 159.495 -1.7489 3.22194 0
M  V30 1724 H 159.143 -4.18664 2.788 0
M  V30 1725 H 158.843 -3.7823 4.49684 0
M  V30 1726 H 160.367 -4.58854 4.02846 0
M  V30 1727 H 161.781 -2.59284 5.11317 0
M  V30 1728 H 160.178 -2.01429 5.65284 0
M  V30 1729 H 161.248 -0.917226 4.76146 0
M  V30 1730 N 162.591 -1.51276 -0.441967 0
M  V30 1731 C 163.837 -1.63958 -1.19355 0
M  V30 1732 C 164.17 -0.352543 -1.90973 0
M  V30 1733 O 163.445 0.647627 -1.83401 0
M  V30 1734 C 163.728 -2.83979 -2.21422 0
M  V30 1735 C 163.581 -4.22646 -1.53918 0
M  V30 1736 C 164.9 -2.99521 -3.22451 0
M  V30 1737 H 162.019 -0.596709 -0.432559 0
M  V30 1738 H 164.661 -1.83748 -0.483398 0
M  V30 1739 H 162.811 -2.67237 -2.81987 0
M  V30 1740 H 164.483 -4.51045 -0.967256 0
M  V30 1741 H 162.726 -4.25558 -0.841615 0
M  V30 1742 H 163.397 -5.02609 -2.28229 0
M  V30 1743 H 165.873 -3.14944 -2.71937 0
M  V30 1744 H 164.749 -3.85072 -3.91166 0
M  V30 1745 H 165.01 -2.11391 -3.88287 0
M  V30 1746 N 164.069 0.697108 -1.41344 0
M  V30 1747 C 165.299 1.48377 -1.43763 0
M  V30 1748 C 165.707 1.89156 -0.0408726 0
M  V30 1749 O 165.05 1.57239 0.949812 0
M  V30 1750 C 165.112 2.7781 -2.2817 0
M  V30 1751 C 164.776 2.59244 -3.76353 0
M  V30 1752 C 165.773 2.25292 -4.68551 0
M  V30 1753 C 163.458 2.74933 -4.20378 0
M  V30 1754 C 165.452 2.07264 -6.02761 0
M  V30 1755 C 163.139 2.56521 -5.54653 0
M  V30 1756 C 164.137 2.22737 -6.4566 0
M  V30 1757 O 163.825 2.04485 -7.77458 0
M  V30 1758 H 163.557 0.463842 -0.491759 0
M  V30 1759 H 166.111 0.865934 -1.86255 0
M  V30 1760 H 164.341 3.41995 -1.8049 0
M  V30 1761 H 166.03 3.39608 -2.22309 0
M  V30 1762 H 166.796 2.12787 -4.35829 0
M  V30 1763 H 162.675 3.00213 -3.49848 0
M  V30 1764 H 166.219 1.80817 -6.73759 0
M  V30 1765 H 162.116 2.68616 -5.86955 0
M  V30 1766 H 162.884 2.1926 -7.88586 0
M  V30 1767 N 165.547 1.27147 0.931209 0
M  V30 1768 C 166.795 1.13055 1.6752 0
M  V30 1769 C 167.116 -0.324791 1.92276 0
M  V30 1770 O 166.386 -1.22775 1.52654 0
M  V30 1771 H 164.966 0.415391 0.620854 0
M  V30 1772 H 167.628 1.59623 1.11833 0
M  V30 1773 H 166.724 1.65694 2.64485 0
M  V30 1774 N 167.025 -1.13721 1.09112 0
M  V30 1775 C 167.955 -2.21148 0.749385 0
M  V30 1776 C 168.936 -1.6792 -0.271475 0
M  V30 1777 O 170.121 -1.93693 -0.140251 0
M  V30 1778 C 167.251 -3.46905 0.165659 0
M  V30 1779 C 166.205 -4.13203 1.11567 0
M  V30 1780 C 165.531 -5.33248 0.393809 0
M  V30 1781 C 166.831 -4.60912 2.45678 0
M  V30 1782 H 168.525 -2.4999 1.64758 0
M  V30 1783 H 166.071 -1.20156 0.793626 0
M  V30 1784 H 168.024 -4.21313 -0.085466 0
M  V30 1785 H 166.748 -3.17449 -0.767714 0
M  V30 1786 H 165.407 -3.40758 1.35202 0
M  V30 1787 H 165.055 -5.00054 -0.543599 0
M  V30 1788 H 164.755 -5.78552 1.02721 0
M  V30 1789 H 166.279 -6.10413 0.150908 0
M  V30 1790 H 167.693 -5.26759 2.26269 0
M  V30 1791 H 166.09 -5.16944 3.04776 0
M  V30 1792 H 167.16 -3.75603 3.06677 0
M  V30 1793 N 168.503 -0.877838 -1.30888 0
M  V30 1794 C 169.731 -0.507414 -2.00581 0
M  V30 1795 C 170.146 0.902216 -1.65848 0
M  V30 1796 O 169.503 1.59225 -0.891831 0
M  V30 1797 C 169.554 -0.664162 -3.55347 0
M  V30 1798 O 169.275 -2.01829 -3.8884 0
M  V30 1799 C 170.776 -0.295787 -4.42312 0
M  V30 1800 H 167.996 -0.196866 -0.641471 0
M  V30 1801 H 170.54 -1.18117 -1.66939 0
M  V30 1802 H 168.695 -0.0378619 -3.87381 0
M  V30 1803 H 169.109 -2.03174 -4.8355 0
M  V30 1804 H 170.583 -0.456388 -5.5011 0
M  V30 1805 H 171.06 0.765663 -4.32475 0
M  V30 1806 H 171.666 -0.898113 -4.15709 0
M  V30 1807 N 169.982 1.44106 -0.638065 0
M  V30 1808 C 170.915 2.27924 0.112161 0
M  V30 1809 C 171.893 1.38945 0.844574 0
M  V30 1810 O 173.077 1.68386 0.847248 0
M  V30 1811 C 170.204 3.18029 1.16512 0
M  V30 1812 C 169.25 4.23163 0.532458 0
M  V30 1813 S 170.083 5.31131 -0.682666 0
M  V30 1814 C 171.239 6.24805 0.37013 0
M  V30 1815 H 171.472 2.91205 -0.598887 0
M  V30 1816 H 169.005 1.48394 -0.426441 0
M  V30 1817 H 170.963 3.70492 1.76766 0
M  V30 1818 H 169.624 2.53955 1.8484 0
M  V30 1819 H 168.817 4.86252 1.32571 0
M  V30 1820 H 168.419 3.74 0.00437644 0
M  V30 1821 H 170.711 6.66042 1.24071 0
M  V30 1822 H 171.654 7.07741 -0.225349 0
M  V30 1823 H 172.062 5.60154 0.699141 0
M  V30 1824 N 171.46 0.379036 1.52974 0
M  V30 1825 C 172.871 -0.0972525 1.86447 0
M  V30 1826 C 173.222 -1.47027 1.29914 0
M  V30 1827 O 172.347 -2.07135 0.626433 0
M  V30 1828 C 172.942 -0.183248 3.38304 0
M  V30 1829 C 171.501 -0.603812 3.71525 0
M  V30 1830 C 170.648 0.240632 2.76254 0
M  V30 1831 H 173.599 0.597316 1.4703 0
M  V30 1832 H 173.62 -1.00432 3.67006 0
M  V30 1833 H 173.132 0.816191 3.79421 0
M  V30 1834 H 171.233 -1.61099 3.35973 0
M  V30 1835 H 171.346 -0.369086 4.77676 0
M  V30 1836 H 169.71 -0.292548 2.53014 0
M  V30 1837 H 170.493 1.23786 3.20206 0
M  V30 1838 N 172.938 -1.57226 0.108567 0
M  V30 1839 C 173.868 -2.17778 -0.84232 0
M  V30 1840 C 174.849 -1.11487 -1.2847 0
M  V30 1841 O 176.034 -1.39681 -1.34918 0
M  V30 1842 C 173.164 -2.76888 -2.09644 0
M  V30 1843 C 172.118 -3.88669 -1.79221 0
M  V30 1844 C 171.444 -4.34541 -3.11574 0
M  V30 1845 C 172.744 -5.11251 -1.06864 0
M  V30 1846 H 174.438 -2.97489 -0.337774 0
M  V30 1847 H 171.984 -1.43097 -0.161025 0
M  V30 1848 H 173.937 -3.17904 -2.76614 0
M  V30 1849 H 172.661 -1.94451 -2.62405 0
M  V30 1850 H 171.32 -3.48213 -1.14644 0
M  V30 1851 H 170.968 -3.48977 -3.62249 0
M  V30 1852 H 170.668 -5.09914 -2.91996 0
M  V30 1853 H 172.192 -4.782 -3.7968 0
M  V30 1854 H 173.606 -5.49352 -1.63968 0
M  V30 1855 H 172.003 -5.9214 -0.974178 0
M  V30 1856 H 173.073 -4.8487 -0.0536168 0
M  V30 1857 N 174.416 0.165178 -1.56732 0
M  V30 1858 C 175.366 1.20917 -1.93295 0
M  V30 1859 C 176.35 1.39488 -0.801985 0
M  V30 1860 O 177.542 1.41356 -1.06525 0
M  V30 1861 C 174.671 2.54718 -2.3016 0
M  V30 1862 C 173.757 2.39815 -3.49785 0
M  V30 1863 N 174.148 1.94637 -4.66851 0
M  V30 1864 C 172.446 2.70623 -3.54513 0
M  V30 1865 C 173.147 1.92344 -5.4898 0
M  V30 1866 N 172.123 2.34978 -4.9019 0
M  V30 1867 H 175.925 0.851675 -2.81289 0
M  V30 1868 H 173.439 0.373399 -1.58049 0
M  V30 1869 H 175.436 3.30165 -2.54552 0
M  V30 1870 H 174.096 2.91265 -1.43508 0
M  V30 1871 H 175.107 1.6488 -4.90953 0
M  V30 1872 H 171.784 3.11167 -2.78354 0
M  V30 1873 H 173.174 1.5906 -6.52801 0
M  V30 1874 N 175.894 1.51508 0.433938 0
M  V30 1875 C 177.142 1.6402 1.18075 0
M  V30 1876 C 177.463 0.360328 1.91642 0
M  V30 1877 O 176.733 -0.623945 1.85698 0
M  V30 1878 H 175.313 0.6045 0.43885 0
M  V30 1879 H 177.975 1.88452 0.497178 0
M  V30 1880 H 177.071 2.46949 1.90847 0
M  V30 1881 N 177.372 -0.689602 1.41712 0
M  V30 1882 C 178.335 -1.78521 1.43746 0
M  V30 1883 C 179.335 -1.57436 0.327191 0
M  V30 1884 O 180.525 -1.64 0.587348 0
M  V30 1885 C 177.657 -3.16971 1.25467 0
M  V30 1886 H 178.85 -1.78108 2.41283 0
M  V30 1887 H 176.403 -0.89781 1.27942 0
M  V30 1888 H 177.138 -3.23019 0.287948 0
M  V30 1889 H 176.923 -3.33678 2.05917 0
M  V30 1890 H 178.413 -3.96935 1.2974 0
M  V30 1891 N 178.85 -1.27639 -0.924453 0
M  V30 1892 C 180.266 -1.05113 -1.20097 0
M  V30 1893 C 180.466 0.213262 -2.00368 0
M  V30 1894 O 179.522 0.91787 -2.35226 0
M  V30 1895 C 180.835 -2.29244 -1.94596 0
M  V30 1896 C 182.383 -2.34315 -2.07522 0
M  V30 1897 C 182.858 -3.58183 -2.85427 0
M  V30 1898 N 184.349 -3.5876 -2.92994 0
M  V30 1899 C 185.084 -4.51277 -3.53746 0
M  V30 1900 N 184.58 -5.54102 -4.15863 0
M  V30 1901 N 186.373 -4.38894 -3.51181 0
M  V30 1902 H 178.524 -2.08821 -0.388264 0
M  V30 1903 H 180.787 -0.918568 -0.234385 0
M  V30 1904 H 180.493 -3.21301 -1.43034 0
M  V30 1905 H 180.367 -2.34816 -2.95197 0
M  V30 1906 H 182.754 -1.42762 -2.58269 0
M  V30 1907 H 182.835 -2.32744 -1.06131 0
M  V30 1908 H 182.479 -4.50074 -2.35363 0
M  V30 1909 H 182.409 -3.57006 -3.8711 0
M  V30 1910 H 184.9 -2.84398 -2.4885 0
M  V30 1911 H 185.213 -6.20859 -4.60168 0
M  V30 1912 H 183.558 -5.57941 -4.144 0
M  V30 1913 H 186.749 -3.57772 -3.01856 0
M  V30 1914 H 186.922 -5.11186 -3.98237 0
M  V30 1915 N 180.328 1.1314 -1.09713 0
M  V30 1916 C 181.576 1.84119 -0.833338 0
M  V30 1917 C 181.897 1.84097 0.642904 0
M  V30 1918 O 181.167 1.29881 1.46655 0
M  V30 1919 H 179.747 0.681766 -0.305293 0
M  V30 1920 H 182.409 1.37038 -1.38588 0
M  V30 1921 H 181.505 2.88543 -1.18951 0
M  V30 1922 N 181.806 0.884767 1.30421 0
M  V30 1923 C 182.716 0.355398 2.31892 0
M  V30 1924 C 183.732 -0.542261 1.65335 0
M  V30 1925 O 184.908 -0.435432 1.96637 0
M  V30 1926 C 181.973 -0.421661 3.44126 0
M  V30 1927 C 181.034 0.505727 4.26311 0
M  V30 1928 C 180.267 -0.234343 5.33185 0
M  V30 1929 O 180.49 -1.46045 5.51386 0
M  V30 1930 O 179.424 0.415443 6.00465 0
M  V30 1931 H 183.25 1.19685 2.79122 0
M  V30 1932 H 180.835 0.648596 1.34587 0
M  V30 1933 H 182.717 -0.861641 4.12497 0
M  V30 1934 H 181.392 -1.23942 2.99032 0
M  V30 1935 H 180.299 0.994513 3.60639 0
M  V30 1936 H 181.632 1.28948 4.75009 0
M  V30 1937 N 183.284 -1.43765 0.645699 0
M  V30 1938 C 184.214 -2.33471 -0.0370477 0
M  V30 1939 C 185.195 -1.49042 -0.819779 0
M  V30 1940 O 186.38 -1.77726 -0.782758 0
M  V30 1941 C 183.51 -3.32311 -1.0093 0
M  V30 1942 C 182.464 -4.2667 -0.337201 0
M  V30 1943 C 181.79 -5.1549 -1.42037 0
M  V30 1944 C 183.09 -5.16657 0.765706 0
M  V30 1945 H 184.784 -2.90809 0.712069 0
M  V30 1946 H 182.33 -1.39834 0.343876 0
M  V30 1947 H 184.283 -3.9396 -1.49578 0
M  V30 1948 H 183.007 -2.73213 -1.78948 0
M  V30 1949 H 181.666 -3.66374 0.128771 0
M  V30 1950 H 181.314 -4.52735 -2.1918 0
M  V30 1951 H 181.014 -5.79438 -0.975966 0
M  V30 1952 H 182.538 -5.80012 -1.90838 0
M  V30 1953 H 183.952 -5.72158 0.361702 0
M  V30 1954 H 182.349 -5.89286 1.13413 0
M  V30 1955 H 183.419 -4.56796 1.62683 0
M  V30 1956 N 184.763 -0.387143 -1.52771 0
M  V30 1957 C 186.011 0.195349 -2.01154 0
M  V30 1958 C 186.332 1.475 -1.27549 0
M  V30 1959 O 185.602 1.91878 -0.394924 0
M  V30 1960 H 184.182 0.075178 -0.743207 0
M  V30 1961 H 186.844 -0.518337 -1.87881 0
M  V30 1962 H 185.94 0.407096 -3.09434 0
M  V30 1963 N 186.241 1.57166 -0.116904 0
M  V30 1964 C 187.204 2.14039 0.819742 0
M  V30 1965 C 188.204 1.07477 1.19605 0
M  V30 1966 O 189.394 1.33263 1.1219 0
M  V30 1967 C 186.526 2.67891 2.10826 0
M  V30 1968 H 187.719 2.98128 0.325511 0
M  V30 1969 H 185.272 1.55739 0.132312 0
M  V30 1970 H 186.007 1.87384 2.64685 0
M  V30 1971 H 185.792 3.45823 1.84793 0
M  V30 1972 H 187.282 3.11809 2.77785 0
M  V30 1973 N 187.719 -0.156864 1.56817 0
M  V30 1974 C 188.649 -1.19589 2.00551 0
M  V30 1975 C 189.63 -1.4536 0.883426 0
M  V30 1976 O 190.815 -1.56449 1.15054 0
M  V30 1977 C 187.945 -2.53143 2.37773 0
M  V30 1978 C 186.899 -2.41913 3.53075 0
M  V30 1979 C 186.225 -3.80088 3.76081 0
M  V30 1980 C 187.525 -1.91157 4.86062 0
M  V30 1981 H 189.219 -0.832293 2.87599 0
M  V30 1982 H 186.765 -0.398918 1.38364 0
M  V30 1983 H 188.718 -3.26047 2.66967 0
M  V30 1984 H 187.442 -2.91319 1.4765 0
M  V30 1985 H 186.101 -1.71462 3.24031 0
M  V30 1986 H 185.749 -4.15683 2.83225 0
M  V30 1987 H 185.449 -3.73439 4.53671 0
M  V30 1988 H 186.973 -4.54556 4.0769 0
M  V30 1989 H 188.387 -2.53846 5.14038 0
M  V30 1990 H 186.784 -1.95422 5.67389 0
M  V30 1991 H 187.854 -0.866673 4.77092 0
M  V30 1992 N 189.197 -1.51736 -0.425897 0
M  V30 1993 C 190.422 -1.69082 -1.20108 0
M  V30 1994 C 190.847 -0.392398 -1.83962 0
M  V30 1995 O 190.205 0.64858 -1.69302 0
M  V30 1996 C 190.253 -2.81604 -2.25237 0
M  V30 1997 O 189.357 -2.46004 -3.30992 0
M  V30 1998 H 188.698 -0.563408 -0.35138 0
M  V30 1999 H 191.228 -1.98358 -0.501512 0
M  V30 2000 H 191.238 -3.06025 -2.69838 0
M  V30 2001 H 189.913 -3.75817 -1.78142 0
M  V30 2002 H 188.49 -2.32195 -2.91787 0
M  V30 2003 N 190.675 0.682077 -1.42076 0
M  V30 2004 C 191.605 1.80796 -1.47767 0
M  V30 2005 C 192.586 1.6677 -0.334954 0
M  V30 2006 O 193.771 1.863 -0.548264 0
M  V30 2007 C 190.901 3.19038 -1.37229 0
M  V30 2008 C 189.855 3.47789 -2.49453 0
M  V30 2009 C 189.181 4.8553 -2.23975 0
M  V30 2010 C 190.481 3.45411 -3.91776 0
M  V30 2011 H 192.175 1.7629 -2.41997 0
M  V30 2012 H 189.721 0.846721 -1.16476 0
M  V30 2013 H 191.674 3.97528 -1.39821 0
M  V30 2014 H 190.398 3.24204 -0.394907 0
M  V30 2015 H 189.057 2.71657 -2.46166 0
M  V30 2016 H 188.705 4.87337 -1.24547 0
M  V30 2017 H 188.405 5.0573 -2.99184 0
M  V30 2018 H 189.929 5.66312 -2.28304 0
M  V30 2019 H 191.343 4.13882 -3.96705 0
M  V30 2020 H 189.74 3.77145 -4.66778 0
M  V30 2021 H 190.81 2.44122 -4.18966 0
M  V30 2022 N 192.153 1.28127 0.917671 0
M  V30 2023 C 193.378 1.18007 1.70555 0
M  V30 2024 C 193.803 -0.258257 1.86319 0
M  V30 2025 O 193.161 -1.1869 1.37049 0
M  V30 2026 C 193.209 1.87948 3.07746 0
M  V30 2027 O 192.313 1.18427 3.9503 0
M  V30 2028 H 191.654 0.409867 0.522403 0
M  V30 2029 H 194.184 1.69379 1.1477 0
M  V30 2030 H 194.194 1.95701 3.58001 0
M  V30 2031 H 192.869 2.92573 2.95591 0
M  V30 2032 H 191.446 1.18811 3.53466 0
M  V30 2033 N 193.631 -1.12557 1.10312 0
M  V30 2034 C 194.877 -1.84311 0.846011 0
M  V30 2035 C 195.21 -1.83805 -0.626859 0
M  V30 2036 O 194.485 -1.28268 -1.46211 0
M  V30 2037 C 194.768 -3.32048 1.39341 0
M  V30 2038 C 194.621 -3.41016 2.93305 0
M  V30 2039 C 195.94 -4.27764 1.03468 0
M  V30 2040 H 193.059 -0.669192 0.30879 0
M  V30 2041 H 195.701 -1.32057 1.36605 0
M  V30 2042 H 193.851 -3.76678 0.951087 0
M  V30 2043 H 195.523 -3.05031 3.46055 0
M  V30 2044 H 193.766 -2.81603 3.29973 0
M  V30 2045 H 194.437 -4.44948 3.26689 0
M  V30 2046 H 196.913 -3.91253 1.41633 0
M  V30 2047 H 195.789 -5.29549 1.44463 0
M  V30 2048 H 196.05 -4.42064 -0.0560404 0
M  V30 2049 N 195.109 -0.891671 -1.2995 0
M  V30 2050 C 196.019 -0.367691 -2.31701 0
M  V30 2051 C 197.035 0.533486 -1.6562 0
M  V30 2052 O 198.211 0.424997 -1.96865 0
M  V30 2053 C 195.276 0.403406 -3.44345 0
M  V30 2054 C 194.337 -0.528328 -4.26037 0
M  V30 2055 C 193.57 0.206063 -5.33302 0
M  V30 2056 O 193.793 1.43119 -5.52153 0
M  V30 2057 O 192.727 -0.447281 -6.00236 0
M  V30 2058 H 196.553 -1.21163 -2.78484 0
M  V30 2059 H 194.138 -0.655725 -1.34241 0
M  V30 2060 H 196.02 0.839753 -4.12948 0
M  V30 2061 H 194.695 1.22354 -2.99685 0
M  V30 2062 H 193.602 -1.01362 -3.60106 0
M  V30 2063 H 194.935 -1.31465 -4.74318 0
M  V30 2064 N 196.587 1.43421 -0.653314 0
M  V30 2065 C 197.55 2.29182 0.0287951 0
M  V30 2066 C 198.55 1.42213 0.750465 0
M  V30 2067 O 199.74 1.63843 0.591701 0
M  V30 2068 C 196.872 3.24278 1.05151 0
M  V30 2069 H 198.065 2.90985 -0.725786 0
M  V30 2070 H 195.618 1.50702 -0.414545 0
M  V30 2071 H 196.353 2.6737 1.83532 0
M  V30 2072 H 196.138 3.88396 0.537687 0
M  V30 2073 H 197.628 3.88647 1.52786 0
M  V30 2074 N 198.065 0.39524 1.52563 0
M  V30 2075 C 198.975 -0.444232 2.30356 0
M  V30 2076 C 199.991 -1.06615 1.37511 0
M  V30 2077 O 201.167 -1.07067 1.70583 0
M  V30 2078 C 198.232 -1.55315 3.09964 0
M  V30 2079 C 197.293 -0.955734 4.18526 0
M  V30 2080 C 196.526 -2.01181 4.9433 0
M  V30 2081 O 196.749 -3.22781 4.70285 0
M  V30 2082 O 195.683 -1.62579 5.79527 0
M  V30 2083 H 199.509 0.189667 3.03107 0
M  V30 2084 H 197.094 0.1588 1.48554 0
M  V30 2085 H 198.976 -2.19724 3.59582 0
M  V30 2086 H 197.651 -2.17191 2.4002 0
M  V30 2087 H 196.558 -0.274743 3.7309 0
M  V30 2088 H 197.891 -0.381109 4.90722 0
M  V30 2089 N 199.544 -1.57102 0.125237 0
M  V30 2090 C 200.492 -2.16905 -0.839927 0
M  V30 2091 C 201.486 -1.11998 -1.27094 0
M  V30 2092 O 202.692 -1.3029 -1.24195 0
M  V30 2093 H 199.067 -0.694252 -0.288995 0
M  V30 2094 H 201.038 -2.96774 -0.311115 0
M  V30 2095 C 199.787 -2.78795 -2.07771 0
M  V30 2096 H 199.11 -3.59221 -1.755 0
M  V30 2097 H 200.55 -3.2417 -2.73295 0
M  V30 2098 C 199.009 -1.76193 -2.87155 0
M  V30 2099 O 199.539 -1.21909 -3.82755 0
M  V30 2100 N 197.745 -1.45991 -2.51267 0
M  V30 2101 H 197.292 -1.90325 -1.73592 0
M  V30 2102 H 197.25 -0.775844 -3.04677 0
M  V30 2103 N 201.022 0.148545 -1.56898 0
M  V30 2104 C 202.438 0.501131 -1.51528 0
M  V30 2105 C 202.638 1.83458 -0.833399 0
M  V30 2106 O 201.694 2.49259 -0.40328 0
M  V30 2107 C 203.007 0.512864 -2.96294 0
M  V30 2108 C 204.555 0.598487 -3.07225 0
M  V30 2109 C 205.03 0.640897 -4.53494 0
M  V30 2110 N 206.521 0.703163 -4.57832 0
M  V30 2111 C 207.256 0.756935 -5.68382 0
M  V30 2112 N 206.752 0.770147 -6.88506 0
M  V30 2113 N 208.545 0.797698 -5.56411 0
M  V30 2114 H 200.696 -0.725532 -1.99624 0
M  V30 2115 H 202.959 -0.264358 -0.910395 0
M  V30 2116 H 202.665 -0.398691 -3.49433 0
M  V30 2117 H 202.539 1.35133 -3.52163 0
M  V30 2118 H 204.926 1.50046 -2.54106 0
M  V30 2119 H 205.007 -0.267093 -2.54402 0
M  V30 2120 H 204.651 -0.256915 -5.0725 0
M  V30 2121 H 204.581 1.52295 -5.04097 0
M  V30 2122 H 207.072 0.700314 -3.71354 0
M  V30 2123 H 207.385 0.812983 -7.68512 0
M  V30 2124 H 205.73 0.738049 -6.9107 0
M  V30 2125 H 208.921 0.784535 -4.61479 0
M  V30 2126 H 209.094 0.83614 -6.42583 0
M  V30 2127 N 202.5 1.5196 0.417844 0
M  V30 2128 C 203.463 1.74065 1.49111 0
M  V30 2129 C 204.463 0.610537 1.48758 0
M  V30 2130 O 205.653 0.87832 1.50437 0
M  V30 2131 C 202.785 1.81502 2.88565 0
M  V30 2132 H 203.978 2.69869 1.30807 0
M  V30 2133 H 201.531 1.42244 0.647785 0
M  V30 2134 H 202.266 0.875813 3.1225 0
M  V30 2135 H 202.051 2.63651 2.90225 0
M  V30 2136 H 203.541 2.00376 3.66387 0
M  V30 2137 N 203.978 -0.674533 1.42435 0
M  V30 2138 C 204.888 -1.81751 1.48337 0
M  V30 2139 C 205.904 -1.69975 0.372099 0
M  V30 2140 O 207.08 -1.91521 0.62304 0
M  V30 2141 C 204.145 -3.17895 1.38361 0
M  V30 2142 C 203.206 -3.41625 2.59982 0
M  V30 2143 C 202.439 -4.71274 2.50473 0
M  V30 2144 O 202.662 -5.49197 1.54075 0
M  V30 2145 O 201.596 -4.96254 3.4061 0
M  V30 2146 H 205.422 -1.79728 2.44809 0
M  V30 2147 H 203.007 -0.830312 1.24202 0
M  V30 2148 H 204.889 -3.99136 1.35161 0
M  V30 2149 H 203.564 -3.20555 0.450144 0
M  V30 2150 H 202.471 -2.60231 2.68757 0
M  V30 2151 H 203.804 -3.43796 3.52229 0
M  V30 2152 N 205.456 -1.28612 -0.910864 0
M  V30 2153 C 206.419 -1.12803 -1.9952 0
M  V30 2154 C 207.419 -0.0668264 -1.60661 0
M  V30 2155 O 208.609 -0.312847 -1.71368 0
M  V30 2156 C 205.741 -0.72254 -3.33155 0
M  V30 2157 H 206.934 -2.09109 -2.14973 0
M  V30 2158 H 204.487 -1.11639 -1.09391 0
M  V30 2159 H 205.222 0.241152 -3.23402 0
M  V30 2160 H 205.007 -1.48916 -3.62721 0
M  V30 2161 H 206.497 -0.634666 -4.12749 0
M  V30 2162 N 206.934 1.1197 -1.10907 0
M  V30 2163 C 207.882 2.19927 -0.757303 0
M  V30 2164 C 208.876 1.67564 0.248747 0
M  V30 2165 O 210.082 1.79672 0.108605 0
M  V30 2166 H 206.457 0.716925 -0.226987 0
M  V30 2167 H 208.428 2.46847 -1.67658 0
M  V30 2168 C 207.177 3.47061 -0.210671 0
M  V30 2169 H 206.5 3.87703 -0.976049 0
M  V30 2170 H 207.94 4.24 -0.0026584 0
M  V30 2171 C 206.399 3.19864 1.05777 0
M  V30 2172 O 206.929 3.40049 2.13845 0
M  V30 2173 N 205.135 2.73636 0.978349 0
M  V30 2174 H 204.682 2.5741 0.0988246 0
M  V30 2175 H 204.64 2.55815 1.82773 0
M  V30 2176 N 208.412 0.89855 1.29475 0
M  V30 2177 C 209.828 0.594483 1.48115 0
M  V30 2178 C 210.028 -0.86431 1.82022 0
M  V30 2179 O 209.084 -1.64457 1.91599 0
M  V30 2180 C 210.397 1.51932 2.59494 0
M  V30 2181 C 211.945 1.5244 2.7337 0
M  V30 2182 C 212.42 2.43548 3.87877 0
M  V30 2183 N 213.911 2.41589 3.95208 0
M  V30 2184 C 214.646 3.08789 4.83153 0
M  V30 2185 N 214.142 3.85265 5.75798 0
M  V30 2186 N 215.935 2.97952 4.76635 0
M  V30 2187 H 208.086 1.84207 1.05742 0
M  V30 2188 H 210.349 0.789251 0.525154 0
M  V30 2189 H 210.055 2.55865 2.41301 0
M  V30 2190 H 209.929 1.23899 3.56271 0
M  V30 2191 H 212.316 0.492518 2.90961 0
M  V30 2192 H 212.397 1.8451 1.77172 0
M  V30 2193 H 212.041 3.46829 3.71041 0
M  V30 2194 H 211.971 2.08788 4.83441 0
M  V30 2195 H 214.462 1.86025 3.28943 0
M  V30 2196 H 214.775 4.33598 6.39697 0
M  V30 2197 H 213.12 3.89371 5.75687 0
M  V30 2198 H 216.311 2.37723 4.03244 0
M  V30 2199 H 216.484 3.50599 5.44962 0
M  V30 2200 N 209.89 -1.43072 0.660911 0
M  V30 2201 C 211.137 -2.01721 0.177445 0
M  V30 2202 C 211.465 -1.5218 -1.21126 0
M  V30 2203 O 210.72 -0.708659 -1.82419 0
M  V30 2204 C 211.019 -3.57103 0.145563 0
M  V30 2205 C 210.685 -4.26021 1.47705 0
M  V30 2206 C 209.347 -4.44563 1.84165 0
M  V30 2207 C 211.699 -4.64983 2.35458 0
M  V30 2208 C 209.027 -4.99334 3.0803 0
M  V30 2209 C 211.379 -5.21127 3.58622 0
M  V30 2210 C 210.043 -5.37884 3.95268 0
M  V30 2211 H 209.313 -0.73815 0.0649317 0
M  V30 2212 H 211.96 -1.71446 0.853144 0
M  V30 2213 H 210.265 -3.86965 -0.61361 0
M  V30 2214 H 211.962 -4.00248 -0.2455 0
M  V30 2215 H 208.552 -4.11939 1.18339 0
M  V30 2216 H 212.736 -4.50343 2.08579 0
M  V30 2217 H 207.992 -5.10493 3.36462 0
M  V30 2218 H 212.166 -5.50262 4.26831 0
M  V30 2219 H 209.793 -5.80089 4.91325 0
M  V30 2220 N 211.368 -0.403325 -1.52352 0
M  V30 2221 C 212.301 0.469463 -2.23319 0
M  V30 2222 C 213.279 1.05272 -1.23922 0
M  V30 2223 O 214.463 1.10169 -1.52954 0
M  V30 2224 C 211.59 1.6511 -2.9573 0
M  V30 2225 C 210.636 1.19178 -4.0951 0
M  V30 2226 S 211.469 0.161718 -5.35256 0
M  V30 2227 C 212.625 1.34882 -6.11194 0
M  V30 2228 H 212.858 -0.133134 -2.97002 0
M  V30 2229 H 210.391 -0.187588 -1.53256 0
M  V30 2230 H 212.349 2.3287 -3.38056 0
M  V30 2231 H 211.01 2.22503 -2.21701 0
M  V30 2232 H 210.203 2.07444 -4.59329 0
M  V30 2233 H 209.805 0.592911 -3.6927 0
M  V30 2234 H 212.097 2.27345 -6.38217 0
M  V30 2235 H 213.04 0.89128 -7.02468 0
M  V30 2236 H 213.448 1.57198 -5.42171 0
M  V30 2237 N 212.846 1.57033 -0.133567 0
M  V30 2238 C 213.756 2.19632 0.824564 0
M  V30 2239 C 214.772 1.17666 1.28182 0
M  V30 2240 O 215.948 1.50193 1.3418 0
M  V30 2241 C 213.013 2.79499 2.05137 0
M  V30 2242 C 212.074 3.96548 1.64464 0
M  V30 2243 C 211.307 4.5355 2.81297 0
M  V30 2244 O 211.53 4.09438 3.97136 0
M  V30 2245 O 210.464 5.44018 2.57542 0
M  V30 2246 H 214.29 3.01991 0.321766 0
M  V30 2247 H 211.875 1.49112 0.0927889 0
M  V30 2248 H 213.757 3.17602 2.7696 0
M  V30 2249 H 212.432 2.00162 2.54395 0
M  V30 2250 H 211.339 3.63186 0.897048 0
M  V30 2251 H 212.672 4.77364 1.19934 0
M  V30 2252 N 214.325 -0.140222 1.56975 0
M  V30 2253 C 215.55 -0.870414 1.88251 0
M  V30 2254 C 215.975 -1.73637 0.723312 0
M  V30 2255 O 215.333 -1.78329 -0.32689 0
M  V30 2256 C 215.381 -1.69737 3.18154 0
M  V30 2257 O 214.485 -2.80229 3.02565 0
M  V30 2258 H 213.826 -0.242025 0.61832 0
M  V30 2259 H 216.356 -0.128999 2.04193 0
M  V30 2260 H 216.366 -2.09099 3.50345 0
M  V30 2261 H 215.041 -1.06152 4.02125 0
M  V30 2262 H 213.618 -2.44224 2.81796 0
M  V30 2263 N 215.803 -1.52179 -0.40978 0
M  V30 2264 C 217.049 -1.66453 -1.15851 0
M  V30 2265 C 217.382 -0.392972 -1.90182 0
M  V30 2266 O 216.657 0.608579 -1.84734 0
M  V30 2267 C 216.94 -2.88612 -2.15349 0
M  V30 2268 C 216.793 -4.25815 -1.44918 0
M  V30 2269 C 218.112 -3.06294 -3.16026 0
M  V30 2270 H 215.231 -0.60575 -0.419805 0
M  V30 2271 H 217.873 -1.84732 -0.444314 0
M  V30 2272 H 216.023 -2.73158 -2.76255 0
M  V30 2273 H 217.695 -4.52995 -0.871365 0
M  V30 2274 H 215.938 -4.27247 -0.751159 0
M  V30 2275 H 216.609 -5.07337 -2.17516 0
M  V30 2276 H 219.085 -3.20641 -2.65195 0
M  V30 2277 H 217.961 -3.93283 -3.8291 0
M  V30 2278 H 218.222 -2.19579 -3.83715 0
M  V30 2279 N 217.281 0.66697 -1.42791 0
M  V30 2280 C 218.211 1.79218 -1.49677 0
M  V30 2281 C 219.192 1.66405 -0.352623 0
M  V30 2282 O 220.377 1.85708 -0.567993 0
M  V30 2283 C 217.507 3.17565 -1.40605 0
M  V30 2284 C 216.461 3.45124 -2.53127 0
M  V30 2285 C 215.787 4.83127 -2.29112 0
M  V30 2286 C 217.087 3.41236 -3.95418 0
M  V30 2287 H 218.781 1.73713 -2.43853 0
M  V30 2288 H 216.327 0.83432 -1.17367 0
M  V30 2289 H 218.28 3.96022 -1.44029 0
M  V30 2290 H 217.004 3.23767 -0.429271 0
M  V30 2291 H 215.663 2.69031 -2.49034 0
M  V30 2292 H 215.311 4.85988 -1.29709 0
M  V30 2293 H 215.011 5.02528 -3.04531 0
M  V30 2294 H 216.535 5.63859 -2.34297 0
M  V30 2295 H 217.949 4.09651 -4.01073 0
M  V30 2296 H 216.346 3.72173 -4.70752 0
M  V30 2297 H 217.416 2.39665 -4.21532 0
M  V30 2298 N 218.759 1.29093 0.90403 0
M  V30 2299 C 220.17 1.15186 1.46932 0
M  V30 2300 C 220.521 -0.254587 1.94541 0
M  V30 2301 O 219.646 -1.14972 1.83332 0
M  V30 2302 C 220.241 2.08492 2.67051 0
M  V30 2303 C 218.8 1.98621 3.19729 0
M  V30 2304 C 217.947 1.9967 1.92425 0
M  V30 2305 H 220.898 1.41641 0.715789 0
M  V30 2306 H 220.919 1.65461 3.42641 0
M  V30 2307 H 220.431 3.10847 2.3237 0
M  V30 2308 H 218.532 0.993389 3.59114 0
M  V30 2309 H 218.645 2.86068 3.8432 0
M  V30 2310 H 217.009 1.44208 2.09943 0
M  V30 2311 H 217.792 3.03721 1.60026 0
M  V30 2312 N 220.237 -1.11381 1.11499 0
M  V30 2313 C 221.465 -1.86934 0.88675 0
M  V30 2314 C 221.88 -1.80195 -0.563476 0
M  V30 2315 O 221.237 -1.18367 -1.38908 0
M  V30 2316 C 221.288 -3.35722 1.34064 0
M  V30 2317 O 221.009 -3.4232 2.73401 0
M  V30 2318 C 222.51 -4.2818 1.14791 0
M  V30 2319 H 219.73 -0.591117 0.317523 0
M  V30 2320 H 222.274 -1.40865 1.48248 0
M  V30 2321 H 220.429 -3.79294 0.788355 0
M  V30 2322 H 220.843 -4.34971 2.93087 0
M  V30 2323 H 222.317 -5.30817 1.5145 0
M  V30 2324 H 222.794 -4.39113 0.0875279 0
M  V30 2325 H 223.4 -3.90402 1.68721 0
M  V30 2326 N 221.715 -0.905404 -1.28997 0
M  V30 2327 C 222.645 -0.404212 -2.29975 0
M  V30 2328 C 223.626 0.523784 -1.61835 0
M  V30 2329 O 224.811 0.433298 -1.89304 0
M  V30 2330 C 221.941 0.364042 -3.45387 0
M  V30 2331 C 220.895 -0.474048 -4.25367 0
M  V30 2332 C 220.221 0.422045 -5.33032 0
M  V30 2333 C 221.521 -1.72696 -4.92923 0
M  V30 2334 H 223.215 -1.24807 -2.72146 0
M  V30 2335 H 220.761 -0.601585 -1.30832 0
M  V30 2336 H 222.714 0.725447 -4.15109 0
M  V30 2337 H 221.438 1.24174 -3.02074 0
M  V30 2338 H 220.097 -0.81786 -3.57361 0
M  V30 2339 H 219.745 1.29804 -4.85963 0
M  V30 2340 H 219.445 -0.135057 -5.87445 0
M  V30 2341 H 220.969 0.779517 -6.05604 0
M  V30 2342 H 222.383 -1.43495 -5.55051 0
M  V30 2343 H 220.78 -2.22582 -5.57295 0
M  V30 2344 H 221.85 -2.45964 -4.17887 0
M  V30 2345 N 223.193 1.4272 -0.668489 0
M  V30 2346 C 224.439 2.02443 -0.197076 0
M  V30 2347 C 224.794 1.51882 1.18109 0
M  V30 2348 O 224.087 0.708618 1.78015 0
M  V30 2349 C 224.281 3.57021 -0.164499 0
M  V30 2350 C 224.11 4.22583 -1.53797 0
M  V30 2351 C 222.88 4.58019 -2.13416 0
M  V30 2352 C 225.078 4.50588 -2.47941 0
M  V30 2353 N 223.06 5.08729 -3.4361 0
M  V30 2354 C 224.431 5.02782 -3.62782 0
M  V30 2355 C 226.486 4.32571 -2.46551 0
M  V30 2356 C 225.189 5.38852 -4.76478 0
M  V30 2357 C 227.215 4.69713 -3.59338 0
M  V30 2358 C 226.577 5.22053 -4.72906 0
M  V30 2359 H 222.676 0.773214 -0.116894 0
M  V30 2360 H 225.26 1.73673 -0.880108 0
M  V30 2361 H 223.431 3.85323 0.487925 0
M  V30 2362 H 225.163 4.03439 0.319207 0
M  V30 2363 H 221.918 4.43566 -1.65969 0
M  V30 2364 H 222.342 5.38521 -4.10273 0
M  V30 2365 H 226.984 3.91365 -1.59978 0
M  V30 2366 H 224.702 5.78993 -5.63731 0
M  V30 2367 H 228.288 4.57454 -3.59482 0
M  V30 2368 H 227.168 5.50258 -5.58736 0
M  V30 2369 N 224.671 0.411399 1.52136 0
M  V30 2370 C 225.604 -0.457614 2.23565 0
M  V30 2371 C 226.582 -1.04613 1.24478 0
M  V30 2372 O 227.766 -1.09356 1.53536 0
M  V30 2373 C 224.893 -1.6354 2.96602 0
M  V30 2374 C 223.939 -1.17005 4.10137 0
M  V30 2375 S 224.772 -0.13333 5.35334 0
M  V30 2376 C 225.928 -1.31638 6.119 0
M  V30 2377 H 226.161 0.148883 2.96927 0
M  V30 2378 H 223.694 0.195713 1.53155 0
M  V30 2379 H 225.652 -2.31074 3.39286 0
M  V30 2380 H 224.313 -2.21324 2.22878 0
M  V30 2381 H 223.506 -2.05005 4.60422 0
M  V30 2382 H 223.108 -0.573319 3.6958 0
M  V30 2383 H 225.4 -2.23957 6.39413 0
M  V30 2384 H 226.343 -0.854014 7.02931 0
M  V30 2385 H 226.751 -1.54321 5.42997 0
M  V30 2386 N 226.149 -1.5696 0.141893 0
M  V30 2387 C 227.079 -2.19516 -0.795936 0
M  V30 2388 C 228.06 -1.14187 -1.26077 0
M  V30 2389 O 229.245 -1.42511 -1.31925 0
M  V30 2390 C 226.375 -2.81272 -2.03723 0
M  V30 2391 C 225.329 -3.92384 -1.70936 0
M  V30 2392 C 224.655 -4.41052 -3.02287 0
M  V30 2393 C 225.955 -5.13403 -0.959954 0
M  V30 2394 H 227.649 -2.98138 -0.274596 0
M  V30 2395 H 225.195 -1.43406 -0.130636 0
M  V30 2396 H 227.148 -3.237 -2.69808 0
M  V30 2397 H 225.872 -1.99973 -2.58221 0
M  V30 2398 H 224.531 -3.50566 -1.07232 0
M  V30 2399 H 224.179 -3.56582 -3.54765 0
M  V30 2400 H 223.879 -5.15993 -2.81114 0
M  V30 2401 H 225.403 -4.86146 -3.69451 0
M  V30 2402 H 226.817 -5.52706 -1.52279 0
M  V30 2403 H 225.214 -5.94073 -0.848357 0
M  V30 2404 H 226.284 -4.84875 0.0492434 0
M  V30 2405 N 227.627 0.131896 -1.57047 0
M  V30 2406 C 228.574 1.16236 -1.99393 0
M  V30 2407 C 229.544 1.41863 -0.863943 0
M  V30 2408 O 230.729 1.53946 -1.12718 0
M  V30 2409 C 227.869 2.48708 -2.39245 0
M  V30 2410 C 226.982 2.30127 -3.65603 0
M  V30 2411 C 226.117 3.55738 -3.94492 0
M  V30 2412 C 225.156 3.32259 -5.14073 0
M  V30 2413 N 224.293 4.50039 -5.38896 0
M  V30 2414 H 229.133 0.794251 -2.87221 0
M  V30 2415 H 226.67 0.380707 -1.42088 0
M  V30 2416 H 228.628 3.25969 -2.60384 0
M  V30 2417 H 227.258 2.83437 -1.54478 0
M  V30 2418 H 226.31 1.43845 -3.52154 0
M  V30 2419 H 227.622 2.08746 -4.5302 0
M  V30 2420 H 226.776 4.41423 -4.1621 0
M  V30 2421 H 225.515 3.80138 -3.05526 0
M  V30 2422 H 224.52 2.44963 -4.92212 0
M  V30 2423 H 225.745 3.09242 -6.04604 0
M  V30 2424 H 223.691 4.74584 -4.52886 0
M  V30 2425 H 223.608 4.31716 -6.2061 0
M  V30 2426 H 224.876 5.36895 -5.65123 0
M  V30 2427 N 229.106 1.52395 0.401703 0
M  V30 2428 C 230.383 1.57387 1.16141 0
M  V30 2429 C 230.763 0.359359 2.08019 0
M  V30 2430 O 230.111 -0.65326 2.18963 0
M  V30 2431 C 230.321 2.90631 1.93221 0
M  V30 2432 C 231.669 3.43904 2.49028 0
M  V30 2433 O 232.693 2.92421 2.03393 0
M  V30 2434 O 231.552 4.33823 3.32356 0
M  V30 2435 H 228.646 0.634262 0.530698 0
M  V30 2436 H 231.192 1.64725 0.407883 0
M  V30 2437 H 229.964 3.70473 1.25958 0
M  V30 2438 H 229.587 2.8662 2.75563 0
M  V30 2439 N 230.584 -0.659388 1.43143 0
M  V30 2440 C 231.814 -1.44513 1.47646 0
M  V30 2441 C 232.222 -1.88981 0.0910095 0
M  V30 2442 O 231.565 -1.59702 -0.907789 0
M  V30 2443 C 231.627 -2.71663 2.35456 0
M  V30 2444 C 231.291 -2.49175 3.83094 0
M  V30 2445 C 232.288 -2.1279 4.74359 0
M  V30 2446 C 229.973 -2.63691 4.27519 0
M  V30 2447 C 231.967 -1.9121 6.08044 0
M  V30 2448 C 229.654 -2.41726 5.61259 0
M  V30 2449 C 230.652 -2.0554 6.51339 0
M  V30 2450 O 230.34 -1.838 7.82606 0
M  V30 2451 H 230.072 -0.45064 0.503884 0
M  V30 2452 H 232.626 -0.816248 1.88485 0
M  V30 2453 H 230.856 -3.37089 1.89493 0
M  V30 2454 H 232.545 -3.33595 2.31235 0
M  V30 2455 H 233.311 -2.01157 4.41317 0
M  V30 2456 H 229.19 -2.90832 3.57684 0
M  V30 2457 H 232.734 -1.62889 6.78316 0
M  V30 2458 H 228.631 -2.52959 5.9387 0
M  V30 2459 H 229.399 -1.98275 7.94122 0
M  V30 2460 N 232.062 -1.29571 -0.897171 0
M  V30 2461 C 233.025 -1.14913 -1.98312 0
M  V30 2462 C 234.025 -0.0838629 -1.60581 0
M  V30 2463 O 235.215 -0.331006 -1.71026 0
M  V30 2464 C 232.347 -0.757835 -3.3237 0
M  V30 2465 H 233.54 -2.11377 -2.12743 0
M  V30 2466 H 231.093 -1.12793 -1.08201 0
M  V30 2467 H 231.828 0.206837 -3.2364 0
M  V30 2468 H 231.613 -1.52755 -3.61121 0
M  V30 2469 H 233.103 -0.678408 -4.12053 0
M  V30 2470 N 233.54 1.10788 -1.12088 0
M  V30 2471 C 234.47 2.19083 -0.807755 0
M  V30 2472 C 235.451 1.6858 0.226859 0
M  V30 2473 O 236.636 1.93997 0.0888475 0
M  V30 2474 C 233.766 3.46344 -0.257576 0
M  V30 2475 C 232.72 4.101 -1.22483 0
M  V30 2476 C 232.046 5.32016 -0.535052 0
M  V30 2477 C 233.346 4.54236 -2.57811 0
M  V30 2478 H 235.04 2.45534 -1.71328 0
M  V30 2479 H 232.586 1.1801 -0.825205 0
M  V30 2480 H 234.539 4.21392 -0.0262679 0
M  V30 2481 H 233.263 3.19373 0.683278 0
M  V30 2482 H 231.922 3.37054 -1.44189 0
M  V30 2483 H 231.57 5.01319 0.410827 0
M  V30 2484 H 231.27 5.75625 -1.18024 0
M  V30 2485 H 232.794 6.09799 -0.312695 0
M  V30 2486 H 234.208 5.20575 -2.40155 0
M  V30 2487 H 232.605 5.08682 -3.18375 0
M  V30 2488 H 233.675 3.6734 -3.16528 0
M  V30 2489 N 235.018 0.912232 1.28515 0
M  V30 2490 C 235.95 0.35676 2.26406 0
M  V30 2491 C 236.963 -0.503933 1.54804 0
M  V30 2492 O 238.152 -0.319059 1.75625 0
M  V30 2493 C 235.252 -0.508825 3.35058 0
M  V30 2494 C 234.425 0.329007 4.36161 0
M  V30 2495 C 233.484 -0.471422 5.24084 0
M  V30 2496 O 232.51 0.115482 5.69083 0
M  V30 2497 N 233.712 -1.77479 5.52704 0
M  V30 2498 H 236.477 1.19818 2.74707 0
M  V30 2499 H 234.038 0.778022 1.4198 0
M  V30 2500 H 236.03 -1.051 3.90815 0
M  V30 2501 H 234.6 -1.25095 2.86478 0
M  V30 2502 H 233.82 1.05256 3.79888 0
M  V30 2503 H 235.108 0.90234 5.00735 0
M  V30 2504 H 234.506 -2.27417 5.17975 0
M  V30 2505 H 233.063 -2.26382 6.11224 0
M  V30 2506 N 236.496 -1.42363 0.676048 0
M  V30 2507 C 237.721 -2.06377 0.205705 0
M  V30 2508 C 238.146 -1.50463 -1.12883 0
M  V30 2509 O 237.504 -0.623619 -1.70237 0
M  V30 2510 C 237.552 -3.60277 0.152655 0
M  V30 2511 O 236.656 -4.02935 -0.87845 0
M  V30 2512 H 235.997 -0.655588 0.105359 0
M  V30 2513 H 238.527 -1.82475 0.925412 0
M  V30 2514 H 238.537 -4.07993 -0.0230675 0
M  V30 2515 H 237.212 -4.00346 1.12675 0
M  V30 2516 H 235.789 -3.66764 -0.673668 0
M  V30 2517 N 237.974 -0.419461 -1.51915 0
M  V30 2518 C 239.222 0.152637 -2.01523 0
M  V30 2519 C 239.543 1.44762 -1.30649 0
M  V30 2520 O 238.813 1.90997 -0.435535 0
M  V30 2521 H 237.393 0.0593966 -0.744635 0
M  V30 2522 H 240.055 -0.558073 -1.86739 0
M  V30 2523 H 239.151 0.341369 -3.10227 0
M  V30 2524 N 239.452 1.56882 -0.150215 0
M  V30 2525 C 240.415 2.1573 0.774157 0
M  V30 2526 C 241.415 1.0999 1.17298 0
M  V30 2527 O 242.605 1.35613 1.09338 0
M  V30 2528 C 239.737 2.72302 2.05096 0
M  V30 2529 H 240.93 2.98752 0.262201 0
M  V30 2530 H 238.483 1.55985 0.099248 0
M  V30 2531 H 239.218 1.92956 2.6065 0
M  V30 2532 H 239.003 3.49665 1.77416 0
M  V30 2533 H 240.493 3.17632 2.71109 0
M  V30 2534 N 240.93 -0.123565 1.57115 0
M  V30 2535 C 242.178 -0.83051 1.84247 0
M  V30 2536 C 242.499 -1.80629 0.73471 0
M  V30 2537 O 241.769 -1.94403 -0.241688 0
M  V30 2538 H 240.349 -0.309694 0.679778 0
M  V30 2539 H 243.011 -0.111976 1.94578 0
M  V30 2540 H 242.107 -1.37852 2.80006 0
M  V30 2541 N 242.408 -1.52605 -0.393616 0
M  V30 2542 C 243.338 -1.80022 -1.48709 0
M  V30 2543 C 244.319 -0.651995 -1.57108 0
M  V30 2544 O 245.504 -0.89913 -1.72132 0
M  V30 2545 C 242.634 -1.96492 -2.86371 0
M  V30 2546 C 241.588 -3.12161 -2.92813 0
M  V30 2547 C 240.914 -3.13877 -4.3288 0
M  V30 2548 C 242.214 -4.51322 -2.6288 0
M  V30 2549 H 243.908 -2.71589 -1.26015 0
M  V30 2550 H 241.454 -1.30684 -0.604778 0
M  V30 2551 H 243.407 -2.14255 -3.62867 0
M  V30 2552 H 242.131 -1.01611 -3.10391 0
M  V30 2553 H 240.79 -2.94173 -2.18764 0
M  V30 2554 H 240.438 -2.16687 -4.53933 0
M  V30 2555 H 240.138 -3.91576 -4.38112 0
M  V30 2556 H 241.662 -3.33789 -5.1129 0
M  V30 2557 H 243.076 -4.69435 -3.29096 0
M  V30 2558 H 241.473 -5.31053 -2.79468 0
M  V30 2559 H 242.543 -4.58353 -1.58242 0
M  V30 2560 N 243.887 0.651787 -1.4349 0
M  V30 2561 C 244.85 1.74647 -1.48429 0
M  V30 2562 C 245.85 1.56513 -0.368817 0
M  V30 2563 O 247.04 1.62385 -0.630623 0
M  V30 2564 C 244.172 3.13533 -1.33827 0
M  V30 2565 H 245.365 1.71649 -2.4592 0
M  V30 2566 H 242.918 0.863573 -1.30277 0
M  V30 2567 H 243.653 3.22142 -0.37349 0
M  V30 2568 H 243.438 3.28101 -2.14691 0
M  V30 2569 H 244.928 3.93356 -1.40218 0
M  V30 2570 N 245.365 1.30045 0.890287 0
M  V30 2571 C 246.612 1.18561 1.64163 0
M  V30 2572 C 246.94 -0.260852 1.92743 0
M  V30 2573 O 246.195 -1.20376 1.54299 0
M  V30 2574 C 246.494 1.95409 2.99249 0
M  V30 2575 C 246.16 3.45066 2.90242 0
M  V30 2576 C 244.822 3.85878 2.87492 0
M  V30 2577 C 247.174 4.4039 2.78758 0
M  V30 2578 C 244.502 5.20314 2.7109 0
M  V30 2579 C 246.854 5.74928 2.63894 0
M  V30 2580 C 245.518 6.14986 2.59516 0
M  V30 2581 H 244.788 0.433846 0.600715 0
M  V30 2582 H 247.435 1.61088 1.03552 0
M  V30 2583 H 245.74 1.45501 3.63781 0
M  V30 2584 H 247.437 1.8392 3.56334 0
M  V30 2585 H 244.027 3.12631 2.93189 0
M  V30 2586 H 248.211 4.09806 2.79952 0
M  V30 2587 H 243.467 5.50449 2.66112 0
M  V30 2588 H 247.641 6.48434 2.53981 0
M  V30 2589 H 245.268 7.19104 2.46565 0
M  V30 2590 N 246.843 -1.10192 1.12674 0
M  V30 2591 C 247.753 -2.20172 0.810026 0
M  V30 2592 C 248.769 -1.72821 -0.202188 0
M  V30 2593 O 249.945 -2.01369 -0.0351691 0
M  V30 2594 C 247.01 -3.45631 0.272007 0
M  V30 2595 C 246.071 -4.07704 1.34447 0
M  V30 2596 C 245.304 -5.27175 0.832029 0
M  V30 2597 O 245.527 -5.69425 -0.333284 0
M  V30 2598 O 244.461 -5.80168 1.60277 0
M  V30 2599 H 248.287 -2.49701 1.72867 0
M  V30 2600 H 245.872 -1.18977 0.903597 0
M  V30 2601 H 247.754 -4.21394 -0.0230219 0
M  V30 2602 H 246.429 -3.17723 -0.619164 0
M  V30 2603 H 245.336 -3.33614 1.6927 0
M  V30 2604 H 246.669 -4.3982 2.2095 0
M  V30 2605 N 248.321 -0.919034 -1.28029 0
M  V30 2606 C 249.271 -0.382574 -2.24767 0
M  V30 2607 C 250.255 0.508286 -1.52661 0
M  V30 2608 O 251.447 0.347145 -1.73562 0
M  V30 2609 C 248.576 0.371432 -3.41285 0
M  V30 2610 C 247.662 -0.535449 -4.20706 0
M  V30 2611 N 248.053 -1.65141 -4.78082 0
M  V30 2612 C 246.351 -0.336824 -4.44726 0
M  V30 2613 C 247.052 -2.21475 -5.37888 0
M  V30 2614 N 246.028 -1.50537 -5.22341 0
M  V30 2615 H 249.83 -1.23477 -2.66703 0
M  V30 2616 H 247.344 -0.772299 -1.42861 0
M  V30 2617 H 249.341 0.772638 -4.09678 0
M  V30 2618 H 248.001 1.22066 -3.00882 0
M  V30 2619 H 249.012 -2.03392 -4.7629 0
M  V30 2620 H 245.689 0.47246 -4.14818 0
M  V30 2621 H 247.079 -3.15379 -5.93284 0
M  V30 2622 N 249.799 1.42003 -0.683588 0
M  V30 2623 C 251.21 1.84501 -0.285736 0
M  V30 2624 C 251.561 1.57213 1.17382 0
M  V30 2625 O 250.686 1.03642 1.89966 0
M  V30 2626 C 251.281 3.34912 -0.511821 0
M  V30 2627 C 249.84 3.76025 -0.168005 0
M  V30 2628 C 248.987 2.6551 -0.799983 0
M  V30 2629 H 251.938 1.31724 -0.885119 0
M  V30 2630 H 251.959 3.79784 0.233292 0
M  V30 2631 H 251.471 3.54741 -1.57418 0
M  V30 2632 H 249.572 3.61801 0.890567 0
M  V30 2633 H 249.685 4.75141 -0.614661 0
M  V30 2634 H 248.049 2.53654 -0.230568 0
M  V30 2635 H 248.832 2.8816 -1.86597 0
M  V30 2636 N 251.277 0.427512 1.51691 0
M  V30 2637 C 252.523 -0.142439 2.02299 0
M  V30 2638 C 252.856 -1.43214 1.31162 0
M  V30 2639 O 252.131 -1.89833 0.423511 0
M  V30 2640 C 252.414 -0.371301 3.58181 0
M  V30 2641 C 252.267 0.936358 4.39946 0
M  V30 2642 C 253.586 -1.14542 4.24933 0
M  V30 2643 H 250.705 -0.0502937 0.735282 0
M  V30 2644 H 253.347 0.564584 1.81418 0
M  V30 2645 H 251.497 -0.973559 3.76104 0
M  V30 2646 H 253.169 1.57184 4.33694 0
M  V30 2647 H 251.412 1.5432 4.05423 0
M  V30 2648 H 252.083 0.730388 5.47147 0
M  V30 2649 H 254.559 -0.635362 4.11221 0
M  V30 2650 H 253.435 -1.27431 5.33903 0
M  V30 2651 H 253.696 -2.17093 3.85127 0
M  V30 2652 N 252.755 -1.56801 0.158532 0
M  V30 2653 C 253.98 -2.01295 -0.499516 0
M  V30 2654 C 254.405 -1.03799 -1.56867 0
M  V30 2655 O 253.763 -0.0155162 -1.81293 0
M  V30 2656 C 253.811 -3.44469 -1.06647 0
M  V30 2657 O 252.915 -3.50012 -2.18095 0
M  V30 2658 H 252.256 -0.652884 -0.12099 0
M  V30 2659 H 254.786 -2.02958 0.258661 0
M  V30 2660 H 254.796 -3.8351 -1.39227 0
M  V30 2661 H 253.471 -4.14932 -0.283581 0
M  V30 2662 H 252.048 -3.22822 -1.86656 0
M  V30 2663 N 254.233 0.115231 -1.57178 0
M  V30 2664 C 255.18 1.14115 -2.00615 0
M  V30 2665 C 256.15 1.40939 -0.878941 0
M  V30 2666 O 257.335 1.52741 -1.14345 0
M  V30 2667 C 254.475 2.46156 -2.4187 0
M  V30 2668 C 253.588 2.26236 -3.68024 0
M  V30 2669 C 252.723 3.51534 -3.98243 0
M  V30 2670 C 251.762 3.26787 -5.17568 0
M  V30 2671 N 250.899 4.44298 -5.43639 0
M  V30 2672 H 255.739 0.763743 -2.88047 0
M  V30 2673 H 253.276 0.365615 -1.42484 0
M  V30 2674 H 255.234 3.23189 -2.63827 0
M  V30 2675 H 253.864 2.81783 -1.57475 0
M  V30 2676 H 252.916 1.40102 -3.5366 0
M  V30 2677 H 254.228 2.03929 -4.55208 0
M  V30 2678 H 253.382 4.36984 -4.20868 0
M  V30 2679 H 252.121 3.76876 -3.09541 0
M  V30 2680 H 251.126 2.39729 -4.94783 0
M  V30 2681 H 252.351 3.02812 -6.0785 0
M  V30 2682 H 250.297 4.69754 -4.57895 0
M  V30 2683 H 250.214 4.25109 -6.25154 0
M  V30 2684 H 251.482 5.3087 -5.70786 0
M  V30 2685 N 255.711 1.52812 0.385517 0
M  V30 2686 C 257.122 1.5993 0.963293 0
M  V30 2687 C 257.473 0.454302 1.90868 0
M  V30 2688 O 256.598 -0.422132 2.12243 0
M  V30 2689 C 257.193 2.89871 1.75387 0
M  V30 2690 C 255.752 2.99389 2.28129 0
M  V30 2691 C 254.899 2.55071 1.08783 0
M  V30 2692 H 257.85 1.5784 0.164948 0
M  V30 2693 H 257.871 2.76553 2.61341 0
M  V30 2694 H 257.383 3.73186 1.06554 0
M  V30 2695 H 255.484 2.20619 3.00263 0
M  V30 2696 H 255.597 4.04096 2.57377 0
M  V30 2697 H 253.961 2.09473 1.4489 0
M  V30 2698 H 254.744 3.40785 0.414807 0
M  V30 2699 N 257.189 -0.644168 1.43834 0
M  V30 2700 C 258.435 -1.40603 1.46146 0
M  V30 2701 C 258.768 -1.93997 0.0887717 0
M  V30 2702 O 258.043 -1.72854 -0.891724 0
M  V30 2703 C 258.326 -2.58086 2.51124 0
M  V30 2704 C 258.179 -2.10126 3.97702 0
M  V30 2705 C 259.498 -3.60291 2.52742 0
M  V30 2706 H 256.617 -0.509905 0.532134 0
M  V30 2707 H 259.259 -0.729502 1.75437 0
M  V30 2708 H 257.409 -3.15801 2.26278 0
M  V30 2709 H 259.081 -1.57342 4.33637 0
M  V30 2710 H 257.324 -1.41419 4.10101 0
M  V30 2711 H 257.995 -2.94649 4.66783 0
M  V30 2712 H 260.471 -3.12352 2.7491 0
M  V30 2713 H 259.347 -4.40032 3.28121 0
M  V30 2714 H 259.608 -4.1349 1.56455 0
M  V30 2715 N 258.668 -1.30515 -0.883378 0
M  V30 2716 C 259.914 -1.19607 -1.63774 0
M  V30 2717 C 260.247 0.248314 -1.92606 0
M  V30 2718 O 259.522 1.17742 -1.54813 0
M  V30 2719 C 259.805 -2.02669 -2.97653 0
M  V30 2720 C 259.658 -3.55335 -2.75784 0
M  V30 2721 C 260.977 -1.86573 -3.98596 0
M  V30 2722 H 258.096 -0.435856 -0.594305 0
M  V30 2723 H 260.738 -1.60165 -1.02212 0
M  V30 2724 H 258.888 -1.68208 -3.50197 0
M  V30 2725 H 260.56 -3.99863 -2.30016 0
M  V30 2726 H 258.803 -3.79438 -2.1026 0
M  V30 2727 H 259.474 -4.08745 -3.70988 0
M  V30 2728 H 261.95 -2.16703 -3.55217 0
M  V30 2729 H 260.826 -2.47014 -4.90179 0
M  V30 2730 H 261.087 -0.825321 -4.34328 0
M  V30 2731 N 260.146 1.09593 -1.13257 0
M  V30 2732 C 261.076 2.18214 -0.830946 0
M  V30 2733 C 262.057 1.68812 0.208966 0
M  V30 2734 O 263.242 1.9408 0.0682666 0
M  V30 2735 C 260.372 3.46051 -0.294296 0
M  V30 2736 C 259.326 4.08778 -1.26826 0
M  V30 2737 C 258.652 5.31419 -0.591449 0
M  V30 2738 C 259.952 4.51476 -2.62615 0
M  V30 2739 H 261.646 2.43703 -1.73923 0
M  V30 2740 H 259.192 1.17128 -0.837675 0
M  V30 2741 H 261.145 4.2134 -0.0709606 0
M  V30 2742 H 259.869 3.20079 0.649366 0
M  V30 2743 H 258.528 3.35505 -1.47756 0
M  V30 2744 H 258.176 5.01727 0.357633 0
M  V30 2745 H 257.876 5.74341 -1.24123 0
M  V30 2746 H 259.4 6.09433 -0.377355 0
M  V30 2747 H 260.814 5.17999 -2.45663 0
M  V30 2748 H 259.211 5.05277 -3.23752 0
M  V30 2749 H 260.281 3.63962 -3.20406 0
M  V30 2750 N 261.624 0.925811 1.2754 0
M  V30 2751 C 262.852 0.581509 1.9856 0
M  V30 2752 C 263.267 -0.840041 1.69082 0
M  V30 2753 O 262.624 -1.55805 0.950312 0
M  V30 2754 C 262.675 0.795589 3.52637 0
M  V30 2755 O 262.396 2.16121 3.81082 0
M  V30 2756 C 263.897 0.459744 4.4091 0
M  V30 2757 H 261.117 0.220538 0.633722 0
M  V30 2758 H 263.661 1.24232 1.6244 0
M  V30 2759 H 261.816 0.18161 3.86974 0
M  V30 2760 H 262.23 2.2098 4.75676 0
M  V30 2761 H 263.704 0.660244 5.48037 0
M  V30 2762 H 264.181 -0.604625 4.35018 0
M  V30 2763 H 264.787 1.05178 4.12089 0
M  V30 2764 N 263.102 -1.41638 0.69111 0
M  V30 2765 C 264.327 -2.06148 0.227583 0
M  V30 2766 C 264.752 -1.51652 -1.11281 0
M  V30 2767 O 264.11 -0.64164 -1.69566 0
M  V30 2768 C 264.158 -3.60095 0.190858 0
M  V30 2769 O 263.262 -4.03845 -0.835664 0
M  V30 2770 H 262.603 -0.654434 0.112306 0
M  V30 2771 H 265.133 -1.81484 0.944714 0
M  V30 2772 H 265.143 -4.07995 0.020207 0
M  V30 2773 H 263.818 -3.99129 1.16915 0
M  V30 2774 H 262.395 -3.67458 -0.63473 0
M  V30 2775 N 264.58 -0.43555 -1.51462 0
M  V30 2776 C 265.996 -0.0877501 -1.59359 0
M  V30 2777 C 266.196 1.4027 -1.4466 0
M  V30 2778 O 265.252 2.17243 -1.28693 0
M  V30 2779 C 266.565 -0.606264 -2.94525 0
M  V30 2780 C 268.113 -0.566548 -3.0783 0
M  V30 2781 C 268.588 -1.06201 -4.45517 0
M  V30 2782 N 270.079 -1.01992 -4.51832 0
M  V30 2783 C 270.814 -1.37417 -5.5669 0
M  V30 2784 N 270.31 -1.80119 -6.68976 0
M  V30 2785 N 272.103 -1.29245 -5.47039 0
M  V30 2786 H 264.254 -1.40533 -1.59261 0
M  V30 2787 H 266.517 -0.578992 -0.750648 0
M  V30 2788 H 266.223 -1.64901 -3.10645 0
M  V30 2789 H 266.097 -0.0302097 -3.77188 0
M  V30 2790 H 268.484 0.467208 -2.91378 0
M  V30 2791 H 268.565 -1.17898 -2.2701 0
M  V30 2792 H 268.209 -2.09422 -4.62715 0
M  V30 2793 H 268.139 -0.426127 -5.24873 0
M  V30 2794 H 270.63 -0.706308 -3.71241 0
M  V30 2795 H 270.943 -2.05392 -7.45006 0
M  V30 2796 H 269.288 -1.84044 -6.70189 0
M  V30 2797 H 272.479 -0.957522 -4.58202 0
M  V30 2798 H 272.652 -1.57182 -6.28648 0
M  V30 2799 N 266.058 1.56714 -0.166846 0
M  V30 2800 C 266.968 2.21331 0.777791 0
M  V30 2801 C 267.984 1.20358 1.25658 0
M  V30 2802 O 269.16 1.53005 1.30964 0
M  V30 2803 C 266.225 2.83787 1.99163 0
M  V30 2804 C 265.286 3.99947 1.56016 0
M  V30 2805 C 264.519 4.59415 2.71613 0
M  V30 2806 O 264.742 4.17769 3.88362 0
M  V30 2807 O 263.676 5.49359 2.45945 0
M  V30 2808 H 267.502 3.02605 0.257636 0
M  V30 2809 H 265.087 1.49275 0.0611393 0
M  V30 2810 H 266.969 3.23405 2.70161 0
M  V30 2811 H 265.644 2.05513 2.50092 0
M  V30 2812 H 264.551 3.65007 0.819809 0
M  V30 2813 H 265.884 4.79801 1.09782 0
M  V30 2814 N 267.536 -0.106894 1.57237 0
M  V30 2815 C 268.483 -1.13049 2.01217 0
M  V30 2816 C 269.453 -1.40471 0.886403 0
M  V30 2817 O 270.638 -1.52133 1.15153 0
M  V30 2818 C 267.778 -2.4487 2.43172 0
M  V30 2819 C 266.891 -2.24281 3.69218 0
M  V30 2820 C 266.026 -3.49417 4.00101 0
M  V30 2821 C 265.065 -3.24038 5.19294 0
M  V30 2822 N 264.202 -4.41409 5.45988 0
M  V30 2823 H 269.042 -0.748456 2.88448 0
M  V30 2824 H 266.579 -0.358054 1.42676 0
M  V30 2825 H 268.537 -3.21786 2.65537 0
M  V30 2826 H 267.167 -2.80944 1.58967 0
M  V30 2827 H 266.219 -1.38224 3.54398 0
M  V30 2828 H 267.531 -2.01512 4.56283 0
M  V30 2829 H 266.685 -4.34746 4.2318 0
M  V30 2830 H 265.424 -3.75229 3.11535 0
M  V30 2831 H 264.429 -2.37102 4.96047 0
M  V30 2832 H 265.654 -2.99584 6.09447 0
M  V30 2833 H 263.6 -4.67319 4.60379 0
M  V30 2834 H 263.517 -4.21788 6.274 0
M  V30 2835 H 264.785 -5.27836 5.73593 0
M  V30 2836 N 269.014 -1.53014 -0.377408 0
M  V30 2837 C 269.924 -1.81557 -1.48574 0
M  V30 2838 C 270.94 -0.703102 -1.59162 0
M  V30 2839 O 272.116 -0.99192 -1.75279 0
M  V30 2840 C 269.181 -1.9889 -2.83978 0
M  V30 2841 C 268.242 -3.22801 -2.83016 0
M  V30 2842 C 267.475 -3.39298 -4.11962 0
M  V30 2843 O 267.698 -2.60345 -5.0752 0
M  V30 2844 O 266.632 -4.32604 -4.18494 0
M  V30 2845 H 270.458 -2.75695 -1.27382 0
M  V30 2846 H 268.043 -1.38248 -0.566373 0
M  V30 2847 H 269.925 -2.11931 -3.6423 0
M  V30 2848 H 268.6 -1.07942 -3.05172 0
M  V30 2849 H 267.507 -3.15193 -2.01505 0
M  V30 2850 H 268.84 -4.13632 -2.66775 0
M  V30 2851 N 270.492 0.636531 -1.44174 0
M  V30 2852 C 271.738 1.39826 -1.4689 0
M  V30 2853 C 272.071 1.93947 -0.0990585 0
M  V30 2854 O 271.346 1.73325 0.882544 0
M  V30 2855 C 271.629 2.56751 -2.5249 0
M  V30 2856 C 271.482 2.08014 -3.98811 0
M  V30 2857 C 272.801 3.58946 -2.54649 0
M  V30 2858 H 269.92 0.507075 -0.53483 0
M  V30 2859 H 272.562 0.720188 -1.75822 0
M  V30 2860 H 270.712 3.14597 -2.2795 0
M  V30 2861 H 272.384 1.5504 -4.34466 0
M  V30 2862 H 270.627 1.39242 -4.10846 0
M  V30 2863 H 271.298 2.92169 -4.68339 0
M  V30 2864 H 273.774 3.1089 -2.76563 0
M  V30 2865 H 272.65 4.38286 -3.3045 0
M  V30 2866 H 272.911 4.12655 -1.58646 0
M  V30 2867 N 271.97 1.30982 0.876444 0
M  V30 2868 C 272.9 1.20668 1.99903 0
M  V30 2869 C 273.881 0.095354 1.69833 0
M  V30 2870 O 275.066 0.27885 1.92188 0
M  V30 2871 C 272.196 0.90655 3.3526 0
M  V30 2872 C 271.15 1.97675 3.79617 0
M  V30 2873 C 270.476 1.52943 5.1236 0
M  V30 2874 C 271.776 3.389 3.97422 0
M  V30 2875 H 273.47 2.14586 2.0879 0
M  V30 2876 H 271.016 1.03308 1.00317 0
M  V30 2877 H 272.969 0.821025 4.13324 0
M  V30 2878 H 271.693 -0.0682969 3.26529 0
M  V30 2879 H 270.352 2.05205 3.03787 0
M  V30 2880 H 270 0.54262 5.00065 0
M  V30 2881 H 269.7 2.24532 5.43009 0
M  V30 2882 H 271.224 1.45786 5.92941 0
M  V30 2883 H 272.638 3.34081 4.659 0
M  V30 2884 H 271.035 4.0865 4.3946 0
M  V30 2885 H 272.105 3.80163 3.01006 0
M  V30 2886 N 273.449 -1.08991 1.13837 0
M  V30 2887 C 274.381 -2.15606 0.777612 0
M  V30 2888 C 275.394 -1.61533 -0.202739 0
M  V30 2889 O 276.583 -1.78491 0.0181055 0
M  V30 2890 C 273.683 -3.3864 0.132623 0
M  V30 2891 C 272.856 -4.22115 1.1462 0
M  V30 2892 C 271.915 -5.23564 0.526074 0
M  V30 2893 O 270.941 -5.56678 1.18735 0
M  V30 2894 N 272.143 -5.76266 -0.699866 0
M  V30 2895 H 274.908 -2.47159 1.69506 0
M  V30 2896 H 272.469 -1.24747 1.03198 0
M  V30 2897 H 274.461 -4.03626 -0.29459 0
M  V30 2898 H 273.031 -3.04938 -0.687849 0
M  V30 2899 H 272.251 -3.53199 1.75055 0
M  V30 2900 H 273.539 -4.74709 1.83109 0
M  V30 2901 H 272.937 -5.51585 -1.25581 0
M  V30 2902 H 271.494 -6.42963 -1.06968 0
M  V30 2903 N 274.927 -0.932562 -1.27047 0
M  V30 2904 C 276.173 -0.585913 -1.94778 0
M  V30 2905 C 276.528 0.864142 -1.71902 0
M  V30 2906 O 275.821 1.60894 -1.04037 0
M  V30 2907 C 276.015 -0.853713 -3.47054 0
M  V30 2908 C 275.844 -2.32825 -3.84737 0
M  V30 2909 C 274.614 -2.98184 -4.07939 0
M  V30 2910 C 276.812 -3.30612 -3.93954 0
M  V30 2911 N 274.794 -4.3574 -4.3244 0
M  V30 2912 C 276.165 -4.53395 -4.22887 0
M  V30 2913 C 278.22 -3.25755 -3.76548 0
M  V30 2914 C 276.923 -5.71927 -4.36224 0
M  V30 2915 C 278.949 -4.43604 -3.91113 0
M  V30 2916 C 278.311 -5.65166 -4.20437 0
M  V30 2917 H 274.41 -0.264617 -0.735868 0
M  V30 2918 H 276.994 -1.20019 -1.53309 0
M  V30 2919 H 275.165 -0.268557 -3.8747 0
M  V30 2920 H 276.897 -0.469202 -4.01971 0
M  V30 2921 H 273.652 -2.48835 -4.02961 0
M  V30 2922 H 274.076 -5.06915 -4.48738 0
M  V30 2923 H 278.718 -2.32835 -3.52913 0
M  V30 2924 H 276.436 -6.65308 -4.58683 0
M  V30 2925 H 280.022 -4.41368 -3.79059 0
M  V30 2926 H 278.902 -6.54836 -4.31462 0
M  V30 2927 N 276.405 1.4127 -0.698611 0
M  V30 2928 C 277.645 2.03044 -0.235062 0
M  V30 2929 C 278.009 1.54146 1.14468 0
M  V30 2930 O 279.21 2.07867 1.70425 0
M  V30 2931 C 277.481 3.56192 -0.293651 0
M  V30 2932 S 279.04 4.38696 0.0954053 0
M  V30 2933 H 275.858 0.704697 -0.0944648 0
M  V30 2934 H 278.46 1.72656 -0.917064 0
M  V30 2935 H 277.164 3.89274 -1.29977 0
M  V30 2936 H 276.695 3.91285 0.407397 0
M  V30 2937 H 278.71 4.78257 1.3223 0
M  V30 2938 N 277.883 0.443576 1.51229 0
M  V30 2939 C 278.846 -0.353132 2.26463 0
M  V30 2940 C 279.846 -0.944338 1.3015 0
M  V30 2941 O 281.036 -0.817813 1.5381 0
M  V30 2942 C 278.168 -1.50023 3.06114 0
M  V30 2943 H 279.361 0.3063 2.98332 0
M  V30 2944 H 276.914 0.196902 1.55055 0
M  V30 2945 H 277.649 -2.19553 2.38677 0
M  V30 2946 H 277.434 -1.08241 3.76864 0
M  V30 2947 H 278.924 -2.06296 3.63087 0
M  V30 2948 N 279.361 -1.56624 0.175154 0
M  V30 2949 C 280.61 -1.96173 -0.468921 0
M  V30 2950 C 280.923 -1.06401 -1.64128 0
M  V30 2951 O 282.129 -1.35648 -2.35185 0
M  V30 2952 C 280.585 -3.48833 -0.885633 0
M  V30 2953 C 280.193 -4.47237 0.261343 0
M  V30 2954 C 281.937 -3.97194 -1.49791 0
M  V30 2955 C 279.844 -5.9114 -0.175214 0
M  V30 2956 H 278.774 -0.732455 -0.178958 0
M  V30 2957 H 281.425 -1.81591 0.263997 0
M  V30 2958 H 279.807 -3.58848 -1.67464 0
M  V30 2959 H 280.981 -4.4894 1.03871 0
M  V30 2960 H 279.296 -4.08956 0.783827 0
M  V30 2961 H 281.893 -5.02167 -1.83665 0
M  V30 2962 H 282.236 -3.40351 -2.39722 0
M  V30 2963 H 282.769 -3.90212 -0.773267 0
M  V30 2964 H 279.508 -6.51865 0.689414 0
M  V30 2965 H 279.028 -5.92735 -0.91786 0
M  V30 2966 H 280.707 -6.44044 -0.617792 0
M  V30 2967 N 280.839 0.0985539 -1.57292 0
M  V30 2968 C 282.087 0.801092 -1.85545 0
M  V30 2969 C 282.408 1.79438 -0.763353 0
M  V30 2970 O 281.678 1.94763 0.21073 0
M  V30 2971 H 280.258 0.29884 -0.684619 0
M  V30 2972 H 282.92 0.0810064 -1.94732 0
M  V30 2973 H 282.016 1.3338 -2.82163 0
M  V30 2974 N 282.317 1.53212 0.369288 0
M  V30 2975 C 283.264 1.79388 1.45219 0
M  V30 2976 C 284.234 0.638059 1.53356 0
M  V30 2977 O 285.419 0.879852 1.69302 0
M  V30 2978 C 282.559 1.98623 2.82211 0
M  V30 2979 C 281.672 3.26337 2.8307 0
M  V30 2980 C 280.807 3.35779 4.11614 0
M  V30 2981 C 279.846 4.5754 4.06601 0
M  V30 2982 N 278.983 4.64155 5.26787 0
M  V30 2983 H 283.823 2.71794 1.22198 0
M  V30 2984 H 281.36 1.34642 0.592444 0
M  V30 2985 H 283.318 2.07761 3.61789 0
M  V30 2986 H 281.948 1.09558 3.03639 0
M  V30 2987 H 281 3.26171 1.95747 0
M  V30 2988 H 282.312 4.15988 2.75237 0
M  V30 2989 H 281.466 3.44208 4.99606 0
M  V30 2990 H 280.205 2.44137 4.22195 0
M  V30 2991 H 279.21 4.49215 3.16996 0
M  V30 2992 H 280.435 5.50519 3.97625 0
M  V30 2993 H 278.381 3.75413 5.3796 0
M  V30 2994 H 278.298 5.47706 5.21109 0
M  V30 2995 H 279.566 4.76863 6.16621 0
M  V30 2996 N 283.795 -0.628877 1.44509 0
M  V30 2997 C 285.023 -1.41554 1.50897 0
M  V30 2998 C 285.438 -1.8832 0.134564 0
M  V30 2999 O 284.795 -1.60969 -0.859965 0
M  V30 3000 C 284.846 -2.63435 2.47556 0
M  V30 3001 O 284.567 -2.18619 3.79654 0
M  V30 3002 C 286.068 -3.56537 2.63431 0
M  V30 3003 H 283.288 -0.434044 0.511709 0
M  V30 3004 H 285.832 -0.768895 1.89495 0
M  V30 3005 H 283.987 -3.24187 2.12089 0
M  V30 3006 H 284.401 -2.97652 4.31861 0
M  V30 3007 H 285.875 -4.38657 3.35088 0
M  V30 3008 H 286.352 -4.05493 1.68738 0
M  V30 3009 H 286.958 -3.01653 2.9981 0
M  V30 3010 N 285.273 -1.31445 -0.869486 0
M  V30 3011 C 286.498 -1.24256 -1.66058 0
M  V30 3012 C 286.923 0.188928 -1.87149 0
M  V30 3013 O 286.281 1.13522 -1.4136 0
M  V30 3014 C 286.329 -1.9924 -3.00559 0
M  V30 3015 O 285.433 -1.33007 -3.90362 0
M  V30 3016 H 284.774 -0.428973 -0.506831 0
M  V30 3017 H 287.304 -1.73521 -1.08404 0
M  V30 3018 H 287.314 -2.08854 -3.50491 0
M  V30 3019 H 285.989 -3.03342 -2.84528 0
M  V30 3020 H 284.566 -1.31848 -3.48813 0
M  V30 3021 N 286.751 1.08385 -1.14413 0
M  V30 3022 C 287.997 1.81212 -0.923793 0
M  V30 3023 C 288.352 1.84555 0.543814 0
M  V30 3024 O 287.645 1.31056 1.39767 0
M  V30 3025 C 287.839 3.26273 -1.45879 0
M  V30 3026 C 287.668 3.37063 -2.97689 0
M  V30 3027 C 286.438 3.4824 -3.66138 0
M  V30 3028 C 288.636 3.28698 -3.95553 0
M  V30 3029 N 286.618 3.47824 -5.05858 0
M  V30 3030 C 287.989 3.35276 -5.21527 0
M  V30 3031 C 290.044 3.12437 -3.8767 0
M  V30 3032 C 288.747 3.27267 -6.40538 0
M  V30 3033 C 290.773 3.05757 -5.06228 0
M  V30 3034 C 290.135 3.12938 -6.3107 0
M  V30 3035 H 286.234 0.6769 -0.391574 0
M  V30 3036 H 288.818 1.29455 -1.45429 0
M  V30 3037 H 286.989 3.76474 -0.95507 0
M  V30 3038 H 288.721 3.87165 -1.17835 0
M  V30 3039 H 285.476 3.52141 -3.16692 0
M  V30 3040 H 285.9 3.51171 -5.78798 0
M  V30 3041 H 290.542 3.05747 -2.92025 0
M  V30 3042 H 288.26 3.32718 -7.36427 0
M  V30 3043 H 291.846 2.94295 -5.01878 0
M  V30 3044 H 290.726 3.078 -7.21269 0
M  V30 3045 N 288.23 0.939286 1.26551 0
M  V30 3046 C 289.14 0.453432 2.30176 0
M  V30 3047 C 290.156 -0.471649 1.67486 0
M  V30 3048 O 291.332 -0.35164 1.98306 0
M  V30 3049 C 288.397 -0.275326 3.45605 0
M  V30 3050 C 287.458 0.686084 4.23782 0
M  V30 3051 C 286.691 -0.00798994 5.33699 0
M  V30 3052 O 286.914 -1.22528 5.57085 0
M  V30 3053 O 285.848 0.669746 5.98162 0
M  V30 3054 H 289.674 1.31416 2.73795 0
M  V30 3055 H 287.259 0.705095 1.31715 0
M  V30 3056 H 289.141 -0.685911 4.1578 0
M  V30 3057 H 287.816 -1.11147 3.0402 0
M  V30 3058 H 286.723 1.14658 3.56096 0
M  V30 3059 H 288.056 1.48979 4.69112 0
M  V30 3060 N 289.708 -1.40897 0.706093 0
M  V30 3061 C 290.957 -2.00284 0.238574 0
M  V30 3062 C 291.27 -1.56604 -1.17194 0
M  V30 3063 O 292.476 -2.08624 -1.73748 0
M  V30 3064 C 290.932 -3.57934 0.375623 0
M  V30 3065 C 290.54 -4.10591 1.79217 0
M  V30 3066 C 292.284 -4.24488 -0.0315857 0
M  V30 3067 C 290.191 -5.60712 1.88032 0
M  V30 3068 H 289.121 -0.749144 0.0854398 0
M  V30 3069 H 291.772 -1.61251 0.875813 0
M  V30 3070 H 290.154 -3.94622 -0.330042 0
M  V30 3071 H 291.328 -3.85301 2.52745 0
M  V30 3072 H 289.643 -3.56601 2.15 0
M  V30 3073 H 292.24 -5.34698 0.0136842 0
M  V30 3074 H 292.583 -4.02261 -1.072 0
M  V30 3075 H 293.116 -3.92873 0.624181 0
M  V30 3076 H 289.855 -5.87781 2.90161 0
M  V30 3077 H 289.375 -5.87896 1.18903 0
M  V30 3078 H 291.054 -6.25658 1.64805 0
M  V30 3079 N 291.186 -0.45159 -1.50991 0
M  V30 3080 C 292.411 0.110667 -2.07105 0
M  V30 3081 C 292.836 1.3446 -1.31538 0
M  V30 3082 O 292.194 1.77743 -0.357365 0
M  V30 3083 C 292.242 0.397238 -3.58405 0
M  V30 3084 O 291.346 1.48124 -3.84881 0
M  V30 3085 H 290.687 -0.00439271 -0.663985 0
M  V30 3086 H 293.217 -0.637026 -1.9443 0
M  V30 3087 H 293.227 0.64351 -4.02893 0
M  V30 3088 H 291.902 -0.504553 -4.12828 0
M  V30 3089 H 290.479 1.22381 -3.52246 0
M  V30 3090 N 292.664 1.56529 -0.183458 0
M  V30 3091 C 293.91 1.97537 0.459036 0
M  V30 3092 C 294.243 1.06989 1.62071 0
M  V30 3093 O 293.518 0.11948 1.94133 0
M  V30 3094 C 293.801 3.47874 0.930368 0
M  V30 3095 C 293.654 4.492 -0.232317 0
M  V30 3096 C 294.973 4.01612 1.79989 0
M  V30 3097 H 292.092 0.718204 0.165383 0
M  V30 3098 H 294.734 1.88042 -0.272038 0
M  V30 3099 H 292.884 3.56095 1.55333 0
M  V30 3100 H 294.556 4.53027 -0.86972 0
M  V30 3101 H 292.799 4.24657 -0.885928 0
M  V30 3102 H 293.47 5.51823 0.139796 0
M  V30 3103 H 295.946 3.96097 1.27461 0
M  V30 3104 H 294.822 5.07195 2.09867 0
M  V30 3105 H 295.083 3.46163 2.74998 0
M  V30 3106 N 294.142 -0.090211 1.57342 0
M  V30 3107 C 295.391 -0.791531 1.8552 0
M  V30 3108 C 295.704 -1.79659 0.773441 0
M  V30 3109 O 296.91 -2.54616 0.942497 0
M  V30 3110 C 295.366 -1.45856 3.2902 0
M  V30 3111 C 294.974 -0.493017 4.45279 0
M  V30 3112 C 296.718 -2.14332 3.66418 0
M  V30 3113 C 294.625 -1.16491 5.79814 0
M  V30 3114 H 293.555 -0.299356 0.692027 0
M  V30 3115 H 296.206 -0.0445343 1.83446 0
M  V30 3116 H 294.588 -2.25318 3.2565 0
M  V30 3117 H 295.762 0.270464 4.60006 0
M  V30 3118 H 294.077 0.0863061 4.16311 0
M  V30 3119 H 296.674 -2.65344 4.64216 0
M  V30 3120 H 297.017 -2.93447 2.95287 0
M  V30 3121 H 297.55 -1.41724 3.71698 0
M  V30 3122 H 294.289 -0.41447 6.54188 0
M  V30 3123 H 293.809 -1.8997 5.68921 0
M  V30 3124 H 295.488 -1.69001 6.24538 0
M  V30 3125 N 295.62 -1.53406 -0.361157 0
M  V30 3126 C 296.86 -1.71507 -1.11197 0
M  V30 3127 C 297.224 -0.459337 -1.86425 0
M  V30 3128 O 298.425 -0.517102 -2.63779 0
M  V30 3129 C 296.696 -2.93307 -2.0422 0
M  V30 3130 S 298.255 -3.32135 -2.86761 0
M  V30 3131 H 295.073 -0.603448 -0.375995 0
M  V30 3132 H 297.675 -1.91516 -0.392642 0
M  V30 3133 H 296.379 -3.82891 -1.47724 0
M  V30 3134 H 295.91 -2.75712 -2.80618 0
M  V30 3135 H 297.925 -2.84493 -4.06544 0
M  V30 3136 N 297.098 0.621204 -1.44841 0
M  V30 3137 C 298.046 1.75385 -1.52784 0
M  V30 3138 C 299.04 1.64639 -0.398779 0
M  V30 3139 O 300.246 1.70598 -0.574137 0
M  V30 3140 H 296.621 0.579193 -0.479625 0
M  V30 3141 H 298.592 1.6581 -2.48092 0
M  V30 3142 C 297.341 3.13742 -1.4987 0
M  V30 3143 H 296.664 3.22663 -2.36069 0
M  V30 3144 H 298.104 3.92861 -1.59487 0
M  V30 3145 C 296.563 3.36175 -0.220973 0
M  V30 3146 O 297.093 3.95469 0.704782 0
M  V30 3147 N 295.299 2.90348 -0.120963 0
M  V30 3148 H 294.846 2.42278 -0.875162 0
M  V30 3149 H 294.804 3.05732 0.733168 0
M  V30 3150 N 298.576 1.31904 0.862503 0
M  V30 3151 C 299.816 1.23324 1.63004 0
M  V30 3152 C 300.18 -0.203724 1.90916 0
M  V30 3153 O 301.381 -0.413132 2.65606 0
M  V30 3154 C 299.652 2.06116 2.91978 0
M  V30 3155 S 301.211 2.14478 3.82812 0
M  V30 3156 H 298.029 0.439117 0.559193 0
M  V30 3157 H 300.631 1.66658 1.02202 0
M  V30 3158 H 299.335 3.09593 2.69407 0
M  V30 3159 H 298.866 1.6353 3.57801 0
M  V30 3160 H 300.881 1.28855 4.79177 0
M  V30 3161 N 300.054 -1.07777 1.14986 0
M  V30 3162 C 301.279 -1.84558 0.946213 0
M  V30 3163 C 301.704 -1.81323 -0.500362 0
M  V30 3164 O 301.062 -1.20301 -1.35637 0
M  V30 3165 C 301.11 -3.29736 1.45968 0
M  V30 3166 O 300.214 -4.07149 0.65601 0
M  V30 3167 H 299.555 -0.571641 0.33782 0
M  V30 3168 H 302.085 -1.35991 1.52865 0
M  V30 3169 H 302.095 -3.80574 1.47063 0
M  V30 3170 H 300.77 -3.31406 2.51283 0
M  V30 3171 H 299.347 -3.65994 0.714322 0
M  V30 3172 N 301.532 -0.945985 -1.26051 0
M  V30 3173 C 302.442 -0.465633 -2.29933 0
M  V30 3174 C 303.458 0.462761 -1.67733 0
M  V30 3175 O 304.634 0.341118 -1.9849 0
M  V30 3176 C 301.699 0.256994 -3.45746 0
M  V30 3177 C 300.76 -0.708549 -4.23412 0
M  V30 3178 C 299.993 -0.0203135 -5.33696 0
M  V30 3179 O 300.216 1.19571 -5.57726 0
M  V30 3180 O 299.15 -0.701459 -5.97799 0
M  V30 3181 H 302.976 -1.32866 -2.73094 0
M  V30 3182 H 300.561 -0.712071 -1.31339 0
M  V30 3183 H 302.443 0.663852 -4.16138 0
M  V30 3184 H 301.118 1.09533 -3.04605 0
M  V30 3185 H 300.025 -1.16545 -3.55483 0
M  V30 3186 H 301.358 -1.51465 -4.68315 0
M  V30 3187 N 303.011 1.40521 -0.713556 0
M  V30 3188 C 303.974 2.29098 -0.0684347 0
M  V30 3189 C 304.974 1.45268 0.689472 0
M  V30 3190 O 306.164 1.66205 0.521677 0
M  V30 3191 C 303.296 3.28446 0.913024 0
M  V30 3192 H 304.489 2.87645 -0.84855 0
M  V30 3193 H 302.042 1.48809 -0.47809 0
M  V30 3194 H 302.777 2.74913 1.72027 0
M  V30 3195 H 302.562 3.90327 0.372472 0
M  V30 3196 H 304.052 3.94777 1.36165 0
M  V30 3197 N 304.489 0.459591 1.5075 0
M  V30 3198 C 305.437 -0.354678 2.2988 0
M  V30 3199 C 306.431 -1.00086 1.36672 0
M  V30 3200 O 307.637 -0.933277 1.53915 0
M  V30 3201 H 304.012 -0.13321 0.740107 0
M  V30 3202 H 305.983 0.333269 2.96533 0
M  V30 3203 C 304.732 -1.43073 3.169 0
M  V30 3204 H 304.055 -0.942882 3.88523 0
M  V30 3205 H 305.495 -1.97328 3.75284 0
M  V30 3206 C 303.954 -2.42633 2.33732 0
M  V30 3207 O 304.484 -3.47658 2.01238 0
M  V30 3208 N 302.69 -2.14066 1.9653 0
M  V30 3209 H 302.237 -1.28685 2.23155 0
M  V30 3210 H 302.195 -2.80917 1.41185 0
M  V30 3211 N 305.967 -1.56429 0.191757 0
M  V30 3212 C 307.213 -1.97777 -0.448554 0
M  V30 3213 C 307.546 -1.07847 -1.61501 0
M  V30 3214 O 306.821 -0.129774 -1.94067 0
M  V30 3215 C 307.104 -3.48362 -0.911906 0
M  V30 3216 C 306.957 -4.4907 0.256136 0
M  V30 3217 C 308.276 -4.02561 -1.77857 0
M  V30 3218 H 305.395 -0.719071 -0.161572 0
M  V30 3219 H 308.037 -1.87896 0.282007 0
M  V30 3220 H 306.187 -3.56914 -1.53442 0
M  V30 3221 H 307.859 -4.5256 0.893733 0
M  V30 3222 H 306.102 -4.24181 0.908436 0
M  V30 3223 H 306.773 -5.51889 -0.11053 0
M  V30 3224 H 309.249 -3.96767 -1.25359 0
M  V30 3225 H 308.125 -5.08301 -2.07174 0
M  V30 3226 H 308.386 -3.47616 -2.73158 0
M  V30 3227 N 307.445 0.0818655 -1.57387 0
M  V30 3228 C 308.393 1.11712 -2.04018 0
M  V30 3229 C 309.387 1.40683 -0.94364 0
M  V30 3230 O 310.593 1.40209 -1.12878 0
M  V30 3231 H 306.968 0.377542 -0.650358 0
M  V30 3232 H 308.939 0.697614 -2.90131 0
M  V30 3233 C 307.688 2.42537 -2.49141 0
M  V30 3234 H 307.011 2.21092 -3.33104 0
M  V30 3235 H 308.451 3.13446 -2.85531 0
M  V30 3236 C 306.91 3.0778 -1.37014 0
M  V30 3237 O 307.44 3.95436 -0.706621 0
M  V30 3238 N 305.646 2.68242 -1.11779 0
M  V30 3239 H 305.193 1.97052 -1.65917 0
M  V30 3240 H 305.151 3.1222 -0.369594 0
M  V30 3241 N 308.923 1.53595 0.353017 0
M  V30 3242 C 310.17 1.70385 1.09431 0
M  V30 3243 C 310.498 0.462113 1.88931 0
M  V30 3244 O 309.753 -0.556074 1.87633 0
M  V30 3245 C 310.052 2.91313 2.07054 0
M  V30 3246 C 309.718 4.27308 1.43939 0
M  V30 3247 C 308.38 4.64287 1.26454 0
M  V30 3248 C 310.732 5.11829 0.983883 0
M  V30 3249 C 308.06 5.83412 0.620226 0
M  V30 3250 C 310.412 6.31611 0.353516 0
M  V30 3251 C 309.076 6.67293 0.166272 0
M  V30 3252 H 308.346 0.623484 0.400436 0
M  V30 3253 H 310.993 1.87799 0.374655 0
M  V30 3254 H 309.298 2.68463 2.85368 0
M  V30 3255 H 310.995 3.01497 2.64387 0
M  V30 3256 H 307.585 3.98198 1.58543 0
M  V30 3257 H 311.769 4.838 1.10685 0
M  V30 3258 H 307.025 6.09639 0.463681 0
M  V30 3259 H 311.199 6.964 -0.00757555 0
M  V30 3260 H 308.826 7.59461 -0.335047 0
M  V30 3261 N 310.401 -0.613514 1.45168 0
M  V30 3262 C 311.351 -1.71871 1.49815 0
M  V30 3263 C 312.335 -1.56774 0.362021 0
M  V30 3264 O 313.527 -1.66212 0.608493 0
M  V30 3265 C 310.656 -3.1061 1.46207 0
M  V30 3266 C 309.742 -3.31114 2.64999 0
M  V30 3267 N 310.133 -3.21904 3.90143 0
M  V30 3268 C 308.431 -3.61966 2.6057 0
M  V30 3269 C 309.132 -3.43577 4.69393 0
M  V30 3270 N 308.108 -3.67287 4.00751 0
M  V30 3271 H 311.91 -1.63235 2.444 0
M  V30 3272 H 309.424 -0.816577 1.40377 0
M  V30 3273 H 311.421 -3.8989 1.4762 0
M  V30 3274 H 310.081 -3.20399 0.52673 0
M  V30 3275 H 311.092 -3.00436 4.21852 0
M  V30 3276 H 307.769 -3.78629 1.75916 0
M  V30 3277 H 309.159 -3.41901 5.78406 0
M  V30 3278 N 311.879 -1.3236 -0.855495 0
M  V30 3279 C 312.812 -1.15559 -1.96777 0
M  V30 3280 C 313.79 -0.0552681 -1.62506 0
M  V30 3281 O 314.974 -0.214419 -1.87277 0
M  V30 3282 C 312.101 -0.768851 -3.29858 0
M  V30 3283 C 311.147 -1.87429 -3.83109 0
M  V30 3284 S 311.98 -3.48243 -4.06801 0
M  V30 3285 C 313.136 -3.11539 -5.42858 0
M  V30 3286 H 313.369 -2.09717 -2.10727 0
M  V30 3287 H 310.902 -1.17011 -1.00737 0
M  V30 3288 H 312.86 -0.55248 -4.06765 0
M  V30 3289 H 311.521 0.153857 -3.13723 0
M  V30 3290 H 310.714 -1.55667 -4.79358 0
M  V30 3291 H 310.316 -2.04647 -3.13042 0
M  V30 3292 H 312.608 -2.61331 -6.2507 0
M  V30 3293 H 313.551 -4.06806 -5.79582 0
M  V30 3294 H 313.959 -2.48582 -5.06821 0
M  V30 3295 N 313.357 1.07166 -1.15556 0
M  V30 3296 C 314.605 1.79443 -0.929764 0
M  V30 3297 C 314.926 1.87246 0.544414 0
M  V30 3298 O 314.196 1.37473 1.39564 0
M  V30 3299 H 312.776 0.664625 -0.341003 0
M  V30 3300 H 315.438 1.29499 -1.45657 0
M  V30 3301 H 314.534 2.81832 -1.34079 0
M  V30 3302 N 314.835 0.952656 1.25548 0
M  V30 3303 C 315.783 0.462354 2.27958 0
M  V30 3304 C 316.777 -0.46634 1.62855 0
M  V30 3305 O 317.983 -0.343287 1.76696 0
M  V30 3306 H 314.358 0.13101 0.7405 0
M  V30 3307 H 316.329 1.33839 2.66702 0
M  V30 3308 C 315.078 -0.24628 3.46827 0
M  V30 3309 H 314.401 0.459192 3.97154 0
M  V30 3310 H 315.841 -0.553393 4.20373 0
M  V30 3311 C 314.3 -1.4681 3.0323 0
M  V30 3312 O 314.83 -2.56591 3.09069 0
M  V30 3313 N 313.036 -1.32874 2.58443 0
M  V30 3314 H 312.583 -0.435536 2.53891 0
M  V30 3315 H 312.541 -2.14742 2.29637 0
M  V30 3316 N 316.313 -1.40141 0.720998 0
M  V30 3317 C 317.562 -2.0002 0.259804 0
M  V30 3318 C 317.875 -1.57839 -1.15526 0
M  V30 3319 O 319.081 -2.10455 -1.71525 0
M  V30 3320 C 317.537 -3.57516 0.413566 0
M  V30 3321 C 317.145 -4.08667 1.83562 0
M  V30 3322 C 318.889 -4.24498 0.0134387 0
M  V30 3323 C 316.796 -5.58686 1.93968 0
M  V30 3324 H 315.726 -0.748195 0.0933806 0
M  V30 3325 H 318.377 -1.60313 0.892866 0
M  V30 3326 H 316.759 -3.9495 -0.288169 0
M  V30 3327 H 317.933 -3.82598 2.56817 0
M  V30 3328 H 316.248 -3.543 2.1877 0
M  V30 3329 H 318.845 -5.34654 0.0703954 0
M  V30 3330 H 319.188 -4.03375 -1.02927 0
M  V30 3331 H 319.721 -3.92188 0.665815 0
M  V30 3332 H 316.46 -5.8467 2.96379 0
M  V30 3333 H 315.98 -5.86602 1.25131 0
M  V30 3334 H 317.659 -6.23875 1.71431 0
M  V30 3335 N 317.792 -0.46758 -1.50504 0
M  V30 3336 C 319.208 -0.121533 -1.59137 0
M  V30 3337 C 319.408 1.3717 -1.47603 0
M  V30 3338 O 318.464 2.14464 -1.33272 0
M  V30 3339 C 319.777 -0.6686 -2.93173 0
M  V30 3340 C 321.325 -0.631716 -3.06559 0
M  V30 3341 C 321.8 -1.15627 -4.43164 0
M  V30 3342 N 323.291 -1.11553 -4.49567 0
M  V30 3343 C 324.026 -1.49195 -5.5365 0
M  V30 3344 N 323.522 -1.94269 -6.65005 0
M  V30 3345 N 325.315 -1.4082 -5.44175 0
M  V30 3346 H 317.466 -1.4388 -1.56245 0
M  V30 3347 H 319.729 -0.594784 -0.738198 0
M  V30 3348 H 319.435 -1.71453 -3.07078 0
M  V30 3349 H 319.309 -0.11021 -3.77039 0
M  V30 3350 H 321.696 0.405297 -2.92304 0
M  V30 3351 H 321.777 -1.22687 -2.24458 0
M  V30 3352 H 321.421 -2.1919 -4.58168 0
M  V30 3353 H 321.351 -0.537365 -5.23851 0
M  V30 3354 H 323.842 -0.784895 -3.69659 0
M  V30 3355 H 324.155 -2.21148 -7.40482 0
M  V30 3356 H 322.5 -1.98219 -6.66134 0
M  V30 3357 H 325.691 -1.0545 -4.56068 0
M  V30 3358 H 325.864 -1.70481 -6.25172 0
M  V30 3359 N 319.27 1.56325 -0.20005 0
M  V30 3360 C 320.686 1.58839 0.155716 0
M  V30 3361 C 320.886 1.21636 1.60645 0
M  V30 3362 O 319.942 0.941437 2.34293 0
M  V30 3363 C 321.255 3.0032 -0.151124 0
M  V30 3364 C 322.803 3.12866 -0.0916284 0
M  V30 3365 C 323.278 4.56488 -0.371845 0
M  V30 3366 N 324.769 4.62089 -0.320641 0
M  V30 3367 C 325.504 5.71116 -0.511243 0
M  V30 3368 N 325 6.88592 -0.762461 0
M  V30 3369 N 326.793 5.60335 -0.445157 0
M  V30 3370 H 318.944 1.78788 -1.14668 0
M  V30 3371 H 321.207 0.829996 -0.458051 0
M  V30 3372 H 320.913 3.32117 -1.15721 0
M  V30 3373 H 320.787 3.73257 0.543986 0
M  V30 3374 H 323.174 2.80878 0.905065 0
M  V30 3375 H 323.255 2.42304 -0.81989 0
M  V30 3376 H 322.899 4.89189 -1.36588 0
M  V30 3377 H 322.829 5.25246 0.377362 0
M  V30 3378 H 325.32 3.77665 -0.13329 0
M  V30 3379 H 325.633 7.67581 -0.896576 0
M  V30 3380 H 323.978 6.90387 -0.799412 0
M  V30 3381 H 327.169 4.67436 -0.249278 0
M  V30 3382 H 327.342 6.45243 -0.597116 0
M  V30 3383 N 320.748 -0.0735177 1.57428 0
M  V30 3384 C 321.695 -1.08756 2.0357 0
M  V30 3385 C 322.665 -1.38559 0.916 0
M  V30 3386 O 323.85 -1.49656 1.18354 0
M  V30 3387 C 320.99 -2.39657 2.48311 0
M  V30 3388 C 320.103 -2.16399 3.73892 0
M  V30 3389 C 319.238 -3.40852 4.07423 0
M  V30 3390 C 318.277 -3.1295 5.2605 0
M  V30 3391 N 317.414 -4.29729 5.55228 0
M  V30 3392 H 322.254 -0.687104 2.8997 0
M  V30 3393 H 319.791 -0.327709 1.43403 0
M  V30 3394 H 321.749 -3.16081 2.72303 0
M  V30 3395 H 320.379 -2.77508 1.64891 0
M  V30 3396 H 319.431 -1.30676 3.57251 0
M  V30 3397 H 320.743 -1.91788 4.60455 0
M  V30 3398 H 319.897 -4.25671 4.32306 0
M  V30 3399 H 318.636 -3.68537 3.19425 0
M  V30 3400 H 317.641 -2.26526 5.00965 0
M  V30 3401 H 318.866 -2.86589 6.15665 0
M  V30 3402 H 316.812 -4.57448 4.70188 0
M  V30 3403 H 316.729 -4.08385 6.36206 0
M  V30 3404 H 317.997 -5.1555 5.84661 0
M  V30 3405 N 322.226 -1.5378 -0.344866 0
M  V30 3406 C 323.473 -1.70963 -1.08526 0
M  V30 3407 C 323.801 -0.472126 -1.88683 0
M  V30 3408 O 323.056 0.546116 -1.87926 0
M  V30 3409 C 323.355 -2.92407 -2.05506 0
M  V30 3410 C 323.021 -4.28066 -1.41671 0
M  V30 3411 C 321.683 -4.64951 -1.2399 0
M  V30 3412 C 324.035 -5.12344 -0.956726 0
M  V30 3413 C 321.363 -5.83733 -0.589277 0
M  V30 3414 C 323.715 -6.3179 -0.320015 0
M  V30 3415 C 322.379 -6.67372 -0.130881 0
M  V30 3416 H 321.649 -0.625598 -0.397124 0
M  V30 3417 H 324.296 -1.87995 -0.36469 0
M  V30 3418 H 322.601 -2.69973 -2.8394 0
M  V30 3419 H 324.298 -3.02895 -2.62784 0
M  V30 3420 H 320.888 -3.99034 -1.56429 0
M  V30 3421 H 325.072 -4.8438 -1.08118 0
M  V30 3422 H 320.328 -6.09877 -0.431344 0
M  V30 3423 H 324.502 -6.96386 0.0445072 0
M  V30 3424 H 322.129 -7.59273 0.375318 0
M  V30 3425 N 323.704 0.605807 -1.45491 0
M  V30 3426 C 324.952 1.36207 -1.49305 0
M  V30 3427 C 325.273 1.94519 -0.136863 0
M  V30 3428 O 324.543 1.77261 0.833983 0
M  V30 3429 H 323.123 0.50565 -0.549843 0
M  V30 3430 H 325.785 0.711239 -1.81459 0
M  V30 3431 H 324.881 2.18058 -2.23287 0
M  V30 3432 N 325.182 1.32811 0.848464 0
M  V30 3433 C 326.428 1.23907 1.60546 0
M  V30 3434 C 326.761 -0.197161 1.93197 0
M  V30 3435 O 326.036 -1.13596 1.5788 0
M  V30 3436 C 326.319 2.10489 2.92175 0
M  V30 3437 C 326.172 3.62522 2.66266 0
M  V30 3438 C 327.491 1.97075 3.93509 0
M  V30 3439 H 324.61 0.451459 0.58254 0
M  V30 3440 H 327.252 1.62818 0.979296 0
M  V30 3441 H 325.402 1.77434 3.45614 0
M  V30 3442 H 327.074 4.05821 2.19334 0
M  V30 3443 H 325.317 3.84879 2.00126 0
M  V30 3444 H 325.988 4.18437 3.6002 0
M  V30 3445 H 328.464 2.26045 3.49346 0
M  V30 3446 H 327.34 2.59923 4.83457 0
M  V30 3447 H 327.601 0.940186 4.31987 0
M  V30 3448 N 326.66 -1.06551 1.16123 0
M  V30 3449 C 327.888 -1.83005 0.965237 0
M  V30 3450 C 328.303 -1.82423 -0.486542 0
M  V30 3451 O 327.66 -1.24152 -1.33763 0
M  V30 3452 C 327.711 -3.29733 1.48183 0
M  V30 3453 O 327.432 -3.30416 2.87674 0
M  V30 3454 C 328.933 -4.22926 1.32848 0
M  V30 3455 H 326.153 -0.577118 0.342309 0
M  V30 3456 H 328.697 -1.3445 1.54089 0
M  V30 3457 H 326.852 -3.75609 0.948517 0
M  V30 3458 H 327.266 -4.22149 3.11272 0
M  V30 3459 H 328.74 -5.23916 1.73827 0
M  V30 3460 H 329.217 -4.38346 0.273692 0
M  V30 3461 H 329.823 -3.82894 1.85127 0
M  V30 3462 N 328.138 -0.959301 -1.25041 0
M  V30 3463 C 329.363 -0.633507 -1.97488 0
M  V30 3464 C 329.788 0.788555 -1.70773 0
M  V30 3465 O 329.146 1.53394 -0.966431 0
M  V30 3466 C 329.194 -0.904057 -3.49083 0
M  V30 3467 O 328.298 0.0147939 -4.12397 0
M  V30 3468 H 327.639 -0.240368 -0.618966 0
M  V30 3469 H 330.169 -1.28717 -1.59038 0
M  V30 3470 H 330.179 -0.832203 -3.99423 0
M  V30 3471 H 328.854 -1.94048 -3.67856 0
M  V30 3472 H 327.431 -0.109664 -3.72739 0
M  V30 3473 N 329.616 1.39756 -0.72842 0
M  V30 3474 C 331.032 1.5442 -0.403308 0
M  V30 3475 C 331.232 1.69694 1.08656 0
M  V30 3476 O 330.288 1.69373 1.87267 0
M  V30 3477 C 331.601 2.76555 -1.18058 0
M  V30 3478 C 333.149 2.90384 -1.16815 0
M  V30 3479 C 333.624 4.15449 -1.92785 0
M  V30 3480 N 335.115 4.22475 -1.89918 0
M  V30 3481 C 335.85 5.1818 -2.45514 0
M  V30 3482 N 335.346 6.19714 -3.09719 0
M  V30 3483 N 337.139 5.1035 -2.35584 0
M  V30 3484 H 329.29 1.28089 -1.69431 0
M  V30 3485 H 331.553 0.620327 -0.716867 0
M  V30 3486 H 331.259 2.7159 -2.23455 0
M  V30 3487 H 331.133 3.69033 -0.780662 0
M  V30 3488 H 333.52 2.94846 -0.12234 0
M  V30 3489 H 333.601 1.98988 -1.6074 0
M  V30 3490 H 333.245 4.11749 -2.97364 0
M  V30 3491 H 333.175 5.05877 -1.46272 0
M  V30 3492 H 335.666 3.49743 -1.43138 0
M  V30 3493 H 335.979 6.8919 -3.49625 0
M  V30 3494 H 334.324 6.20121 -3.13807 0
M  V30 3495 H 337.515 4.2996 -1.85072 0
M  V30 3496 H 337.688 5.84761 -2.79211 0
M  V30 3497 N 331.094 0.475555 1.50254 0
M  V30 3498 C 332.51 0.12997 1.5907 0
M  V30 3499 C 332.71 -1.36385 1.48328 0
M  V30 3500 O 331.766 -2.13754 1.34407 0
M  V30 3501 C 333.079 0.684139 2.92814 0
M  V30 3502 C 334.627 0.647965 3.0622 0
M  V30 3503 C 335.102 1.17975 4.42545 0
M  V30 3504 N 336.593 1.13936 4.48969 0
M  V30 3505 C 337.328 1.52129 5.52851 0
M  V30 3506 N 336.824 1.97793 6.63965 0
M  V30 3507 N 338.617 1.43704 5.4342 0
M  V30 3508 H 330.768 1.44706 1.55479 0
M  V30 3509 H 333.031 0.598691 0.735033 0
M  V30 3510 H 332.737 1.73079 3.06164 0
M  V30 3511 H 332.611 0.130204 3.76975 0
M  V30 3512 H 334.998 -0.38979 2.92514 0
M  V30 3513 H 335.079 1.23876 2.23805 0
M  V30 3514 H 334.723 2.21616 4.57 0
M  V30 3515 H 334.653 0.565138 5.23559 0
M  V30 3516 H 337.144 0.804488 3.69238 0
M  V30 3517 H 337.457 2.25072 7.39299 0
M  V30 3518 H 335.802 2.01749 6.65073 0
M  V30 3519 H 338.993 1.07867 4.55502 0
M  V30 3520 H 339.166 1.73794 6.24259 0
M  V30 3521 N 332.573 -1.56217 0.208337 0
M  V30 3522 C 333.819 -1.98242 -0.427552 0
M  V30 3523 C 334.152 -1.09554 -1.60348 0
M  V30 3524 O 333.427 -0.15035 -1.93918 0
M  V30 3525 C 333.71 -3.4931 -0.874907 0
M  V30 3526 C 333.563 -4.48773 0.303751 0
M  V30 3527 C 334.882 -4.04424 -1.73577 0
M  V30 3528 H 332.001 -0.720744 -0.153936 0
M  V30 3529 H 334.643 -1.87586 0.30192 0
M  V30 3530 H 332.793 -3.58522 -1.49648 0
M  V30 3531 H 334.465 -4.51586 0.941682 0
M  V30 3532 H 332.708 -4.23194 0.953375 0
M  V30 3533 H 333.379 -5.51976 -0.0519883 0
M  V30 3534 H 335.855 -3.98075 -1.21143 0
M  V30 3535 H 334.731 -5.1047 -2.01771 0
M  V30 3536 H 334.992 -3.50494 -2.69456 0
M  V30 3537 N 334.051 0.0651679 -1.57465 0
M  V30 3538 C 335.014 1.06117 -2.03155 0
M  V30 3539 C 336.014 1.31204 -0.929632 0
M  V30 3540 O 337.204 1.26813 -1.19432 0
M  V30 3541 C 334.336 2.4032 -2.41783 0
M  V30 3542 H 335.529 0.667231 -2.92383 0
M  V30 3543 H 333.082 0.311075 -1.53173 0
M  V30 3544 H 333.817 2.84532 -1.55601 0
M  V30 3545 H 333.602 2.23451 -3.22199 0
M  V30 3546 H 335.092 3.11898 -2.77685 0
M  V30 3547 N 335.529 1.53961 0.336706 0
M  V30 3548 C 336.492 1.81724 1.39675 0
M  V30 3549 C 337.492 0.688532 1.45313 0
M  V30 3550 O 338.682 0.956829 1.45569 0
M  V30 3551 C 335.814 1.96543 2.78538 0
M  V30 3552 H 337.007 2.76424 1.16318 0
M  V30 3553 H 334.56 1.45478 0.571474 0
M  V30 3554 H 335.295 1.0401 3.07168 0
M  V30 3555 H 335.08 2.78665 2.75841 0
M  V30 3556 H 336.57 2.19516 3.5525 0
M  V30 3557 N 337.007 -0.598083 1.45811 0
M  V30 3558 C 338.256 -1.35295 1.49594 0
M  V30 3559 C 338.569 -1.95057 0.145679 0
M  V30 3560 O 339.775 -2.71431 0.0612099 0
M  V30 3561 C 338.231 -2.45124 2.63519 0
M  V30 3562 C 337.839 -1.91732 4.04899 0
M  V30 3563 C 339.583 -3.2205 2.76558 0
M  V30 3564 C 337.49 -2.991 5.1019 0
M  V30 3565 H 336.42 -0.508552 0.556679 0
M  V30 3566 H 339.071 -0.639977 1.71978 0
M  V30 3567 H 337.453 -3.19149 2.34435 0
M  V30 3568 H 338.627 -1.24352 4.43704 0
M  V30 3569 H 336.942 -1.27522 3.96393 0
M  V30 3570 H 339.539 -4.0215 3.52391 0
M  V30 3571 H 339.882 -3.73663 1.83526 0
M  V30 3572 H 340.415 -2.55127 3.05213 0
M  V30 3573 H 337.154 -2.52393 6.04961 0
M  V30 3574 H 336.674 -3.65017 4.75944 0
M  V30 3575 H 338.353 -3.63318 5.35359 0
M  V30 3576 N 338.485 -1.33259 -0.841409 0
M  V30 3577 C 339.418 -1.1764 -1.95541 0
M  V30 3578 C 340.396 -0.072501 -1.62438 0
M  V30 3579 O 341.58 -0.23427 -1.87039 0
M  V30 3580 C 338.707 -0.803794 -3.29024 0
M  V30 3581 C 337.753 -1.91482 -3.81099 0
M  V30 3582 S 338.586 -3.52538 -4.03085 0
M  V30 3583 C 339.742 -3.17279 -5.39523 0
M  V30 3584 H 339.975 -2.11941 -2.08491 0
M  V30 3585 H 337.508 -1.18072 -0.9949 0
M  V30 3586 H 339.466 -0.595592 -4.06156 0
M  V30 3587 H 338.127 0.120574 -3.13868 0
M  V30 3588 H 337.32 -1.60742 -4.7768 0
M  V30 3589 H 336.922 -2.07956 -3.10854 0
M  V30 3590 H 339.214 -2.67946 -6.22263 0
M  V30 3591 H 340.157 -4.1293 -5.75234 0
M  V30 3592 H 340.565 -2.53943 -5.04156 0
M  V30 3593 N 339.963 1.05934 -1.16686 0
M  V30 3594 C 340.926 2.11669 -0.879144 0
M  V30 3595 C 341.926 1.60294 0.127445 0
M  V30 3596 O 343.116 1.7389 -0.103865 0
M  V30 3597 C 340.248 3.39438 -0.315425 0
M  V30 3598 H 341.441 2.38626 -1.81653 0
M  V30 3599 H 338.994 1.22058 -0.976299 0
M  V30 3600 H 339.729 3.18132 0.629468 0
M  V30 3601 H 339.514 3.78034 -1.04079 0
M  V30 3602 H 341.004 4.17391 -0.132189 0
M  V30 3603 N 341.441 0.965919 1.2453 0
M  V30 3604 C 342.687 0.62776 1.92839 0
M  V30 3605 C 343.02 -0.834694 1.75347 0
M  V30 3606 O 342.295 -1.60031 1.10546 0
M  V30 3607 C 342.578 1.00109 3.45905 0
M  V30 3608 C 342.431 2.52011 3.72573 0
M  V30 3609 C 343.75 0.53435 4.36844 0
M  V30 3610 H 340.869 0.229537 0.700344 0
M  V30 3611 H 343.511 1.2046 1.46933 0
M  V30 3612 H 341.661 0.510238 3.85135 0
M  V30 3613 H 343.333 3.08559 3.42912 0
M  V30 3614 H 341.576 2.95287 3.17786 0
M  V30 3615 H 342.247 2.73183 4.79661 0
M  V30 3616 H 344.723 0.955565 4.04979 0
M  V30 3617 H 343.599 0.824152 5.42678 0
M  V30 3618 H 343.86 -0.565589 4.38467 0
M  V30 3619 N 342.919 -1.39368 0.735821 0
M  V30 3620 C 343.867 -2.32443 0.0855131 0
M  V30 3621 C 344.861 -1.53104 -0.724954 0
M  V30 3622 O 346.067 -1.68762 -0.626047 0
M  V30 3623 H 342.442 -0.751948 0.00885257 0
M  V30 3624 H 344.413 -2.84916 0.886883 0
M  V30 3625 C 343.162 -3.38206 -0.806983 0
M  V30 3626 H 342.485 -3.99335 -0.19274 0
M  V30 3627 H 343.925 -4.05779 -1.2296 0
M  V30 3628 C 342.384 -2.75321 -1.94165 0
M  V30 3629 O 342.914 -2.63231 -3.03435 0
M  V30 3630 N 341.12 -2.33396 -1.73132 0
M  V30 3631 H 340.667 -2.4343 -0.842596 0
M  V30 3632 H 340.625 -1.91661 -2.49225 0
M  V30 3633 N 344.397 -0.483516 -1.5 0
M  V30 3634 C 345.327 0.293829 -2.31644 0
M  V30 3635 C 346.308 0.978864 -1.39112 0
M  V30 3636 O 347.493 0.973644 -1.68029 0
M  V30 3637 C 344.623 1.36897 -3.19181 0
M  V30 3638 C 343.577 0.804833 -4.20365 0
M  V30 3639 C 342.903 1.9792 -4.96721 0
M  V30 3640 C 344.203 -0.192313 -5.21946 0
M  V30 3641 H 345.897 -0.387616 -2.9688 0
M  V30 3642 H 343.443 -0.187856 -1.42769 0
M  V30 3643 H 345.396 1.92037 -3.751 0
M  V30 3644 H 344.12 2.07936 -2.51853 0
M  V30 3645 H 342.779 0.275319 -3.65565 0
M  V30 3646 H 342.427 2.67686 -4.25856 0
M  V30 3647 H 342.127 1.60789 -5.65173 0
M  V30 3648 H 343.651 2.53526 -5.55479 0
M  V30 3649 H 345.065 0.270333 -5.72662 0
M  V30 3650 H 343.462 -0.478543 -5.98189 0
M  V30 3651 H 344.532 -1.11409 -4.71928 0
M  V30 3652 N 345.875 1.56104 -0.216619 0
M  V30 3653 C 347.123 1.97781 0.415593 0
M  V30 3654 C 347.444 1.10536 1.60645 0
M  V30 3655 O 346.714 0.181303 1.95059 0
M  V30 3656 H 345.294 0.730415 0.156534 0
M  V30 3657 H 347.956 1.92445 -0.308366 0
M  V30 3658 H 347.052 3.03072 0.74525 0
M  V30 3659 N 347.353 -0.0568162 1.57498 0
M  V30 3660 C 348.283 -1.06593 2.0775 0
M  V30 3661 C 349.264 -1.39448 0.974082 0
M  V30 3662 O 350.449 -1.48815 1.24771 0
M  V30 3663 C 347.579 -2.37509 2.5339 0
M  V30 3664 C 346.533 -2.1897 3.67745 0
M  V30 3665 C 345.859 -3.55402 3.99492 0
M  V30 3666 C 347.159 -1.59859 4.97235 0
M  V30 3667 H 348.853 -0.647706 2.9231 0
M  V30 3668 H 346.399 -0.310116 1.40621 0
M  V30 3669 H 348.352 -3.08409 2.87162 0
M  V30 3670 H 347.076 -2.8134 1.65878 0
M  V30 3671 H 345.735 -1.50508 3.3428 0
M  V30 3672 H 345.383 -3.9683 3.09088 0
M  V30 3673 H 345.083 -3.43831 4.76502 0
M  V30 3674 H 346.607 -4.27708 4.35773 0
M  V30 3675 H 348.021 -2.20642 5.29141 0
M  V30 3676 H 346.418 -1.58942 5.78669 0
M  V30 3677 H 347.488 -0.561506 4.81638 0
M  V30 3678 N 348.832 -1.54138 -0.328536 0
M  V30 3679 C 350.081 -1.71318 -1.06456 0
M  V30 3680 C 350.394 -0.491109 -1.89334 0
M  V30 3681 O 351.6 -0.54416 -2.65991 0
M  V30 3682 C 350.056 -3.03 -1.94214 0
M  V30 3683 C 349.664 -4.32595 -1.16471 0
M  V30 3684 C 351.408 -3.29544 -2.67583 0
M  V30 3685 C 349.315 -5.55341 -2.03347 0
M  V30 3686 H 348.245 -0.638429 -0.401155 0
M  V30 3687 H 350.896 -1.80633 -0.323106 0
M  V30 3688 H 349.278 -2.87579 -2.72239 0
M  V30 3689 H 350.452 -4.58766 -0.432525 0
M  V30 3690 H 348.767 -4.12777 -0.548063 0
M  V30 3691 H 351.364 -4.18444 -3.3288 0
M  V30 3692 H 351.707 -2.47206 -3.34955 0
M  V30 3693 H 352.24 -3.45809 -1.96623 0
M  V30 3694 H 348.979 -6.40268 -1.40491 0
M  V30 3695 H 348.499 -5.33397 -2.74313 0
M  V30 3696 H 350.178 -5.91557 -2.62049 0
M  V30 3697 N 350.31 0.590341 -1.46126 0
M  V30 3698 C 351.538 1.37504 -1.54597 0
M  V30 3699 C 351.953 1.87897 -0.184447 0
M  V30 3700 O 351.31 1.63192 0.816984 0
M  V30 3701 C 351.361 2.56779 -2.54454 0
M  V30 3702 O 351.082 2.08476 -3.85317 0
M  V30 3703 C 352.583 3.49427 -2.72792 0
M  V30 3704 H 349.803 0.420325 -0.523037 0
M  V30 3705 H 352.347 0.718383 -1.91467 0
M  V30 3706 H 350.502 3.1845 -2.20609 0
M  V30 3707 H 350.916 2.86097 -4.396 0
M  V30 3708 H 352.39 4.29619 -3.466 0
M  V30 3709 H 352.867 4.00876 -1.79429 0
M  V30 3710 H 353.473 2.93598 -3.07702 0
M  V30 3711 N 351.788 1.33704 0.83433 0
M  V30 3712 C 352.718 1.26967 1.95963 0
M  V30 3713 C 353.699 0.149337 1.69443 0
M  V30 3714 O 354.884 0.339852 1.91203 0
M  V30 3715 C 352.014 1.01275 3.32206 0
M  V30 3716 C 350.968 2.09652 3.73136 0
M  V30 3717 C 350.294 1.69166 5.07235 0
M  V30 3718 C 351.594 3.51372 3.86439 0
M  V30 3719 H 353.288 2.2112 2.01857 0
M  V30 3720 H 350.834 1.06447 0.969793 0
M  V30 3721 H 352.787 0.952106 4.10503 0
M  V30 3722 H 351.511 0.0356203 3.26581 0
M  V30 3723 H 350.17 2.14766 2.97104 0
M  V30 3724 H 349.818 0.701437 4.98085 0
M  V30 3725 H 349.518 2.41694 5.35591 0
M  V30 3726 H 351.042 1.64576 5.88003 0
M  V30 3727 H 352.456 3.48734 4.55036 0
M  V30 3728 H 350.853 4.22425 4.26236 0
M  V30 3729 H 351.923 3.89546 2.88759 0
M  V30 3730 O 353.305 -0.972346 1.28948 0
M  V30 3731 H 353.996 -1.59791 1.09484 0
M  V30 END ATOM
M  V30 BEGIN BOND
M  V30 END BOND
M  V30 END CTAB
M  END
$$$$
