drugbank_target|Q84CU3 ADP-ribose pyrophosphatase (DB02053; DB02059)
 OpenBabel12092120223D

  0  0  0     0  0            999 V3000
M  V30 BEGIN CTAB
M  V30 COUNTS 2701 2732 0 0 0
M  V30 BEGIN ATOM
M  V30 1 H -0.908 1.98254 -0.117106 0
M  V30 2 N 0 1.576 0 0
M  V30 3 C 0.933 2.03868 1.02534 0
M  V30 4 C 1.911 0.928543 1.3348 0
M  V30 5 O 3.095 1.19667 1.45644 0
M  V30 6 C 0.222 2.43627 2.35294 0
M  V30 7 C -0.732 3.65373 2.2001 0
M  V30 8 S 0.101 5.13292 1.52614 0
M  V30 9 C 1.257 5.56322 2.86805 0
M  V30 10 H 1.49 2.90518 0.631377 0
M  V30 11 H -0.977 1.52953 0.210867 0
M  V30 12 H 0.981 2.67203 3.11629 0
M  V30 13 H -0.358 1.57376 2.7183 0
M  V30 14 H -1.165 3.90944 3.18086 0
M  V30 15 H -1.563 3.418 1.51819 0
M  V30 16 H 0.729 5.58782 3.83104 0
M  V30 17 H 1.672 6.56266 2.65933 0
M  V30 18 H 2.08 4.83886 2.90714 0
M  V30 19 N 1.4781 -0.272755 1.55222 0
M  V30 20 C 2.7261 -1.00234 1.75492 0
M  V30 21 C 3.0471 -1.8681 0.5592 0
M  V30 22 O 2.3171 -1.91215 -0.425882 0
M  V30 23 H 0.8971 -0.373076 0.647166 0
M  V30 24 H 3.5591 -0.296926 1.92625 0
M  V30 25 H 2.6551 -1.63913 2.65592 0
M  V30 26 N 2.9562 -1.48159 -0.537278 0
M  V30 27 C 4.3722 -1.34118 -0.865129 0
M  V30 28 C 4.5722 -0.346678 -1.98495 0
M  V30 29 O 3.6282 0.234715 -2.51407 0
M  V30 30 C 4.9412 -2.73963 -1.23954 0
M  V30 31 C 6.4892 -2.82397 -1.34984 0
M  V30 32 C 6.9642 -4.22928 -1.75772 0
M  V30 33 N 8.4552 -4.25566 -1.82887 0
M  V30 34 C 9.1902 -5.31235 -2.15817 0
M  V30 35 N 8.6862 -6.47189 -2.47222 0
M  V30 36 N 10.4792 -5.18624 -2.16761 0
M  V30 37 H 2.6302 -2.1144 0.201715 0
M  V30 38 H 4.8932 -0.947598 0.0275949 0
M  V30 39 H 4.5992 -3.48264 -0.490381 0
M  V30 40 H 4.4732 -3.0702 -2.19132 0
M  V30 41 H 6.8602 -2.08356 -2.08978 0
M  V30 42 H 6.9412 -2.5297 -0.379448 0
M  V30 43 H 6.5852 -4.97482 -1.02341 0
M  V30 44 H 6.5152 -4.49794 -2.73848 0
M  V30 45 H 9.0062 -3.41924 -1.60924 0
M  V30 46 H 9.3192 -7.23564 -2.71433 0
M  V30 47 H 7.6642 -6.50476 -2.44757 0
M  V30 48 H 10.8552 -4.27056 -1.91679 0
M  V30 49 H 11.0282 -6.01078 -2.42093 0
M  V30 50 N 4.4343 0.785586 -1.36625 0
M  V30 51 C 5.6803 1.54591 -1.31261 0
M  V30 52 C 6.0133 1.93906 0.106823 0
M  V30 53 O 5.2883 1.63007 1.06108 0
M  V30 54 C 5.5713 2.82038 -2.23889 0
M  V30 55 C 5.4243 2.49066 -3.74548 0
M  V30 56 C 6.7433 3.83887 -2.15217 0
M  V30 57 H 3.8623 0.560846 -0.478143 0
M  V30 58 H 6.5043 0.902278 -1.67209 0
M  V30 59 H 4.6543 3.36961 -1.93363 0
M  V30 60 H 6.3263 2.00164 -4.15611 0
M  V30 61 H 4.5693 1.81954 -3.93796 0
M  V30 62 H 5.2403 3.40109 -4.34776 0
M  V30 63 H 7.7163 3.38421 -2.42096 0
M  V30 64 H 6.5923 4.70806 -2.82193 0
M  V30 65 H 6.8533 4.27131 -1.14068 0
M  V30 66 N 5.9124 1.20967 1.01018 0
M  V30 67 C 7.1424 1.04803 1.78044 0
M  V30 68 C 7.5504 -0.405462 1.84804 0
M  V30 69 O 6.8934 -1.2932 1.30468 0
M  V30 70 C 6.9554 1.56377 3.23707 0
M  V30 71 C 6.6194 3.04767 3.40538 0
M  V30 72 C 7.6164 4.02366 3.29239 0
M  V30 73 C 5.3014 3.43862 3.66147 0
M  V30 74 C 7.2954 5.37049 3.43304 0
M  V30 75 C 4.9824 4.78699 3.79855 0
M  V30 76 C 5.9804 5.75101 3.68439 0
M  V30 77 O 5.6684 7.07493 3.81719 0
M  V30 78 H 5.4004 0.368778 0.56655 0
M  V30 79 H 7.9544 1.60642 1.27997 0
M  V30 80 H 6.1844 0.949297 3.74867 0
M  V30 81 H 7.8734 1.36136 3.8239 0
M  V30 82 H 8.6394 3.73506 3.09384 0
M  V30 83 H 4.5184 2.69364 3.74118 0
M  V30 84 H 8.0624 6.12277 3.34309 0
M  V30 85 H 3.9594 5.07247 3.99213 0
M  V30 86 H 4.7274 7.1483 3.98697 0
M  V30 87 N 7.3905 -1.2043 1.01659 0
M  V30 88 C 8.6205 -1.93496 0.724081 0
M  V30 89 C 9.0285 -1.74998 -0.71918 0
M  V30 90 O 8.3715 -1.06118 -1.49949 0
M  V30 91 C 8.4335 -3.45886 0.97994 0
M  V30 92 C 8.0975 -3.88145 2.41232 0
M  V30 93 C 9.0945 -3.93907 3.39313 0
M  V30 94 C 6.7795 -4.20134 2.75305 0
M  V30 95 C 8.7735 -4.31069 4.6953 0
M  V30 96 C 6.4605 -4.56971 4.05735 0
M  V30 97 C 7.4585 -4.62411 5.02658 0
M  V30 98 O 7.1465 -4.98403 6.30754 0
M  V30 99 H 6.8785 -0.621824 0.265162 0
M  V30 100 H 9.4325 -1.53867 1.36066 0
M  V30 101 H 7.6625 -3.85639 0.286198 0
M  V30 102 H 9.3515 -4.0018 0.679021 0
M  V30 103 H 10.1175 -3.69357 3.14325 0
M  V30 104 H 5.9965 -4.1509 2.00551 0
M  V30 105 H 9.5405 -4.3523 5.45179 0
M  V30 106 H 5.4375 -4.80977 4.30502 0
M  V30 107 H 6.2055 -5.16395 6.35042 0
M  V30 108 N 8.8686 -0.792821 -1.36206 0
M  V30 109 C 10.1166 -0.366062 -1.98757 0
M  V30 110 C 10.4376 1.0668 -1.63231 0
M  V30 111 O 9.7076 1.73587 -0.907978 0
M  V30 112 H 8.2876 -0.132364 -0.735179 0
M  V30 113 H 10.9496 -1.01562 -1.66347 0
M  V30 114 H 10.0456 -0.460638 -3.08682 0
M  V30 115 N 10.3467 1.47872 -0.545128 0
M  V30 116 C 11.5947 2.02093 -0.016553 0
M  V30 117 C 11.9157 1.42305 1.3332 0
M  V30 118 O 11.1857 0.593853 1.86682 0
M  V30 119 H 9.7657 0.746993 -0.00313038 0
M  V30 120 H 12.4277 1.81414 -0.712397 0
M  V30 121 H 11.5237 3.11996 0.0805422 0
M  V30 122 N 11.8248 0.280983 1.55075 0
M  V30 123 C 13.0708 -0.33461 2.00021 0
M  V30 124 C 13.4038 -1.55063 1.16915 0
M  V30 125 O 12.6788 -1.93006 0.240646 0
M  V30 126 C 12.9618 -0.711007 3.53011 0
M  V30 127 C 12.8148 0.512766 4.46868 0
M  V30 128 C 14.1338 -1.54522 4.12081 0
M  V30 129 H 11.2528 -0.120147 0.727141 0
M  V30 130 H 13.8948 0.389097 1.85973 0
M  V30 131 H 12.0448 -1.32761 3.65112 0
M  V30 132 H 13.7168 1.15131 4.46702 0
M  V30 133 H 11.9598 1.14975 4.18286 0
M  V30 134 H 12.6308 0.205556 5.51617 0
M  V30 135 H 15.1068 -1.02442 4.03293 0
M  V30 136 H 13.9828 -1.77739 5.19327 0
M  V30 137 H 14.2438 -2.52813 3.62682 0
M  V30 138 N 13.3029 -1.57598 0.00835791 0
M  V30 139 C 14.2129 -2.12385 -0.996487 0
M  V30 140 C 15.2289 -1.07108 -1.37127 0
M  V30 141 O 16.4049 -1.39055 -1.4569 0
M  V30 142 C 13.4699 -2.62314 -2.26699 0
M  V30 143 C 12.5309 -3.82225 -1.95456 0
M  V30 144 C 11.7639 -4.29763 -3.16449 0
M  V30 145 O 11.9869 -3.76584 -4.28416 0
M  V30 146 O 10.9209 -5.21832 -2.99958 0
M  V30 147 H 14.7469 -2.98479 -0.560725 0
M  V30 148 H 12.3319 -1.47903 -0.210987 0
M  V30 149 H 14.2139 -2.94589 -3.01322 0
M  V30 150 H 12.8889 -1.79313 -2.69497 0
M  V30 151 H 11.7959 -3.54909 -1.18282 0
M  V30 152 H 13.1289 -4.66324 -1.57489 0
M  V30 153 N 14.781 0.264519 -1.55364 0
M  V30 154 C 16.197 0.61215 -1.47394 0
M  V30 155 C 16.397 1.89134 -0.695018 0
M  V30 156 O 15.453 2.51563 -0.217275 0
M  V30 157 C 16.766 0.731235 -2.91674 0
M  V30 158 C 18.314 0.82473 -3.01939 0
M  V30 159 C 18.789 0.975522 -4.4749 0
M  V30 160 N 20.28 1.04083 -4.51354 0
M  V30 161 C 21.015 1.17646 -5.61201 0
M  V30 162 N 20.511 1.27874 -6.80896 0
M  V30 163 N 22.304 1.20823 -5.48961 0
M  V30 164 H 14.455 -0.575456 -2.04456 0
M  V30 165 H 16.718 -0.196099 -0.927496 0
M  V30 166 H 16.424 -0.138392 -3.51428 0
M  V30 167 H 16.298 1.60883 -3.41169 0
M  V30 168 H 18.685 1.68482 -2.42276 0
M  V30 169 H 18.766 -0.0776479 -2.55682 0
M  V30 170 H 18.41 0.120058 -5.07758 0
M  V30 171 H 18.34 1.89268 -4.91412 0
M  V30 172 H 20.831 0.973846 -3.65136 0
M  V30 173 H 21.144 1.38081 -7.60364 0
M  V30 174 H 19.489 1.24863 -6.83692 0
M  V30 175 H 22.68 1.12469 -4.54388 0
M  V30 176 H 22.853 1.31049 -6.3461 0
M  V30 177 N 16.2591 1.48442 0.529413 0
M  V30 178 C 17.4871 1.60151 1.30994 0
M  V30 179 C 17.9021 0.261985 1.86973 0
M  V30 180 O 17.2591 -0.748805 1.66431 0
M  V30 181 C 17.3101 2.64854 2.46038 0
M  V30 182 O 17.0311 3.93608 1.92365 0
M  V30 183 C 18.5321 2.87007 3.37849 0
M  V30 184 H 15.7521 0.539971 0.398338 0
M  V30 185 H 18.2961 1.94273 0.638597 0
M  V30 186 H 16.4511 2.33589 3.09055 0
M  V30 187 H 16.8651 4.51055 2.67675 0
M  V30 188 H 18.3391 3.64068 4.14919 0
M  V30 189 H 18.8161 1.95852 3.93114 0
M  V30 190 H 19.4221 3.19579 2.80623 0
M  V30 191 N 17.7372 -0.778329 1.37039 0
M  V30 192 C 18.9672 -1.56507 1.34868 0
M  V30 193 C 19.3752 -1.89072 -0.0694802 0
M  V30 194 O 18.7182 -1.51434 -1.03987 0
M  V30 195 C 18.7802 -2.90641 2.11585 0
M  V30 196 C 18.4442 -2.80746 3.60598 0
M  V30 197 C 19.4412 -2.52226 4.54618 0
M  V30 198 C 17.1262 -2.98974 4.03633 0
M  V30 199 C 19.1202 -2.42054 5.89651 0
M  V30 200 C 16.8072 -2.88423 5.38754 0
M  V30 201 C 17.8052 -2.60002 6.31576 0
M  V30 202 O 17.4932 -2.49465 7.64214 0
M  V30 203 H 17.2252 -0.491723 0.463879 0
M  V30 204 H 19.7792 -0.973053 1.80889 0
M  V30 205 H 18.0092 -3.51936 1.60243 0
M  V30 206 H 19.6982 -3.51992 2.0213 0
M  V30 207 H 20.4642 -2.37835 4.22681 0
M  V30 208 H 16.3432 -3.20099 3.31749 0
M  V30 209 H 19.8872 -2.19791 6.62071 0
M  V30 210 H 15.7842 -3.0238 5.70295 0
M  V30 211 H 16.5522 -2.64864 7.74461 0
M  V30 212 N 19.2153 -1.21501 -1.00376 0
M  V30 213 C 20.1453 -0.999478 -2.11028 0
M  V30 214 C 21.1263 0.0759671 -1.6993 0
M  V30 215 O 22.3113 -0.0841106 -1.94018 0
M  V30 216 C 19.4413 -0.564709 -3.42678 0
M  V30 217 C 18.3953 -1.58486 -3.97576 0
M  V30 218 C 17.7213 -1.00628 -5.25146 0
M  V30 219 C 19.0213 -2.97204 -4.29496 0
M  V30 220 H 20.7153 -1.92495 -2.29317 0
M  V30 221 H 18.2613 -0.92693 -1.102 0
M  V30 222 H 20.2143 -0.401091 -4.19487 0
M  V30 223 H 18.9383 0.396411 -3.24185 0
M  V30 224 H 17.5973 -1.73606 -3.22888 0
M  V30 225 H 17.2453 -0.0368439 -5.02987 0
M  V30 226 H 16.9453 -1.68771 -5.62841 0
M  V30 227 H 18.4693 -0.854015 -6.04598 0
M  V30 228 H 19.8833 -2.8552 -4.97143 0
M  V30 229 H 18.2803 -3.62372 -4.78338 0
M  V30 230 H 19.3503 -3.47956 -3.3772 0
M  V30 231 N 20.6934 1.19889 -1.02296 0
M  V30 232 C 21.9234 1.93109 -0.734332 0
M  V30 233 C 22.3314 1.75377 0.709889 0
M  V30 234 O 21.6744 1.06912 1.49384 0
M  V30 235 C 21.7364 3.45362 -0.99827 0
M  V30 236 C 21.4004 3.8686 -2.43287 0
M  V30 237 C 22.3974 3.92102 -3.41397 0
M  V30 238 C 20.0824 4.18668 -2.77529 0
M  V30 239 C 22.0764 4.28573 -4.71809 0
M  V30 240 C 19.7634 4.54813 -4.08153 0
M  V30 241 C 20.7614 4.59739 -5.05103 0
M  V30 242 O 20.4494 4.95051 -6.33388 0
M  V30 243 H 20.1814 0.620409 -0.268456 0
M  V30 244 H 22.7354 1.53144 -1.3688 0
M  V30 245 H 20.9654 3.85482 -0.306645 0
M  V30 246 H 22.6544 3.99814 -0.700234 0
M  V30 247 H 23.4204 3.67685 -3.1628 0
M  V30 248 H 19.2994 4.14021 -2.0275 0
M  V30 249 H 22.8434 4.32333 -5.4748 0
M  V30 250 H 18.7404 4.78687 -4.33047 0
M  V30 251 H 19.5084 5.1302 -6.37772 0
M  V30 252 N 22.1715 0.800033 1.35784 0
M  V30 253 C 23.5875 0.482977 1.52117 0
M  V30 254 C 23.7875 -0.996948 1.75109 0
M  V30 255 O 22.8435 -1.78216 1.78872 0
M  V30 256 C 24.1565 1.32264 2.70049 0
M  V30 257 C 25.7045 1.31742 2.83924 0
M  V30 258 C 26.1795 2.14106 4.04874 0
M  V30 259 N 27.6705 2.11607 4.12039 0
M  V30 260 C 28.4055 2.72099 5.04727 0
M  V30 261 N 27.9015 3.41492 6.02789 0
M  V30 262 N 29.6945 2.61776 4.97423 0
M  V30 263 H 21.8455 1.75856 1.19115 0
M  V30 264 H 24.1085 0.748122 0.582252 0
M  V30 265 H 23.8145 2.37261 2.59616 0
M  V30 266 H 23.6885 0.971303 3.6448 0
M  V30 267 H 26.0755 0.275333 2.93813 0
M  V30 268 H 26.1565 1.70859 1.9037 0
M  V30 269 H 25.8005 3.18351 3.95746 0
M  V30 270 H 25.7305 1.72353 4.97596 0
M  V30 271 H 28.2215 1.61112 3.41835 0
M  V30 272 H 28.5345 3.84953 6.70098 0
M  V30 273 H 26.8795 3.45596 6.02983 0
M  V30 274 H 30.0705 2.07157 4.19766 0
M  V30 275 H 30.2435 3.0921 5.69468 0
M  V30 276 N 23.6496 -1.47581 0.552962 0
M  V30 277 C 24.8976 -2.02082 0.0272703 0
M  V30 278 C 25.2186 -1.4301 -1.32563 0
M  V30 279 O 24.4886 -0.603745 -1.86365 0
M  V30 280 H 23.0686 -0.746966 0.00709182 0
M  V30 281 H 25.7306 -1.81033 0.722008 0
M  V30 282 H 24.8266 -3.12034 -0.0639951 0
M  V30 283 N 25.1277 -0.289203 -1.54924 0
M  V30 284 C 26.5437 0.0645403 -1.59469 0
M  V30 285 C 26.7437 1.53419 -1.30632 0
M  V30 286 O 25.7997 2.2852 -1.074 0
M  V30 287 C 27.1127 -0.32278 -2.98963 0
M  V30 288 C 28.6607 -0.270564 -3.11828 0
M  V30 289 C 29.1357 -0.632532 -4.53611 0
M  V30 290 N 30.6267 -0.584617 -4.59496 0
M  V30 291 C 31.3617 -0.837314 -5.67254 0
M  V30 292 N 30.8577 -1.15536 -6.83098 0
M  V30 293 N 32.6507 -0.765166 -5.56868 0
M  V30 294 H 24.8017 -1.24714 -1.71931 0
M  V30 295 H 27.0647 -0.504809 -0.802416 0
M  V30 296 H 26.7707 -1.34541 -3.24948 0
M  V30 297 H 26.6447 0.32944 -3.75759 0
M  V30 298 H 29.0317 0.742805 -2.85598 0
M  V30 299 H 29.1127 -0.957242 -2.37214 0
M  V30 300 H 28.7567 -1.64365 -4.80569 0
M  V30 301 H 28.6867 0.07609 -5.26545 0
M  V30 302 H 31.1777 -0.349248 -3.76283 0
M  V30 303 H 31.4907 -1.33447 -7.61191 0
M  V30 304 H 29.8357 -1.19328 -6.84679 0
M  V30 305 H 33.0267 -0.516432 -4.65243 0
M  V30 306 H 33.1997 -0.965477 -6.40767 0
M  V30 307 N 26.6058 1.57591 -0.0167156 0
M  V30 308 C 27.8548 1.90461 0.663877 0
M  V30 309 C 28.1678 0.893515 1.73999 0
M  V30 310 O 29.3738 1.11302 2.47637 0
M  V30 311 C 27.8298 3.38155 1.23204 0
M  V30 312 C 27.4378 4.47597 0.189866 0
M  V30 313 C 29.1818 3.80111 1.88986 0
M  V30 314 C 27.0888 5.86379 0.768964 0
M  V30 315 H 26.0188 0.710738 0.251729 0
M  V30 316 H 28.6698 1.83326 -0.0799926 0
M  V30 317 H 27.0518 3.40182 2.02712 0
M  V30 318 H 28.2258 4.57112 -0.581846 0
M  V30 319 H 26.5408 4.14766 -0.368475 0
M  V30 320 H 29.1378 4.81145 2.33247 0
M  V30 321 H 29.4808 3.14511 2.72743 0
M  V30 322 H 30.0138 3.80454 1.16187 0
M  V30 323 H 26.7528 6.55493 -0.0301957 0
M  V30 324 H 26.2728 5.80496 1.50945 0
M  V30 325 H 27.9518 6.34563 1.26251 0
M  V30 326 N 28.0839 -0.256276 1.55502 0
M  V30 327 C 29.0139 -1.32102 1.92539 0
M  V30 328 C 29.9949 -1.50684 0.789194 0
M  V30 329 O 31.1799 -1.63449 1.04872 0
M  V30 330 C 28.3099 -2.67752 2.21192 0
M  V30 331 C 27.2639 -2.63878 3.36975 0
M  V30 332 C 26.5899 -4.03236 3.51147 0
M  V30 333 C 27.8899 -2.21682 4.72921 0
M  V30 334 H 29.5839 -1.01351 2.81724 0
M  V30 335 H 27.1299 -0.486105 1.35547 0
M  V30 336 H 29.0829 -3.42365 2.45691 0
M  V30 337 H 27.8069 -3.0012 1.28824 0
M  V30 338 H 26.4659 -1.91722 3.12471 0
M  V30 339 H 26.1139 -4.32854 2.56216 0
M  V30 340 H 25.8139 -4.01535 4.29003 0
M  V30 341 H 27.3379 -4.79563 3.77957 0
M  V30 342 H 28.7519 -2.86023 4.96854 0
M  V30 343 H 27.1489 -2.3111 5.53812 0
M  V30 344 H 28.2189 -1.16833 4.70615 0
M  V30 345 N 29.562 -1.4872 -0.521534 0
M  V30 346 C 30.51 -1.64328 -1.64618 0
M  V30 347 C 31.504 -0.50953 -1.61555 0
M  V30 348 O 32.71 -0.688525 -1.66311 0
M  V30 349 H 29.085 -0.517805 -0.545328 0
M  V30 350 H 31.056 -2.58767 -1.48601 0
M  V30 351 C 29.805 -1.70805 -3.02855 0
M  V30 352 H 29.128 -2.5741 -3.05909 0
M  V30 353 H 30.568 -1.85766 -3.81139 0
M  V30 354 C 29.027 -0.448479 -3.33902 0
M  V30 355 O 29.557 0.434928 -3.99339 0
M  V30 356 N 27.763 -0.317616 -2.88859 0
M  V30 357 H 27.31 -1.03748 -2.35784 0
M  V30 358 H 27.268 0.524113 -3.10001 0
M  V30 359 N 31.0401 0.771051 -1.3745 0
M  V30 360 C 31.9701 1.89827 -1.3597 0
M  V30 361 C 32.9511 1.68562 -0.228216 0
M  V30 362 O 34.1361 1.8941 -0.428675 0
M  V30 363 C 31.2661 3.2712 -1.16662 0
M  V30 364 C 30.2201 3.6295 -2.2683 0
M  V30 365 C 29.5461 4.98791 -1.92644 0
M  V30 366 C 30.8461 3.69627 -3.69017 0
M  V30 367 H 32.5401 1.91323 -2.30295 0
M  V30 368 H 30.0861 0.919082 -1.10855 0
M  V30 369 H 32.0391 4.05615 -1.14256 0
M  V30 370 H 30.7631 3.26059 -0.187926 0
M  V30 371 H 29.4221 2.86763 -2.28392 0
M  V30 372 H 29.0701 4.94271 -0.933021 0
M  V30 373 H 28.7701 5.23733 -2.66416 0
M  V30 374 H 30.2941 5.79685 -1.91826 0
M  V30 375 H 31.7081 4.38273 -3.69581 0
M  V30 376 H 30.1051 4.06067 -4.41848 0
M  V30 377 H 31.1751 2.70273 -4.02592 0
M  V30 378 N 32.5182 1.22032 0.997298 0
M  V30 379 C 33.4812 0.987909 2.06816 0
M  V30 380 C 34.4812 -0.0440084 1.6074 0
M  V30 381 O 35.6712 0.194053 1.73116 0
M  V30 382 C 32.8032 0.49132 3.37341 0
M  V30 383 H 33.9962 1.93803 2.28868 0
M  V30 384 H 31.5492 1.03838 1.16822 0
M  V30 385 H 32.2842 -0.463364 3.20973 0
M  V30 386 H 32.0692 1.23575 3.72118 0
M  V30 387 H 33.5592 0.348824 4.16141 0
M  V30 388 N 33.9963 -1.19345 1.0293 0
M  V30 389 C 34.9263 -2.2481 0.631105 0
M  V30 390 C 35.9073 -1.66245 -0.360104 0
M  V30 391 O 37.0923 -1.92677 -0.242726 0
M  V30 392 C 34.2223 -3.47295 -0.0184607 0
M  V30 393 C 33.1763 -4.18536 0.895073 0
M  V30 394 C 32.5023 -5.34586 0.110592 0
M  V30 395 C 33.8023 -4.73287 2.209 0
M  V30 396 H 35.4963 -2.58372 1.51275 0
M  V30 397 H 33.0423 -1.24194 0.728818 0
M  V30 398 H 34.9953 -4.20268 -0.308675 0
M  V30 399 H 33.7193 -3.12933 -0.934907 0
M  V30 400 H 32.3783 -3.47446 1.16949 0
M  V30 401 H 32.0263 -4.96469 -0.807902 0
M  V30 402 H 31.7263 -5.83183 0.719087 0
M  V30 403 H 33.2503 -6.10355 -0.172871 0
M  V30 404 H 34.6643 -5.38013 1.98028 0
M  V30 405 H 33.0613 -5.32373 2.76946 0
M  V30 406 H 34.1313 -3.91331 2.86336 0
M  V30 407 N 35.4744 -0.807222 -1.35358 0
M  V30 408 C 36.3844 -0.219594 -2.3357 0
M  V30 409 C 37.4004 0.637734 -1.61892 0
M  V30 410 O 38.5764 0.549336 -1.93763 0
M  V30 411 C 35.6414 0.62158 -3.41083 0
M  V30 412 C 34.7024 -0.256315 -4.28534 0
M  V30 413 C 33.9354 0.544807 -5.30912 0
M  V30 414 O 34.1584 1.77944 -5.41934 0
M  V30 415 O 33.0924 -0.0646478 -6.01865 0
M  V30 416 H 36.9184 -1.03208 -2.85625 0
M  V30 417 H 34.5034 -0.569025 -1.38139 0
M  V30 418 H 36.3854 1.10067 -4.06772 0
M  V30 419 H 35.0604 1.41165 -2.91297 0
M  V30 420 H 33.9674 -0.782559 -3.65823 0
M  V30 421 H 35.3004 -1.01034 -4.81719 0
M  V30 422 N 36.9525 1.47285 -0.560781 0
M  V30 423 C 38.2005 2.02064 -0.0379868 0
M  V30 424 C 38.5215 1.43711 1.31803 0
M  V30 425 O 37.7915 0.61362 1.86042 0
M  V30 426 H 36.3715 0.746918 -0.0110531 0
M  V30 427 H 39.0335 1.80648 -0.731598 0
M  V30 428 H 38.1295 3.12064 0.0474463 0
M  V30 429 N 38.4306 0.297415 1.54768 0
M  V30 430 C 39.8466 -0.0560823 1.59501 0
M  V30 431 C 40.0466 -1.52725 1.31444 0
M  V30 432 O 39.1026 -2.27947 1.08611 0
M  V30 433 C 40.4156 0.338631 2.98787 0
M  V30 434 C 41.9636 0.287097 3.11681 0
M  V30 435 C 42.4386 0.656579 4.53269 0
M  V30 436 N 43.9296 0.608977 4.59179 0
M  V30 437 C 44.6646 0.867385 5.66802 0
M  V30 438 N 44.1606 1.19157 6.82476 0
M  V30 439 N 45.9536 0.794687 5.56454 0
M  V30 440 H 38.1046 1.25624 1.71267 0
M  V30 441 H 40.3676 0.509057 0.799728 0
M  V30 442 H 40.0736 1.36263 3.2423 0
M  V30 443 H 39.9476 -0.309508 3.75928 0
M  V30 444 H 42.3346 -0.727649 2.85988 0
M  V30 445 H 42.4156 0.969809 2.36703 0
M  V30 446 H 42.0596 1.66912 4.7969 0
M  V30 447 H 41.9896 -0.0481649 5.26578 0
M  V30 448 H 44.4806 0.369198 3.76092 0
M  V30 449 H 44.7936 1.37482 7.60473 0
M  V30 450 H 43.1386 1.22958 6.84037 0
M  V30 451 H 46.3296 0.541098 4.64962 0
M  V30 452 H 46.5026 0.999445 6.40246 0
M  V30 453 N 39.9087 -1.5758 0.0250728 0
M  V30 454 C 41.1387 -1.95646 -0.663783 0
M  V30 455 C 41.5467 -0.899935 -1.66427 0
M  V30 456 O 40.8897 0.127191 -1.83259 0
M  V30 457 C 40.9517 -3.29835 -1.43 0
M  V30 458 C 40.6157 -4.53197 -0.588305 0
M  V30 459 C 41.6127 -5.19726 0.13469 0
M  V30 460 C 39.2977 -4.99529 -0.526897 0
M  V30 461 C 41.2917 -6.30902 0.90781 0
M  V30 462 C 38.9787 -6.10589 0.24993 0
M  V30 463 C 39.9767 -6.76134 0.965994 0
M  V30 464 O 39.6647 -7.85062 1.7301 0
M  V30 465 H 39.3967 -0.649282 -0.188174 0
M  V30 466 H 41.9507 -2.05245 0.0799006 0
M  V30 467 H 40.1807 -3.16716 -2.21873 0
M  V30 468 H 41.8697 -3.52833 -2.00658 0
M  V30 469 H 42.6357 -4.84904 0.0965562 0
M  V30 470 H 38.5147 -4.48319 -1.07381 0
M  V30 471 H 42.0587 -6.81995 1.46724 0
M  V30 472 H 37.9557 -6.44849 0.289795 0
M  V30 473 H 38.7237 -8.01708 1.64944 0
M  V30 474 N 41.3868 0.248026 -1.55636 0
M  V30 475 C 42.2968 1.32859 -1.93354 0
M  V30 476 C 43.3128 1.52719 -0.833838 0
M  V30 477 O 44.4888 1.66363 -1.13513 0
M  V30 478 C 41.5538 2.66337 -2.21958 0
M  V30 479 C 40.6148 2.55008 -3.45354 0
M  V30 480 C 39.8478 3.82121 -3.72584 0
M  V30 481 O 40.0708 4.83951 -3.01907 0
M  V30 482 O 39.0048 3.80822 -4.6611 0
M  V30 483 H 42.8308 1.03862 -2.85388 0
M  V30 484 H 40.4158 0.448686 -1.42503 0
M  V30 485 H 42.2978 3.45216 -2.4167 0
M  V30 486 H 40.9728 2.95068 -1.33103 0
M  V30 487 H 39.8798 1.7442 -3.30951 0
M  V30 488 H 41.2128 2.31222 -4.34508 0
M  V30 489 N 42.8649 1.48995 0.513639 0
M  V30 490 C 44.1139 1.57093 1.2651 0
M  V30 491 C 44.4269 0.257091 1.93903 0
M  V30 492 O 45.6329 0.216478 2.70636 0
M  V30 493 C 44.0889 2.77118 2.29638 0
M  V30 494 C 43.6969 4.15209 1.68241 0
M  V30 495 C 45.4409 2.94538 3.05692 0
M  V30 496 C 43.3479 5.26474 2.69406 0
M  V30 497 H 42.2779 0.584876 0.475854 0
M  V30 498 H 44.9289 1.7536 0.540487 0
M  V30 499 H 43.3109 2.52319 3.05207 0
M  V30 500 H 44.4849 4.50094 0.987505 0
M  V30 501 H 42.7999 4.03042 1.04623 0
M  V30 502 H 45.3969 3.74832 3.8132 0
M  V30 503 H 45.7399 2.04614 3.62545 0
M  V30 504 H 46.2729 3.19316 2.37238 0
M  V30 505 H 43.0119 6.18417 2.17351 0
M  V30 506 H 42.5319 4.96058 3.37175 0
M  V30 507 H 44.2109 5.55277 3.32078 0
M  V30 508 N 44.343 -0.763751 1.37857 0
M  V30 509 C 45.589 -1.52483 1.33704 0
M  V30 510 C 45.922 -1.94051 -0.0759612 0
M  V30 511 O 45.197 -1.64675 -1.03501 0
M  V30 512 C 45.48 -2.78441 2.28348 0
M  V30 513 C 45.333 -2.43075 3.78463 0
M  V30 514 C 46.652 -3.80415 2.21298 0
M  V30 515 H 43.771 -0.553169 0.487005 0
M  V30 516 H 46.413 -0.875562 1.68624 0
M  V30 517 H 44.563 -3.33842 1.987 0
M  V30 518 H 46.235 -1.93527 4.18742 0
M  V30 519 H 44.478 -1.75666 3.96641 0
M  V30 520 H 45.149 -3.33149 4.40132 0
M  V30 521 H 47.625 -3.34527 2.47449 0
M  V30 522 H 46.501 -4.66257 2.89647 0
M  V30 523 H 46.762 -4.25262 1.20849 0
M  V30 524 N 45.8211 -1.22559 -0.990812 0
M  V30 525 C 46.7311 -1.01394 -2.11557 0
M  V30 526 C 47.7471 0.0383962 -1.73958 0
M  V30 527 O 48.9231 -0.154787 -2.00804 0
M  V30 528 C 45.9881 -0.596569 -3.41529 0
M  V30 529 C 45.0491 -1.72276 -3.93217 0
M  V30 530 C 44.2821 -1.32521 -5.16985 0
M  V30 531 O 44.5051 -0.204909 -5.70032 0
M  V30 532 O 43.4391 -2.14247 -5.62478 0
M  V30 533 H 47.2651 -1.95633 -2.32296 0
M  V30 534 H 44.8501 -1.01172 -1.0993 0
M  V30 535 H 46.7321 -0.374263 -4.19735 0
M  V30 536 H 45.4071 0.316939 -3.22145 0
M  V30 537 H 44.3141 -1.99961 -3.16174 0
M  V30 538 H 45.6471 -2.61421 -4.17037 0
M  V30 539 N 47.2992 1.18797 -1.03562 0
M  V30 540 C 48.2492 2.20161 -0.592724 0
M  V30 541 C 49.2332 1.56772 0.362133 0
M  V30 542 O 50.4252 1.76062 0.182009 0
M  V30 543 C 47.5542 3.43266 0.0481024 0
M  V30 544 C 46.6402 4.13786 -0.9296 0
M  V30 545 N 47.0312 4.60388 -2.09467 0
M  V30 546 C 45.3292 4.39572 -0.754499 0
M  V30 547 C 46.0302 5.14619 -2.71187 0
M  V30 548 N 45.0062 5.05826 -1.991 0
M  V30 549 H 48.8082 2.53877 -1.48066 0
M  V30 550 H 46.3222 1.34946 -0.903514 0
M  V30 551 H 48.3192 4.15136 0.383058 0
M  V30 552 H 46.9792 3.11048 0.931636 0
M  V30 553 H 47.9902 4.54999 -2.47379 0
M  V30 554 H 44.6672 4.17425 0.0793713 0
M  V30 555 H 46.0572 5.60917 -3.69895 0
M  V30 556 N 48.7773 0.814389 1.34928 0
M  V30 557 C 49.7243 0.22822 2.29669 0
M  V30 558 C 50.6943 -0.642164 1.53184 0
M  V30 559 O 51.8793 -0.585605 1.81591 0
M  V30 560 C 49.0193 -0.61089 3.3965 0
M  V30 561 C 48.1323 0.280792 4.31086 0
M  V30 562 C 47.2673 -0.567067 5.28165 0
M  V30 563 C 46.3063 0.324531 6.11239 0
M  V30 564 N 45.4433 -0.483756 7.00431 0
M  V30 565 H 50.2833 1.04153 2.79206 0
M  V30 566 H 47.8203 0.525133 1.37407 0
M  V30 567 H 49.7783 -1.11263 4.0209 0
M  V30 568 H 48.4083 -1.38939 2.91369 0
M  V30 569 H 47.4603 0.900688 3.69583 0
M  V30 570 H 48.7723 0.966723 4.89342 0
M  V30 571 H 47.9263 -1.13363 5.96015 0
M  V30 572 H 46.6653 -1.28654 4.70425 0
M  V30 573 H 45.6703 0.903298 5.42329 0
M  V30 574 H 46.8953 1.04198 6.71059 0
M  V30 575 H 44.8413 -1.18706 6.45171 0
M  V30 576 H 44.7583 0.143965 7.55863 0
M  V30 577 H 46.0263 -1.03334 7.7262 0
M  V30 578 N 50.2554 -1.46986 0.568584 0
M  V30 579 C 51.6664 -1.86188 0.138219 0
M  V30 580 C 52.0174 -1.47388 -1.29504 0
M  V30 581 O 51.1424 -0.88219 -1.97602 0
M  V30 582 C 51.7374 -3.3792 0.244065 0
M  V30 583 C 50.2964 -3.76171 -0.131335 0
M  V30 584 C 49.4434 -2.71027 0.586465 0
M  V30 585 H 52.3944 -1.38342 0.777645 0
M  V30 586 H 52.4154 -3.76729 -0.534351 0
M  V30 587 H 51.9274 -3.66128 1.28731 0
M  V30 588 H 50.0284 -3.5358 -1.17526 0
M  V30 589 H 50.1414 -4.78523 0.235146 0
M  V30 590 H 48.5054 -2.54684 0.0282722 0
M  V30 591 H 49.2884 -3.02077 1.63109 0
M  V30 592 N 51.7335 -0.305618 -1.54608 0
M  V30 593 C 52.6965 0.555591 -2.22364 0
M  V30 594 C 53.6965 1.05768 -1.21119 0
M  V30 595 O 54.8865 0.952972 -1.45822 0
M  V30 596 C 52.0185 1.76974 -2.91364 0
M  V30 597 H 53.2115 -0.0364572 -2.99878 0
M  V30 598 H 50.7645 -0.0565007 -1.56198 0
M  V30 599 H 51.4995 2.40151 -2.17941 0
M  V30 600 H 51.2845 1.41732 -3.65588 0
M  V30 601 H 52.7745 2.38148 -3.43038 0
M  V30 602 N 53.2116 1.57565 -0.0334293 0
M  V30 603 C 54.4576 1.92262 0.645226 0
M  V30 604 C 54.7906 0.910543 1.71531 0
M  V30 605 O 54.0656 -0.066099 1.94388 0
M  V30 606 C 54.3486 3.37422 1.2577 0
M  V30 607 C 54.2016 4.49369 0.196891 0
M  V30 608 C 55.5206 3.82628 2.17449 0
M  V30 609 H 52.6396 0.699171 0.233085 0
M  V30 610 H 55.2816 1.89779 -0.0915694 0
M  V30 611 H 53.4316 3.39669 1.88566 0
M  V30 612 H 55.1036 4.59254 -0.433962 0
M  V30 613 H 53.3466 4.31168 -0.477137 0
M  V30 614 H 54.0176 5.47978 0.665124 0
M  V30 615 H 56.4936 3.82145 1.64634 0
M  V30 616 H 55.3696 4.84883 2.57254 0
M  V30 617 H 55.6306 3.18376 3.0674 0
M  V30 618 N 54.6897 -0.239769 1.55765 0
M  V30 619 C 55.6527 -1.28038 1.90103 0
M  V30 620 C 56.6527 -1.40723 0.778055 0
M  V30 621 O 57.8427 -1.39301 1.04599 0
M  V30 622 C 54.9747 -2.65702 2.13577 0
M  V30 623 H 56.1677 -0.988048 2.83157 0
M  V30 624 H 53.7207 -0.479382 1.48767 0
M  V30 625 H 54.4557 -3.00063 1.23015 0
M  V30 626 H 54.2407 -2.57875 2.95369 0
M  V30 627 H 55.7307 -3.40828 2.41301 0
M  V30 628 N 56.1678 -1.49265 -0.50573 0
M  V30 629 C 57.4138 -1.58748 -1.26202 0
M  V30 630 C 57.7468 -0.271227 -1.92297 0
M  V30 631 O 57.0218 0.724831 -1.80489 0
M  V30 632 C 57.3048 -2.74332 -2.33268 0
M  V30 633 C 57.1578 -4.15737 -1.71705 0
M  V30 634 C 58.4768 -2.85576 -3.34865 0
M  V30 635 H 55.5958 -0.577826 -0.457478 0
M  V30 636 H 58.2378 -1.81532 -0.560897 0
M  V30 637 H 56.3878 -2.55036 -2.93068 0
M  V30 638 H 58.0598 -4.46537 -1.15769 0
M  V30 639 H 56.3028 -4.21605 -1.02135 0
M  V30 640 H 56.9738 -4.92477 -2.49341 0
M  V30 641 H 59.4498 -3.03127 -2.8505 0
M  V30 642 H 58.3258 -3.68135 -4.07146 0
M  V30 643 H 58.5868 -1.94732 -3.96903 0
M  V30 644 N 57.6459 0.756429 -1.3826 0
M  V30 645 C 58.8949 1.51082 -1.3363 0
M  V30 646 C 59.2079 1.95467 0.0720068 0
M  V30 647 O 60.4139 2.7043 0.240834 0
M  V30 648 C 58.8699 2.72893 -2.34644 0
M  V30 649 C 58.4779 2.35544 -3.81081 0
M  V30 650 C 60.2219 3.50791 -2.39052 0
M  V30 651 C 58.1289 3.53948 -4.73787 0
M  V30 652 H 57.0589 0.56727 -0.49671 0
M  V30 653 H 59.7099 0.827147 -1.638 0
M  V30 654 H 58.0919 3.43227 -1.97513 0
M  V30 655 H 59.2659 1.72894 -4.27135 0
M  V30 656 H 57.5809 1.70786 -3.79764 0
M  V30 657 H 60.1779 4.38823 -3.05513 0
M  V30 658 H 60.5209 3.91745 -1.40861 0
M  V30 659 H 61.0539 2.87467 -2.74968 0
M  V30 660 H 57.7929 3.18064 -5.73163 0
M  V30 661 H 57.3129 4.15651 -4.32428 0
M  V30 662 H 58.9919 4.20566 -4.91663 0
M  V30 663 N 59.124 1.23083 0.984299 0
M  V30 664 C 60.087 1.00979 2.05757 0
M  V30 665 C 61.087 -0.0269573 1.60777 0
M  V30 666 O 62.277 0.212403 1.729 0
M  V30 667 C 59.409 0.527072 3.36801 0
M  V30 668 H 60.602 1.9622 2.26799 0
M  V30 669 H 58.155 1.05072 1.15714 0
M  V30 670 H 58.89 -0.429294 3.21446 0
M  V30 671 H 58.675 1.27515 3.70786 0
M  V30 672 H 60.165 0.392942 4.15747 0
M  V30 673 N 60.6021 -1.18246 1.0419 0
M  V30 674 C 61.5321 -2.24127 0.654914 0
M  V30 675 C 62.5131 -1.66617 -0.342451 0
M  V30 676 O 63.6981 -1.92924 -0.222277 0
M  V30 677 C 60.8281 -3.47295 0.0183757 0
M  V30 678 C 59.7821 -4.17563 0.939414 0
M  V30 679 C 59.1081 -5.34438 0.167286 0
M  V30 680 C 60.4081 -4.70917 2.25908 0
M  V30 681 H 62.1021 -2.56753 1.54007 0
M  V30 682 H 59.6481 -1.23414 0.74195 0
M  V30 683 H 61.6011 -4.20572 -0.264082 0
M  V30 684 H 60.3251 -3.13907 -0.901664 0
M  V30 685 H 58.9841 -3.46186 1.20628 0
M  V30 686 H 58.6321 -4.97298 -0.7552 0
M  V30 687 H 58.3321 -5.82388 0.780901 0
M  V30 688 H 59.8561 -6.10504 -0.108125 0
M  V30 689 H 61.2701 -5.35882 2.03724 0
M  V30 690 H 59.6671 -5.29406 2.82577 0
M  V30 691 H 60.7371 -3.88272 2.9047 0
M  V30 692 N 62.0802 -0.821533 -1.34494 0
M  V30 693 C 63.4962 -0.507117 -1.51329 0
M  V30 694 C 63.6962 0.968964 -1.76673 0
M  V30 695 O 62.7522 1.75348 -1.81685 0
M  V30 696 C 64.0652 -1.36544 -2.67911 0
M  V30 697 C 65.6132 -1.36242 -2.81793 0
M  V30 698 C 66.0882 -2.2052 -4.01416 0
M  V30 699 N 67.5792 -2.18136 -4.08621 0
M  V30 700 C 68.3142 -2.80095 -5.00334 0
M  V30 701 N 67.8102 -3.51039 -5.9728 0
M  V30 702 N 69.6032 -2.69656 -4.93196 0
M  V30 703 H 61.7542 -1.77729 -1.16302 0
M  V30 704 H 64.0172 -0.757291 -0.570276 0
M  V30 705 H 63.7232 -2.41361 -2.55808 0
M  V30 706 H 63.5972 -1.02917 -3.62888 0
M  V30 707 H 65.9842 -0.322041 -2.93338 0
M  V30 708 H 66.0652 -1.73866 -1.87628 0
M  V30 709 H 65.7092 -3.24607 -3.90631 0
M  V30 710 H 65.6392 -1.80247 -4.94791 0
M  V30 711 H 68.1302 -1.6653 -3.39229 0
M  V30 712 H 68.4432 -3.95565 -6.63889 0
M  V30 713 H 66.7882 -3.55145 -5.97409 0
M  V30 714 H 69.9792 -2.13808 -4.16418 0
M  V30 715 H 70.1522 -3.1823 -5.64476 0
M  V30 716 N 63.5583 1.46682 -0.576371 0
M  V30 717 C 64.4683 2.34032 0.163141 0
M  V30 718 C 65.4843 1.49367 0.892501 0
M  V30 719 O 66.6603 1.82252 0.857106 0
M  V30 720 C 63.7253 3.26435 1.16795 0
M  V30 721 C 62.7863 4.26998 0.443944 0
M  V30 722 C 62.0193 5.14986 1.40088 0
M  V30 723 O 62.2423 5.05785 2.637 0
M  V30 724 O 61.1763 5.94906 0.914917 0
M  V30 725 H 65.0023 2.98607 -0.55388 0
M  V30 726 H 62.5873 1.45554 -0.336821 0
M  V30 727 H 64.4693 3.83459 1.74748 0
M  V30 728 H 63.1443 2.64465 1.86655 0
M  V30 729 H 62.0513 3.7368 -0.177271 0
M  V30 730 H 63.3843 4.91736 -0.213566 0
M  V30 731 N 65.0364 0.313813 1.54444 0
M  V30 732 C 66.2844 -0.291099 1.99993 0
M  V30 733 C 66.6054 -1.53418 1.20366 0
M  V30 734 O 65.8754 -1.93544 0.302927 0
M  V30 735 H 64.4554 -0.110552 0.738774 0
M  V30 736 H 67.1174 0.428106 1.9014 0
M  V30 737 H 66.2134 -0.554268 3.07139 0
M  V30 738 N 66.5145 -1.57545 0.0417849 0
M  V30 739 C 67.9305 -1.56467 -0.314704 0
M  V30 740 C 68.1305 -1.04859 -1.72066 0
M  V30 741 O 67.1865 -0.700983 -2.42575 0
M  V30 742 C 68.4995 -3.00317 -0.15174 0
M  V30 743 C 70.0475 -3.12201 -0.223553 0
M  V30 744 C 70.5225 -4.57913 -0.0892295 0
M  V30 745 N 72.0135 -4.6297 -0.145808 0
M  V30 746 C 72.7485 -5.73362 -0.0658459 0
M  V30 747 N 72.2445 -6.92769 0.0659282 0
M  V30 748 N 74.0375 -5.6197 -0.12075 0
M  V30 749 H 66.1885 -1.89416 0.961014 0
M  V30 750 H 68.4515 -0.871862 0.372237 0
M  V30 751 H 68.1575 -3.42073 0.817254 0
M  V30 752 H 68.0315 -3.65892 -0.916692 0
M  V30 753 H 70.4185 -2.70349 -1.18301 0
M  V30 754 H 70.4995 -2.49323 0.571994 0
M  V30 755 H 70.1435 -5.00448 0.866867 0
M  V30 756 H 70.0735 -5.18786 -0.903802 0
M  V30 757 H 72.5645 -3.7709 -0.247286 0
M  V30 758 H 72.8775 -7.72707 0.119905 0
M  V30 759 H 71.2225 -6.94927 0.100885 0
M  V30 760 H 74.4135 -4.67572 -0.222187 0
M  V30 761 H 74.5865 -6.47977 -0.0549735 0
M  V30 762 N 67.9926 0.231505 -1.5589 0
M  V30 763 C 68.9256 1.31369 -1.86595 0
M  V30 764 C 69.9036 1.45671 -0.722397 0
M  V30 765 O 71.0876 1.61642 -0.969743 0
M  V30 766 C 68.2146 2.68529 -2.06421 0
M  V30 767 C 67.2606 2.71295 -3.29092 0
M  V30 768 S 68.0936 2.26358 -4.85306 0
M  V30 769 C 69.2496 3.65414 -5.08157 0
M  V30 770 H 69.4826 1.05128 -2.78092 0
M  V30 771 H 67.0156 0.433259 -1.48197 0
M  V30 772 H 68.9736 3.47499 -2.18528 0
M  V30 773 H 67.6346 2.91999 -1.15738 0
M  V30 774 H 66.8276 3.72063 -3.39978 0
M  V30 775 H 66.4296 2.0038 -3.15791 0
M  V30 776 H 68.7216 4.6103 -4.96445 0
M  V30 777 H 69.6646 3.5945 -6.10083 0
M  V30 778 H 70.0726 3.5864 -4.35933 0
M  V30 779 N 69.4707 1.49531 0.497807 0
M  V30 780 C 70.4007 1.6935 1.60757 0
M  V30 781 C 71.3817 0.542218 1.61227 0
M  V30 782 O 72.5667 0.778417 1.77917 0
M  V30 783 C 69.6967 1.76298 2.99226 0
M  V30 784 C 68.6507 2.91248 3.13622 0
M  V30 785 C 67.9767 2.83312 4.53474 0
M  V30 786 C 69.2767 4.3214 2.93346 0
M  V30 787 H 70.9707 2.62263 1.44425 0
M  V30 788 H 68.5167 1.26208 0.693367 0
M  V30 789 H 70.4697 1.88749 3.76765 0
M  V30 790 H 69.1937 0.799871 3.16654 0
M  V30 791 H 67.8527 2.78404 2.38509 0
M  V30 792 H 67.5007 1.84902 4.67782 0
M  V30 793 H 67.2007 3.60465 4.64046 0
M  V30 794 H 68.7247 2.97775 5.33069 0
M  V30 795 H 70.1387 4.45649 3.60652 0
M  V30 796 H 68.5357 5.1054 3.15387 0
M  V30 797 H 69.6057 4.46363 1.89441 0
M  V30 798 N 70.9488 -0.749086 1.3866 0
M  V30 799 C 72.1958 -1.50833 1.35114 0
M  V30 800 C 72.5238 -1.94415 -0.0574049 0
M  V30 801 O 71.7788 -1.66065 -1.03541 0
M  V30 802 C 72.0778 -2.7712 2.25697 0
M  V30 803 C 71.7438 -2.52477 3.73585 0
M  V30 804 C 70.4058 -2.45466 4.13884 0
M  V30 805 C 72.7578 -2.31066 4.67181 0
M  V30 806 C 70.0858 -2.15064 5.45861 0
M  V30 807 C 72.4378 -2.02183 5.9942 0
M  V30 808 C 71.1018 -1.93631 6.38798 0
M  V30 809 H 70.3718 -0.551936 0.494416 0
M  V30 810 H 73.0188 -0.860979 1.71054 0
M  V30 811 H 71.3238 -3.46528 1.82827 0
M  V30 812 H 73.0208 -3.35096 2.20254 0
M  V30 813 H 69.6108 -2.58807 3.41638 0
M  V30 814 H 73.7948 -2.35459 4.3689 0
M  V30 815 H 69.0508 -2.06954 5.75308 0
M  V30 816 H 73.2248 -1.8462 6.71482 0
M  V30 817 H 70.8518 -1.69839 7.40985 0
M  V30 818 N 72.4269 -1.23603 -0.977757 0
M  V30 819 C 73.6729 -1.07129 -1.72195 0
M  V30 820 C 74.0059 0.390501 -1.90233 0
M  V30 821 O 73.2809 1.28902 -1.45653 0
M  V30 822 C 73.5639 -1.80031 -3.11867 0
M  V30 823 C 73.4169 -3.33899 -3.01383 0
M  V30 824 C 74.7359 -1.56492 -4.11337 0
M  V30 825 H 71.8549 -0.390571 -0.624999 0
M  V30 826 H 74.4969 -1.52142 -1.13811 0
M  V30 827 H 72.6469 -1.41768 -3.6171 0
M  V30 828 H 74.3189 -3.81699 -2.59043 0
M  V30 829 H 72.5619 -3.62796 -2.37827 0
M  V30 830 H 73.2329 -3.801 -4.00285 0
M  V30 831 H 75.7089 -1.89757 -3.70313 0
M  V30 832 H 74.5849 -2.09973 -5.07151 0
M  V30 833 H 74.8459 -0.500874 -4.39254 0
M  V30 834 N 73.905 1.17692 -1.04816 0
M  V30 835 C 75.321 1.39863 -0.768794 0
M  V30 836 C 75.521 1.91118 0.638451 0
M  V30 837 O 74.577 2.10036 1.40146 0
M  V30 838 C 75.89 2.39274 -1.82122 0
M  V30 839 C 77.438 2.52987 -1.843 0
M  V30 840 C 77.913 3.55669 -2.88555 0
M  V30 841 N 79.404 3.63183 -2.87493 0
M  V30 842 C 80.139 4.42381 -3.64811 0
M  V30 843 N 79.635 5.25125 -4.51903 0
M  V30 844 N 81.428 4.37217 -3.53267 0
M  V30 845 H 73.579 0.82752 -1.95617 0
M  V30 846 H 75.842 0.426123 -0.846831 0
M  V30 847 H 75.548 2.08678 -2.83102 0
M  V30 848 H 75.422 3.38725 -1.65967 0
M  V30 849 H 77.809 2.82896 -0.839869 0
M  V30 850 H 77.89 1.53623 -2.04532 0
M  V30 851 H 77.534 3.26499 -3.89051 0
M  V30 852 H 77.464 4.54728 -2.65575 0
M  V30 853 H 79.955 3.04103 -2.24343 0
M  V30 854 H 80.268 5.82728 -5.07591 0
M  V30 855 H 78.613 5.24519 -4.55966 0
M  V30 856 H 81.804 3.71626 -2.84625 0
M  V30 857 H 81.977 4.98696 -4.13771 0
M  V30 858 N 75.3831 0.828654 1.34056 0
M  V30 859 C 76.3151 0.212052 2.28217 0
M  V30 860 C 77.3281 -0.601362 1.51286 0
M  V30 861 O 78.5171 -0.430104 1.73241 0
M  V30 862 C 75.6171 -0.72088 3.31144 0
M  V30 863 C 74.7901 0.0509587 4.3737 0
M  V30 864 C 73.8491 -0.803766 5.20025 0
M  V30 865 O 72.8751 -0.246667 5.68665 0
M  V30 866 N 74.0771 -2.1227 5.40298 0
M  V30 867 H 76.8421 1.02105 2.81771 0
M  V30 868 H 74.4031 0.686153 1.46641 0
M  V30 869 H 76.3951 -1.29742 3.8334 0
M  V30 870 H 74.9651 -1.43061 2.77943 0
M  V30 871 H 74.1851 0.808831 3.85813 0
M  V30 872 H 75.4731 0.582065 5.0546 0
M  V30 873 H 74.8711 -2.59898 5.02464 0
M  V30 874 H 73.4281 -2.64796 5.95589 0
M  V30 875 N 76.8612 -1.46375 0.584142 0
M  V30 876 C 77.7942 -2.27351 -0.196676 0
M  V30 877 C 78.7722 -1.35715 -0.895561 0
M  V30 878 O 79.9562 -1.65126 -0.90916 0
M  V30 879 C 77.0832 -3.13486 -1.28235 0
M  V30 880 C 76.1292 -4.20896 -0.689145 0
M  V30 881 S 76.9622 -5.33299 0.48507 0
M  V30 882 C 78.1182 -6.23 -0.601767 0
M  V30 883 H 78.3512 -2.93228 0.490395 0
M  V30 884 H 75.8842 -1.49875 0.371071 0
M  V30 885 H 77.8422 -3.63676 -1.90395 0
M  V30 886 H 76.5032 -2.4692 -1.94138 0
M  V30 887 H 75.6962 -4.80997 -1.50527 0
M  V30 888 H 75.2982 -3.73726 -0.143181 0
M  V30 889 H 77.5902 -6.60979 -1.48705 0
M  V30 890 H 78.5332 -7.0809 -0.0374799 0
M  V30 891 H 78.9412 -5.57173 -0.906557 0
M  V30 892 N 78.3393 -0.321999 -1.54275 0
M  V30 893 C 79.7553 0.0306999 -1.5957 0
M  V30 894 C 79.9553 1.50614 -1.33857 0
M  V30 895 O 79.0113 2.2619 -1.12223 0
M  V30 896 C 80.3243 -0.386122 -2.98211 0
M  V30 897 C 81.8723 -0.336647 -3.11184 0
M  V30 898 C 82.3473 -0.728607 -4.52167 0
M  V30 899 N 83.8383 -0.681952 -4.58152 0
M  V30 900 C 84.5733 -0.957449 -5.6535 0
M  V30 901 N 84.0693 -1.3 -6.80494 0
M  V30 902 N 85.8623 -0.883113 -5.55119 0
M  V30 903 H 78.0133 -1.28332 -1.69247 0
M  V30 904 H 80.2763 -0.521716 -0.791528 0
M  V30 905 H 79.9823 -1.41404 -3.22022 0
M  V30 906 H 79.8563 0.249662 -3.76373 0
M  V30 907 H 82.2433 0.682058 -2.8711 0
M  V30 908 H 82.3243 -1.00734 -2.3513 0
M  V30 909 H 81.9683 -1.74522 -4.76974 0
M  V30 910 H 81.8983 -0.0356152 -5.26588 0
M  V30 911 H 84.3893 -0.428985 -3.75457 0
M  V30 912 H 84.7023 -1.49563 -7.58189 0
M  V30 913 H 83.0473 -1.33824 -6.81994 0
M  V30 914 H 86.2383 -0.615001 -4.64042 0
M  V30 915 H 86.4113 -1.10118 -6.38575 0
M  V30 916 N 79.8174 1.5752 -0.0501392 0
M  V30 917 C 81.2284 1.80271 0.485705 0
M  V30 918 C 81.5794 0.96228 1.70981 0
M  V30 919 O 80.7044 0.178578 2.15662 0
M  V30 920 C 81.2994 3.26957 0.887938 0
M  V30 921 C 79.8584 3.5063 1.36877 0
M  V30 922 C 79.0054 2.75165 0.343468 0
M  V30 923 H 81.9564 1.56281 -0.276028 0
M  V30 924 H 81.9774 3.37821 1.75093 0
M  V30 925 H 81.4894 3.881 -0.0031809 0
M  V30 926 H 79.5904 2.94766 2.27911 0
M  V30 927 H 79.7034 4.59343 1.36164 0
M  V30 928 H 78.0674 2.4127 0.816128 0
M  V30 929 H 78.8504 3.39034 -0.539548 0
M  V30 930 N 81.2955 -0.223234 1.56011 0
M  V30 931 C 82.2585 -1.26014 1.9145 0
M  V30 932 C 83.2585 -1.3989 0.792937 0
M  V30 933 O 84.4485 -1.38184 1.0607 0
M  V30 934 C 81.5805 -2.63422 2.16383 0
M  V30 935 H 82.7735 -0.95796 2.84189 0
M  V30 936 H 80.3265 -0.463576 1.49267 0
M  V30 937 H 81.0615 -2.98741 1.2619 0
M  V30 938 H 80.8465 -2.54728 2.98088 0
M  V30 939 H 82.3365 -3.38249 2.44903 0
M  V30 940 N 82.7736 -1.49793 -0.48987 0
M  V30 941 C 84.0196 -1.60078 -1.24511 0
M  V30 942 C 84.3526 -0.291608 -1.91998 0
M  V30 943 O 83.6276 0.705647 -1.81248 0
M  V30 944 C 83.9106 -2.76791 -2.30345 0
M  V30 945 C 83.7636 -4.17535 -1.67286 0
M  V30 946 C 85.0826 -2.89111 -3.31817 0
M  V30 947 H 82.2016 -0.582645 -0.451324 0
M  V30 948 H 84.8436 -1.82117 -0.541612 0
M  V30 949 H 82.9936 -2.5813 -2.90346 0
M  V30 950 H 84.6656 -4.4774 -1.11026 0
M  V30 951 H 82.9086 -4.22665 -0.976577 0
M  V30 952 H 83.5796 -4.95094 -2.44103 0
M  V30 953 H 86.0556 -3.06133 -2.81819 0
M  V30 954 H 84.9316 -3.72433 -4.03219 0
M  V30 955 H 85.1926 -1.9893 -3.94815 0
M  V30 956 N 84.2517 0.741722 -1.39055 0
M  V30 957 C 85.4997 1.49818 -1.35643 0
M  V30 958 C 85.8207 1.94938 0.0491642 0
M  V30 959 O 85.0907 1.68505 0.999141 0
M  V30 960 H 83.6707 0.555755 -0.499144 0
M  V30 961 H 86.3327 0.880957 -1.73854 0
M  V30 962 H 85.4287 2.38348 -2.01486 0
M  V30 963 N 85.7298 1.2412 0.971189 0
M  V30 964 C 86.6598 1.05508 2.08304 0
M  V30 965 C 87.6408 -0.0308864 1.70072 0
M  V30 966 O 88.8258 0.135521 1.93727 0
M  V30 967 C 85.9558 0.655365 3.4106 0
M  V30 968 C 84.9098 1.68971 3.93234 0
M  V30 969 C 84.2358 1.14516 5.22293 0
M  V30 970 C 85.5358 3.08487 4.21465 0
M  V30 971 H 87.2298 1.98507 2.24132 0
M  V30 972 H 84.7758 0.955821 1.07704 0
M  V30 973 H 86.7288 0.51217 4.18276 0
M  V30 974 H 85.4528 -0.31032 3.25122 0
M  V30 975 H 84.1118 1.82106 3.18171 0
M  V30 976 H 83.7598 0.170189 5.02712 0
M  V30 977 H 83.4598 1.83635 5.58168 0
M  V30 978 H 84.9838 1.01401 6.02121 0
M  V30 979 H 86.3978 2.98601 4.89398 0
M  V30 980 H 84.7948 3.74926 4.68562 0
M  V30 981 H 85.8648 3.56787 3.28376 0
M  V30 982 N 87.2079 -1.17134 1.05439 0
M  V30 983 C 88.1709 -2.19439 0.661764 0
M  V30 984 C 89.1709 -1.58199 -0.288042 0
M  V30 985 O 90.3609 -1.74053 -0.0715803 0
M  V30 986 C 87.4929 -3.40889 -0.0276209 0
M  V30 987 H 88.6859 -2.55688 1.56728 0
M  V30 988 H 86.2389 -1.31259 0.848567 0
M  V30 989 H 86.9739 -3.10187 -0.94629 0
M  V30 990 H 86.7589 -3.86586 0.655238 0
M  V30 991 H 88.2489 -4.16603 -0.288342 0
M  V30 992 N 88.686 -0.835752 -1.33615 0
M  V30 993 C 90.097 -0.487099 -1.80234 0
M  V30 994 C 90.448 0.993627 -1.69179 0
M  V30 995 O 89.573 1.77403 -1.23924 0
M  V30 996 C 90.168 -0.877385 -3.27242 0
M  V30 997 C 88.727 -0.580915 -3.7189 0
M  V30 998 C 87.874 -1.0874 -2.5509 0
M  V30 999 H 90.825 -1.02474 -1.2118 0
M  V30 1000 H 90.846 -0.186195 -3.80044 0
M  V30 1001 H 90.358 -1.95512 -3.35256 0
M  V30 1002 H 88.459 0.486881 -3.69405 0
M  V30 1003 H 88.572 -1.13396 -4.65487 0
M  V30 1004 H 86.936 -0.508392 -2.49575 0
M  V30 1005 H 87.719 -2.17184 -2.65868 0
M  V30 1006 N 90.1641 1.46063 -0.591896 0
M  V30 1007 C 91.0941 2.33172 0.123673 0
M  V30 1008 C 92.0751 1.45897 0.87453 0
M  V30 1009 O 93.2601 1.74698 0.848181 0
M  V30 1010 C 90.3901 3.28336 1.13194 0
M  V30 1011 C 89.3441 4.25124 0.495324 0
M  V30 1012 C 88.6701 5.09863 1.61071 0
M  V30 1013 C 89.9701 5.19143 -0.573425 0
M  V30 1014 H 91.6641 2.93252 -0.603646 0
M  V30 1015 H 89.2101 1.41014 -0.291741 0
M  V30 1016 H 91.1631 3.88137 1.64097 0
M  V30 1017 H 89.8871 2.66383 1.88965 0
M  V30 1018 H 88.5461 3.66599 0.00729452 0
M  V30 1019 H 88.1941 4.44288 2.35832 0
M  V30 1020 H 87.8941 5.75417 1.19035 0
M  V30 1021 H 89.4181 5.72529 2.12233 0
M  V30 1022 H 90.8321 5.73106 -0.1491 0
M  V30 1023 H 89.2291 5.93089 -0.914636 0
M  V30 1024 H 90.2991 4.62519 -1.45617 0
M  V30 1025 N 91.6422 0.330177 1.54103 0
M  V30 1026 C 92.5522 -0.541534 2.28264 0
M  V30 1027 C 93.5682 -1.12351 1.32866 0
M  V30 1028 O 94.7442 -1.14206 1.65888 0
M  V30 1029 C 91.8092 -1.68322 3.03098 0
M  V30 1030 C 90.8702 -1.13238 4.14096 0
M  V30 1031 C 90.1032 -2.21966 4.85352 0
M  V30 1032 O 90.3262 -3.42437 4.56172 0
M  V30 1033 O 89.2602 -1.87013 5.7211 0
M  V30 1034 H 93.0862 0.060938 3.03639 0
M  V30 1035 H 90.6712 0.09565 1.49093 0
M  V30 1036 H 92.5532 -2.34777 3.49939 0
M  V30 1037 H 91.2282 -2.27176 2.30593 0
M  V30 1038 H 90.1352 -0.432736 3.71589 0
M  V30 1039 H 91.4682 -0.588898 4.88664 0
M  V30 1040 N 93.1203 -1.57491 0.0584922 0
M  V30 1041 C 94.3693 -1.92155 -0.613146 0
M  V30 1042 C 94.6823 -0.939334 -1.71569 0
M  V30 1043 O 95.8883 -1.17829 -2.44599 0
M  V30 1044 C 94.3443 -3.41303 -1.14195 0
M  V30 1045 C 93.9523 -4.47944 -0.0711265 0
M  V30 1046 C 95.6963 -3.84988 -1.78841 0
M  V30 1047 C 93.6033 -5.88212 -0.613225 0
M  V30 1048 H 92.5333 -0.717162 -0.232796 0
M  V30 1049 H 95.1843 -1.83049 0.12857 0
M  V30 1050 H 93.5663 -3.45437 -1.93621 0
M  V30 1051 H 94.7403 -4.55408 0.702836 0
M  V30 1052 H 93.0553 -4.13644 0.478313 0
M  V30 1053 H 95.6523 -4.87159 -2.20408 0
M  V30 1054 H 95.9953 -3.21632 -2.64308 0
M  V30 1055 H 96.5283 -3.83401 -1.06059 0
M  V30 1056 H 93.2673 -6.55183 0.203978 0
M  V30 1057 H 92.7873 -5.84294 -1.35501 0
M  V30 1058 H 94.4663 -6.37687 -1.09383 0
M  V30 1059 N 94.5984 0.214957 -1.56127 0
M  V30 1060 C 96.0094 0.781386 -1.69562 0
M  V30 1061 C 96.3604 1.84707 -0.66165 0
M  V30 1062 O 95.4854 2.156 0.185927 0
M  V30 1063 C 96.0804 1.42411 -3.07416 0
M  V30 1064 C 94.6394 1.93786 -3.22683 0
M  V30 1065 C 93.7864 0.800438 -2.65496 0
M  V30 1066 H 96.7374 -0.00980633 -1.58697 0
M  V30 1067 H 96.7584 2.29309 -3.0364 0
M  V30 1068 H 96.2704 0.64826 -3.82648 0
M  V30 1069 H 94.3714 2.74152 -2.52332 0
M  V30 1070 H 94.4844 2.1133 -4.29973 0
M  V30 1071 H 92.8484 1.2095 -2.2415 0
M  V30 1072 H 93.6314 0.0371471 -3.4328 0
M  V30 1073 N 96.0765 1.50051 0.48192 0
M  V30 1074 C 97.0395 1.67584 1.5636 0
M  V30 1075 C 98.0395 0.546894 1.51214 0
M  V30 1076 O 99.2295 0.813725 1.54026 0
M  V30 1077 C 96.3615 1.691 2.96003 0
M  V30 1078 H 97.5545 2.64078 1.42136 0
M  V30 1079 H 95.1075 1.39369 0.707533 0
M  V30 1080 H 95.8425 0.742589 3.15684 0
M  V30 1081 H 95.6275 2.51105 3.01146 0
M  V30 1082 H 97.1175 1.84656 3.74556 0
M  V30 1083 N 97.5546 -0.734337 1.39446 0
M  V30 1084 C 98.8026 -1.49096 1.36436 0
M  V30 1085 C 99.1236 -1.94961 -0.0388255 0
M  V30 1086 O 98.3936 -1.69033 -0.990191 0
M  V30 1087 H 96.9736 -0.5531 0.502085 0
M  V30 1088 H 99.6356 -0.871725 1.74319 0
M  V30 1089 H 98.7316 -2.37276 2.02747 0
M  V30 1090 N 99.0327 -1.24633 -0.964593 0
M  V30 1091 C 99.9627 -1.06611 -2.07741 0
M  V30 1092 C 100.944 0.0218666 -1.70086 0
M  V30 1093 O 102.129 -0.145793 -1.93652 0
M  V30 1094 C 99.2587 -0.673444 -3.40708 0
M  V30 1095 C 98.2127 -1.71054 -3.92332 0
M  V30 1096 C 97.5387 -1.17285 -5.21678 0
M  V30 1097 C 98.8387 -3.10718 -4.19824 0
M  V30 1098 H 100.533 -1.99693 -2.23076 0
M  V30 1099 H 98.0787 -0.96152 -1.07195 0
M  V30 1100 H 100.032 -0.534345 -4.17998 0
M  V30 1101 H 98.7557 0.293073 -3.25282 0
M  V30 1102 H 97.4147 -1.83791 -3.17201 0
M  V30 1103 H 97.0627 -0.196847 -5.02615 0
M  V30 1104 H 96.7627 -1.86592 -5.57187 0
M  V30 1105 H 98.2867 -1.04593 -6.01575 0
M  V30 1106 H 99.7007 -3.01192 -4.87808 0
M  V30 1107 H 98.0977 -3.77406 -4.66567 0
M  V30 1108 H 99.1677 -3.58524 -3.26479 0
M  V30 1109 N 100.511 1.16574 -1.06058 0
M  V30 1110 C 101.76 1.86385 -0.770944 0
M  V30 1111 C 102.073 1.82448 0.705129 0
M  V30 1112 O 103.279 2.47815 1.10905 0
M  V30 1113 C 101.735 3.34466 -1.32893 0
M  V30 1114 C 101.343 3.46883 -2.83507 0
M  V30 1115 C 103.087 4.09548 -1.11672 0
M  V30 1116 C 100.994 4.89036 -3.32562 0
M  V30 1117 H 99.9238 0.698181 -0.284709 0
M  V30 1118 H 102.575 1.31583 -1.27899 0
M  V30 1119 H 100.957 3.88859 -0.748662 0
M  V30 1120 H 102.131 3.02663 -3.47465 0
M  V30 1121 H 100.446 2.85232 -3.03368 0
M  V30 1122 H 103.043 5.14434 -1.45814 0
M  V30 1123 H 103.386 4.16264 -0.0549535 0
M  V30 1124 H 103.919 3.61387 -1.66265 0
M  V30 1125 H 100.658 4.87499 -4.38207 0
M  V30 1126 H 100.178 5.3389 -2.73351 0
M  V30 1127 H 101.857 5.57843 -3.2775 0
M  V30 1128 N 101.989 0.842826 1.3317 0
M  V30 1129 C 102.899 0.281444 2.32906 0
M  V30 1130 C 103.915 -0.594587 1.63526 0
M  V30 1131 O 105.091 -0.49777 1.95152 0
M  V30 1132 C 102.156 -0.530929 3.42611 0
M  V30 1133 C 101.217 0.369843 4.27704 0
M  V30 1134 C 100.45 -0.403853 5.3217 0
M  V30 1135 O 100.673 -1.63513 5.46461 0
M  V30 1136 O 99.6069 0.224199 6.01482 0
M  V30 1137 H 103.433 1.10744 2.82789 0
M  V30 1138 H 101.018 0.60545 1.36582 0
M  V30 1139 H 102.9 -0.992437 4.09547 0
M  V30 1140 H 101.575 -1.33392 2.94938 0
M  V30 1141 H 100.482 0.879275 3.6362 0
M  V30 1142 H 101.815 1.13771 4.78871 0
M  V30 1143 N 103.467 -1.45747 0.599634 0
M  V30 1144 C 104.878 -1.85853 0.177681 0
M  V30 1145 C 105.229 -1.50102 -1.26348 0
M  V30 1146 O 104.354 -0.923905 -1.95686 0
M  V30 1147 C 104.949 -3.37326 0.315688 0
M  V30 1148 C 103.508 -3.76365 -0.0515144 0
M  V30 1149 C 102.655 -2.69722 0.643822 0
M  V30 1150 H 105.606 -1.36661 0.806814 0
M  V30 1151 H 105.627 -3.77778 -0.454321 0
M  V30 1152 H 105.139 -3.63315 1.36468 0
M  V30 1153 H 103.24 -3.55993 -1.09999 0
M  V30 1154 H 103.353 -4.77916 0.336594 0
M  V30 1155 H 101.717 -2.54567 0.0822881 0
M  V30 1156 H 102.5 -2.98549 1.6948 0
M  V30 1157 N 104.945 -0.338344 -1.53925 0
M  V30 1158 C 106.193 0.259245 -2.0043 0
M  V30 1159 C 106.514 1.51484 -1.22791 0
M  V30 1160 O 105.784 1.93037 -0.33368 0
M  V30 1161 H 104.364 0.0987845 -0.740439 0
M  V30 1162 H 107.026 -0.458302 -1.89435 0
M  V30 1163 H 106.122 0.505334 -3.07982 0
M  V30 1164 N 106.423 1.57458 -0.0668435 0
M  V30 1165 C 107.333 2.15937 0.916975 0
M  V30 1166 C 108.349 1.12123 1.33058 0
M  V30 1167 O 109.525 1.44366 1.40429 0
M  V30 1168 C 106.59 2.70547 2.16807 0
M  V30 1169 C 105.651 3.89215 1.81135 0
M  V30 1170 C 104.884 4.41211 3.0028 0
M  V30 1171 O 105.107 3.92225 4.14144 0
M  V30 1172 O 104.041 5.32605 2.80384 0
M  V30 1173 H 107.867 3.00354 0.449561 0
M  V30 1174 H 105.452 1.48584 0.155949 0
M  V30 1175 H 107.334 3.0557 2.90181 0
M  V30 1176 H 106.009 1.89192 2.62656 0
M  V30 1177 H 104.916 3.59054 1.05028 0
M  V30 1178 H 106.249 4.71848 1.40073 0
M  V30 1179 N 107.901 -0.206675 1.56239 0
M  V30 1180 C 109.178 -0.954051 1.70755 0
M  V30 1181 C 109.558 -2.01841 0.618353 0
M  V30 1182 O 108.906 -2.25444 -0.372434 0
M  V30 1183 C 109.116 -1.551 3.12642 0
M  V30 1184 C 110.464 -2.03757 3.72516 0
M  V30 1185 O 111.488 -1.64965 3.15698 0
M  V30 1186 O 110.347 -2.75103 4.72208 0
M  V30 1187 H 107.441 -0.446636 0.696021 0
M  V30 1188 H 109.987 -0.197283 1.68549 0
M  V30 1189 H 108.759 -0.783212 3.83382 0
M  V30 1190 H 108.382 -2.37291 3.19028 0
M  V30 1191 N 109.379 -1.50304 -0.473955 0
M  V30 1192 C 110.79 -1.54042 -1.0549 0
M  V30 1193 C 111.141 -0.342248 -1.93192 0
M  V30 1194 O 110.266 0.545157 -2.09421 0
M  V30 1195 C 110.861 -2.79152 -1.91989 0
M  V30 1196 C 109.42 -2.8558 -2.45196 0
M  V30 1197 C 108.567 -2.48295 -1.2347 0
M  V30 1198 H 111.518 -1.5661 -0.256693 0
M  V30 1199 H 111.539 -2.60845 -2.7702 0
M  V30 1200 H 111.051 -3.66339 -1.28131 0
M  V30 1201 H 109.152 -2.02738 -3.12615 0
M  V30 1202 H 109.265 -3.88403 -2.80499 0
M  V30 1203 H 107.629 -2.00669 -1.56856 0
M  V30 1204 H 108.412 -3.37787 -0.612789 0
M  V30 1205 N 110.857 0.726932 -1.39834 0
M  V30 1206 C 111.787 1.85405 -1.41941 0
M  V30 1207 C 112.768 1.67751 -0.281728 0
M  V30 1208 O 113.953 1.8795 -0.488717 0
M  V30 1209 C 111.083 3.23243 -1.2701 0
M  V30 1210 C 110.037 3.55549 -2.38262 0
M  V30 1211 C 109.363 4.9241 -2.08415 0
M  V30 1212 C 110.663 3.577 -3.80589 0
M  V30 1213 H 112.357 1.83899 -2.36266 0
M  V30 1214 H 109.903 0.883349 -1.13723 0
M  V30 1215 H 111.856 4.01775 -1.27103 0
M  V30 1216 H 110.58 3.25296 -0.291564 0
M  V30 1217 H 109.239 2.79351 -2.37399 0
M  V30 1218 H 108.887 4.91052 -1.0898 0
M  V30 1219 H 108.587 5.14992 -2.82943 0
M  V30 1220 H 110.111 5.73289 -2.10171 0
M  V30 1221 H 111.525 4.26293 -3.83337 0
M  V30 1222 H 109.922 3.91804 -4.54543 0
M  V30 1223 H 110.992 2.57328 -4.10987 0
M  V30 1224 N 112.336 1.25143 0.95797 0
M  V30 1225 C 113.246 1.06968 2.08794 0
M  V30 1226 C 114.262 0.00773911 1.73998 0
M  V30 1227 O 115.438 0.207972 2.00323 0
M  V30 1228 C 112.503 0.68691 3.39827 0
M  V30 1229 C 111.564 1.82641 3.88511 0
M  V30 1230 C 110.797 1.46181 5.1329 0
M  V30 1231 O 111.02 0.355971 5.69288 0
M  V30 1232 O 109.954 2.29085 5.566 0
M  V30 1233 H 113.78 2.01723 2.27027 0
M  V30 1234 H 111.365 1.04051 1.07209 0
M  V30 1235 H 113.247 0.485417 4.18595 0
M  V30 1236 H 111.922 -0.231417 3.22872 0
M  V30 1237 H 110.829 2.08274 3.10762 0
M  V30 1238 H 112.162 2.72386 4.09959 0
M  V30 1239 N 113.814 -1.1601 1.06675 0
M  V30 1240 C 114.777 -2.18724 0.685001 0
M  V30 1241 C 115.777 -1.58496 -0.271246 0
M  V30 1242 O 116.967 -1.74119 -0.0531156 0
M  V30 1243 C 114.099 -3.40899 0.00853648 0
M  V30 1244 H 115.292 -2.54011 1.59431 0
M  V30 1245 H 112.845 -1.30352 0.862441 0
M  V30 1246 H 113.58 -3.11173 -0.913337 0
M  V30 1247 H 113.365 -3.8587 0.696204 0
M  V30 1248 H 114.855 -4.16886 -0.24414 0
M  V30 1249 N 115.292 -0.849877 -1.32721 0
M  V30 1250 C 116.255 -0.296122 -2.27279 0
M  V30 1251 C 117.255 0.541458 -1.5141 0
M  V30 1252 O 118.445 0.353658 -1.70572 0
M  V30 1253 C 115.577 0.581579 -3.35902 0
M  V30 1254 H 116.77 -1.13064 -2.77771 0
M  V30 1255 H 114.323 -0.62383 -1.43311 0
M  V30 1256 H 115.058 1.43809 -2.9067 0
M  V30 1257 H 114.843 -0.0178814 -3.92096 0
M  V30 1258 H 116.333 0.961951 -4.0637 0
M  V30 1259 N 116.77 1.45427 -0.607355 0
M  V30 1260 C 118.186 1.57283 -0.270985 0
M  V30 1261 C 118.386 1.59875 1.22647 0
M  V30 1262 O 117.442 1.52893 2.00948 0
M  V30 1263 C 118.755 2.85566 -0.941952 0
M  V30 1264 C 120.303 2.9924 -0.917849 0
M  V30 1265 C 120.778 4.30293 -1.56882 0
M  V30 1266 N 122.269 4.37051 -1.5343 0
M  V30 1267 C 123.004 5.37123 -2.00715 0
M  V30 1268 N 122.5 6.43734 -2.56084 0
M  V30 1269 N 124.293 5.28479 -1.91484 0
M  V30 1270 H 116.444 1.41988 -1.57966 0
M  V30 1271 H 118.707 0.67885 -0.661715 0
M  V30 1272 H 118.413 2.8955 -1.99633 0
M  V30 1273 H 118.287 3.74322 -0.465096 0
M  V30 1274 H 120.674 2.94822 0.127984 0
M  V30 1275 H 120.755 2.11895 -1.43297 0
M  V30 1276 H 120.399 4.35469 -2.61398 0
M  V30 1277 H 120.329 5.16454 -1.02873 0
M  V30 1278 H 122.82 3.60615 -1.12982 0
M  V30 1279 H 123.133 7.16341 -2.89958 0
M  V30 1280 H 121.478 6.44485 -2.60122 0
M  V30 1281 H 124.669 4.44098 -1.47967 0
M  V30 1282 H 124.842 6.0632 -2.28648 0
M  V30 1283 N 118.248 0.346503 1.53744 0
M  V30 1284 C 119.664 -0.00530975 1.59599 0
M  V30 1285 C 119.864 -1.48465 1.36236 0
M  V30 1286 O 118.92 -2.24376 1.15808 0
M  V30 1287 C 120.233 0.433516 2.97559 0
M  V30 1288 C 121.781 0.386111 3.10609 0
M  V30 1289 C 122.256 0.800451 4.50951 0
M  V30 1290 N 123.747 0.754753 4.5701 0
M  V30 1291 C 124.482 1.04727 5.63755 0
M  V30 1292 N 123.978 1.4081 6.7834 0
M  V30 1293 N 125.771 0.971316 5.53644 0
M  V30 1294 H 117.922 1.31009 1.67184 0
M  V30 1295 H 120.185 0.534242 0.783128 0
M  V30 1296 H 119.891 1.46509 3.19731 0
M  V30 1297 H 119.765 -0.189753 3.76722 0
M  V30 1298 H 122.152 -0.636295 2.88158 0
M  V30 1299 H 122.233 1.04462 2.33498 0
M  V30 1300 H 121.877 1.82088 4.74137 0
M  V30 1301 H 121.807 0.119386 5.26465 0
M  V30 1302 H 124.298 0.488662 3.74727 0
M  V30 1303 H 124.611 1.61607 7.55714 0
M  V30 1304 H 122.956 1.44657 6.79779 0
M  V30 1305 H 126.147 0.688748 4.63005 0
M  V30 1306 H 126.32 1.20263 6.36742 0
M  V30 1307 N 119.726 -1.57421 0.075193 0
M  V30 1308 C 120.636 -2.1642 -0.905511 0
M  V30 1309 C 121.652 -1.12828 -1.32461 0
M  V30 1310 O 122.828 -1.45109 -1.39661 0
M  V30 1311 C 119.893 -2.71693 -2.15369 0
M  V30 1312 C 118.954 -3.90171 -1.79068 0
M  V30 1313 C 118.187 -4.42798 -2.97936 0
M  V30 1314 O 118.41 -3.94416 -4.12058 0
M  V30 1315 O 117.344 -5.34085 -2.77555 0
M  V30 1316 H 121.17 -3.00588 -0.433626 0
M  V30 1317 H 118.755 -1.48664 -0.148067 0
M  V30 1318 H 120.637 -3.07104 -2.88557 0
M  V30 1319 H 119.312 -1.90582 -2.61649 0
M  V30 1320 H 118.219 -3.59606 -1.03122 0
M  V30 1321 H 119.552 -4.72584 -1.37569 0
M  V30 1322 N 121.204 0.198386 -1.56346 0
M  V30 1323 C 122.134 1.24865 -1.9731 0
M  V30 1324 C 123.115 1.47651 -0.844576 0
M  V30 1325 O 124.3 1.59444 -1.10866 0
M  V30 1326 C 121.43 2.59358 -2.30977 0
M  V30 1327 C 120.384 2.5119 -3.46537 0
M  V30 1328 C 119.71 3.89926 -3.65871 0
M  V30 1329 C 121.01 2.03977 -4.80823 0
M  V30 1330 H 122.704 0.908252 -2.85291 0
M  V30 1331 H 120.25 0.435462 -1.37258 0
M  V30 1332 H 122.203 3.33011 -2.58228 0
M  V30 1333 H 120.927 2.95132 -1.39874 0
M  V30 1334 H 119.586 1.79993 -3.19371 0
M  V30 1335 H 119.234 4.23046 -2.72105 0
M  V30 1336 H 118.934 3.85336 -4.4361 0
M  V30 1337 H 120.458 4.65205 -3.95495 0
M  V30 1338 H 121.872 2.67386 -5.07127 0
M  V30 1339 H 120.269 2.10397 -5.62008 0
M  V30 1340 H 121.339 0.992861 -4.74626 0
M  V30 1341 N 122.682 1.50554 0.465978 0
M  V30 1342 C 123.645 1.69233 1.54574 0
M  V30 1343 C 124.645 0.562901 1.50626 0
M  V30 1344 O 125.835 0.830016 1.53155 0
M  V30 1345 C 122.967 1.7223 2.94193 0
M  V30 1346 H 124.16 2.65571 1.39327 0
M  V30 1347 H 121.713 1.40111 0.692711 0
M  V30 1348 H 122.448 0.77603 3.14878 0
M  V30 1349 H 122.233 2.54285 2.98466 0
M  V30 1350 H 123.723 1.88618 3.72576 0
M  V30 1351 N 124.16 -0.719506 1.40217 0
M  V30 1352 C 125.07 -1.86378 1.42479 0
M  V30 1353 C 126.086 -1.71073 0.317834 0
M  V30 1354 O 127.262 -1.93406 0.561794 0
M  V30 1355 C 124.327 -3.22136 1.28178 0
M  V30 1356 C 123.388 -3.49723 2.48982 0
M  V30 1357 C 122.621 -4.79004 2.35353 0
M  V30 1358 O 122.844 -5.53821 1.36524 0
M  V30 1359 O 121.778 -5.06839 3.2465 0
M  V30 1360 H 125.604 -1.87425 2.38968 0
M  V30 1361 H 123.189 -0.869405 1.21498 0
M  V30 1362 H 125.071 -4.03234 1.22395 0
M  V30 1363 H 123.746 -3.21825 0.347934 0
M  V30 1364 H 122.653 -2.6865 2.60342 0
M  V30 1365 H 123.986 -3.54828 3.41113 0
M  V30 1366 N 125.638 -1.25649 -0.95132 0
M  V30 1367 C 126.548 -1.08073 -2.08224 0
M  V30 1368 C 127.564 -0.0169666 -1.73992 0
M  V30 1369 O 128.74 -0.218593 -2.0021 0
M  V30 1370 C 125.805 -0.704922 -3.39458 0
M  V30 1371 C 124.866 -1.84699 -3.87537 0
M  V30 1372 C 124.099 -1.48902 -5.12508 0
M  V30 1373 O 124.322 -0.386156 -5.69091 0
M  V30 1374 O 123.256 -2.32033 -5.55378 0
M  V30 1375 H 127.082 -2.02924 -2.25954 0
M  V30 1376 H 124.667 -1.04618 -1.06656 0
M  V30 1377 H 126.549 -0.507609 -4.18332 0
M  V30 1378 H 125.224 0.214291 -3.2299 0
M  V30 1379 H 124.131 -2.09919 -3.09653 0
M  V30 1380 H 125.464 -2.74557 -4.08509 0
M  V30 1381 N 127.117 1.15442 -1.07289 0
M  V30 1382 C 128.345 1.90096 -0.81676 0
M  V30 1383 C 128.76 1.7798 0.629966 0
M  V30 1384 O 128.117 1.1313 1.43206 0
M  V30 1385 C 128.168 3.40466 -1.21512 0
M  V30 1386 O 127.889 3.52232 -2.60508 0
M  V30 1387 C 129.39 4.32145 -0.988198 0
M  V30 1388 H 126.61 0.602495 -0.295366 0
M  V30 1389 H 129.154 1.4627 -1.42918 0
M  V30 1390 H 127.309 3.81958 -0.647039 0
M  V30 1391 H 127.723 4.45549 -2.76742 0
M  V30 1392 H 129.197 5.36072 -1.31645 0
M  V30 1393 H 129.674 4.39135 0.0755063 0
M  V30 1394 H 130.28 3.96395 -1.54115 0
M  V30 1395 N 128.595 0.856903 1.32268 0
M  V30 1396 C 129.843 0.460474 1.96784 0
M  V30 1397 C 130.164 -0.987701 1.68135 0
M  V30 1398 O 129.434 -1.69058 0.989765 0
M  V30 1399 H 128.014 0.167289 0.728027 0
M  V30 1400 H 130.676 1.09383 1.61312 0
M  V30 1401 H 129.772 0.60739 3.06133 0
M  V30 1402 N 130.073 -1.45103 0.615059 0
M  V30 1403 C 131.003 -2.33339 -0.0865619 0
M  V30 1404 C 131.984 -1.4727 -0.851209 0
M  V30 1405 O 133.169 -1.76026 -0.820281 0
M  V30 1406 C 130.299 -3.30095 -1.07956 0
M  V30 1407 C 129.253 -4.25858 -0.427628 0
M  V30 1408 C 128.579 -5.12361 -1.5294 0
M  V30 1409 C 129.879 -5.18165 0.655944 0
M  V30 1410 H 131.573 -2.92254 0.650224 0
M  V30 1411 H 129.119 -1.40532 0.314138 0
M  V30 1412 H 131.072 -3.90698 -1.57901 0
M  V30 1413 H 129.796 -2.69355 -1.84703 0
M  V30 1414 H 128.455 -3.66564 0.0510292 0
M  V30 1415 H 128.103 -4.47984 -2.28734 0
M  V30 1416 H 127.803 -5.77238 -1.09865 0
M  V30 1417 H 129.327 -5.75833 -2.03098 0
M  V30 1418 H 130.741 -5.72796 0.240257 0
M  V30 1419 H 129.138 -5.91559 1.00888 0
M  V30 1420 H 130.208 -4.60144 1.52957 0
M  V30 1421 N 131.551 -0.354651 -1.53558 0
M  V30 1422 C 132.776 0.242153 -2.05981 0
M  V30 1423 C 133.201 1.42553 -1.2272 0
M  V30 1424 O 132.559 1.79656 -0.243604 0
M  V30 1425 C 132.607 0.624367 -3.55154 0
M  V30 1426 O 131.711 1.72301 -3.74681 0
M  V30 1427 H 131.052 0.0378432 -0.662921 0
M  V30 1428 H 133.582 -0.512087 -1.98088 0
M  V30 1429 H 133.592 0.898433 -3.97985 0
M  V30 1430 H 132.267 -0.240989 -4.15201 0
M  V30 1431 H 130.844 1.44535 -3.4375 0
M  V30 1432 N 133.029 1.57378 -0.0835403 0
M  V30 1433 C 134.277 1.93547 0.581718 0
M  V30 1434 C 134.598 0.96524 1.69435 0
M  V30 1435 O 133.868 0.0153369 1.95894 0
M  V30 1436 H 132.448 0.714521 0.217874 0
M  V30 1437 H 135.11 1.94366 -0.144158 0
M  V30 1438 H 134.206 2.95665 0.999423 0
M  V30 1439 N 134.507 -0.190092 1.56449 0
M  V30 1440 C 135.784 -0.935886 1.71757 0
M  V30 1441 C 136.164 -2.01173 0.639726 0
M  V30 1442 O 135.512 -2.25827 -0.348502 0
M  V30 1443 C 135.722 -1.51775 3.1427 0
M  V30 1444 C 137.07 -1.99794 3.74656 0
M  V30 1445 O 138.094 -1.61607 3.1743 0
M  V30 1446 O 136.953 -2.70079 4.751 0
M  V30 1447 H 134.047 -0.439229 0.700719 0
M  V30 1448 H 136.593 -0.179395 1.68749 0
M  V30 1449 H 135.365 -0.742505 3.84191 0
M  V30 1450 H 134.988 -2.33894 3.21527 0
M  V30 1451 N 135.985 -1.50799 -0.457987 0
M  V30 1452 C 136.915 -1.73553 -1.5621 0
M  V30 1453 C 137.896 -0.584774 -1.59732 0
M  V30 1454 O 139.081 -0.825314 -1.7579 0
M  V30 1455 C 136.211 -1.84169 -2.94447 0
M  V30 1456 C 135.165 -2.99461 -3.0579 0
M  V30 1457 C 134.491 -2.95235 -4.45803 0
M  V30 1458 C 135.791 -4.39766 -2.81786 0
M  V30 1459 H 137.485 -2.66 -1.37421 0
M  V30 1460 H 135.031 -1.28002 -0.659662 0
M  V30 1461 H 136.984 -1.98672 -3.71628 0
M  V30 1462 H 135.708 -0.883545 -3.14422 0
M  V30 1463 H 134.367 -2.8463 -2.31044 0
M  V30 1464 H 134.015 -1.97239 -4.62715 0
M  V30 1465 H 133.715 -3.72642 -4.54326 0
M  V30 1466 H 135.239 -3.11803 -5.24987 0
M  V30 1467 H 136.653 -4.55054 -3.4871 0
M  V30 1468 H 135.05 -5.18722 -3.0174 0
M  V30 1469 H 136.12 -4.51229 -1.7754 0
M  V30 1470 N 137.463 0.71206 -1.40597 0
M  V30 1471 C 138.691 1.50111 -1.42388 0
M  V30 1472 C 139.106 1.88784 -0.0245395 0
M  V30 1473 O 138.463 1.55681 0.952351 0
M  V30 1474 C 138.514 2.7742 -2.31776 0
M  V30 1475 O 138.235 2.40382 -3.66262 0
M  V30 1476 C 139.736 3.7129 -2.42196 0
M  V30 1477 H 136.956 0.46314 -0.485533 0
M  V30 1478 H 139.5 0.878068 -1.8469 0
M  V30 1479 H 137.655 3.36001 -1.92827 0
M  V30 1480 H 138.069 3.22324 -4.13772 0
M  V30 1481 H 139.543 4.57448 -3.08943 0
M  V30 1482 H 140.02 4.14641 -1.44809 0
M  V30 1483 H 140.626 3.18619 -2.81712 0
M  V30 1484 N 138.941 1.26152 0.944643 0
M  V30 1485 C 140.171 1.14094 1.72239 0
M  V30 1486 C 140.579 -0.306931 1.86694 0
M  V30 1487 O 139.922 -1.22222 1.3714 0
M  V30 1488 C 139.984 1.73316 3.14963 0
M  V30 1489 C 139.648 3.2239 3.23904 0
M  V30 1490 C 140.645 4.19252 3.07447 0
M  V30 1491 C 138.33 3.62788 3.47405 0
M  V30 1492 C 140.324 5.54491 3.14353 0
M  V30 1493 C 138.011 4.98162 3.53947 0
M  V30 1494 C 139.009 5.93823 3.37436 0
M  V30 1495 O 138.697 7.26732 3.43679 0
M  V30 1496 H 138.429 0.398292 0.546205 0
M  V30 1497 H 140.983 1.67201 1.19301 0
M  V30 1498 H 139.213 1.14667 3.69308 0
M  V30 1499 H 140.902 1.56214 3.74636 0
M  V30 1500 H 141.668 3.8938 2.8915 0
M  V30 1501 H 137.547 2.88816 3.59313 0
M  V30 1502 H 141.091 6.29137 3.01384 0
M  V30 1503 H 136.988 5.27695 3.71763 0
M  V30 1504 H 137.756 7.3496 3.60245 0
M  V30 1505 N 140.419 -1.14872 1.07899 0
M  V30 1506 C 141.349 -2.2193 0.725887 0
M  V30 1507 C 142.33 -1.67622 -0.28927 0
M  V30 1508 O 143.515 -1.93533 -0.160787 0
M  V30 1509 C 140.645 -3.47061 0.128856 0
M  V30 1510 C 139.599 -4.14363 1.07178 0
M  V30 1511 C 138.925 -5.33636 0.337229 0
M  V30 1512 C 140.225 -4.63492 2.40775 0
M  V30 1513 H 141.919 -2.51724 1.62097 0
M  V30 1514 H 139.465 -1.20991 0.780838 0
M  V30 1515 H 141.418 -4.21199 -0.130147 0
M  V30 1516 H 140.142 -3.16617 -0.80134 0
M  V30 1517 H 138.801 -3.42173 1.3158 0
M  V30 1518 H 138.449 -4.99449 -0.596606 0
M  V30 1519 H 138.149 -5.79609 0.965788 0
M  V30 1520 H 139.673 -6.10539 0.0861567 0
M  V30 1521 H 141.087 -5.2913 2.20669 0
M  V30 1522 H 139.484 -5.20148 2.99276 0
M  V30 1523 H 140.554 -3.78834 3.02676 0
M  V30 1524 N 141.898 -0.863906 -1.31812 0
M  V30 1525 C 143.145 -0.471836 -1.96926 0
M  V30 1526 C 143.473 0.974578 -1.68322 0
M  V30 1527 O 142.728 1.7003 -0.968933 0
M  V30 1528 C 143.027 -0.668547 -3.51091 0
M  V30 1529 C 142.693 -2.08683 -3.99703 0
M  V30 1530 C 141.355 -2.47471 -4.12688 0
M  V30 1531 C 143.707 -3.01207 -4.25351 0
M  V30 1532 C 141.035 -3.78037 -4.4867 0
M  V30 1533 C 143.387 -4.31282 -4.62794 0
M  V30 1534 C 142.051 -4.69992 -4.73987 0
M  V30 1535 H 141.321 -0.172657 -0.720604 0
M  V30 1536 H 143.968 -1.09573 -1.57054 0
M  V30 1537 H 142.273 0.0385252 -3.91781 0
M  V30 1538 H 143.97 -0.345102 -3.99512 0
M  V30 1539 H 140.56 -1.77566 -3.90087 0
M  V30 1540 H 144.744 -2.72469 -4.14819 0
M  V30 1541 H 140 -4.078 -4.55532 0
M  V30 1542 H 144.174 -5.03031 -4.81594 0
M  V30 1543 H 141.801 -5.71207 -5.01624 0
M  V30 1544 N 143.376 1.44774 -0.622745 0
M  V30 1545 C 144.601 2.06999 -0.128968 0
M  V30 1546 C 145.026 1.4617 1.1839 0
M  V30 1547 O 144.384 0.560007 1.72434 0
M  V30 1548 C 144.432 3.60595 -0.0188351 0
M  V30 1549 O 143.536 3.99398 1.02739 0
M  V30 1550 H 142.877 0.659047 -0.0809544 0
M  V30 1551 H 145.407 1.85784 -0.85705 0
M  V30 1552 H 145.417 4.07627 0.174476 0
M  V30 1553 H 144.092 4.04252 -0.977384 0
M  V30 1554 H 142.669 3.64011 0.809326 0
M  V30 1555 N 144.854 0.36279 1.53368 0
M  V30 1556 C 146.084 -0.228281 2.05335 0
M  V30 1557 C 146.492 -1.43226 1.23625 0
M  V30 1558 O 145.835 -1.81717 0.269206 0
M  V30 1559 C 145.897 -0.688549 3.52845 0
M  V30 1560 C 145.561 0.398362 4.5526 0
M  V30 1561 C 146.558 1.24732 5.04716 0
M  V30 1562 C 144.243 0.557805 4.99193 0
M  V30 1563 C 146.237 2.2411 5.96702 0
M  V30 1564 C 143.924 1.55495 5.90986 0
M  V30 1565 C 144.922 2.39503 6.39631 0
M  V30 1566 O 144.61 3.37517 7.29615 0
M  V30 1567 H 144.342 -0.044395 0.674541 0
M  V30 1568 H 146.896 0.518668 1.98744 0
M  V30 1569 H 145.126 -1.48706 3.56964 0
M  V30 1570 H 146.815 -1.20231 3.87685 0
M  V30 1571 H 147.581 1.13532 4.71525 0
M  V30 1572 H 143.46 -0.0862959 4.60919 0
M  V30 1573 H 147.004 2.89718 6.34594 0
M  V30 1574 H 142.901 1.66744 6.23592 0
M  V30 1575 H 143.669 3.33213 7.47604 0
M  V30 1576 N 146.332 -1.57332 0.0918853 0
M  V30 1577 C 147.579 -1.94236 -0.572577 0
M  V30 1578 C 147.907 -0.973398 -1.6839 0
M  V30 1579 O 147.162 0.00756912 -1.95699 0
M  V30 1580 C 147.461 -3.37689 -1.17051 0
M  V30 1581 C 147.127 -4.50527 -0.183304 0
M  V30 1582 C 145.789 -4.81119 0.0882276 0
M  V30 1583 C 148.141 -5.18883 0.49095 0
M  V30 1584 C 145.469 -5.77395 1.04076 0
M  V30 1585 C 147.821 -6.1618 1.43193 0
M  V30 1586 C 146.485 -6.45179 1.71173 0
M  V30 1587 H 145.755 -0.710762 -0.209521 0
M  V30 1588 H 148.402 -1.9077 0.167036 0
M  V30 1589 H 146.707 -3.37718 -1.9863 0
M  V30 1590 H 148.404 -3.63543 -1.69227 0
M  V30 1591 H 144.994 -4.26681 -0.405124 0
M  V30 1592 H 149.178 -4.95427 0.294312 0
M  V30 1593 H 144.434 -5.98179 1.26457 0
M  V30 1594 H 148.608 -6.68243 1.96023 0
M  V30 1595 H 146.235 -7.1959 2.4514 0
M  V30 1596 N 147.81 0.181792 -1.56548 0
M  V30 1597 C 149.056 0.901431 -1.81665 0
M  V30 1598 C 149.389 1.82347 -0.668075 0
M  V30 1599 O 148.664 1.91669 0.330615 0
M  V30 1600 C 148.947 1.70618 -3.17115 0
M  V30 1601 C 148.8 0.807964 -4.42484 0
M  V30 1602 C 150.119 2.67605 -3.49393 0
M  V30 1603 H 147.238 0.32627 -0.660846 0
M  V30 1604 H 149.88 0.168134 -1.89255 0
M  V30 1605 H 148.03 2.33133 -3.10775 0
M  V30 1606 H 149.702 0.19649 -4.60881 0
M  V30 1607 H 147.945 0.115411 -4.33646 0
M  V30 1608 H 148.616 1.40632 -5.33785 0
M  V30 1609 H 151.092 2.15218 -3.56118 0
M  V30 1610 H 149.968 3.20985 -4.45264 0
M  V30 1611 H 150.229 3.47298 -2.73563 0
M  V30 1612 N 149.288 1.51039 0.449983 0
M  V30 1613 C 150.513 1.6715 1.22783 0
M  V30 1614 C 150.938 0.363081 1.84563 0
M  V30 1615 O 150.296 -0.675433 1.68249 0
M  V30 1616 C 150.344 2.77985 2.29689 0
M  V30 1617 O 149.448 2.40707 3.34864 0
M  V30 1618 H 148.789 0.557746 0.360299 0
M  V30 1619 H 151.319 1.97535 0.533005 0
M  V30 1620 H 151.329 3.01693 2.74673 0
M  V30 1621 H 150.004 3.72935 1.84098 0
M  V30 1622 H 148.581 2.27523 2.95445 0
M  V30 1623 N 150.766 -0.704594 1.40972 0
M  V30 1624 C 152.177 -1.28418 1.3552 0
M  V30 1625 C 152.528 -1.96171 0.0339434 0
M  V30 1626 O 151.653 -1.98231 -0.867944 0
M  V30 1627 C 152.248 -2.33528 2.45459 0
M  V30 1628 C 150.807 -2.87085 2.43433 0
M  V30 1629 C 149.954 -1.61007 2.2577 0
M  V30 1630 H 152.905 -0.499963 1.50619 0
M  V30 1631 H 152.926 -3.14619 2.13998 0
M  V30 1632 H 152.438 -1.84187 3.41609 0
M  V30 1633 H 150.539 -3.40626 1.51013 0
M  V30 1634 H 150.652 -3.3813 3.39419 0
M  V30 1635 H 149.016 -1.86482 1.73483 0
M  V30 1636 H 149.799 -1.13675 3.23933 0
M  V30 1637 N 152.244 -1.26651 -0.937939 0
M  V30 1638 C 153.492 -1.12165 -1.68118 0
M  V30 1639 C 153.813 0.334983 -1.92101 0
M  V30 1640 O 153.083 1.23583 -1.52 0
M  V30 1641 H 151.663 -0.412093 -0.623048 0
M  V30 1642 H 154.325 -1.59027 -1.12678 0
M  V30 1643 H 153.421 -1.64289 -2.6536 0
M  V30 1644 N 153.722 1.14298 -1.08507 0
M  V30 1645 C 154.969 1.85359 -0.815373 0
M  V30 1646 C 155.297 1.83001 0.658865 0
M  V30 1647 O 154.552 1.25655 1.50031 0
M  V30 1648 C 154.851 3.33547 -1.28379 0
M  V30 1649 C 154.517 3.56093 -2.76602 0
M  V30 1650 C 153.179 3.61955 -3.17084 0
M  V30 1651 C 155.531 3.64834 -3.72217 0
M  V30 1652 C 152.859 3.74082 -4.51973 0
M  V30 1653 C 155.211 3.78487 -5.06883 0
M  V30 1654 C 153.875 3.82598 -5.46969 0
M  V30 1655 H 153.145 0.678276 -0.298366 0
M  V30 1656 H 155.792 1.35002 -1.35819 0
M  V30 1657 H 154.097 3.86191 -0.660593 0
M  V30 1658 H 155.794 3.86959 -1.05186 0
M  V30 1659 H 152.384 3.52179 -2.4427 0
M  V30 1660 H 156.568 3.59595 -3.42061 0
M  V30 1661 H 151.824 3.75527 -4.82483 0
M  V30 1662 H 155.998 3.84193 -5.80834 0
M  V30 1663 H 153.625 3.91747 -6.51489 0
M  V30 1664 N 155.201 0.870884 1.31352 0
M  V30 1665 C 156.429 0.49677 2.00848 0
M  V30 1666 C 156.844 -0.910998 1.65367 0
M  V30 1667 O 156.201 -1.59696 0.883374 0
M  V30 1668 C 156.252 0.645308 3.55694 0
M  V30 1669 O 155.973 1.99764 3.89905 0
M  V30 1670 C 157.474 0.272326 4.42463 0
M  V30 1671 H 154.694 0.193462 0.642506 0
M  V30 1672 H 157.238 1.1723 1.67563 0
M  V30 1673 H 155.393 0.0173176 3.87396 0
M  V30 1674 H 155.807 2.00607 4.84621 0
M  V30 1675 H 157.281 0.427208 5.50344 0
M  V30 1676 H 157.758 -0.788587 4.32062 0
M  V30 1677 H 158.364 0.876054 4.1618 0
M  V30 1678 N 156.679 -1.44442 0.630414 0
M  V30 1679 C 157.956 -1.9549 0.0655657 0
M  V30 1680 C 158.336 -1.5724 -1.40851 0
M  V30 1681 O 157.684 -0.846116 -2.12257 0
M  V30 1682 C 157.894 -3.47812 0.287691 0
M  V30 1683 C 159.242 -4.24216 0.180513 0
M  V30 1684 O 160.266 -3.55526 0.219019 0
M  V30 1685 O 159.125 -5.46434 0.0848493 0
M  V30 1686 H 156.219 -0.826688 -0.0227177 0
M  V30 1687 H 158.765 -1.54496 0.702068 0
M  V30 1688 H 157.537 -3.687 1.31056 0
M  V30 1689 H 157.16 -3.95751 -0.382984 0
M  V30 1690 N 158.157 -0.370918 -1.53173 0
M  V30 1691 C 159.067 0.480823 -2.2962 0
M  V30 1692 C 160.083 1.08789 -1.35798 0
M  V30 1693 O 161.259 1.09768 -1.68858 0
M  V30 1694 C 158.324 1.60227 -3.07454 0
M  V30 1695 C 157.385 1.0222 -4.16953 0
M  V30 1696 C 156.618 2.0902 -4.91066 0
M  V30 1697 O 156.841 3.30222 -4.65091 0
M  V30 1698 O 155.775 1.71778 -5.76867 0
M  V30 1699 H 159.601 -0.141421 -3.03371 0
M  V30 1700 H 157.186 -0.135146 -1.48787 0
M  V30 1701 H 159.068 2.25417 -3.56041 0
M  V30 1702 H 157.743 2.20982 -2.36535 0
M  V30 1703 H 156.65 0.334064 -3.72605 0
M  V30 1704 H 157.983 0.459131 -4.90054 0
M  V30 1705 N 159.635 1.57281 -0.100228 0
M  V30 1706 C 160.582 2.14305 0.856858 0
M  V30 1707 C 161.552 1.06296 1.27634 0
M  V30 1708 O 162.737 1.34109 1.35718 0
M  V30 1709 C 159.877 2.73184 2.10866 0
M  V30 1710 C 158.99 3.95442 1.73925 0
M  V30 1711 C 158.125 4.42468 2.93931 0
M  V30 1712 C 157.164 5.57303 2.5314 0
M  V30 1713 N 156.301 5.99158 3.65997 0
M  V30 1714 H 161.141 2.95772 0.363726 0
M  V30 1715 H 158.678 1.46139 0.167858 0
M  V30 1716 H 160.636 3.05442 2.84185 0
M  V30 1717 H 159.266 1.94437 2.57671 0
M  V30 1718 H 158.318 3.69464 0.905554 0
M  V30 1719 H 159.63 4.78769 1.39935 0
M  V30 1720 H 158.784 4.76537 3.75496 0
M  V30 1721 H 157.523 3.58052 3.31134 0
M  V30 1722 H 156.528 5.22857 1.70003 0
M  V30 1723 H 157.753 6.43471 2.17075 0
M  V30 1724 H 155.699 5.17687 4.02909 0
M  V30 1725 H 155.616 6.77295 3.35869 0
M  V30 1726 H 156.884 6.3786 4.48057 0
M  V30 1727 N 161.113 -0.173488 1.56642 0
M  V30 1728 C 162.341 -0.906095 1.86004 0
M  V30 1729 C 162.756 -1.75921 0.685355 0
M  V30 1730 O 162.113 -1.79198 -0.345578 0
M  V30 1731 C 162.164 -1.78462 3.14378 0
M  V30 1732 O 161.885 -0.965914 4.27319 0
M  V30 1733 C 163.386 -2.62707 3.57071 0
M  V30 1734 H 160.606 -0.263341 0.617165 0
M  V30 1735 H 163.15 -0.174236 2.03756 0
M  V30 1736 H 161.305 -2.46984 2.98459 0
M  V30 1737 H 161.719 -1.56655 5.00559 0
M  V30 1738 H 163.193 -3.19969 4.49804 0
M  V30 1739 H 163.67 -3.37472 2.81086 0
M  V30 1740 H 164.276 -1.99521 3.75595 0
M  V30 1741 N 162.591 -1.51276 -0.441967 0
M  V30 1742 C 163.541 -1.6864 -1.53442 0
M  V30 1743 C 164.525 -0.540444 -1.51552 0
M  V30 1744 O 165.717 -0.796157 -1.58083 0
M  V30 1745 C 162.846 -1.8106 -2.91672 0
M  V30 1746 C 161.932 -3.01424 -2.98336 0
M  V30 1747 N 162.323 -4.2467 -2.74752 0
M  V30 1748 C 160.621 -3.00584 -3.29493 0
M  V30 1749 C 161.322 -5.05891 -2.87139 0
M  V30 1750 N 160.298 -4.40442 -3.18609 0
M  V30 1751 H 164.1 -2.61598 -1.33954 0
M  V30 1752 H 161.614 -1.4886 -0.6492 0
M  V30 1753 H 163.611 -1.91609 -3.70259 0
M  V30 1754 H 162.271 -0.892795 -3.12185 0
M  V30 1755 H 163.282 -4.53691 -2.49769 0
M  V30 1756 H 159.959 -2.18417 -3.55809 0
M  V30 1757 H 161.349 -6.13983 -2.72899 0
M  V30 1758 N 164.069 0.697108 -1.41344 0
M  V30 1759 C 165.315 1.4593 -1.40827 0
M  V30 1760 C 165.648 1.94193 -0.0167098 0
M  V30 1761 O 164.923 1.69425 0.955263 0
M  V30 1762 C 165.206 2.67229 -2.41373 0
M  V30 1763 C 165.059 2.24741 -3.8963 0
M  V30 1764 C 166.378 3.69423 -2.39196 0
M  V30 1765 H 163.497 0.529303 -0.512842 0
M  V30 1766 H 166.139 0.794112 -1.72609 0
M  V30 1767 H 164.289 3.23982 -2.14401 0
M  V30 1768 H 165.961 1.73327 -4.27499 0
M  V30 1769 H 164.204 1.56542 -4.0457 0
M  V30 1770 H 164.875 3.1177 -4.55525 0
M  V30 1771 H 167.351 3.2234 -2.63128 0
M  V30 1772 H 166.227 4.51907 -3.11563 0
M  V30 1773 H 166.488 4.19012 -1.41001 0
M  V30 1774 N 165.547 1.27147 0.931209 0
M  V30 1775 C 166.794 1.13278 1.67852 0
M  V30 1776 C 167.122 -0.32204 1.91815 0
M  V30 1777 O 166.377 -1.25224 1.50391 0
M  V30 1778 C 166.676 1.8579 3.05314 0
M  V30 1779 C 166.342 3.35657 3.01073 0
M  V30 1780 C 165.004 3.76536 2.99623 0
M  V30 1781 C 167.356 4.31299 2.92627 0
M  V30 1782 C 164.684 5.11426 2.87506 0
M  V30 1783 C 167.036 5.66242 2.82051 0
M  V30 1784 C 165.7 6.06418 2.7895 0
M  V30 1785 H 164.97 0.414515 0.614214 0
M  V30 1786 H 167.617 1.57712 1.08624 0
M  V30 1787 H 165.922 1.33854 3.68226 0
M  V30 1788 H 167.619 1.72491 3.62005 0
M  V30 1789 H 164.209 3.03146 3.02986 0
M  V30 1790 H 168.393 4.00692 2.92848 0
M  V30 1791 H 163.649 5.41705 2.83489 0
M  V30 1792 H 167.823 6.40026 2.74481 0
M  V30 1793 H 165.45 7.10895 2.69318 0
M  V30 1794 N 167.025 -1.13721 1.09112 0
M  V30 1795 C 167.955 -2.21148 0.749385 0
M  V30 1796 C 168.936 -1.6792 -0.271475 0
M  V30 1797 O 170.121 -1.93693 -0.140251 0
M  V30 1798 C 167.251 -3.46905 0.165659 0
M  V30 1799 C 166.205 -4.13203 1.11567 0
M  V30 1800 C 165.531 -5.33248 0.393809 0
M  V30 1801 C 166.831 -4.60912 2.45678 0
M  V30 1802 H 168.525 -2.4999 1.64758 0
M  V30 1803 H 166.071 -1.20156 0.793626 0
M  V30 1804 H 168.024 -4.21313 -0.085466 0
M  V30 1805 H 166.748 -3.17449 -0.767714 0
M  V30 1806 H 165.407 -3.40758 1.35202 0
M  V30 1807 H 165.055 -5.00054 -0.543599 0
M  V30 1808 H 164.755 -5.78552 1.02721 0
M  V30 1809 H 166.279 -6.10413 0.150908 0
M  V30 1810 H 167.693 -5.26759 2.26269 0
M  V30 1811 H 166.09 -5.16944 3.04776 0
M  V30 1812 H 167.16 -3.75603 3.06677 0
M  V30 1813 N 168.503 -0.877838 -1.30888 0
M  V30 1814 C 169.466 -0.344265 -2.266 0
M  V30 1815 C 170.466 0.50922 -1.52524 0
M  V30 1816 O 171.656 0.317398 -1.71284 0
M  V30 1817 C 168.788 0.510198 -3.37061 0
M  V30 1818 H 169.981 -1.1893 -2.7531 0
M  V30 1819 H 167.534 -0.654088 -1.41956 0
M  V30 1820 H 168.269 1.37612 -2.93655 0
M  V30 1821 H 168.054 -0.101047 -3.9197 0
M  V30 1822 H 169.544 0.875537 -4.08319 0
M  V30 1823 N 169.982 1.44106 -0.638065 0
M  V30 1824 C 170.892 2.34513 0.0637334 0
M  V30 1825 C 171.908 1.53018 0.828346 0
M  V30 1826 O 173.084 1.85723 0.779036 0
M  V30 1827 C 170.149 3.31095 1.02844 0
M  V30 1828 C 169.21 4.28497 0.26244 0
M  V30 1829 C 168.443 5.20465 1.1812 0
M  V30 1830 O 168.666 5.16514 2.42011 0
M  V30 1831 O 167.6 5.98251 0.661774 0
M  V30 1832 H 171.426 2.95989 -0.68003 0
M  V30 1833 H 169.011 1.43994 -0.398252 0
M  V30 1834 H 170.893 3.90526 1.58327 0
M  V30 1835 H 169.568 2.72144 1.7527 0
M  V30 1836 H 168.475 3.72592 -0.335602 0
M  V30 1837 H 169.808 4.90388 -0.421936 0
M  V30 1838 N 171.46 0.379036 1.52974 0
M  V30 1839 C 172.408 -0.476033 2.27677 0
M  V30 1840 C 173.402 -1.0719 1.31174 0
M  V30 1841 O 174.608 -1.01355 1.48752 0
M  V30 1842 H 170.983 -0.172255 0.732006 0
M  V30 1843 H 172.954 0.175615 2.97883 0
M  V30 1844 C 171.703 -1.5967 3.0887 0
M  V30 1845 H 171.026 -1.1475 3.82978 0
M  V30 1846 H 172.466 -2.16943 3.64296 0
M  V30 1847 C 170.925 -2.54682 2.20542 0
M  V30 1848 O 171.455 -3.57836 1.82527 0
M  V30 1849 N 169.661 -2.24183 1.84907 0
M  V30 1850 H 169.208 -1.40333 2.1602 0
M  V30 1851 H 169.166 -2.88006 1.26096 0
M  V30 1852 N 172.938 -1.57226 0.108567 0
M  V30 1853 C 173.868 -2.17778 -0.84232 0
M  V30 1854 C 174.849 -1.11487 -1.2847 0
M  V30 1855 O 176.034 -1.39681 -1.34918 0
M  V30 1856 C 173.164 -2.76888 -2.09644 0
M  V30 1857 C 172.118 -3.88669 -1.79221 0
M  V30 1858 C 171.444 -4.34541 -3.11574 0
M  V30 1859 C 172.744 -5.11251 -1.06864 0
M  V30 1860 H 174.438 -2.97489 -0.337774 0
M  V30 1861 H 171.984 -1.43097 -0.161025 0
M  V30 1862 H 173.937 -3.17904 -2.76614 0
M  V30 1863 H 172.661 -1.94451 -2.62405 0
M  V30 1864 H 171.32 -3.48213 -1.14644 0
M  V30 1865 H 170.968 -3.48977 -3.62249 0
M  V30 1866 H 170.668 -5.09914 -2.91996 0
M  V30 1867 H 172.192 -4.782 -3.7968 0
M  V30 1868 H 173.606 -5.49352 -1.63968 0
M  V30 1869 H 172.003 -5.9214 -0.974178 0
M  V30 1870 H 173.073 -4.8487 -0.0536168 0
M  V30 1871 N 174.416 0.165178 -1.56732 0
M  V30 1872 C 175.363 1.2044 -1.96883 0
M  V30 1873 C 176.333 1.43664 -0.833657 0
M  V30 1874 O 177.518 1.56302 -1.09427 0
M  V30 1875 C 174.658 2.53727 -2.33916 0
M  V30 1876 C 173.771 2.3783 -3.6064 0
M  V30 1877 C 172.906 3.64026 -3.86857 0
M  V30 1878 C 171.945 3.43088 -5.06909 0
M  V30 1879 N 171.082 4.61369 -5.29229 0
M  V30 1880 H 175.922 0.854996 -2.85471 0
M  V30 1881 H 173.459 0.41076 -1.41249 0
M  V30 1882 H 175.417 3.31419 -2.53411 0
M  V30 1883 H 174.047 2.8665 -1.48431 0
M  V30 1884 H 173.099 1.51282 -3.49024 0
M  V30 1885 H 174.411 2.18308 -4.4849 0
M  V30 1886 H 173.565 4.50152 -4.06753 0
M  V30 1887 H 172.304 3.86533 -2.97394 0
M  V30 1888 H 171.309 2.55349 -4.86906 0
M  V30 1889 H 172.534 3.21997 -5.97909 0
M  V30 1890 H 170.48 4.84084 -4.42718 0
M  V30 1891 H 170.397 4.44783 -6.11313 0
M  V30 1892 H 171.665 5.48761 -5.53608 0
M  V30 1893 N 175.894 1.51508 0.433938 0
M  V30 1894 C 176.804 1.75917 1.5521 0
M  V30 1895 C 177.82 0.643545 1.61662 0
M  V30 1896 O 178.996 0.926183 1.7884 0
M  V30 1897 C 176.061 1.88213 2.91164 0
M  V30 1898 C 175.122 3.12074 2.94802 0
M  V30 1899 C 174.355 3.23774 4.24271 0
M  V30 1900 O 174.578 2.4133 5.16833 0
M  V30 1901 O 173.512 4.16774 4.34262 0
M  V30 1902 H 177.338 2.70777 1.37527 0
M  V30 1903 H 174.923 1.36051 0.617293 0
M  V30 1904 H 176.805 1.98267 3.71845 0
M  V30 1905 H 175.48 0.965413 3.08968 0
M  V30 1906 H 174.387 3.07497 2.13065 0
M  V30 1907 H 175.72 4.03446 2.81943 0
M  V30 1908 N 177.372 -0.689602 1.41712 0
M  V30 1909 C 178.618 -1.45181 1.41599 0
M  V30 1910 C 178.951 -1.94181 0.0270081 0
M  V30 1911 O 178.226 -1.6993 -0.946265 0
M  V30 1912 C 178.509 -2.65945 2.42787 0
M  V30 1913 C 178.362 -2.22672 3.90816 0
M  V30 1914 C 179.681 -3.68149 2.41151 0
M  V30 1915 H 176.8 -0.526576 0.515642 0
M  V30 1916 H 179.442 -0.784947 1.73028 0
M  V30 1917 H 177.592 -3.2284 2.16116 0
M  V30 1918 H 179.264 -1.71058 4.28412 0
M  V30 1919 H 177.507 -1.54394 4.05395 0
M  V30 1920 H 178.178 -3.0935 4.57172 0
M  V30 1921 H 180.654 -3.2094 2.64834 0
M  V30 1922 H 179.53 -4.50248 3.13955 0
M  V30 1923 H 179.791 -4.18259 1.43221 0
M  V30 1924 N 178.85 -1.27639 -0.924453 0
M  V30 1925 C 179.76 -1.12466 -2.05885 0
M  V30 1926 C 180.776 -0.053869 -1.73917 0
M  V30 1927 O 181.952 -0.261012 -1.99702 0
M  V30 1928 C 179.017 -0.776768 -3.37886 0
M  V30 1929 C 178.078 -1.92878 -3.83532 0
M  V30 1930 C 177.311 -1.59739 -5.09234 0
M  V30 1931 O 177.534 -0.506782 -5.68144 0
M  V30 1932 O 176.468 -2.43761 -5.50331 0
M  V30 1933 H 180.294 -2.07671 -2.21599 0
M  V30 1934 H 177.879 -1.06857 -1.04413 0
M  V30 1935 H 179.761 -0.596229 -4.17161 0
M  V30 1936 H 178.436 0.145732 -3.23372 0
M  V30 1937 H 177.343 -2.1644 -3.0513 0
M  V30 1938 H 178.676 -2.8316 -4.02593 0
M  V30 1939 N 180.328 1.1314 -1.09713 0
M  V30 1940 C 181.291 2.16831 -0.742751 0
M  V30 1941 C 182.291 1.59159 0.229129 0
M  V30 1942 O 183.481 1.74199 0.00693237 0
M  V30 1943 C 180.613 3.40756 -0.0989168 0
M  V30 1944 H 181.806 2.49695 -1.66109 0
M  V30 1945 H 179.359 1.2802 -0.896699 0
M  V30 1946 H 180.094 3.13485 0.830514 0
M  V30 1947 H 179.879 3.83888 -0.798265 0
M  V30 1948 H 181.369 4.17386 0.133524 0
M  V30 1949 N 181.806 0.884767 1.30421 0
M  V30 1950 C 182.756 0.322846 2.25703 0
M  V30 1951 C 183.74 -0.548582 1.51259 0
M  V30 1952 O 184.932 -0.39304 1.72581 0
M  V30 1953 C 182.061 -0.461787 3.4018 0
M  V30 1954 C 181.147 0.423717 4.21978 0
M  V30 1955 N 181.538 1.52408 4.82292 0
M  V30 1956 C 179.836 0.218795 4.45463 0
M  V30 1957 C 180.537 2.07136 5.43571 0
M  V30 1958 N 179.513 1.36635 5.26148 0
M  V30 1959 H 183.315 1.16363 2.69883 0
M  V30 1960 H 180.829 0.73415 1.44859 0
M  V30 1961 H 182.826 -0.880985 4.07485 0
M  V30 1962 H 181.486 -1.30001 2.9754 0
M  V30 1963 H 182.497 1.90693 4.81515 0
M  V30 1964 H 179.174 -0.582275 4.1342 0
M  V30 1965 H 180.564 2.99538 6.01437 0
M  V30 1966 N 183.284 -1.43765 0.645699 0
M  V30 1967 C 184.695 -1.85193 0.236719 0
M  V30 1968 C 185.046 -1.54045 -1.21509 0
M  V30 1969 O 184.171 -0.985694 -1.92647 0
M  V30 1970 C 184.766 -3.36151 0.422845 0
M  V30 1971 C 183.325 -3.76338 0.0682492 0
M  V30 1972 C 182.472 -2.67538 0.729306 0
M  V30 1973 H 185.423 -1.34025 0.849883 0
M  V30 1974 H 185.444 -3.79032 -0.333904 0
M  V30 1975 H 184.956 -3.5879 1.47958 0
M  V30 1976 H 183.057 -3.59312 -0.986179 0
M  V30 1977 H 183.17 -4.76603 0.488469 0
M  V30 1978 H 181.534 -2.54176 0.163235 0
M  V30 1979 H 182.317 -2.93006 1.78892 0
M  V30 1980 N 184.763 -0.387143 -1.52771 0
M  V30 1981 C 186.04 0.253197 -1.93954 0
M  V30 1982 C 186.42 1.64545 -1.32243 0
M  V30 1983 O 185.768 2.23191 -0.489699 0
M  V30 1984 C 185.978 0.281722 -3.47861 0
M  V30 1985 C 187.326 0.511715 -4.21505 0
M  V30 1986 O 188.35 0.362023 -3.54356 0
M  V30 1987 O 187.209 0.804847 -5.40541 0
M  V30 1988 H 184.303 0.156845 -0.811991 0
M  V30 1989 H 186.849 -0.441494 -1.63856 0
M  V30 1990 H 185.621 -0.693571 -3.85104 0
M  V30 1991 H 185.244 1.02142 -3.84256 0
M  V30 1992 N 186.241 1.57166 -0.116904 0
M  V30 1993 C 187.151 2.18745 0.847812 0
M  V30 1994 C 188.167 1.163 1.29423 0
M  V30 1995 O 189.343 1.48761 1.35765 0
M  V30 1996 C 186.408 2.77307 2.0809 0
M  V30 1997 C 185.469 3.94781 1.68661 0
M  V30 1998 C 184.702 4.50541 2.86091 0
M  V30 1999 O 184.925 4.05202 4.01456 0
M  V30 2000 O 183.859 5.41256 2.63298 0
M  V30 2001 H 187.685 3.01632 0.353778 0
M  V30 2002 H 185.27 1.49005 0.108599 0
M  V30 2003 H 187.152 3.14647 2.80313 0
M  V30 2004 H 185.827 1.97452 2.56504 0
M  V30 2005 H 184.734 3.62214 0.935518 0
M  V30 2006 H 186.067 4.76065 1.24991 0
M  V30 2007 N 187.719 -0.156864 1.56817 0
M  V30 2008 C 188.996 -0.899244 1.73704 0
M  V30 2009 C 189.376 -1.99771 0.682254 0
M  V30 2010 O 188.724 -2.26515 -0.300522 0
M  V30 2011 C 188.934 -1.45075 3.17418 0
M  V30 2012 C 190.282 -1.91802 3.7881 0
M  V30 2013 O 191.306 -1.54838 3.20786 0
M  V30 2014 O 190.165 -2.5994 4.80722 0
M  V30 2015 H 187.259 -0.424267 0.709878 0
M  V30 2016 H 189.805 -0.143561 1.69092 0
M  V30 2017 H 188.577 -0.660846 3.85679 0
M  V30 2018 H 188.2 -2.27021 3.26416 0
M  V30 2019 N 189.197 -1.51736 -0.425897 0
M  V30 2020 C 190.107 -1.76738 -1.54275 0
M  V30 2021 C 191.123 -0.65211 -1.61318 0
M  V30 2022 O 192.299 -0.935654 -1.78346 0
M  V30 2023 C 189.364 -1.89755 -2.90162 0
M  V30 2024 C 188.425 -3.13633 -2.93143 0
M  V30 2025 C 187.658 -3.2602 -4.22548 0
M  V30 2026 O 187.881 -2.44067 -5.15546 0
M  V30 2027 O 186.815 -4.19071 -4.32046 0
M  V30 2028 H 190.641 -2.71502 -1.36089 0
M  V30 2029 H 188.226 -1.36376 -0.610069 0
M  V30 2030 H 190.108 -2.00236 -3.70788 0
M  V30 2031 H 188.783 -0.981785 -3.08452 0
M  V30 2032 H 187.69 -3.08622 -2.11431 0
M  V30 2033 H 189.023 -4.04936 -2.798 0
M  V30 2034 N 190.675 0.682077 -1.42076 0
M  V30 2035 C 191.638 1.77756 -1.44691 0
M  V30 2036 C 192.638 1.5726 -0.335535 0
M  V30 2037 O 193.828 1.63686 -0.596037 0
M  V30 2038 C 190.96 3.16301 -1.27146 0
M  V30 2039 H 192.153 1.76826 -2.42224 0
M  V30 2040 H 189.706 0.891012 -1.28416 0
M  V30 2041 H 190.441 3.22862 -0.305075 0
M  V30 2042 H 190.226 3.32581 -2.07683 0
M  V30 2043 H 191.716 3.96241 -1.31843 0
M  V30 2044 N 192.153 1.28127 0.917671 0
M  V30 2045 C 193.402 1.14432 1.66097 0
M  V30 2046 C 193.715 -0.307247 1.93172 0
M  V30 2047 O 194.921 -0.565259 2.65551 0
M  V30 2048 C 193.377 2.00015 2.99202 0
M  V30 2049 C 192.985 3.49889 2.79789 0
M  V30 2050 C 194.729 1.94996 3.77064 0
M  V30 2051 C 192.636 4.27636 4.08511 0
M  V30 2052 H 191.566 0.424662 0.62304 0
M  V30 2053 H 194.217 1.52628 1.01868 0
M  V30 2054 H 192.599 1.54672 3.64544 0
M  V30 2055 H 193.773 4.03162 2.23152 0
M  V30 2056 H 192.088 3.56392 2.15345 0
M  V30 2057 H 194.685 2.50354 4.72469 0
M  V30 2058 H 195.028 0.925819 4.05875 0
M  V30 2059 H 195.561 2.38287 3.18534 0
M  V30 2060 H 192.3 5.30615 3.84874 0
M  V30 2061 H 191.82 3.79137 4.64774 0
M  V30 2062 H 193.499 4.37346 4.76799 0
M  V30 2063 N 193.631 -1.12557 1.10312 0
M  V30 2064 C 194.541 -2.21841 0.763142 0
M  V30 2065 C 195.557 -1.72354 -0.238801 0
M  V30 2066 O 196.733 -2.01249 -0.0778746 0
M  V30 2067 C 193.798 -3.46131 0.198632 0
M  V30 2068 C 192.859 -4.10464 1.25769 0
M  V30 2069 C 192.092 -5.28821 0.72002 0
M  V30 2070 O 192.315 -5.6859 -0.453993 0
M  V30 2071 O 191.249 -5.83437 1.47935 0
M  V30 2072 H 195.075 -2.53312 1.67532 0
M  V30 2073 H 192.66 -1.20867 0.878157 0
M  V30 2074 H 194.542 -4.2125 -0.112401 0
M  V30 2075 H 193.217 -3.16338 -0.686419 0
M  V30 2076 H 192.124 -3.3713 1.62156 0
M  V30 2077 H 193.457 -4.44408 2.11571 0
M  V30 2078 N 195.109 -0.891671 -1.2995 0
M  V30 2079 C 196.355 -0.514261 -1.96171 0
M  V30 2080 C 196.688 0.935506 -1.70182 0
M  V30 2081 O 195.963 1.66204 -1.01028 0
M  V30 2082 C 196.246 -0.797719 -3.51153 0
M  V30 2083 C 196.099 -2.2986 -3.86632 0
M  V30 2084 C 197.418 -0.278749 -4.39216 0
M  V30 2085 H 194.537 -0.188314 -0.712535 0
M  V30 2086 H 197.179 -1.11689 -1.53706 0
M  V30 2087 H 195.329 -0.284826 -3.87455 0
M  V30 2088 H 197.001 -2.88042 -3.60319 0
M  V30 2089 H 195.244 -2.76257 -3.34462 0
M  V30 2090 H 195.915 -2.44753 -4.94773 0
M  V30 2091 H 198.391 -0.717825 -4.09862 0
M  V30 2092 H 197.267 -0.506353 -5.46559 0
M  V30 2093 H 197.528 0.820266 -4.34424 0
M  V30 2094 N 196.587 1.43421 -0.653314 0
M  V30 2095 C 197.833 2.02111 -0.166992 0
M  V30 2096 C 198.166 1.51423 1.21592 0
M  V30 2097 O 197.441 0.707389 1.8118 0
M  V30 2098 C 197.724 3.5966 -0.177948 0
M  V30 2099 C 197.577 4.20579 -1.59478 0
M  V30 2100 C 198.896 4.37413 0.4856 0
M  V30 2101 H 196.015 0.734374 -0.0621557 0
M  V30 2102 H 198.657 1.70717 -0.834016 0
M  V30 2103 H 196.807 3.86537 0.390032 0
M  V30 2104 H 198.479 4.04732 -2.21336 0
M  V30 2105 H 196.722 3.77226 -2.14204 0
M  V30 2106 H 197.393 5.29665 -1.5543 0
M  V30 2107 H 199.869 4.161 0.00234528 0
M  V30 2108 H 198.745 5.47075 0.447207 0
M  V30 2109 H 199.006 4.13672 1.55974 0
M  V30 2110 N 198.065 0.39524 1.52563 0
M  V30 2111 C 199.311 -0.177763 2.02622 0
M  V30 2112 C 199.666 -1.43974 1.27629 0
M  V30 2113 O 198.959 -1.87995 0.36992 0
M  V30 2114 C 199.153 -0.493444 3.53977 0
M  V30 2115 C 198.982 0.736392 4.4363 0
M  V30 2116 C 197.752 1.25744 4.89404 0
M  V30 2117 C 199.95 1.61046 4.88435 0
M  V30 2118 N 197.932 2.44421 5.63145 0
M  V30 2119 C 199.303 2.64359 5.60816 0
M  V30 2120 C 201.358 1.62985 4.70468 0
M  V30 2121 C 200.061 3.69505 6.17137 0
M  V30 2122 C 202.087 2.67042 5.27677 0
M  V30 2123 C 201.449 3.69077 5.99968 0
M  V30 2124 H 197.548 -0.0269794 0.781534 0
M  V30 2125 H 200.132 0.546466 1.86874 0
M  V30 2126 H 198.303 -1.18672 3.69826 0
M  V30 2127 H 200.035 -1.05412 3.90731 0
M  V30 2128 H 196.79 0.817546 4.6649 0
M  V30 2129 H 197.214 3.04485 6.04663 0
M  V30 2130 H 201.856 0.854442 4.14076 0
M  V30 2131 H 199.574 4.4791 6.72608 0
M  V30 2132 H 203.16 2.69433 5.15652 0
M  V30 2133 H 202.04 4.48273 6.43444 0
M  V30 2134 N 199.544 -1.57102 0.125237 0
M  V30 2135 C 200.477 -2.11371 -0.860094 0
M  V30 2136 C 201.455 -1.03168 -1.25679 0
M  V30 2137 O 202.639 -1.30862 -1.35674 0
M  V30 2138 C 199.766 -2.61555 -2.1519 0
M  V30 2139 C 198.812 -3.81701 -1.9028 0
M  V30 2140 S 199.645 -5.23797 -1.11343 0
M  V30 2141 C 200.801 -5.77353 -2.41689 0
M  V30 2142 H 201.034 -2.94617 -0.39852 0
M  V30 2143 H 198.567 -1.54145 -0.0886555 0
M  V30 2144 H 200.525 -2.91122 -2.89411 0
M  V30 2145 H 199.186 -1.78479 -2.58465 0
M  V30 2146 H 198.379 -4.14985 -2.86014 0
M  V30 2147 H 197.981 -3.52783 -1.24178 0
M  V30 2148 H 200.273 -5.87458 -3.37489 0
M  V30 2149 H 201.216 -6.75323 -2.12942 0
M  V30 2150 H 201.624 -5.05457 -2.51342 0
M  V30 2151 N 201.022 0.148545 -1.56898 0
M  V30 2152 C 202.438 0.501131 -1.51528 0
M  V30 2153 C 202.638 1.83458 -0.833399 0
M  V30 2154 O 201.694 2.49259 -0.40328 0
M  V30 2155 C 203.007 0.512864 -2.96294 0
M  V30 2156 C 204.555 0.598487 -3.07225 0
M  V30 2157 C 205.03 0.640897 -4.53494 0
M  V30 2158 N 206.521 0.703163 -4.57832 0
M  V30 2159 C 207.256 0.756935 -5.68382 0
M  V30 2160 N 206.752 0.770147 -6.88506 0
M  V30 2161 N 208.545 0.797698 -5.56411 0
M  V30 2162 H 200.696 -0.725532 -1.99624 0
M  V30 2163 H 202.959 -0.264358 -0.910395 0
M  V30 2164 H 202.665 -0.398691 -3.49433 0
M  V30 2165 H 202.539 1.35133 -3.52163 0
M  V30 2166 H 204.926 1.50046 -2.54106 0
M  V30 2167 H 205.007 -0.267093 -2.54402 0
M  V30 2168 H 204.651 -0.256915 -5.0725 0
M  V30 2169 H 204.581 1.52295 -5.04097 0
M  V30 2170 H 207.072 0.700314 -3.71354 0
M  V30 2171 H 207.385 0.812983 -7.68512 0
M  V30 2172 H 205.73 0.738049 -6.9107 0
M  V30 2173 H 208.921 0.784535 -4.61479 0
M  V30 2174 H 209.094 0.83614 -6.42583 0
M  V30 2175 N 202.5 1.5196 0.417844 0
M  V30 2176 C 203.911 1.57851 0.997 0
M  V30 2177 C 204.262 0.413714 1.91789 0
M  V30 2178 O 203.387 -0.467057 2.113 0
M  V30 2179 C 203.982 2.86085 1.81496 0
M  V30 2180 C 202.541 2.94483 2.34428 0
M  V30 2181 C 201.688 2.52707 1.14169 0
M  V30 2182 H 204.639 1.57455 0.198392 0
M  V30 2183 H 204.66 2.70947 2.67148 0
M  V30 2184 H 204.172 3.70842 1.14446 0
M  V30 2185 H 202.273 2.142 3.04875 0
M  V30 2186 H 202.386 3.98546 2.65891 0
M  V30 2187 H 200.75 2.06353 1.49301 0
M  V30 2188 H 201.533 3.39828 0.486999 0
M  V30 2189 N 203.978 -0.674533 1.42435 0
M  V30 2190 C 204.888 -1.81751 1.48337 0
M  V30 2191 C 205.904 -1.69975 0.372099 0
M  V30 2192 O 207.08 -1.91521 0.62304 0
M  V30 2193 C 204.145 -3.17895 1.38361 0
M  V30 2194 C 203.206 -3.41625 2.59982 0
M  V30 2195 C 202.439 -4.71274 2.50473 0
M  V30 2196 O 202.662 -5.49197 1.54075 0
M  V30 2197 O 201.596 -4.96254 3.4061 0
M  V30 2198 H 205.422 -1.79728 2.44809 0
M  V30 2199 H 203.007 -0.830312 1.24202 0
M  V30 2200 H 204.889 -3.99136 1.35161 0
M  V30 2201 H 203.564 -3.20555 0.450144 0
M  V30 2202 H 202.471 -2.60231 2.68757 0
M  V30 2203 H 203.804 -3.43796 3.52229 0
M  V30 2204 N 205.456 -1.28612 -0.910864 0
M  V30 2205 C 206.366 -1.14643 -2.0468 0
M  V30 2206 C 207.382 -0.0723121 -1.7385 0
M  V30 2207 O 208.558 -0.282178 -1.99413 0
M  V30 2208 C 205.623 -0.812561 -3.37044 0
M  V30 2209 C 204.684 -1.96935 -3.81465 0
M  V30 2210 C 203.917 -1.65131 -5.07511 0
M  V30 2211 O 204.14 -0.567013 -5.67575 0
M  V30 2212 O 203.074 -2.49585 -5.47714 0
M  V30 2213 H 206.9 -2.1001 -2.19384 0
M  V30 2214 H 204.485 -1.07958 -1.03274 0
M  V30 2215 H 206.367 -0.640441 -4.16505 0
M  V30 2216 H 205.042 0.111426 -3.23508 0
M  V30 2217 H 203.949 -2.19664 -3.02818 0
M  V30 2218 H 205.282 -2.87414 -3.99567 0
M  V30 2219 N 206.934 1.1197 -1.10907 0
M  V30 2220 C 207.897 2.16031 -0.765707 0
M  V30 2221 C 208.897 1.59393 0.212235 0
M  V30 2222 O 210.087 1.74196 -0.0115441 0
M  V30 2223 C 207.219 3.40632 -0.135053 0
M  V30 2224 H 208.412 2.47919 -1.68748 0
M  V30 2225 H 205.965 1.27061 -0.910226 0
M  V30 2226 H 206.7 3.14348 0.797218 0
M  V30 2227 H 206.485 3.8302 -0.838937 0
M  V30 2228 H 207.975 4.17505 0.0892469 0
M  V30 2229 N 208.412 0.89855 1.29475 0
M  V30 2230 C 209.342 0.39201 2.30186 0
M  V30 2231 C 210.323 -0.532359 1.61555 0
M  V30 2232 O 211.508 -0.443331 1.89072 0
M  V30 2233 C 208.638 -0.382353 3.45189 0
M  V30 2234 C 207.592 0.451483 4.25612 0
M  V30 2235 C 206.918 -0.450307 5.328 0
M  V30 2236 C 208.218 1.70079 4.93832 0
M  V30 2237 H 209.912 1.23362 2.72804 0
M  V30 2238 H 207.458 0.594638 1.31149 0
M  V30 2239 H 209.411 -0.747451 4.14718 0
M  V30 2240 H 208.135 -1.25774 3.01411 0
M  V30 2241 H 206.794 0.798897 3.57789 0
M  V30 2242 H 206.442 -1.32379 4.85268 0
M  V30 2243 H 206.142 0.103902 5.87508 0
M  V30 2244 H 207.666 -0.811623 6.05182 0
M  V30 2245 H 209.08 1.40549 5.55805 0
M  V30 2246 H 207.477 2.19623 5.58467 0
M  V30 2247 H 208.547 2.43744 4.19186 0
M  V30 2248 N 209.89 -1.43072 0.660911 0
M  V30 2249 C 210.8 -2.34585 -0.0264163 0
M  V30 2250 C 211.816 -1.54316 -0.803898 0
M  V30 2251 O 212.992 -1.86939 -0.749391 0
M  V30 2252 C 210.057 -3.32689 -0.975639 0
M  V30 2253 C 209.118 -4.2886 -0.194236 0
M  V30 2254 C 208.351 -5.22278 -1.09825 0
M  V30 2255 O 208.574 -5.20299 -2.33763 0
M  V30 2256 O 207.508 -5.99228 -0.566513 0
M  V30 2257 H 211.334 -2.94869 0.727034 0
M  V30 2258 H 208.919 -1.43342 0.42111 0
M  V30 2259 H 210.801 -3.92995 -1.52094 0
M  V30 2260 H 209.476 -2.74898 -1.70918 0
M  V30 2261 H 208.383 -3.72011 0.394835 0
M  V30 2262 H 209.716 -4.89655 0.499899 0
M  V30 2263 N 211.368 -0.403325 -1.52352 0
M  V30 2264 C 212.784 -0.0539281 -1.59509 0
M  V30 2265 C 212.984 1.43307 -1.41652 0
M  V30 2266 O 212.04 2.19924 -1.24056 0
M  V30 2267 C 213.353 -0.543654 -2.95745 0
M  V30 2268 C 214.901 -0.501125 -3.08962 0
M  V30 2269 C 215.376 -0.967267 -4.47669 0
M  V30 2270 N 216.867 -0.923849 -4.53893 0
M  V30 2271 C 217.602 -1.25578 -5.5948 0
M  V30 2272 N 217.098 -1.65889 -6.72646 0
M  V30 2273 N 218.891 -1.17613 -5.49658 0
M  V30 2274 H 211.042 -1.37123 -1.62206 0
M  V30 2275 H 213.305 -0.56294 -0.76276 0
M  V30 2276 H 213.011 -1.58275 -3.14073 0
M  V30 2277 H 212.885 0.0498042 -3.77167 0
M  V30 2278 H 215.272 0.528909 -2.90321 0
M  V30 2279 H 215.353 -1.13056 -2.2946 0
M  V30 2280 H 214.997 -1.9956 -4.67053 0
M  V30 2281 H 214.927 -0.314698 -5.25659 0
M  V30 2282 H 217.418 -0.627403 -3.72655 0
M  V30 2283 H 217.731 -1.89543 -7.49195 0
M  V30 2284 H 216.076 -1.69787 -6.73942 0
M  V30 2285 H 219.267 -0.860115 -4.6013 0
M  V30 2286 H 219.44 -1.43812 -6.3184 0
M  V30 2287 N 212.846 1.57033 -0.133567 0
M  V30 2288 C 213.796 2.12641 0.822671 0
M  V30 2289 C 214.78 1.05081 1.21847 0
M  V30 2290 O 215.972 1.31287 1.18713 0
M  V30 2291 C 213.101 2.74094 2.06706 0
M  V30 2292 C 212.187 3.88757 1.69497 0
M  V30 2293 N 212.578 4.95194 1.03037 0
M  V30 2294 C 210.876 3.99213 1.98859 0
M  V30 2295 C 211.577 5.75414 0.852873 0
M  V30 2296 N 210.553 5.25726 1.3825 0
M  V30 2297 H 214.355 2.92308 0.305537 0
M  V30 2298 H 211.869 1.62256 0.0684276 0
M  V30 2299 H 213.866 3.12285 2.76195 0
M  V30 2300 H 212.526 1.95896 2.5895 0
M  V30 2301 H 213.537 5.13247 0.692669 0
M  V30 2302 H 210.214 3.32075 2.53047 0
M  V30 2303 H 211.604 6.71089 0.330091 0
M  V30 2304 N 214.325 -0.140222 1.56975 0
M  V30 2305 C 215.257 -1.19818 1.95388 0
M  V30 2306 C 216.27 -1.38816 0.850525 0
M  V30 2307 O 217.459 -1.38267 1.12891 0
M  V30 2308 C 214.559 -2.56189 2.21857 0
M  V30 2309 C 213.732 -2.58077 3.5315 0
M  V30 2310 C 212.791 -3.76037 3.6808 0
M  V30 2311 O 211.817 -3.60598 4.40406 0
M  V30 2312 N 213.019 -4.93763 3.05251 0
M  V30 2313 H 215.784 -0.871609 2.86746 0
M  V30 2314 H 213.345 -0.32972 1.58507 0
M  V30 2315 H 215.337 -3.33623 2.2908 0
M  V30 2316 H 213.907 -2.81111 1.36731 0
M  V30 2317 H 213.127 -1.6651 3.57307 0
M  V30 2318 H 214.415 -2.56377 4.39486 0
M  V30 2319 H 213.813 -5.09209 2.46419 0
M  V30 2320 H 212.37 -5.68949 3.18026 0
M  V30 2321 N 215.803 -1.52179 -0.40978 0
M  V30 2322 C 217.219 -1.40968 -0.74835 0
M  V30 2323 C 217.419 -0.513657 -1.94843 0
M  V30 2324 O 216.475 0.0208026 -2.52491 0
M  V30 2325 C 217.788 -2.83483 -1.0029 0
M  V30 2326 C 219.336 -2.92821 -1.10565 0
M  V30 2327 C 219.811 -4.36303 -1.39296 0
M  V30 2328 N 221.302 -4.39535 -1.46162 0
M  V30 2329 C 222.037 -5.47614 -1.70018 0
M  V30 2330 N 221.533 -6.65812 -1.91483 0
M  V30 2331 N 223.326 -5.35129 -1.72027 0
M  V30 2332 H 215.477 -2.0897 0.380186 0
M  V30 2333 H 217.74 -0.94185 0.107805 0
M  V30 2334 H 217.446 -3.51168 -0.193461 0
M  V30 2335 H 217.32 -3.24487 -1.92323 0
M  V30 2336 H 219.707 -2.25318 -1.90568 0
M  V30 2337 H 219.788 -2.55276 -0.16369 0
M  V30 2338 H 219.432 -5.04366 -0.598109 0
M  V30 2339 H 219.362 -4.71385 -2.34743 0
M  V30 2340 H 221.853 -3.54332 -1.31367 0
M  V30 2341 H 222.166 -7.43964 -2.09134 0
M  V30 2342 H 220.511 -6.68879 -1.88749 0
M  V30 2343 H 223.702 -4.41764 -1.54796 0
M  V30 2344 H 223.875 -6.19433 -1.9028 0
M  V30 2345 N 217.281 0.66697 -1.42791 0
M  V30 2346 C 218.529 1.42417 -1.43394 0
M  V30 2347 C 218.85 1.94925 -0.0542373 0
M  V30 2348 O 218.12 1.73564 0.908415 0
M  V30 2349 H 216.7 0.528515 -0.527902 0
M  V30 2350 H 219.362 0.787562 -1.78279 0
M  V30 2351 H 218.458 2.27333 -2.13837 0
M  V30 2352 N 218.759 1.29093 0.90403 0
M  V30 2353 C 219.669 1.15727 2.0407 0
M  V30 2354 C 220.685 0.0815308 1.73809 0
M  V30 2355 O 221.861 0.292749 1.99261 0
M  V30 2356 C 218.926 0.830424 3.36608 0
M  V30 2357 C 217.987 1.98955 3.80415 0
M  V30 2358 C 217.22 1.6782 5.06628 0
M  V30 2359 O 217.443 0.597105 5.67266 0
M  V30 2360 O 216.377 2.52486 5.46383 0
M  V30 2361 H 220.203 2.11171 2.18267 0
M  V30 2362 H 217.788 1.08504 1.027 0
M  V30 2363 H 219.67 0.662521 4.16159 0
M  V30 2364 H 218.345 -0.0942678 3.23563 0
M  V30 2365 H 217.252 2.21267 3.01648 0
M  V30 2366 H 218.585 2.89529 3.98037 0
M  V30 2367 N 220.237 -1.11381 1.11499 0
M  V30 2368 C 221.483 -1.83403 0.865512 0
M  V30 2369 C 221.816 -1.84459 -0.607329 0
M  V30 2370 O 221.091 -1.29811 -1.44842 0
M  V30 2371 C 221.374 -3.30552 1.42855 0
M  V30 2372 C 221.227 -3.37886 2.96906 0
M  V30 2373 C 222.546 -4.26643 1.08 0
M  V30 2374 H 219.665 -0.665879 0.31587 0
M  V30 2375 H 222.307 -1.30601 1.37998 0
M  V30 2376 H 220.457 -3.75648 0.990985 0
M  V30 2377 H 222.129 -3.01343 3.49271 0
M  V30 2378 H 220.372 -2.78088 3.32941 0
M  V30 2379 H 221.043 -4.41458 3.31389 0
M  V30 2380 H 223.519 -3.89729 1.45775 0
M  V30 2381 H 222.395 -5.27986 1.50072 0
M  V30 2382 H 222.656 -4.42099 -0.00915037 0
M  V30 2383 N 221.715 -0.905404 -1.28997 0
M  V30 2384 C 222.625 -0.392246 -2.31298 0
M  V30 2385 C 223.641 0.515889 -1.66176 0
M  V30 2386 O 224.817 0.404093 -1.97304 0
M  V30 2387 C 221.882 0.36686 -3.44754 0
M  V30 2388 C 220.943 -0.573485 -4.25452 0
M  V30 2389 C 220.176 0.149488 -5.33491 0
M  V30 2390 O 220.399 1.37255 -5.5364 0
M  V30 2391 O 219.333 -0.510919 -5.99728 0
M  V30 2392 H 223.159 -1.2411 -2.77183 0
M  V30 2393 H 220.744 -0.669926 -1.33538 0
M  V30 2394 H 222.626 0.795907 -4.13816 0
M  V30 2395 H 221.301 1.19169 -3.00966 0
M  V30 2396 H 220.208 -1.05176 -3.59011 0
M  V30 2397 H 221.541 -1.36489 -4.72897 0
M  V30 2398 N 223.193 1.4272 -0.668489 0
M  V30 2399 C 224.44 2.01624 -0.18814 0
M  V30 2400 C 224.768 1.5282 1.20317 0
M  V30 2401 O 224.023 0.718323 1.8204 0
M  V30 2402 C 224.322 3.57021 -0.164499 0
M  V30 2403 C 223.988 4.25232 -1.49962 0
M  V30 2404 C 222.65 4.4358 -1.8652 0
M  V30 2405 C 225.002 4.63727 -2.37921 0
M  V30 2406 C 222.33 4.97694 -3.10674 0
M  V30 2407 C 224.682 5.19218 -3.6138 0
M  V30 2408 C 223.346 5.3578 -3.98115 0
M  V30 2409 H 222.616 0.737795 -0.0688454 0
M  V30 2410 H 225.263 1.70991 -0.862225 0
M  V30 2411 H 223.568 3.87285 0.593079 0
M  V30 2412 H 225.265 4.00372 0.224271 0
M  V30 2413 H 221.855 4.11306 -1.20522 0
M  V30 2414 H 226.039 4.4923 -2.10964 0
M  V30 2415 H 221.295 5.08702 -3.39164 0
M  V30 2416 H 225.469 5.4799 -4.29743 0
M  V30 2417 H 223.096 5.77475 -4.94395 0
M  V30 2418 N 224.671 0.411399 1.52136 0
M  V30 2419 C 225.896 -0.165538 2.06738 0
M  V30 2420 C 226.321 -1.379 1.27926 0
M  V30 2421 O 225.679 -1.78628 0.310114 0
M  V30 2422 C 225.727 -0.492124 3.57226 0
M  V30 2423 O 224.831 -1.58276 3.80818 0
M  V30 2424 H 224.172 -0.0132132 0.663869 0
M  V30 2425 H 226.702 0.585253 1.96051 0
M  V30 2426 H 226.712 -0.750104 4.01045 0
M  V30 2427 H 225.387 0.394922 4.14021 0
M  V30 2428 H 223.964 -1.31677 3.48877 0
M  V30 2429 N 226.149 -1.5696 0.141893 0
M  V30 2430 C 227.112 -2.15316 -0.785587 0
M  V30 2431 C 228.112 -1.09366 -1.1788 0
M  V30 2432 O 229.302 -1.35031 -1.10056 0
M  V30 2433 C 226.434 -2.71211 -2.06537 0
M  V30 2434 H 227.627 -2.98608 -0.278041 0
M  V30 2435 H 225.18 -1.5593 -0.107519 0
M  V30 2436 H 225.915 -1.91571 -2.6167 0
M  V30 2437 H 225.7 -3.4872 -1.79268 0
M  V30 2438 H 227.19 -3.16189 -2.72789 0
M  V30 2439 N 227.627 0.131896 -1.57047 0
M  V30 2440 C 228.855 0.856461 -1.88341 0
M  V30 2441 C 229.27 1.74042 -0.731757 0
M  V30 2442 O 228.627 1.80051 0.297945 0
M  V30 2443 C 228.678 1.70064 -3.18999 0
M  V30 2444 O 228.399 0.852278 -4.2973 0
M  V30 2445 C 229.9 2.53148 -3.63911 0
M  V30 2446 H 227.12 0.246885 -0.62393 0
M  V30 2447 H 229.664 0.120152 -2.04147 0
M  V30 2448 H 227.819 2.38984 -3.04902 0
M  V30 2449 H 228.233 1.43329 -5.04537 0
M  V30 2450 H 229.707 3.07931 -4.58129 0
M  V30 2451 H 230.184 3.29901 -2.89935 0
M  V30 2452 H 230.79 1.89492 -3.80753 0
M  V30 2453 N 229.106 1.52395 0.401703 0
M  V30 2454 C 230.354 1.66488 1.14569 0
M  V30 2455 C 230.675 0.400897 1.90835 0
M  V30 2456 O 229.945 -0.584415 1.8698 0
M  V30 2457 H 228.525 0.613672 0.425929 0
M  V30 2458 H 231.187 1.89464 0.457093 0
M  V30 2459 H 230.283 2.50942 1.85566 0
M  V30 2460 N 230.584 -0.659388 1.43143 0
M  V30 2461 C 231.514 -1.78422 1.50625 0
M  V30 2462 C 232.495 -1.66216 0.361443 0
M  V30 2463 O 233.68 -1.85404 0.577834 0
M  V30 2464 C 230.81 -3.16815 1.42287 0
M  V30 2465 C 229.764 -3.43777 2.54954 0
M  V30 2466 C 229.09 -4.81905 2.31671 0
M  V30 2467 C 230.39 -3.39134 3.97222 0
M  V30 2468 H 232.084 -1.72417 2.44771 0
M  V30 2469 H 229.63 -0.828084 1.17808 0
M  V30 2470 H 231.583 -3.95253 1.46127 0
M  V30 2471 H 230.307 -3.23534 0.446435 0
M  V30 2472 H 228.966 -2.67707 2.50457 0
M  V30 2473 H 228.614 -4.85294 1.32284 0
M  V30 2474 H 228.314 -5.00906 3.07192 0
M  V30 2475 H 229.838 -5.62609 2.37284 0
M  V30 2476 H 231.252 -4.07518 4.03239 0
M  V30 2477 H 229.649 -3.69671 4.72719 0
M  V30 2478 H 230.719 -2.37426 4.22797 0
M  V30 2479 N 232.062 -1.29571 -0.897171 0
M  V30 2480 C 233.308 -1.17863 -1.65034 0
M  V30 2481 C 233.641 0.268729 -1.92332 0
M  V30 2482 O 232.916 1.19378 -1.53555 0
M  V30 2483 C 233.199 -1.995 -2.99786 0
M  V30 2484 C 233.052 -3.5239 -2.79538 0
M  V30 2485 C 234.371 -1.82335 -4.00552 0
M  V30 2486 H 231.49 -0.429528 -0.598895 0
M  V30 2487 H 234.132 -1.59072 -1.03905 0
M  V30 2488 H 232.282 -1.64485 -3.51962 0
M  V30 2489 H 233.954 -3.97401 -2.34244 0
M  V30 2490 H 232.197 -3.77187 -2.14273 0
M  V30 2491 H 232.868 -4.04787 -3.75302 0
M  V30 2492 H 235.344 -2.12924 -3.57495 0
M  V30 2493 H 234.22 -2.41801 -4.92771 0
M  V30 2494 H 234.481 -0.779209 -4.35179 0
M  V30 2495 N 233.54 1.10788 -1.12088 0
M  V30 2496 C 234.788 1.8231 -0.872205 0
M  V30 2497 C 235.109 1.85419 0.603709 0
M  V30 2498 O 234.379 1.32963 1.43867 0
M  V30 2499 H 232.959 0.675137 -0.319686 0
M  V30 2500 H 235.621 1.34068 -1.41463 0
M  V30 2501 H 234.717 2.85955 -1.25045 0
M  V30 2502 N 235.018 0.912232 1.28515 0
M  V30 2503 C 236.264 0.545405 1.95328 0
M  V30 2504 C 236.597 -0.908313 1.71649 0
M  V30 2505 O 235.872 -1.64575 1.03659 0
M  V30 2506 C 236.155 0.853483 3.4984 0
M  V30 2507 C 236.008 2.35982 3.82926 0
M  V30 2508 C 237.327 0.348589 4.38717 0
M  V30 2509 H 234.446 0.199626 0.709449 0
M  V30 2510 H 237.088 1.1412 1.5191 0
M  V30 2511 H 235.238 0.34643 3.86952 0
M  V30 2512 H 236.91 2.93738 3.55691 0
M  V30 2513 H 235.153 2.81543 3.30024 0
M  V30 2514 H 235.824 2.52593 4.90816 0
M  V30 2515 H 238.3 0.78294 4.08668 0
M  V30 2516 H 237.176 0.593242 5.45685 0
M  V30 2517 H 237.437 -0.751049 4.35674 0
M  V30 2518 N 236.496 -1.42363 0.676048 0
M  V30 2519 C 237.426 -2.33497 0.0124832 0
M  V30 2520 C 238.407 -1.50748 -0.787981 0
M  V30 2521 O 239.592 -1.79346 -0.744884 0
M  V30 2522 C 236.722 -3.34377 -0.938582 0
M  V30 2523 C 235.676 -4.27289 -0.246622 0
M  V30 2524 C 235.002 -5.18386 -1.31071 0
M  V30 2525 C 236.302 -5.14916 0.875125 0
M  V30 2526 H 237.996 -2.89233 0.773593 0
M  V30 2527 H 235.542 -1.39073 0.37346 0
M  V30 2528 H 237.495 -3.97044 -1.41188 0
M  V30 2529 H 236.219 -2.76947 -1.73113 0
M  V30 2530 H 234.878 -3.66018 0.206456 0
M  V30 2531 H 234.526 -4.57282 -2.09528 0
M  V30 2532 H 234.226 -5.81378 -0.852839 0
M  V30 2533 H 235.75 -5.83929 -1.78492 0
M  V30 2534 H 237.164 -5.71262 0.482983 0
M  V30 2535 H 235.561 -5.86747 1.25887 0
M  V30 2536 H 236.631 -4.53242 1.72335 0
M  V30 2537 N 237.974 -0.419461 -1.51915 0
M  V30 2538 C 239.204 0.151915 -2.06041 0
M  V30 2539 C 239.612 1.38539 -1.28855 0
M  V30 2540 O 238.955 1.80592 -0.336463 0
M  V30 2541 C 239.017 0.557119 -3.55157 0
M  V30 2542 C 238.681 -0.567054 -4.53468 0
M  V30 2543 C 239.678 -1.43379 -4.99738 0
M  V30 2544 C 237.363 -0.742693 -4.96779 0
M  V30 2545 C 239.357 -2.46102 -5.87973 0
M  V30 2546 C 237.044 -1.77322 -5.84808 0
M  V30 2547 C 238.042 -2.63078 -6.30301 0
M  V30 2548 O 237.73 -3.64364 -7.16585 0
M  V30 2549 H 237.462 0.0193293 -0.675724 0
M  V30 2550 H 240.016 -0.592073 -1.96682 0
M  V30 2551 H 238.246 1.35355 -3.62238 0
M  V30 2552 H 239.935 1.05759 -3.9188 0
M  V30 2553 H 240.701 -1.30954 -4.66986 0
M  V30 2554 H 236.58 -0.0848307 -4.60922 0
M  V30 2555 H 240.124 -3.13071 -6.23404 0
M  V30 2556 H 236.021 -1.89773 -6.16974 0
M  V30 2557 H 236.789 -3.60731 -7.34721 0
M  V30 2558 N 239.452 1.56882 -0.150215 0
M  V30 2559 C 240.682 2.00302 0.506213 0
M  V30 2560 C 241.09 1.02934 1.58749 0
M  V30 2561 O 240.433 0.0188384 1.8369 0
M  V30 2562 C 240.495 3.40156 1.16337 0
M  V30 2563 C 240.159 4.56439 0.226311 0
M  V30 2564 C 241.156 5.17012 -0.547265 0
M  V30 2565 C 238.841 5.02136 0.128279 0
M  V30 2566 C 240.835 6.21693 -1.40629 0
M  V30 2567 C 238.522 6.06672 -0.734345 0
M  V30 2568 C 239.52 6.6632 -1.50023 0
M  V30 2569 O 239.208 7.68831 -2.34848 0
M  V30 2570 H 238.94 0.662182 0.135984 0
M  V30 2571 H 241.494 2.03961 -0.242746 0
M  V30 2572 H 239.724 3.33346 1.96004 0
M  V30 2573 H 241.413 3.67663 1.71985 0
M  V30 2574 H 242.179 4.82603 -0.48158 0
M  V30 2575 H 238.058 4.55435 0.714157 0
M  V30 2576 H 241.602 6.68179 -2.00455 0
M  V30 2577 H 237.499 6.40507 -0.801309 0
M  V30 2578 H 238.267 7.86065 -2.28131 0
M  V30 2579 N 240.93 -0.123565 1.57115 0
M  V30 2580 C 241.88 -1.1575 1.96433 0
M  V30 2581 C 242.864 -1.37313 0.838686 0
M  V30 2582 O 244.056 -1.38482 1.10235 0
M  V30 2583 C 241.185 -2.48526 2.36833 0
M  V30 2584 C 240.271 -2.30457 3.5602 0
M  V30 2585 N 240.662 -1.8219 4.71848 0
M  V30 2586 C 238.96 -2.61129 3.61563 0
M  V30 2587 C 239.661 -1.77721 5.53886 0
M  V30 2588 N 238.637 -2.21899 4.96248 0
M  V30 2589 H 242.439 -0.776797 2.83449 0
M  V30 2590 H 239.953 -0.331364 1.58983 0
M  V30 2591 H 241.95 -3.233 2.63216 0
M  V30 2592 H 240.61 -2.87358 1.5118 0
M  V30 2593 H 241.621 -1.51805 4.95152 0
M  V30 2594 H 238.298 -3.03678 2.86507 0
M  V30 2595 H 239.688 -1.41697 6.56789 0
M  V30 2596 N 242.408 -1.52605 -0.393616 0
M  V30 2597 C 243.371 -1.76415 -1.46323 0
M  V30 2598 C 244.371 -0.634126 -1.47768 0
M  V30 2599 O 245.561 -0.902142 -1.4902 0
M  V30 2600 C 242.693 -1.8607 -2.85641 0
M  V30 2601 H 243.886 -2.71916 -1.26498 0
M  V30 2602 H 241.439 -1.43257 -0.625073 0
M  V30 2603 H 242.174 -0.925378 -3.10817 0
M  V30 2604 H 241.959 -2.68235 -2.85993 0
M  V30 2605 H 243.449 -2.06179 -3.63153 0
M  V30 2606 N 243.887 0.651787 -1.4349 0
M  V30 2607 C 245.134 1.41167 -1.45183 0
M  V30 2608 C 245.462 1.94349 -0.0766601 0
M  V30 2609 O 244.717 1.72804 0.918555 0
M  V30 2610 C 245.016 2.60914 -2.44251 0
M  V30 2611 C 244.682 2.26142 -3.9009 0
M  V30 2612 C 243.344 2.16371 -4.2981 0
M  V30 2613 C 245.696 1.98334 -4.81989 0
M  V30 2614 C 243.024 1.7695 -5.5938 0
M  V30 2615 C 245.376 1.6041 -6.11924 0
M  V30 2616 C 244.04 1.49166 -6.5062 0
M  V30 2617 H 243.31 0.516566 -0.531263 0
M  V30 2618 H 245.957 0.741099 -1.76579 0
M  V30 2619 H 244.262 3.3311 -2.06265 0
M  V30 2620 H 245.959 3.19127 -2.42815 0
M  V30 2621 H 242.549 2.34658 -3.58655 0
M  V30 2622 H 246.733 2.04803 -4.52072 0
M  V30 2623 H 241.989 1.66831 -5.88198 0
M  V30 2624 H 246.163 1.37925 -6.82605 0
M  V30 2625 H 243.79 1.1839 -7.50925 0
M  V30 2626 N 245.365 1.30045 0.890287 0
M  V30 2627 C 246.295 1.18541 2.01172 0
M  V30 2628 C 247.276 0.0773356 1.69924 0
M  V30 2629 O 248.461 0.25845 1.92473 0
M  V30 2630 C 245.591 0.870941 3.36202 0
M  V30 2631 C 244.545 1.93637 3.81692 0
M  V30 2632 C 243.871 1.475 5.13953 0
M  V30 2633 C 245.171 3.34666 4.00994 0
M  V30 2634 H 246.865 2.12359 2.11054 0
M  V30 2635 H 244.411 1.02238 1.01407 0
M  V30 2636 H 246.364 0.777141 4.14172 0
M  V30 2637 H 245.088 -0.102926 3.26438 0
M  V30 2638 H 243.747 2.01972 3.05946 0
M  V30 2639 H 243.395 0.489551 5.00612 0
M  V30 2640 H 243.095 2.1876 5.4536 0
M  V30 2641 H 244.619 1.39489 5.94454 0
M  V30 2642 H 246.033 3.2912 4.69417 0
M  V30 2643 H 244.43 4.03966 4.43769 0
M  V30 2644 H 245.5 3.76949 3.05021 0
M  V30 2645 N 246.843 -1.10192 1.12674 0
M  V30 2646 C 248.259 -1.34235 0.863317 0
M  V30 2647 C 248.459 -1.95062 -0.505277 0
M  V30 2648 O 247.515 -2.19192 -1.25345 0
M  V30 2649 C 248.828 -2.2616 1.98172 0
M  V30 2650 C 250.376 -2.3969 2.0129 0
M  V30 2651 C 250.851 -3.34946 3.1237 0
M  V30 2652 N 252.342 -3.42515 3.11829 0
M  V30 2653 C 253.077 -4.16199 3.94419 0
M  V30 2654 N 252.573 -4.92747 4.87004 0
M  V30 2655 N 254.366 -4.11843 3.82547 0
M  V30 2656 H 246.517 -0.690798 2.00853 0
M  V30 2657 H 248.78 -0.366774 0.874174 0
M  V30 2658 H 248.486 -1.8868 2.96804 0
M  V30 2659 H 248.36 -3.26488 1.88906 0
M  V30 2660 H 250.747 -2.76438 1.03276 0
M  V30 2661 H 250.828 -1.39169 2.14629 0
M  V30 2662 H 250.472 -2.98923 4.10619 0
M  V30 2663 H 250.402 -4.35353 2.96269 0
M  V30 2664 H 252.893 -2.87926 2.44759 0
M  V30 2665 H 253.206 -5.46376 5.46528 0
M  V30 2666 H 251.551 -4.91862 4.91016 0
M  V30 2667 H 254.742 -3.51136 3.0955 0
M  V30 2668 H 254.915 -4.69007 4.47142 0
M  V30 2669 N 248.321 -0.919034 -1.28029 0
M  V30 2670 C 249.569 -0.553838 -1.94363 0
M  V30 2671 C 249.89 0.906357 -1.72656 0
M  V30 2672 O 249.16 1.64143 -1.0693 0
M  V30 2673 H 247.74 -0.201834 -0.719216 0
M  V30 2674 H 250.402 -1.16954 -1.55909 0
M  V30 2675 H 249.498 -0.752758 -3.02886 0
M  V30 2676 N 249.799 1.42003 -0.683588 0
M  V30 2677 C 251.215 1.55625 -0.353976 0
M  V30 2678 C 251.415 1.66151 1.14 0
M  V30 2679 O 250.471 1.63329 1.92561 0
M  V30 2680 C 251.784 2.80171 -1.092 0
M  V30 2681 C 253.332 2.93954 -1.07518 0
M  V30 2682 C 253.807 4.21372 -1.79471 0
M  V30 2683 N 255.298 4.28303 -1.76381 0
M  V30 2684 C 256.033 5.25729 -2.28904 0
M  V30 2685 N 255.529 6.29254 -2.89846 0
M  V30 2686 N 257.322 5.17586 -2.19228 0
M  V30 2687 H 249.473 1.33415 -1.6527 0
M  V30 2688 H 251.736 0.64282 -0.696769 0
M  V30 2689 H 251.442 2.78561 -2.14701 0
M  V30 2690 H 251.316 3.7133 -0.662862 0
M  V30 2691 H 253.703 2.95086 -0.028475 0
M  V30 2692 H 253.784 2.04002 -1.54328 0
M  V30 2693 H 253.428 4.21001 -2.84114 0
M  V30 2694 H 253.358 5.10275 -1.30104 0
M  V30 2695 H 255.849 3.54119 -1.31939 0
M  V30 2696 H 256.162 6.99964 -3.27522 0
M  V30 2697 H 254.507 6.29791 -2.93919 0
M  V30 2698 H 257.698 4.35631 -1.71299 0
M  V30 2699 H 257.871 5.93348 -2.60466 0
M  V30 2700 O 251.316 0.569597 1.51122 0
M  V30 2701 H 252.007 0.0705798 1.93571 0
M  V30 END ATOM
M  V30 BEGIN BOND
M  V30 END BOND
M  V30 END CTAB
M  END
$$$$
