drugbank_drug|DB00056 Heavy Chain
 OpenBabel12092119123D

  0  0  0     0  0            999 V3000
M  V30 BEGIN CTAB
M  V30 COUNTS 6789 6884 0 0 0
M  V30 BEGIN ATOM
M  V30 1 H -0.908 1.98254 -0.117106 0
M  V30 2 N 0 1.576 0 0
M  V30 3 C 0.91 2.11853 1.00774 0
M  V30 4 C 1.926 1.06379 1.37693 0
M  V30 5 O 3.102 1.3828 1.46426 0
M  V30 6 C 0.167 2.61108 2.28087 0
M  V30 7 C -0.772 3.81183 1.9748 0
M  V30 8 C -1.539 4.28079 3.18723 0
M  V30 9 O -1.316 3.74307 4.30407 0
M  V30 10 O -2.382 5.20234 3.02721 0
M  V30 11 H 1.444 2.98177 0.576547 0
M  V30 12 H -0.971 1.47789 0.218828 0
M  V30 13 H 0.911 2.92987 3.0288 0
M  V30 14 H -0.414 1.77881 2.70444 0
M  V30 15 H -1.507 3.54277 1.20162 0
M  V30 16 H -0.174 4.65482 1.5996 0
M  V30 17 N 1.4781 -0.272755 1.55222 0
M  V30 18 C 2.7241 -1.00581 1.761 0
M  V30 19 C 3.0571 -1.85932 0.560625 0
M  V30 20 O 2.3321 -1.89416 -0.441801 0
M  V30 21 C 2.6151 -1.88816 3.06628 0
M  V30 22 C 2.4681 -1.06457 4.37021 0
M  V30 23 C 3.7871 -2.8752 3.33197 0
M  V30 24 H 0.9061 -0.364244 0.640699 0
M  V30 25 H 3.5481 -0.278189 1.87952 0
M  V30 26 H 1.6981 -2.50856 2.96654 0
M  V30 27 H 3.3701 -0.464863 4.58952 0
M  V30 28 H 1.6131 -0.368043 4.32236 0
M  V30 29 H 2.2841 -1.71514 5.24678 0
M  V30 30 H 4.7601 -2.35615 3.42965 0
M  V30 31 H 3.6361 -3.46399 4.25792 0
M  V30 32 H 3.8971 -3.62657 2.52849 0
M  V30 33 N 2.9562 -1.48159 -0.537278 0
M  V30 34 C 3.8882 -1.58218 -1.65831 0
M  V30 35 C 4.9012 -0.466948 -1.5596 0
M  V30 36 O 6.0902 -0.73747 -1.62553 0
M  V30 37 C 3.1902 -1.48906 -3.04434 0
M  V30 38 C 2.3632 -2.75343 -3.3986 0
M  V30 39 C 1.4222 -2.59588 -4.57712 0
M  V30 40 O 0.4482 -3.33457 -4.61297 0
M  V30 41 N 1.6502 -1.68724 -5.55439 0
M  V30 42 H 4.4152 -2.54891 -1.57641 0
M  V30 43 H 1.9762 -1.4479 -0.724386 0
M  V30 44 H 3.9682 -1.36072 -3.81139 0
M  V30 45 H 2.5382 -0.602368 -3.06741 0
M  V30 46 H 1.7582 -3.02795 -2.52406 0
M  V30 47 H 3.0462 -3.5924 -3.60311 0
M  V30 48 H 2.4442 -1.07898 -5.55315 0
M  V30 49 H 1.0012 -1.61832 -6.3139 0
M  V30 50 N 4.4343 0.785586 -1.36625 0
M  V30 51 C 5.3643 1.91259 -1.33949 0
M  V30 52 C 6.3453 1.68795 -0.210325 0
M  V30 53 O 7.5303 1.89854 -0.408561 0
M  V30 54 C 4.6603 3.28339 -1.13186 0
M  V30 55 C 3.6143 3.65335 -2.22967 0
M  V30 56 C 2.9403 5.00806 -1.87342 0
M  V30 57 C 4.2403 3.7352 -3.65075 0
M  V30 58 H 5.9343 1.93755 -2.28253 0
M  V30 59 H 3.4803 0.930788 -1.09874 0
M  V30 60 H 5.4333 4.06804 -1.09948 0
M  V30 61 H 4.1573 3.2624 -0.153332 0
M  V30 62 H 2.8163 2.89169 -2.25337 0
M  V30 63 H 2.4643 4.95233 -0.880545 0
M  V30 64 H 2.1643 5.26529 -2.60846 0
M  V30 65 H 3.6883 5.81687 -1.85667 0
M  V30 66 H 5.1023 4.42168 -3.64911 0
M  V30 67 H 3.4993 4.10731 -4.37516 0
M  V30 68 H 4.5693 2.74527 -3.99703 0
M  V30 69 N 5.9124 1.20967 1.01018 0
M  V30 70 C 7.1584 1.02526 1.74975 0
M  V30 71 C 7.4914 -0.4408 1.89131 0
M  V30 72 O 6.7664 -1.32718 1.42184 0
M  V30 73 C 7.0494 1.71699 3.1653 0
M  V30 74 C 6.9024 3.25791 3.10129 0
M  V30 75 C 8.2214 1.45531 4.15342 0
M  V30 76 H 5.3404 0.373863 0.635134 0
M  V30 77 H 7.9824 1.49071 1.17805 0
M  V30 78 H 6.1324 1.32128 3.65341 0
M  V30 79 H 7.8044 3.74697 2.69072 0
M  V30 80 H 6.0474 3.56363 2.47362 0
M  V30 81 H 6.7184 3.69353 4.10222 0
M  V30 82 H 9.1944 1.79872 3.75213 0
M  V30 83 H 8.0704 1.96453 5.1254 0
M  V30 84 H 8.3314 0.384237 4.40427 0
M  V30 85 N 7.3905 -1.2043 1.01659 0
M  V30 86 C 8.3225 -2.22626 0.544988 0
M  V30 87 C 9.3355 -1.58479 -0.372609 0
M  V30 88 O 10.5245 -1.77679 -0.170958 0
M  V30 89 C 7.6245 -3.38141 -0.22663 0
M  V30 90 C 6.7975 -4.31877 0.692876 0
M  V30 91 C 5.8565 -5.26191 -0.0311616 0
M  V30 92 O 4.8825 -5.6612 0.591343 0
M  V30 93 N 6.0845 -5.65618 -1.30601 0
M  V30 94 H 8.8495 -2.63716 1.42388 0
M  V30 95 H 6.4105 -1.34971 0.894116 0
M  V30 96 H 8.4025 -3.98239 -0.72024 0
M  V30 97 H 6.9725 -2.95943 -1.00681 0
M  V30 98 H 6.1925 -3.69746 1.36679 0
M  V30 99 H 7.4805 -4.91426 1.31824 0
M  V30 100 H 6.8785 -5.3519 -1.83269 0
M  V30 101 H 5.4355 -6.28025 -1.74435 0
M  V30 102 N 8.8686 -0.792821 -1.36206 0
M  V30 103 C 10.0936 -0.377701 -2.03932 0
M  V30 104 C 10.5186 0.998947 -1.59382 0
M  V30 105 O 9.8766 1.64421 -0.763903 0
M  V30 106 C 9.9246 -0.453635 -3.57735 0
M  V30 107 O 9.0286 0.538151 -4.08874 0
M  V30 108 H 8.3696 -0.159855 -0.644471 0
M  V30 109 H 10.8996 -1.07488 -1.7409 0
M  V30 110 H 10.9096 -0.318464 -4.06755 0
M  V30 111 H 9.5846 -1.45784 -3.89512 0
M  V30 112 H 8.1616 0.364359 -3.71116 0
M  V30 113 N 10.3467 1.47872 -0.545128 0
M  V30 114 C 11.5947 2.02093 -0.016553 0
M  V30 115 C 11.9157 1.42305 1.3332 0
M  V30 116 O 11.1857 0.593853 1.86682 0
M  V30 117 H 9.7657 0.746993 -0.00313038 0
M  V30 118 H 12.4277 1.81414 -0.712397 0
M  V30 119 H 11.5237 3.11996 0.0805422 0
M  V30 120 N 11.8248 0.280983 1.55075 0
M  V30 121 C 12.7878 -0.590896 2.21452 0
M  V30 122 C 13.7878 -1.07682 1.19421 0
M  V30 123 O 14.9778 -0.97605 1.44288 0
M  V30 124 C 12.1098 -1.81587 2.88511 0
M  V30 125 H 13.3028 -0.0112554 2.99898 0
M  V30 126 H 10.8558 0.0316438 1.56268 0
M  V30 127 H 11.5908 -2.43587 2.14093 0
M  V30 128 H 11.3758 -1.4753 3.63287 0
M  V30 129 H 12.8658 -2.43575 3.39206 0
M  V30 130 N 13.3029 -1.57598 0.00835791 0
M  V30 131 C 14.2129 -2.12385 -0.996487 0
M  V30 132 C 15.2289 -1.07108 -1.37127 0
M  V30 133 O 16.4049 -1.39055 -1.4569 0
M  V30 134 C 13.4699 -2.62314 -2.26699 0
M  V30 135 C 12.5309 -3.82225 -1.95456 0
M  V30 136 C 11.7639 -4.29763 -3.16449 0
M  V30 137 O 11.9869 -3.76584 -4.28416 0
M  V30 138 O 10.9209 -5.21832 -2.99958 0
M  V30 139 H 14.7469 -2.98479 -0.560725 0
M  V30 140 H 12.3319 -1.47903 -0.210987 0
M  V30 141 H 14.2139 -2.94589 -3.01322 0
M  V30 142 H 12.8889 -1.79313 -2.69497 0
M  V30 143 H 11.7959 -3.54909 -1.18282 0
M  V30 144 H 13.1289 -4.66324 -1.57489 0
M  V30 145 N 14.781 0.264519 -1.55364 0
M  V30 146 C 16.027 0.99646 -1.76631 0
M  V30 147 C 16.36 1.85632 -0.570478 0
M  V30 148 O 15.635 1.89647 0.43175 0
M  V30 149 C 15.918 1.87187 -3.07625 0
M  V30 150 C 15.771 1.04138 -4.37579 0
M  V30 151 C 17.09 2.85749 -3.34717 0
M  V30 152 H 14.209 0.360841 -0.642622 0
M  V30 153 H 16.851 0.268218 -1.88097 0
M  V30 154 H 15.001 2.49279 -2.9798 0
M  V30 155 H 16.673 0.440517 -4.59192 0
M  V30 156 H 14.916 0.345115 -4.32425 0
M  V30 157 H 15.587 1.68729 -5.2558 0
M  V30 158 H 18.063 2.33793 -3.4421 0
M  V30 159 H 16.939 3.44136 -4.27623 0
M  V30 160 H 17.2 3.61311 -2.54768 0
M  V30 161 N 16.2591 1.48442 0.529413 0
M  V30 162 C 17.2061 1.63007 1.63394 0
M  V30 163 C 18.1761 0.47212 1.59249 0
M  V30 164 O 19.3611 0.695673 1.77666 0
M  V30 165 C 16.5011 1.6763 3.01653 0
M  V30 166 C 15.6141 2.94535 3.16027 0
M  V30 167 C 14.7491 2.90316 4.44849 0
M  V30 168 C 13.7881 4.11923 4.52754 0
M  V30 169 N 12.9251 4.05777 5.72965 0
M  V30 170 H 17.7651 2.5733 1.50285 0
M  V30 171 H 15.3021 1.27613 0.731656 0
M  V30 172 H 17.2601 1.68292 3.81751 0
M  V30 173 H 15.8901 0.76797 3.13532 0
M  V30 174 H 14.9421 3.03615 2.29177 0
M  V30 175 H 16.2541 3.84512 3.17729 0
M  V30 176 H 15.4081 2.89382 5.33238 0
M  V30 177 H 14.1471 1.98068 4.45668 0
M  V30 178 H 13.1521 4.13131 3.62771 0
M  V30 179 H 14.3771 5.0533 4.53672 0
M  V30 180 H 12.3231 3.16351 5.74681 0
M  V30 181 H 12.2401 4.8946 5.76164 0
M  V30 182 H 13.5081 4.08904 6.6364 0
M  V30 183 N 17.7372 -0.778329 1.37039 0
M  V30 184 C 18.6842 -1.89139 1.32269 0
M  V30 185 C 19.6542 -1.65017 0.189387 0
M  V30 186 O 20.8392 -1.87024 0.377693 0
M  V30 187 C 17.9792 -3.26112 1.12894 0
M  V30 188 C 17.0922 -3.62233 2.35396 0
M  V30 189 C 16.2272 -4.8838 2.08946 0
M  V30 190 C 15.2662 -5.17212 3.2735 0
M  V30 191 N 14.4032 -6.34546 3.00492 0
M  V30 192 H 19.2432 -1.92552 2.27437 0
M  V30 193 H 16.7802 -0.941473 1.13025 0
M  V30 194 H 18.7382 -4.05116 0.996835 0
M  V30 195 H 17.3682 -3.22091 0.213758 0
M  V30 196 H 16.4202 -2.78265 2.5937 0
M  V30 197 H 17.7322 -3.79481 3.23721 0
M  V30 198 H 16.8862 -5.75274 1.92729 0
M  V30 199 H 15.6252 -4.73222 1.17949 0
M  V30 200 H 14.6302 -4.28796 3.44113 0
M  V30 201 H 15.8552 -5.34283 4.19188 0
M  V30 202 H 13.8012 -6.20759 2.12118 0
M  V30 203 H 13.7182 -6.52179 3.82358 0
M  V30 204 H 14.9862 -7.24394 2.87879 0
M  V30 205 N 19.2153 -1.21501 -1.00376 0
M  V30 206 C 20.6263 -1.03146 -1.55621 0
M  V30 207 C 20.9773 0.408375 -1.91903 0
M  V30 208 O 20.1023 1.29177 -1.73616 0
M  V30 209 C 20.6973 -1.86612 -2.82775 0
M  V30 210 C 19.2563 -1.72586 -3.34501 0
M  V30 211 C 18.4033 -1.83747 -2.07683 0
M  V30 212 H 21.3543 -1.35505 -0.826081 0
M  V30 213 H 21.3753 -1.3771 -3.54706 0
M  V30 214 H 20.8873 -2.91399 -2.56336 0
M  V30 215 H 18.9883 -0.704877 -3.65872 0
M  V30 216 H 19.1013 -2.54623 -4.05837 0
M  V30 217 H 17.4653 -1.27069 -2.20739 0
M  V30 218 H 18.2483 -2.90044 -1.83655 0
M  V30 219 N 20.6934 1.19889 -1.02296 0
M  V30 220 C 21.9414 1.89046 -0.714558 0
M  V30 221 C 22.2624 1.79636 0.758681 0
M  V30 222 O 21.5324 1.20292 1.54618 0
M  V30 223 H 20.1124 0.699802 -0.261317 0
M  V30 224 H 22.7744 1.45574 -1.29592 0
M  V30 225 H 21.8704 2.95524 -1.0036 0
M  V30 226 N 22.1715 0.800033 1.35784 0
M  V30 227 C 23.3965 0.388511 2.03729 0
M  V30 228 C 23.8215 -0.990481 1.5991 0
M  V30 229 O 23.1795 -1.64013 0.772612 0
M  V30 230 C 23.2275 0.4726 3.5749 0
M  V30 231 O 22.3315 -0.51646 4.09153 0
M  V30 232 H 21.6725 0.163271 0.643614 0
M  V30 233 H 24.2025 1.0841 1.73518 0
M  V30 234 H 24.2125 0.34003 4.06581 0
M  V30 235 H 22.8875 1.47848 3.88734 0
M  V30 236 H 21.4645 -0.344673 3.71304 0
M  V30 237 N 23.6496 -1.47581 0.552962 0
M  V30 238 C 24.8746 -2.07378 0.0300593 0
M  V30 239 C 25.2996 -1.40355 -1.25229 0
M  V30 240 O 24.6576 -0.477099 -1.7491 0
M  V30 241 C 24.7056 -3.60274 -0.153231 0
M  V30 242 O 23.8096 -3.94041 -1.21678 0
M  V30 243 H 23.1506 -0.662158 0.0494182 0
M  V30 244 H 25.6806 -1.89662 0.767434 0
M  V30 245 H 25.6906 -4.0633 -0.368761 0
M  V30 246 H 24.3656 -4.08455 0.783397 0
M  V30 247 H 22.9426 -3.59735 -0.982079 0
M  V30 248 N 25.1277 -0.289203 -1.54924 0
M  V30 249 C 26.3737 0.323998 -2.00195 0
M  V30 250 C 26.7067 1.54441 -1.17735 0
M  V30 251 O 25.9817 1.92875 -0.250878 0
M  V30 252 C 26.2647 0.692276 -3.53383 0
M  V30 253 C 26.1177 -0.536457 -4.46589 0
M  V30 254 C 27.4367 1.52335 -4.12895 0
M  V30 255 H 24.5557 0.116289 -0.727768 0
M  V30 256 H 27.1977 -0.398954 -1.85764 0
M  V30 257 H 25.3477 1.30822 -3.65811 0
M  V30 258 H 27.0197 -1.17499 -4.46085 0
M  V30 259 H 25.2627 -1.17192 -4.1767 0
M  V30 260 H 25.9337 -0.234806 -5.515 0
M  V30 261 H 28.4097 1.00302 -4.0383 0
M  V30 262 H 27.2857 1.74982 -5.20262 0
M  V30 263 H 27.5467 2.50886 -3.64018 0
M  V30 264 N 26.6058 1.57591 -0.0167156 0
M  V30 265 C 27.5528 2.09462 0.969251 0
M  V30 266 C 28.5228 0.99381 1.33089 0
M  V30 267 O 29.7078 1.26726 1.42636 0
M  V30 268 C 26.8478 2.61622 2.25051 0
M  V30 269 C 25.9608 3.85666 1.94642 0
M  V30 270 C 25.0958 4.26266 3.16972 0
M  V30 271 C 24.1348 5.43101 2.82326 0
M  V30 272 N 23.2718 5.78915 3.97243 0
M  V30 273 H 28.1118 2.93428 0.519997 0
M  V30 274 H 25.6488 1.45044 0.245087 0
M  V30 275 H 27.6068 2.89949 2.99976 0
M  V30 276 H 26.2368 1.80505 2.67615 0
M  V30 277 H 25.2888 3.64145 1.10013 0
M  V30 278 H 26.6008 4.70678 1.65117 0
M  V30 279 H 25.7548 4.55963 4.00228 0
M  V30 280 H 24.4938 3.39996 3.49648 0
M  V30 281 H 23.4988 5.1311 1.97479 0
M  V30 282 H 24.7238 6.3106 2.50879 0
M  V30 283 H 22.6698 4.95602 4.29785 0
M  V30 284 H 22.5868 6.58539 3.71299 0
M  V30 285 H 23.8548 6.13212 4.81239 0
M  V30 286 N 28.0839 -0.256276 1.55502 0
M  V30 287 C 29.3299 -0.987079 1.77157 0
M  V30 288 C 29.6629 -1.85327 0.580315 0
M  V30 289 O 28.9379 -1.89874 -0.421686 0
M  V30 290 C 29.2209 -1.85553 3.08613 0
M  V30 291 C 29.0739 -1.01816 4.38125 0
M  V30 292 C 30.3929 -2.8397 3.36228 0
M  V30 293 H 27.5119 -0.357428 0.644526 0
M  V30 294 H 30.1539 -0.258239 1.88237 0
M  V30 295 H 28.3039 -2.47695 2.99298 0
M  V30 296 H 29.9759 -0.416159 4.59419 0
M  V30 297 H 28.2189 -0.322178 4.32602 0
M  V30 298 H 28.8899 -1.65939 5.26468 0
M  V30 299 H 31.3659 -2.31964 3.45445 0
M  V30 300 H 30.2419 -3.41864 4.29442 0
M  V30 301 H 30.5029 -3.59955 2.56681 0
M  V30 302 N 29.562 -1.4872 -0.521534 0
M  V30 303 C 30.787 -1.61101 -1.30618 0
M  V30 304 C 31.212 -0.274611 -1.86085 0
M  V30 305 O 30.57 0.754937 -1.64834 0
M  V30 306 C 30.618 -2.66709 -2.4269 0
M  V30 307 O 29.722 -2.24456 -3.45967 0
M  V30 308 H 29.063 -0.539921 -0.386499 0
M  V30 309 H 31.593 -1.94767 -0.626645 0
M  V30 310 H 31.603 -2.88245 -2.88754 0
M  V30 311 H 30.278 -3.63727 -2.01682 0
M  V30 312 H 28.855 -2.13168 -3.05964 0
M  V30 313 N 31.0401 0.771051 -1.3745 0
M  V30 314 C 32.2801 1.54264 -1.34096 0
M  V30 315 C 32.6441 1.91858 0.0737639 0
M  V30 316 O 33.8451 2.67797 0.23203 0
M  V30 317 C 32.1161 2.77326 -2.25445 0
M  V30 318 S 33.6751 3.67383 -2.39948 0
M  V30 319 H 30.4931 0.528122 -0.476034 0
M  V30 320 H 33.0951 0.906633 -1.73206 0
M  V30 321 H 31.7991 2.47788 -3.27153 0
M  V30 322 H 31.3301 3.45886 -1.87421 0
M  V30 323 H 33.3451 4.69334 -1.61059 0
M  V30 324 N 32.5182 1.22032 0.997298 0
M  V30 325 C 33.4652 0.986467 2.08656 0
M  V30 326 C 34.4352 -0.0902671 1.65855 0
M  V30 327 O 35.6202 0.0584294 1.90711 0
M  V30 328 C 32.7602 0.565569 3.40434 0
M  V30 329 C 31.8732 1.71259 3.96604 0
M  V30 330 C 31.0082 1.24011 5.16522 0
M  V30 331 C 30.0472 2.35896 5.64818 0
M  V30 332 N 29.1842 1.89726 6.7598 0
M  V30 333 H 34.0242 1.91892 2.27994 0
M  V30 334 H 31.5612 0.956199 1.11782 0
M  V30 335 H 33.5192 0.302738 4.161 0
M  V30 336 H 32.1492 -0.329879 3.2111 0
M  V30 337 H 31.2012 2.08986 3.17851 0
M  V30 338 H 32.5132 2.55436 4.28432 0
M  V30 339 H 31.6672 0.934395 5.99461 0
M  V30 340 H 30.4062 0.368487 4.86306 0
M  V30 341 H 29.4112 2.67261 4.8047 0
M  V30 342 H 30.6362 3.23567 5.97061 0
M  V30 343 H 28.5822 1.0492 6.47555 0
M  V30 344 H 28.4992 2.67471 7.07103 0
M  V30 345 H 29.7672 1.62211 7.62435 0
M  V30 346 N 33.9963 -1.19345 1.0293 0
M  V30 347 C 34.9593 -2.20793 0.615069 0
M  V30 348 C 35.9593 -1.57553 -0.321533 0
M  V30 349 O 37.1493 -1.73862 -0.108483 0
M  V30 350 C 34.2813 -3.40754 -0.0999222 0
M  V30 351 H 35.4743 -2.58955 1.51269 0
M  V30 352 H 33.0273 -1.3303 0.820534 0
M  V30 353 H 33.7623 -3.0811 -1.01187 0
M  V30 354 H 33.5473 -3.87889 0.57309 0
M  V30 355 H 35.0373 -4.15898 -0.376645 0
M  V30 356 N 35.4744 -0.807222 -1.35358 0
M  V30 357 C 36.6994 -0.399309 -2.0352 0
M  V30 358 C 37.1244 0.981986 -1.60433 0
M  V30 359 O 36.4824 1.63601 -0.781299 0
M  V30 360 C 36.5304 -0.491552 -3.57234 0
M  V30 361 O 35.6344 0.494754 -4.09421 0
M  V30 362 H 34.9754 -0.166682 -0.642739 0
M  V30 363 H 37.5054 -1.09328 -1.72941 0
M  V30 364 H 37.5154 -0.361588 -4.06395 0
M  V30 365 H 36.1904 -1.49907 -3.87944 0
M  V30 366 H 34.7674 0.324977 -3.71481 0
M  V30 367 N 36.9525 1.47285 -0.560781 0
M  V30 368 C 38.2005 2.02064 -0.0379868 0
M  V30 369 C 38.5215 1.43711 1.31803 0
M  V30 370 O 37.7915 0.61362 1.86042 0
M  V30 371 H 36.3715 0.746918 -0.0110531 0
M  V30 372 H 39.0335 1.80648 -0.731598 0
M  V30 373 H 38.1295 3.12064 0.0474463 0
M  V30 374 N 38.4306 0.297415 1.54768 0
M  V30 375 C 39.6606 -0.315165 2.04182 0
M  V30 376 C 40.0686 -1.4834 1.17439 0
M  V30 377 O 39.4116 -1.82695 0.191891 0
M  V30 378 C 39.4736 -0.837583 3.49607 0
M  V30 379 C 39.1376 0.204912 4.5654 0
M  V30 380 C 40.1346 1.03214 5.09552 0
M  V30 381 C 37.8196 0.345578 5.0111 0
M  V30 382 C 39.8136 1.986 6.05671 0
M  V30 383 C 37.5006 1.30289 5.97049 0
M  V30 384 C 38.4986 2.12159 6.49213 0
M  V30 385 O 38.1866 3.06268 7.43273 0
M  V30 386 H 37.9186 -0.0729646 0.672051 0
M  V30 387 H 40.4726 0.433907 2.00765 0
M  V30 388 H 38.7026 -1.63712 3.50336 0
M  V30 389 H 40.3916 -1.36566 3.82236 0
M  V30 390 H 41.1576 0.934312 4.75916 0
M  V30 391 H 37.0366 -0.28171 4.60138 0
M  V30 392 H 40.5806 2.62542 6.46311 0
M  V30 393 H 36.4776 1.40145 6.30103 0
M  V30 394 H 37.2456 3.01205 7.61064 0
M  V30 395 N 39.9087 -1.5758 0.0250728 0
M  V30 396 C 41.1367 -1.9593 -0.664747 0
M  V30 397 C 41.5517 -0.901352 -1.65895 0
M  V30 398 O 40.9087 0.117255 -1.82123 0
M  V30 399 C 40.9597 -3.34342 -1.37468 0
M  V30 400 O 40.6807 -4.36079 -0.420324 0
M  V30 401 C 42.1817 -3.873 -2.1567 0
M  V30 402 H 39.4017 -0.645405 -0.183557 0
M  V30 403 H 41.9457 -2.04329 0.0836372 0
M  V30 404 H 40.1007 -3.27175 -2.0745 0
M  V30 405 H 40.5147 -5.16297 -0.923991 0
M  V30 406 H 41.9887 -4.86504 -2.60803 0
M  V30 407 H 42.4657 -3.21331 -2.99405 0
M  V30 408 H 43.0717 -3.97723 -1.50654 0
M  V30 409 N 41.3868 0.248026 -1.55636 0
M  V30 410 C 42.6358 0.974134 -1.76617 0
M  V30 411 C 42.9488 1.86528 -0.588796 0
M  V30 412 O 44.1548 2.62805 -0.681594 0
M  V30 413 C 42.6108 1.78213 -3.12679 0
M  V30 414 C 42.2188 0.93843 -4.38061 0
M  V30 415 C 43.9628 2.50104 -3.42999 0
M  V30 416 C 41.8698 1.74225 -5.65155 0
M  V30 417 H 40.7998 0.36745 -0.658405 0
M  V30 418 H 43.4508 0.22884 -1.82067 0
M  V30 419 H 41.8328 2.56933 -3.01333 0
M  V30 420 H 43.0068 0.193635 -4.60393 0
M  V30 421 H 41.3218 0.332905 -4.15067 0
M  V30 422 H 43.9188 3.10694 -4.3517 0
M  V30 423 H 44.2618 3.21662 -2.64271 0
M  V30 424 H 44.7948 1.78395 -3.55556 0
M  V30 425 H 41.5338 1.07043 -6.46701 0
M  V30 426 H 41.0538 2.46235 -5.46926 0
M  V30 427 H 42.7328 2.30967 -6.0437 0
M  V30 428 N 42.8649 1.48995 0.513639 0
M  V30 429 C 44.0929 1.61531 1.29288 0
M  V30 430 C 44.5079 0.281801 1.86685 0
M  V30 431 O 43.8649 -0.731111 1.67215 0
M  V30 432 C 43.9159 2.67449 2.43215 0
M  V30 433 O 43.6369 3.95626 1.88179 0
M  V30 434 C 45.1379 2.90575 3.34785 0
M  V30 435 H 42.3579 0.544165 0.392588 0
M  V30 436 H 44.9019 1.9494 0.617956 0
M  V30 437 H 43.0569 2.36853 3.0656 0
M  V30 438 H 43.4709 4.53868 2.62876 0
M  V30 439 H 44.9449 3.68449 4.11035 0
M  V30 440 H 45.4219 2.00011 3.91015 0
M  V30 441 H 46.0279 3.22538 2.77218 0
M  V30 442 N 44.343 -0.763751 1.37857 0
M  V30 443 C 45.62 -1.51244 1.24035 0
M  V30 444 C 46 -2.10472 -0.162649 0
M  V30 445 O 45.348 -1.96206 -1.17112 0
M  V30 446 C 45.558 -2.58694 2.34261 0
M  V30 447 C 46.906 -3.25878 2.72193 0
M  V30 448 O 47.93 -2.68993 2.33497 0
M  V30 449 O 46.789 -4.2874 3.38887 0
M  V30 450 H 43.883 -0.670243 0.484462 0
M  V30 451 H 46.429 -0.800031 1.49658 0
M  V30 452 H 45.201 -2.13105 3.2818 0
M  V30 453 H 44.824 -3.37527 2.10146 0
M  V30 454 N 45.8211 -1.22559 -0.990812 0
M  V30 455 C 47.0461 -1.07862 -1.77145 0
M  V30 456 C 47.4711 0.366447 -1.84496 0
M  V30 457 O 46.8291 1.26478 -1.29896 0
M  V30 458 C 46.8771 -1.69686 -3.18181 0
M  V30 459 O 45.9811 -0.951946 -4.01263 0
M  V30 460 H 45.3221 -0.378712 -0.545411 0
M  V30 461 H 47.8521 -1.62399 -1.2445 0
M  V30 462 H 47.8621 -1.74496 -3.68802 0
M  V30 463 H 46.5371 -2.74841 -3.12146 0
M  V30 464 H 45.1141 -0.980011 -3.59792 0
M  V30 465 N 47.2992 1.18797 -1.03562 0
M  V30 466 C 48.2472 2.24297 -0.615905 0
M  V30 467 C 49.2412 1.65643 0.354808 0
M  V30 468 O 50.4472 1.78618 0.22265 0
M  V30 469 H 46.8222 0.729909 -0.180934 0
M  V30 470 H 48.7932 2.5701 -1.5162 0
M  V30 471 C 47.5422 3.47698 0.0104735 0
M  V30 472 H 46.8652 3.93125 -0.727509 0
M  V30 473 H 48.3052 4.23159 0.266995 0
M  V30 474 C 46.7642 3.12489 1.25905 0
M  V30 475 O 47.2942 3.25761 2.35038 0
M  V30 476 N 45.5002 2.6686 1.15039 0
M  V30 477 H 45.0472 2.56261 0.262328 0
M  V30 478 H 45.0052 2.43674 1.98672 0
M  V30 479 N 48.7773 0.814389 1.34928 0
M  V30 480 C 50.0263 0.394871 1.97797 0
M  V30 481 C 50.3393 -1.04555 1.65311 0
M  V30 482 O 51.5453 -1.56856 2.21604 0
M  V30 483 C 50.0013 0.655103 3.53888 0
M  V30 484 C 49.6093 2.10858 3.95276 0
M  V30 485 C 51.3533 0.301329 4.23429 0
M  V30 486 C 49.2603 2.31415 5.44244 0
M  V30 487 H 48.1903 0.143913 0.740139 0
M  V30 488 H 50.8413 0.999544 1.53888 0
M  V30 489 H 49.2233 -0.0196253 3.95995 0
M  V30 490 H 50.3973 2.82176 3.64298 0
M  V30 491 H 48.7123 2.42297 3.38646 0
M  V30 492 H 51.3093 0.432869 5.32945 0
M  V30 493 H 51.6523 -0.75331 4.09428 0
M  V30 494 H 52.1853 0.930288 3.86769 0
M  V30 495 H 48.9243 3.35353 5.63222 0
M  V30 496 H 48.4443 1.6463 5.76764 0
M  V30 497 H 50.1233 2.13352 6.10811 0
M  V30 498 N 50.2554 -1.46986 0.568584 0
M  V30 499 C 51.2054 -2.27179 -0.193339 0
M  V30 500 C 52.1894 -1.35035 -0.874895 0
M  V30 501 O 53.3814 -1.5931 -0.771322 0
M  V30 502 C 50.5104 -3.21063 -1.21546 0
M  V30 503 C 49.5964 -4.2069 -0.536738 0
M  V30 504 N 49.9874 -5.04218 0.399673 0
M  V30 505 C 48.2854 -4.38961 -0.789254 0
M  V30 506 C 48.9864 -5.76242 0.795017 0
M  V30 507 N 47.9624 -5.434 0.1473 0
M  V30 508 H 51.7644 -2.89146 0.526458 0
M  V30 509 H 49.2784 -1.57664 0.389342 0
M  V30 510 H 51.2754 -3.77209 -1.77536 0
M  V30 511 H 49.9354 -2.60654 -1.93623 0
M  V30 512 H 50.9464 -5.12077 0.774454 0
M  V30 513 H 47.6234 -3.89713 -1.49767 0
M  V30 514 H 49.0134 -6.53417 1.56513 0
M  V30 515 N 51.7335 -0.305618 -1.54608 0
M  V30 516 C 52.9795 0.295595 -2.01241 0
M  V30 517 C 53.3345 1.51171 -1.19018 0
M  V30 518 O 52.6275 1.89832 -0.259684 0
M  V30 519 C 52.8215 0.698983 -3.50498 0
M  V30 520 C 52.6505 -0.476491 -4.47168 0
M  V30 521 C 51.4205 -0.969963 -4.95903 0
M  V30 522 C 53.6185 -1.32294 -4.96994 0
M  V30 523 N 51.6005 -2.11172 -5.76437 0
M  V30 524 C 52.9715 -2.31212 -5.75275 0
M  V30 525 C 55.0265 -1.35278 -4.7917 0
M  V30 526 C 53.7295 -3.32896 -6.37631 0
M  V30 527 C 55.7555 -2.35823 -5.42348 0
M  V30 528 C 55.1175 -3.33469 -6.20466 0
M  V30 529 H 51.2165 0.0724992 -0.778632 0
M  V30 530 H 53.8005 -0.436583 -1.89742 0
M  V30 531 H 51.9715 1.40032 -3.62278 0
M  V30 532 H 53.7035 1.28013 -3.8392 0
M  V30 533 H 50.4585 -0.544178 -4.70463 0
M  V30 534 H 50.8825 -2.68714 -6.21387 0
M  V30 535 H 55.5245 -0.61157 -4.18354 0
M  V30 536 H 53.2425 -4.07933 -6.97579 0
M  V30 537 H 56.8285 -2.38911 -5.30484 0
M  V30 538 H 55.7085 -4.09996 -6.68485 0
M  V30 539 N 53.2116 1.57565 -0.0334293 0
M  V30 540 C 54.4576 1.92262 0.645226 0
M  V30 541 C 54.7906 0.910543 1.71531 0
M  V30 542 O 54.0656 -0.066099 1.94388 0
M  V30 543 C 54.3486 3.37422 1.2577 0
M  V30 544 C 54.2016 4.49369 0.196891 0
M  V30 545 C 55.5206 3.82628 2.17449 0
M  V30 546 H 52.6396 0.699171 0.233085 0
M  V30 547 H 55.2816 1.89779 -0.0915694 0
M  V30 548 H 53.4316 3.39669 1.88566 0
M  V30 549 H 55.1036 4.59254 -0.433962 0
M  V30 550 H 53.3466 4.31168 -0.477137 0
M  V30 551 H 54.0176 5.47978 0.665124 0
M  V30 552 H 56.4936 3.82145 1.64634 0
M  V30 553 H 55.3696 4.84883 2.57254 0
M  V30 554 H 55.6306 3.18376 3.0674 0
M  V30 555 N 54.6897 -0.239769 1.55765 0
M  V30 556 C 56.1057 -0.588624 1.48349 0
M  V30 557 C 56.3057 -1.88005 0.72502 0
M  V30 558 O 55.3617 -2.51186 0.257269 0
M  V30 559 C 56.6747 -0.68474 2.928 0
M  V30 560 C 58.2227 -0.77659 3.03213 0
M  V30 561 C 58.6977 -0.904207 4.48986 0
M  V30 562 N 60.1887 -0.968896 4.52953 0
M  V30 563 C 60.9237 -1.08703 5.63002 0
M  V30 564 N 60.4197 -1.17026 6.82845 0
M  V30 565 N 62.2127 -1.12074 5.50814 0
M  V30 566 H 54.3637 0.607911 2.03515 0
M  V30 567 H 56.6267 0.21083 0.924259 0
M  V30 568 H 56.3327 0.194284 3.51163 0
M  V30 569 H 56.2067 -1.55435 3.43686 0
M  V30 570 H 58.5937 -1.64606 2.44926 0
M  V30 571 H 58.6747 0.118315 2.55526 0
M  V30 572 H 58.3187 -0.0392633 5.07885 0
M  V30 573 H 58.2487 -1.81426 4.9436 0
M  V30 574 H 60.7397 -0.915633 3.6664 0
M  V30 575 H 61.0527 -1.25966 7.62465 0
M  V30 576 H 59.3977 -1.13971 6.85591 0
M  V30 577 H 62.5887 -1.05226 4.5612 0
M  V30 578 H 62.7617 -1.20936 6.36615 0
M  V30 579 N 56.1678 -1.49265 -0.50573 0
M  V30 580 C 57.0998 -1.617 -1.62437 0
M  V30 581 C 58.1128 -0.499924 -1.54934 0
M  V30 582 O 59.3018 -0.771785 -1.60953 0
M  V30 583 C 56.4018 -1.5533 -3.01207 0
M  V30 584 C 55.5748 -2.8249 -3.33943 0
M  V30 585 C 54.6338 -2.69238 -4.52103 0
M  V30 586 O 53.6598 -3.43167 -4.5412 0
M  V30 587 N 54.8618 -1.80468 -5.51735 0
M  V30 588 H 57.6268 -2.58177 -1.52199 0
M  V30 589 H 55.1878 -1.46294 -0.693511 0
M  V30 590 H 57.1798 -1.44125 -3.78167 0
M  V30 591 H 55.7498 -0.667297 -3.05395 0
M  V30 592 H 54.9698 -3.08081 -2.45926 0
M  V30 593 H 56.2578 -3.66802 -3.5261 0
M  V30 594 H 55.6558 -1.19653 -5.52901 0
M  V30 595 H 54.2128 -1.75188 -6.27816 0
M  V30 596 N 57.6459 0.756429 -1.3826 0
M  V30 597 C 58.6089 1.85176 -1.35065 0
M  V30 598 C 59.6089 1.58818 -0.251703 0
M  V30 599 O 60.7989 1.66615 -0.508433 0
M  V30 600 C 57.9309 3.22596 -1.10201 0
M  V30 601 H 59.1239 1.89417 -2.3251 0
M  V30 602 H 56.6769 0.95783 -1.23512 0
M  V30 603 H 57.4119 3.24025 -0.133504 0
M  V30 604 H 57.1969 3.43122 -1.89762 0
M  V30 605 H 58.6869 4.02673 -1.10654 0
M  V30 606 N 59.124 1.23083 0.984299 0
M  V30 607 C 60.535 1.05609 1.5396 0
M  V30 608 C 60.886 -0.377793 1.92528 0
M  V30 609 O 60.011 -1.26398 1.75649 0
M  V30 610 C 60.606 1.91087 2.7977 0
M  V30 611 C 59.165 1.77885 3.31713 0
M  V30 612 C 58.312 1.87028 2.04733 0
M  V30 613 H 61.263 1.36802 0.804419 0
M  V30 614 H 61.284 1.43336 3.5247 0
M  V30 615 H 60.796 2.9544 2.51668 0
M  V30 616 H 58.897 0.762995 3.64704 0
M  V30 617 H 59.01 2.61047 4.01735 0
M  V30 618 H 57.374 1.30565 2.18689 0
M  V30 619 H 58.157 2.92929 1.79017 0
M  V30 620 N 60.6021 -1.18246 1.0419 0
M  V30 621 C 61.8501 -1.87886 0.744543 0
M  V30 622 C 62.1711 -1.8082 -0.730006 0
M  V30 623 O 61.4411 -1.22736 -1.52685 0
M  V30 624 H 60.0211 -0.695556 0.272417 0
M  V30 625 H 62.6831 -1.43494 1.31892 0
M  V30 626 H 61.7791 -2.9389 1.05049 0
M  V30 627 N 62.0802 -0.821533 -1.34494 0
M  V30 628 C 63.0122 -0.199946 -2.28326 0
M  V30 629 C 64.0252 0.609377 -1.50965 0
M  V30 630 O 65.2142 0.439285 -1.7301 0
M  V30 631 C 62.3142 0.738431 -3.30757 0
M  V30 632 C 61.4872 -0.0277632 -4.37391 0
M  V30 633 C 60.5462 0.831332 -5.19591 0
M  V30 634 O 59.5722 0.276822 -5.68526 0
M  V30 635 N 60.7742 2.15132 -5.39165 0
M  V30 636 H 63.5392 -1.00609 -2.82308 0
M  V30 637 H 61.1002 -0.678366 -1.47003 0
M  V30 638 H 63.0922 1.31773 -3.82646 0
M  V30 639 H 61.6622 1.44533 -2.7718 0
M  V30 640 H 60.8822 -0.788359 -3.86236 0
M  V30 641 H 62.1702 -0.555251 -5.05761 0
M  V30 642 H 61.5682 2.62559 -5.01078 0
M  V30 643 H 60.1252 2.6795 -5.94177 0
M  V30 644 N 63.5583 1.46682 -0.576371 0
M  V30 645 C 64.7833 2.07304 -0.0630475 0
M  V30 646 C 65.2083 1.42329 1.2298 0
M  V30 647 O 64.5663 0.504865 1.74129 0
M  V30 648 C 64.6143 3.60472 0.095895 0
M  V30 649 O 63.7183 3.95927 1.15394 0
M  V30 650 H 63.0593 0.661288 -0.0599463 0
M  V30 651 H 65.5893 1.88417 -0.797511 0
M  V30 652 H 65.5993 4.06865 0.304071 0
M  V30 653 H 64.2743 4.07157 -0.84828 0
M  V30 654 H 62.8513 3.61252 0.924724 0
M  V30 655 N 65.0364 0.313813 1.54444 0
M  V30 656 C 65.9664 -0.549454 2.26943 0
M  V30 657 C 66.9474 -1.12741 1.27372 0
M  V30 658 O 68.1324 -1.15436 1.56167 0
M  V30 659 C 65.2624 -1.71523 3.01989 0
M  V30 660 C 64.2164 -1.26703 4.08816 0
M  V30 661 C 63.5424 -2.51898 4.71647 0
M  V30 662 C 64.8424 -0.388962 5.2085 0
M  V30 663 H 66.5364 0.0552661 2.99349 0
M  V30 664 H 64.0824 0.0280207 1.43973 0
M  V30 665 H 66.0354 -2.32535 3.51433 0
M  V30 666 H 64.7594 -2.34639 2.27183 0
M  V30 667 H 63.4184 -0.679896 3.6024 0
M  V30 668 H 63.0664 -3.13356 3.93468 0
M  V30 669 H 62.7664 -2.22605 5.43802 0
M  V30 670 H 64.2904 -3.1369 5.23861 0
M  V30 671 H 65.7044 -0.905107 5.6611 0
M  V30 672 H 64.1014 -0.18924 5.99802 0
M  V30 673 H 65.1714 0.582699 4.81386 0
M  V30 674 N 66.5145 -1.57545 0.0417849 0
M  V30 675 C 67.4245 -2.14451 -0.951213 0
M  V30 676 C 68.4405 -1.09992 -1.34825 0
M  V30 677 O 69.6165 -1.42114 -1.42708 0
M  V30 678 C 66.6815 -2.67063 -2.21084 0
M  V30 679 C 65.7425 -3.86284 -1.87304 0
M  V30 680 C 64.9755 -4.36378 -3.07261 0
M  V30 681 O 65.1985 -3.85587 -4.20332 0
M  V30 682 O 64.1325 -5.28077 -2.88822 0
M  V30 683 H 67.9585 -2.99601 -0.497287 0
M  V30 684 H 65.5435 -1.48317 -0.179567 0
M  V30 685 H 67.4255 -3.00914 -2.95006 0
M  V30 686 H 66.1005 -1.84989 -2.65633 0
M  V30 687 H 65.0075 -3.57338 -1.10727 0
M  V30 688 H 66.3405 -4.6956 -1.47562 0
M  V30 689 N 67.9926 0.231505 -1.5589 0
M  V30 690 C 69.2386 0.954429 -1.79617 0
M  V30 691 C 69.5936 1.82367 -0.613199 0
M  V30 692 O 68.8866 1.87524 0.393094 0
M  V30 693 C 69.0806 1.83577 -3.0665 0
M  V30 694 C 68.9096 1.05334 -4.3719 0
M  V30 695 C 67.6796 0.75225 -4.99669 0
M  V30 696 C 69.8776 0.423444 -5.12554 0
M  V30 697 N 67.8596 -0.052627 -6.13877 0
M  V30 698 C 69.2306 -0.245287 -6.19515 0
M  V30 699 C 71.2856 0.335466 -4.96769 0
M  V30 700 C 69.9886 -0.993566 -7.12405 0
M  V30 701 C 72.0146 -0.399321 -5.9005 0
M  V30 702 C 71.3766 -1.05663 -6.9643 0
M  V30 703 H 67.4756 0.329846 -0.709031 0
M  V30 704 H 70.0596 0.226172 -1.93382 0
M  V30 705 H 68.2306 2.53592 -2.94186 0
M  V30 706 H 69.9626 2.49541 -3.18608 0
M  V30 707 H 66.7176 1.06783 -4.61405 0
M  V30 708 H 67.1416 -0.443609 -6.75545 0
M  V30 709 H 71.7836 0.829311 -4.14587 0
M  V30 710 H 69.5016 -1.49896 -7.94076 0
M  V30 711 H 73.0876 -0.468265 -5.79913 0
M  V30 712 H 71.9676 -1.61612 -7.67366 0
M  V30 713 N 69.4707 1.49531 0.497807 0
M  V30 714 C 70.7197 1.58426 1.24837 0
M  V30 715 C 71.0327 0.277643 1.93619 0
M  V30 716 O 72.2387 0.24517 2.70391 0
M  V30 717 C 70.6947 2.79538 2.26686 0
M  V30 718 C 70.3027 4.16971 1.63828 0
M  V30 719 C 72.0467 2.97764 3.0255 0
M  V30 720 C 69.9537 5.29301 2.63807 0
M  V30 721 H 68.8837 0.58989 0.469623 0
M  V30 722 H 71.5347 1.75923 0.521857 0
M  V30 723 H 69.9167 2.55542 3.02514 0
M  V30 724 H 71.0907 4.51116 0.939711 0
M  V30 725 H 69.4057 4.04129 1.00342 0
M  V30 726 H 72.0027 3.78856 3.77323 0
M  V30 727 H 72.3457 2.08448 3.60354 0
M  V30 728 H 72.8787 3.21815 2.33838 0
M  V30 729 H 69.6177 6.20687 2.10779 0
M  V30 730 H 69.1377 4.99606 3.31894 0
M  V30 731 H 70.8167 5.58768 3.2617 0
M  V30 732 N 70.9488 -0.749086 1.3866 0
M  V30 733 C 72.1968 -1.50535 1.34847 0
M  V30 734 C 72.5178 -1.94909 -0.0595016 0
M  V30 735 O 71.7878 -1.67973 -1.00806 0
M  V30 736 H 70.3678 -0.558395 0.49619 0
M  V30 737 H 73.0298 -0.890165 1.73384 0
M  V30 738 H 72.1258 -2.39413 2.00219 0
M  V30 739 N 72.4269 -1.23603 -0.977757 0
M  V30 740 C 73.6569 -1.09487 -1.75203 0
M  V30 741 C 74.0649 0.356321 -1.85814 0
M  V30 742 O 73.4079 1.25816 -1.33851 0
M  V30 743 C 73.4699 -1.64905 -3.19447 0
M  V30 744 C 73.1339 -3.13688 -3.32338 0
M  V30 745 C 74.1309 -4.10953 -3.18455 0
M  V30 746 C 71.8159 -3.53449 -3.56902 0
M  V30 747 C 73.8099 -5.45962 -3.28944 0
M  V30 748 C 71.4969 -4.88602 -3.6703 0
M  V30 749 C 72.4949 -5.84668 -3.53062 0
M  V30 750 O 72.1829 -7.17365 -3.62826 0
M  V30 751 H 71.9149 -0.38367 -0.556573 0
M  V30 752 H 74.4689 -1.6398 -1.23693 0
M  V30 753 H 72.6989 -1.04835 -3.72218 0
M  V30 754 H 74.3879 -1.46226 -3.78646 0
M  V30 755 H 75.1539 -3.81577 -2.99372 0
M  V30 756 H 71.0329 -2.79188 -3.66844 0
M  V30 757 H 74.5769 -6.20925 -3.17958 0
M  V30 758 H 70.4739 -5.17653 -3.85623 0
M  V30 759 H 71.2419 -7.2515 -3.79605 0
M  V30 760 N 73.905 1.17692 -1.04816 0
M  V30 761 C 75.154 1.87192 -0.751132 0
M  V30 762 C 75.467 1.8169 0.724441 0
M  V30 763 O 76.673 2.46625 1.13527 0
M  V30 764 C 75.129 3.35857 -1.29338 0
M  V30 765 C 74.737 3.4987 -2.79812 0
M  V30 766 C 76.481 4.10709 -1.07322 0
M  V30 767 C 74.388 4.92536 -3.27356 0
M  V30 768 H 73.318 0.701162 -0.277288 0
M  V30 769 H 75.969 1.32932 -1.26496 0
M  V30 770 H 74.351 3.89631 -0.707376 0
M  V30 771 H 75.525 3.06332 -3.44235 0
M  V30 772 H 73.84 2.88433 -3.00325 0
M  V30 773 H 76.437 5.15952 -1.4035 0
M  V30 774 H 76.78 4.16299 -0.0108001 0
M  V30 775 H 77.313 3.6313 -1.62423 0
M  V30 776 H 74.052 4.92119 -4.33012 0
M  V30 777 H 73.572 5.3676 -2.67673 0
M  V30 778 H 75.251 5.61288 -3.21815 0
M  V30 779 N 75.3831 0.828654 1.34056 0
M  V30 780 C 76.6131 0.431993 2.02033 0
M  V30 781 C 77.0211 -0.96844 1.62536 0
M  V30 782 O 76.3641 -1.6391 0.829408 0
M  V30 783 C 76.4261 0.461224 3.56529 0
M  V30 784 C 76.0901 1.81599 4.1937 0
M  V30 785 C 77.0871 2.7777 4.39477 0
M  V30 786 C 74.7721 2.10604 4.56017 0
M  V30 787 C 76.7661 4.01115 4.95364 0
M  V30 788 C 74.4531 3.34207 5.11614 0
M  V30 789 C 75.4511 4.2928 5.31232 0
M  V30 790 O 75.1391 5.50699 5.8565 0
M  V30 791 H 74.8711 0.170943 0.654029 0
M  V30 792 H 77.4251 1.11988 1.72185 0
M  V30 793 H 75.6551 -0.283388 3.8566 0
M  V30 794 H 77.3441 0.0838149 4.05813 0
M  V30 795 H 78.1101 2.56659 4.11523 0
M  V30 796 H 73.9891 1.37402 4.40047 0
M  V30 797 H 77.5331 4.75333 5.10592 0
M  V30 798 H 73.4301 3.55179 5.38997 0
M  V30 799 H 74.1981 5.52298 6.04077 0
M  V30 800 N 76.8612 -1.46375 0.584142 0
M  V30 801 C 78.2722 -1.86031 0.157959 0
M  V30 802 C 78.6232 -1.48753 -1.27933 0
M  V30 803 O 77.7482 -0.903098 -1.96655 0
M  V30 804 C 78.3432 -3.37642 0.279892 0
M  V30 805 C 76.9022 -3.76289 -0.09143 0
M  V30 806 C 76.0492 -2.7039 0.615178 0
M  V30 807 H 79.0002 -1.37509 0.792274 0
M  V30 808 H 79.0212 -3.77275 -0.494364 0
M  V30 809 H 78.5332 -3.64742 1.32607 0
M  V30 810 H 76.6342 -3.54806 -1.13769 0
M  V30 811 H 76.7472 -4.78246 0.285886 0
M  V30 812 H 75.1112 -2.5464 0.0552833 0
M  V30 813 H 75.8942 -3.0033 1.66303 0
M  V30 814 N 78.3393 -0.321999 -1.54275 0
M  V30 815 C 79.5693 0.282642 -2.04658 0
M  V30 816 C 79.9773 1.46453 -1.19784 0
M  V30 817 O 79.3203 1.82367 -0.220932 0
M  V30 818 C 79.3823 0.781857 -3.50895 0
M  V30 819 C 79.0463 -0.277517 -4.56157 0
M  V30 820 C 80.0433 -1.11307 -5.07845 0
M  V30 821 C 77.7283 -0.425256 -5.00497 0
M  V30 822 C 79.7223 -2.08211 -6.02434 0
M  V30 823 C 77.4093 -1.39771 -5.94901 0
M  V30 824 C 78.4073 -2.2246 -6.45756 0
M  V30 825 O 78.0953 -3.18054 -7.38307 0
M  V30 826 H 77.8273 0.0622636 -0.673126 0
M  V30 827 H 80.3813 -0.465792 -2.00049 0
M  V30 828 H 78.6113 1.58118 -3.52896 0
M  V30 829 H 80.3003 1.30467 -3.84361 0
M  V30 830 H 81.0663 -1.00991 -4.74369 0
M  V30 831 H 76.9453 0.20847 -4.60528 0
M  V30 832 H 80.4893 -2.72791 -6.42052 0
M  V30 833 H 76.3863 -1.50152 -6.27794 0
M  V30 834 H 77.1543 -3.13275 -7.56175 0
M  V30 835 N 79.8174 1.5752 -0.0501392 0
M  V30 836 C 80.7654 2.12651 0.942459 0
M  V30 837 C 81.7594 1.05807 1.32292 0
M  V30 838 O 82.9654 1.24217 1.3027 0
M  V30 839 H 79.3404 0.679673 0.321789 0
M  V30 840 H 81.3114 2.94951 0.452356 0
M  V30 841 C 80.0604 2.68565 2.20836 0
M  V30 842 H 79.3834 3.50439 1.92439 0
M  V30 843 H 80.8234 3.10761 2.8845 0
M  V30 844 C 79.2824 1.62291 2.95234 0
M  V30 845 O 79.8124 1.03508 3.88135 0
M  V30 846 N 78.0184 1.33836 2.57946 0
M  V30 847 H 77.5654 1.81826 1.82475 0
M  V30 848 H 77.5234 0.629595 3.08032 0
M  V30 849 N 81.2955 -0.223234 1.56011 0
M  V30 850 C 82.5435 -0.946003 1.78592 0
M  V30 851 C 82.8645 -1.84936 0.618349 0
M  V30 852 O 82.1345 -1.92473 -0.364833 0
M  V30 853 H 80.7145 -0.352298 0.658707 0
M  V30 854 H 83.3765 -0.235494 1.93472 0
M  V30 855 H 82.4725 -1.55381 2.70672 0
M  V30 856 N 82.7736 -1.49793 -0.48987 0
M  V30 857 C 84.0216 -1.59525 -1.24081 0
M  V30 858 C 84.3426 -0.288953 -1.92847 0
M  V30 859 O 83.6126 0.692436 -1.83254 0
M  V30 860 H 82.1926 -0.587796 -0.460983 0
M  V30 861 H 84.8546 -1.86477 -0.566778 0
M  V30 862 H 83.9506 -2.39696 -1.99881 0
M  V30 863 N 84.2517 0.741722 -1.39055 0
M  V30 864 C 85.4797 1.53098 -1.39171 0
M  V30 865 C 85.8947 1.88794 0.0155099 0
M  V30 866 O 85.2517 1.53626 0.985159 0
M  V30 867 C 85.3027 2.82274 -2.2584 0
M  V30 868 O 85.0237 2.48097 -3.61081 0
M  V30 869 C 86.5247 3.76343 -2.34266 0
M  V30 870 H 83.7447 0.473335 -0.4756 0
M  V30 871 H 86.2887 0.917045 -1.82785 0
M  V30 872 H 84.4437 3.40015 -1.85656 0
M  V30 873 H 84.8577 3.31029 -4.06842 0
M  V30 874 H 86.3317 4.63898 -2.9917 0
M  V30 875 H 86.8087 4.17619 -1.35982 0
M  V30 876 H 87.4147 3.24523 -2.74891 0
M  V30 877 N 85.7298 1.2412 0.971189 0
M  V30 878 C 87.0068 0.986867 1.6888 0
M  V30 879 C 87.3868 -0.491857 2.0529 0
M  V30 880 O 86.7348 -1.46531 1.75331 0
M  V30 881 C 86.9448 1.9063 2.92338 0
M  V30 882 C 88.2928 2.17515 3.64654 0
M  V30 883 O 89.3168 1.88254 3.02388 0
M  V30 884 O 88.1758 2.6719 4.7673 0
M  V30 885 H 85.2698 0.372944 0.738134 0
M  V30 886 H 87.8158 1.35203 1.02559 0
M  V30 887 H 86.5878 2.90552 2.62097 0
M  V30 888 H 86.2108 1.54408 3.66393 0
M  V30 889 N 87.2079 -1.17134 1.05439 0
M  V30 890 C 88.4379 -1.91094 0.785274 0
M  V30 891 C 88.8459 -1.77198 -0.663142 0
M  V30 892 O 88.1889 -1.10835 -1.46497 0
M  V30 893 C 88.2509 -3.42594 1.08949 0
M  V30 894 C 87.9149 -3.80274 2.53458 0
M  V30 895 C 88.9119 -3.82912 3.51673 0
M  V30 896 C 86.5969 -4.11162 2.88532 0
M  V30 897 C 88.5909 -4.15913 4.83006 0
M  V30 898 C 86.2779 -4.43831 4.20068 0
M  V30 899 C 87.2759 -4.46185 5.17115 0
M  V30 900 O 86.9639 -4.78083 6.46291 0
M  V30 901 H 86.6959 -0.613073 0.284811 0
M  V30 902 H 89.2499 -1.49461 1.40893 0
M  V30 903 H 87.4799 -3.84534 0.408741 0
M  V30 904 H 89.1689 -3.97817 0.805991 0
M  V30 905 H 89.9349 -3.5917 3.25917 0
M  V30 906 H 85.8139 -4.085 2.13656 0
M  V30 907 H 89.3579 -4.17665 5.5875 0
M  V30 908 H 85.2549 -4.67037 4.45586 0
M  V30 909 H 86.0229 -4.9593 6.51149 0
M  V30 910 N 88.686 -0.835752 -1.33615 0
M  V30 911 C 89.634 -0.255238 -2.31195 0
M  V30 912 C 90.628 0.61107 -1.57995 0
M  V30 913 O 91.834 0.500979 -1.72888 0
M  V30 914 H 88.209 -0.0638085 -0.749288 0
M  V30 915 H 90.18 -1.09283 -2.77669 0
M  V30 916 C 88.929 0.55754 -3.43201 0
M  V30 917 H 88.252 -0.0997553 -3.99676 0
M  V30 918 H 89.692 0.929622 -4.13683 0
M  V30 919 C 88.151 1.73515 -2.88781 0
M  V30 920 O 88.681 2.83376 -2.84712 0
M  V30 921 N 86.887 1.55603 -2.4543 0
M  V30 922 H 86.434 0.662354 -2.48939 0
M  V30 923 H 86.392 2.34545 -2.09371 0
M  V30 924 N 90.1641 1.46063 -0.591896 0
M  V30 925 C 91.0961 2.28539 0.174001 0
M  V30 926 C 92.1091 1.39047 0.846753 0
M  V30 927 O 93.2981 1.63564 0.714774 0
M  V30 928 C 90.3981 3.14347 1.26645 0
M  V30 929 C 89.5711 4.32021 0.683856 0
M  V30 930 C 88.6301 4.99157 1.66518 0
M  V30 931 O 87.6561 5.56458 1.19763 0
M  V30 932 N 88.8581 4.97005 2.99943 0
M  V30 933 H 91.6231 2.94911 -0.533633 0
M  V30 934 H 89.1841 1.56077 -0.430294 0
M  V30 935 H 91.1761 3.56125 1.92242 0
M  V30 936 H 89.7461 2.49988 1.87682 0
M  V30 937 H 88.9661 3.93915 -0.1498 0
M  V30 938 H 90.2541 5.08059 0.274567 0
M  V30 939 H 89.6521 4.51714 3.40545 0
M  V30 940 H 88.2091 5.42696 3.61004 0
M  V30 941 N 91.6422 0.330177 1.54103 0
M  V30 942 C 92.5892 -0.532762 2.24567 0
M  V30 943 C 93.5592 -1.10635 1.23892 0
M  V30 944 O 94.7442 -1.14546 1.5259 0
M  V30 945 C 91.8842 -1.6845 3.01195 0
M  V30 946 C 90.9972 -1.13951 4.167 0
M  V30 947 C 90.1322 -2.25746 4.80845 0
M  V30 948 C 89.1712 -1.6853 5.88442 0
M  V30 949 N 88.3082 -2.74014 6.46421 0
M  V30 950 H 93.1482 0.0746905 2.97906 0
M  V30 951 H 90.6852 0.048632 1.4702 0
M  V30 952 H 92.6432 -2.36234 3.43874 0
M  V30 953 H 91.2732 -2.26314 2.30178 0
M  V30 954 H 90.3252 -0.35301 3.78758 0
M  V30 955 H 91.6372 -0.680892 4.94131 0
M  V30 956 H 90.7912 -3.01422 5.26526 0
M  V30 957 H 89.5302 -2.74947 4.0281 0
M  V30 958 H 88.5352 -0.913543 5.42157 0
M  V30 959 H 89.7602 -1.20198 6.68378 0
M  V30 960 H 87.7062 -3.22494 5.71256 0
M  V30 961 H 87.6232 -2.32735 7.19285 0
M  V30 962 H 88.8912 -3.49499 6.96757 0
M  V30 963 N 93.1203 -1.57491 0.0584922 0
M  V30 964 C 94.3673 -1.92978 -0.613648 0
M  V30 965 C 94.6953 -0.937461 -1.70417 0
M  V30 966 O 93.9503 0.049078 -1.95638 0
M  V30 967 C 94.2493 -3.3513 -1.24188 0
M  V30 968 C 93.9153 -4.50037 -0.278826 0
M  V30 969 C 92.5773 -4.81198 -0.0138447 0
M  V30 970 C 94.9293 -5.19807 0.380777 0
M  V30 971 C 92.2573 -5.79473 0.918052 0
M  V30 972 C 94.6093 -6.19079 1.30091 0
M  V30 973 C 93.2733 -6.48665 1.57449 0
M  V30 974 H 92.5433 -0.706157 -0.22455 0
M  V30 975 H 95.1903 -1.91082 0.126533 0
M  V30 976 H 93.4953 -3.33429 -2.05749 0
M  V30 977 H 95.1923 -3.59871 -1.769 0
M  V30 978 H 91.7823 -4.25726 -0.495539 0
M  V30 979 H 95.9663 -4.95939 0.189158 0
M  V30 980 H 91.2223 -6.00727 1.1374 0
M  V30 981 H 95.3963 -6.7225 1.81804 0
M  V30 982 H 93.0233 -7.24628 2.29822 0
M  V30 983 N 94.5984 0.214957 -1.56127 0
M  V30 984 C 95.5454 1.26642 -1.92952 0
M  V30 985 C 96.5154 1.46244 -0.78753 0
M  V30 986 O 97.7004 1.59704 -1.04399 0
M  V30 987 C 94.8404 2.6104 -2.25726 0
M  V30 988 C 93.9534 2.49183 -3.52891 0
M  V30 989 C 93.0884 3.76149 -3.7508 0
M  V30 990 C 92.1274 3.59041 -4.95738 0
M  V30 991 N 91.2644 4.77972 -5.14283 0
M  V30 992 H 96.1044 0.945384 -2.82607 0
M  V30 993 H 93.6414 0.455489 -1.3987 0
M  V30 994 H 95.5994 3.39313 -2.42739 0
M  V30 995 H 94.2294 2.91227 -1.39236 0
M  V30 996 H 93.2814 1.6231 -3.44034 0
M  V30 997 H 94.5934 2.32466 -4.41318 0
M  V30 998 H 93.7474 4.62865 -3.92226 0
M  V30 999 H 92.4864 3.95799 -2.84947 0
M  V30 1000 H 91.4914 2.7071 -4.78535 0
M  V30 1001 H 92.7164 3.40856 -5.87362 0
M  V30 1002 H 90.6624 4.97923 -4.27093 0
M  V30 1003 H 90.5794 4.64006 -5.96853 0
M  V30 1004 H 91.8474 5.66096 -5.35869 0
M  V30 1005 N 96.0765 1.50051 0.48192 0
M  V30 1006 C 97.0245 1.68635 1.60203 0
M  V30 1007 C 98.0185 0.552184 1.60148 0
M  V30 1008 O 99.2245 0.732377 1.64427 0
M  V30 1009 H 95.5995 0.532081 0.531407 0
M  V30 1010 H 97.5705 2.62616 1.41688 0
M  V30 1011 C 96.3195 1.78775 2.9822 0
M  V30 1012 H 95.6425 2.6543 2.98976 0
M  V30 1013 H 97.0825 1.95806 3.7608 0
M  V30 1014 C 95.5415 0.536849 3.32595 0
M  V30 1015 O 96.0715 -0.328897 4.00351 0
M  V30 1016 N 94.2775 0.394091 2.87915 0
M  V30 1017 H 93.8245 1.09962 2.32951 0
M  V30 1018 H 93.7825 -0.441737 3.11281 0
M  V30 1019 N 97.5546 -0.734337 1.39446 0
M  V30 1020 C 98.9706 -1.03997 1.21065 0
M  V30 1021 C 99.1706 -2.01369 0.0727019 0
M  V30 1022 O 98.2266 -2.45856 -0.575426 0
M  V30 1023 C 99.5396 -1.60163 2.54496 0
M  V30 1024 C 101.088 -1.7224 2.61347 0
M  V30 1025 C 101.563 -2.31814 3.95002 0
M  V30 1026 N 103.054 -2.39223 3.96644 0
M  V30 1027 C 103.789 -2.86258 4.96834 0
M  V30 1028 N 103.285 -3.33184 6.07421 0
M  V30 1029 N 105.078 -2.85473 4.84213 0
M  V30 1030 H 97.2286 -0.0885624 2.12215 0
M  V30 1031 H 99.4916 -0.10191 0.942506 0
M  V30 1032 H 99.1976 -0.960811 3.38321 0
M  V30 1033 H 99.0716 -2.5896 2.74262 0
M  V30 1034 H 101.459 -2.35443 1.77906 0
M  V30 1035 H 101.54 -0.720939 2.4543 0
M  V30 1036 H 101.184 -1.69238 4.78875 0
M  V30 1037 H 101.114 -3.32638 4.08239 0
M  V30 1038 H 103.605 -2.06057 3.16779 0
M  V30 1039 H 103.918 -3.67586 6.7978 0
M  V30 1040 H 102.263 -3.31191 6.11013 0
M  V30 1041 H 105.454 -2.48136 3.96921 0
M  V30 1042 H 105.627 -3.21814 5.62441 0
M  V30 1043 N 99.0327 -1.24633 -0.964593 0
M  V30 1044 C 99.9957 -1.0424 -2.04124 0
M  V30 1045 C 100.996 0.00137563 -1.608 0
M  V30 1046 O 102.186 -0.239883 -1.7254 0
M  V30 1047 C 99.3177 -0.580588 -3.3592 0
M  V30 1048 H 100.511 -1.99803 -2.23649 0
M  V30 1049 H 98.0637 -1.06899 -1.14027 0
M  V30 1050 H 98.7987 0.3781 -3.22088 0
M  V30 1051 H 98.5837 -1.33398 -3.6871 0
M  V30 1052 H 100.074 -0.459034 -4.15069 0
M  V30 1053 N 100.511 1.16574 -1.06058 0
M  V30 1054 C 101.739 1.90952 -0.796552 0
M  V30 1055 C 102.154 1.77302 0.648808 0
M  V30 1056 O 101.511 1.11605 1.44397 0
M  V30 1057 C 101.562 3.41736 -1.17894 0
M  V30 1058 O 101.283 3.54975 -2.56758 0
M  V30 1059 C 102.784 4.33169 -0.942308 0
M  V30 1060 H 100.004 0.605594 -0.288959 0
M  V30 1061 H 102.548 1.47777 -1.41358 0
M  V30 1062 H 100.703 3.82623 -0.606491 0
M  V30 1063 H 101.117 4.4846 -2.72 0
M  V30 1064 H 102.591 5.37439 -1.25952 0
M  V30 1065 H 103.068 4.3903 0.122078 0
M  V30 1066 H 103.674 3.98007 -1.49902 0
M  V30 1067 N 101.989 0.842826 1.3317 0
M  V30 1068 C 102.919 0.294028 2.31641 0
M  V30 1069 C 103.9 -0.600401 1.59151 0
M  V30 1070 O 105.085 -0.523124 1.87022 0
M  V30 1071 C 102.215 -0.528416 3.43257 0
M  V30 1072 C 101.169 0.27056 4.27144 0
M  V30 1073 C 100.495 -0.675881 5.30411 0
M  V30 1074 C 101.795 1.48981 5.00602 0
M  V30 1075 H 103.489 1.11681 2.77791 0
M  V30 1076 H 101.035 0.538478 1.33553 0
M  V30 1077 H 102.988 -0.922674 4.11175 0
M  V30 1078 H 101.712 -1.38445 2.95805 0
M  V30 1079 H 100.371 0.646427 3.60856 0
M  V30 1080 H 100.019 -1.52842 4.79216 0
M  V30 1081 H 99.7189 -0.145374 5.8742 0
M  V30 1082 H 101.243 -1.06757 6.01195 0
M  V30 1083 H 102.657 1.16849 5.61266 0
M  V30 1084 H 101.054 1.95739 5.6728 0
M  V30 1085 H 102.124 2.25746 4.29147 0
M  V30 1086 N 103.467 -1.45747 0.599634 0
M  V30 1087 C 104.695 -2.06668 0.0978551 0
M  V30 1088 C 105.11 -1.44562 -1.21439 0
M  V30 1089 O 104.467 -0.556923 -1.73795 0
M  V30 1090 C 104.518 -3.61456 -0.0567044 0
M  V30 1091 O 104.239 -4.21242 1.20361 0
M  V30 1092 C 105.74 -4.39345 -0.590869 0
M  V30 1093 H 102.96 -0.667825 0.0651943 0
M  V30 1094 H 105.504 -1.87115 0.82511 0
M  V30 1095 H 103.659 -3.80378 -0.734251 0
M  V30 1096 H 104.073 -5.14323 1.02821 0
M  V30 1097 H 105.547 -5.48182 -0.648131 0
M  V30 1098 H 106.024 -4.08568 -1.61147 0
M  V30 1099 H 106.63 -4.25268 0.0523679 0
M  V30 1100 N 104.945 -0.338344 -1.53925 0
M  V30 1101 C 106.191 0.260143 -2.01125 0
M  V30 1102 C 106.524 1.50617 -1.22589 0
M  V30 1103 O 105.799 1.91979 -0.312113 0
M  V30 1104 C 106.082 0.579499 -3.55407 0
M  V30 1105 C 105.935 -0.678264 -4.44657 0
M  V30 1106 C 107.254 1.39122 -4.17532 0
M  V30 1107 H 104.373 0.0930772 -0.731099 0
M  V30 1108 H 107.015 -0.457852 -1.84401 0
M  V30 1109 H 105.165 1.19118 -3.69788 0
M  V30 1110 H 106.837 -1.31631 -4.42121 0
M  V30 1111 H 105.08 -1.3042 -4.13731 0
M  V30 1112 H 105.751 -0.410143 -5.50474 0
M  V30 1113 H 108.227 0.874035 -4.06817 0
M  V30 1114 H 107.103 1.58342 -5.25565 0
M  V30 1115 H 107.364 2.39178 -3.71815 0
M  V30 1116 N 106.423 1.57458 -0.0668435 0
M  V30 1117 C 107.7 1.8469 0.644132 0
M  V30 1118 C 108.08 0.958343 1.88093 0
M  V30 1119 O 107.428 0.0233579 2.28488 0
M  V30 1120 C 107.638 3.34767 0.986509 0
M  V30 1121 C 108.986 4.02159 1.36212 0
M  V30 1122 O 110.01 3.39484 1.07839 0
M  V30 1123 O 108.869 5.12694 1.89227 0
M  V30 1124 H 105.963 0.762816 0.319437 0
M  V30 1125 H 108.509 1.6942 -0.0973986 0
M  V30 1126 H 107.281 3.91151 0.107883 0
M  V30 1127 H 106.904 3.55281 1.78497 0
M  V30 1128 N 107.901 -0.206675 1.56239 0
M  V30 1129 C 108.849 -1.27571 1.94495 0
M  V30 1130 C 109.843 -1.47737 0.828862 0
M  V30 1131 O 111.049 -1.48735 1.0138 0
M  V30 1132 H 107.424 -0.428029 0.6183 0
M  V30 1133 H 109.395 -0.925961 2.8367 0
M  V30 1134 C 108.144 -2.61568 2.29079 0
M  V30 1135 H 107.467 -2.46863 3.14482 0
M  V30 1136 H 108.907 -3.35144 2.5972 0
M  V30 1137 C 107.366 -3.17695 1.12123 0
M  V30 1138 O 107.896 -3.99801 0.390153 0
M  V30 1139 N 106.102 -2.76276 0.901097 0
M  V30 1140 H 105.649 -2.09613 1.49733 0
M  V30 1141 H 105.607 -3.1417 0.120319 0
M  V30 1142 N 109.379 -1.50304 -0.473955 0
M  V30 1143 C 110.79 -1.54042 -1.0549 0
M  V30 1144 C 111.141 -0.342248 -1.93192 0
M  V30 1145 O 110.266 0.545157 -2.09421 0
M  V30 1146 C 110.861 -2.79152 -1.91989 0
M  V30 1147 C 109.42 -2.8558 -2.45196 0
M  V30 1148 C 108.567 -2.48295 -1.2347 0
M  V30 1149 H 111.518 -1.5661 -0.256693 0
M  V30 1150 H 111.539 -2.60845 -2.7702 0
M  V30 1151 H 111.051 -3.66339 -1.28131 0
M  V30 1152 H 109.152 -2.02738 -3.12615 0
M  V30 1153 H 109.265 -3.88403 -2.80499 0
M  V30 1154 H 107.629 -2.00669 -1.56856 0
M  V30 1155 H 108.412 -3.37787 -0.612789 0
M  V30 1156 N 110.857 0.726932 -1.39834 0
M  V30 1157 C 112.085 1.51613 -1.40787 0
M  V30 1158 C 112.5 1.88799 -0.00451505 0
M  V30 1159 O 111.857 1.54662 0.968809 0
M  V30 1160 C 111.908 2.79863 -2.28821 0
M  V30 1161 O 111.629 2.44253 -3.63692 0
M  V30 1162 C 113.13 3.73837 -2.38245 0
M  V30 1163 H 110.35 0.468264 -0.480593 0
M  V30 1164 H 112.894 0.897607 -1.83748 0
M  V30 1165 H 111.049 3.38027 -1.89252 0
M  V30 1166 H 111.463 3.26695 -4.1033 0
M  V30 1167 H 112.937 4.60699 -3.04073 0
M  V30 1168 H 113.414 4.16153 -1.40403 0
M  V30 1169 H 114.02 3.21589 -2.78317 0
M  V30 1170 N 112.336 1.25143 0.95797 0
M  V30 1171 C 113.284 1.05019 2.07542 0
M  V30 1172 C 114.278 -0.0178751 1.69391 0
M  V30 1173 O 115.484 0.137472 1.79474 0
M  V30 1174 H 111.859 0.32265 0.679265 0
M  V30 1175 H 113.83 1.99759 2.21673 0
M  V30 1176 C 112.579 0.682074 3.40944 0
M  V30 1177 H 111.902 1.49573 3.70767 0
M  V30 1178 H 113.342 0.580945 4.20001 0
M  V30 1179 C 111.801 -0.611608 3.31302 0
M  V30 1180 O 112.331 -1.65465 3.66038 0
M  V30 1181 N 110.537 -0.595982 2.84423 0
M  V30 1182 H 110.084 0.253192 2.56353 0
M  V30 1183 H 110.042 -1.46173 2.78354 0
M  V30 1184 N 113.814 -1.1601 1.06675 0
M  V30 1185 C 115.042 -1.90527 0.806667 0
M  V30 1186 C 115.457 -1.77643 -0.639396 0
M  V30 1187 O 114.814 -1.12369 -1.43803 0
M  V30 1188 C 114.865 -3.41106 1.19705 0
M  V30 1189 O 114.586 -3.53608 2.58636 0
M  V30 1190 C 116.087 -4.32663 0.965266 0
M  V30 1191 H 113.307 -0.604053 0.292166 0
M  V30 1192 H 115.851 -1.47026 1.4214 0
M  V30 1193 H 114.006 -3.82296 0.626774 0
M  V30 1194 H 114.42 -4.47011 2.74375 0
M  V30 1195 H 115.894 -5.36763 1.288 0
M  V30 1196 H 116.371 -4.39089 -0.0987936 0
M  V30 1197 H 116.977 -3.97206 1.52011 0
M  V30 1198 N 115.292 -0.849877 -1.32721 0
M  V30 1199 C 116.255 -0.296122 -2.27279 0
M  V30 1200 C 117.255 0.541458 -1.5141 0
M  V30 1201 O 118.445 0.353658 -1.70572 0
M  V30 1202 C 115.577 0.581579 -3.35902 0
M  V30 1203 H 116.77 -1.13064 -2.77771 0
M  V30 1204 H 114.323 -0.62383 -1.43311 0
M  V30 1205 H 115.058 1.43809 -2.9067 0
M  V30 1206 H 114.843 -0.0178814 -3.92096 0
M  V30 1207 H 116.333 0.961951 -4.0637 0
M  V30 1208 N 116.77 1.45427 -0.607355 0
M  V30 1209 C 118 2.06314 -0.108656 0
M  V30 1210 C 118.408 1.45269 1.21217 0
M  V30 1211 O 117.751 0.561115 1.74921 0
M  V30 1212 C 117.813 3.59345 0.105618 0
M  V30 1213 C 117.477 4.42723 -1.13337 0
M  V30 1214 C 118.474 4.77715 -2.05145 0
M  V30 1215 C 116.159 4.83478 -1.36213 0
M  V30 1216 C 118.153 5.52317 -3.18158 0
M  V30 1217 C 115.84 5.57835 -2.49527 0
M  V30 1218 C 116.838 5.92171 -3.40327 0
M  V30 1219 O 116.526 6.65019 -4.51669 0
M  V30 1220 H 116.258 0.672782 -0.0658842 0
M  V30 1221 H 118.812 1.87664 -0.834945 0
M  V30 1222 H 117.042 3.76394 0.886796 0
M  V30 1223 H 118.731 4.02076 0.555886 0
M  V30 1224 H 119.497 4.46787 -1.88697 0
M  V30 1225 H 115.376 4.56188 -0.664362 0
M  V30 1226 H 118.92 5.79036 -3.89054 0
M  V30 1227 H 114.817 5.88177 -2.65928 0
M  V30 1228 H 115.585 6.83469 -4.50348 0
M  V30 1229 N 118.248 0.346503 1.53744 0
M  V30 1230 C 119.181 -0.552023 2.21423 0
M  V30 1231 C 120.159 -1.09798 1.19929 0
M  V30 1232 O 121.343 -1.1577 1.4876 0
M  V30 1233 C 118.47 -1.75972 2.89398 0
M  V30 1234 C 117.516 -1.34295 4.04805 0
M  V30 1235 S 118.349 -0.360263 5.34287 0
M  V30 1236 C 119.505 -1.57473 6.05767 0
M  V30 1237 H 119.738 0.0228119 2.97291 0
M  V30 1238 H 117.271 0.130579 1.53847 0
M  V30 1239 H 119.229 -2.45256 3.2918 0
M  V30 1240 H 117.89 -2.30578 2.1329 0
M  V30 1241 H 117.083 -2.24349 4.51313 0
M  V30 1242 H 116.685 -0.729555 3.66815 0
M  V30 1243 H 118.977 -2.50875 6.29339 0
M  V30 1244 H 119.92 -1.15138 6.98676 0
M  V30 1245 H 120.328 -1.77212 5.35963 0
M  V30 1246 N 119.726 -1.57421 0.075193 0
M  V30 1247 C 120.636 -2.1642 -0.905511 0
M  V30 1248 C 121.652 -1.12828 -1.32461 0
M  V30 1249 O 122.828 -1.45109 -1.39661 0
M  V30 1250 C 119.893 -2.71693 -2.15369 0
M  V30 1251 C 118.954 -3.90171 -1.79068 0
M  V30 1252 C 118.187 -4.42798 -2.97936 0
M  V30 1253 O 118.41 -3.94416 -4.12058 0
M  V30 1254 O 117.344 -5.34085 -2.77555 0
M  V30 1255 H 121.17 -3.00588 -0.433626 0
M  V30 1256 H 118.755 -1.48664 -0.148067 0
M  V30 1257 H 120.637 -3.07104 -2.88557 0
M  V30 1258 H 119.312 -1.90582 -2.61649 0
M  V30 1259 H 118.219 -3.59606 -1.03122 0
M  V30 1260 H 119.552 -4.72584 -1.37569 0
M  V30 1261 N 121.204 0.198386 -1.56346 0
M  V30 1262 C 122.134 1.24865 -1.9731 0
M  V30 1263 C 123.115 1.47651 -0.844576 0
M  V30 1264 O 124.3 1.59444 -1.10866 0
M  V30 1265 C 121.43 2.59358 -2.30977 0
M  V30 1266 C 120.384 2.5119 -3.46537 0
M  V30 1267 C 119.71 3.89926 -3.65871 0
M  V30 1268 C 121.01 2.03977 -4.80823 0
M  V30 1269 H 122.704 0.908252 -2.85291 0
M  V30 1270 H 120.25 0.435462 -1.37258 0
M  V30 1271 H 122.203 3.33011 -2.58228 0
M  V30 1272 H 120.927 2.95132 -1.39874 0
M  V30 1273 H 119.586 1.79993 -3.19371 0
M  V30 1274 H 119.234 4.23046 -2.72105 0
M  V30 1275 H 118.934 3.85336 -4.4361 0
M  V30 1276 H 120.458 4.65205 -3.95495 0
M  V30 1277 H 121.872 2.67386 -5.07127 0
M  V30 1278 H 120.269 2.10397 -5.62008 0
M  V30 1279 H 121.339 0.992861 -4.74626 0
M  V30 1280 N 122.682 1.50554 0.465978 0
M  V30 1281 C 123.907 1.65838 1.24549 0
M  V30 1282 C 124.332 0.343486 1.84937 0
M  V30 1283 O 123.69 -0.69324 1.67523 0
M  V30 1284 C 123.738 2.75533 2.32624 0
M  V30 1285 O 122.842 2.37142 3.37398 0
M  V30 1286 H 122.183 0.553893 0.366194 0
M  V30 1287 H 124.713 1.96959 0.553927 0
M  V30 1288 H 124.723 2.98763 2.77857 0
M  V30 1289 H 123.398 3.70962 1.88043 0
M  V30 1290 H 121.975 2.24377 2.97841 0
M  V30 1291 N 124.16 -0.719506 1.40217 0
M  V30 1292 C 125.385 -1.51371 1.4178 0
M  V30 1293 C 125.81 -1.88091 0.0182355 0
M  V30 1294 O 125.168 -1.52997 -0.972707 0
M  V30 1295 C 125.216 -2.768 2.31115 0
M  V30 1296 O 124.32 -3.73349 1.7517 0
M  V30 1297 H 123.661 -0.456529 0.482159 0
M  V30 1298 H 126.191 -0.88644 1.844 0
M  V30 1299 H 126.201 -3.25371 2.46167 0
M  V30 1300 H 124.876 -2.49407 3.3282 0
M  V30 1301 H 123.453 -3.32179 1.69444 0
M  V30 1302 N 125.638 -1.25649 -0.95132 0
M  V30 1303 C 126.568 -1.08808 -2.06599 0
M  V30 1304 C 127.549 0.00382547 -1.701 0
M  V30 1305 O 128.734 -0.166325 -1.93486 0
M  V30 1306 C 125.864 -0.709542 -3.39975 0
M  V30 1307 C 124.818 -1.75206 -3.90496 0
M  V30 1308 C 124.144 -1.22811 -5.20405 0
M  V30 1309 C 125.444 -3.15153 -4.16504 0
M  V30 1310 H 127.138 -2.02048 -2.20946 0
M  V30 1311 H 124.684 -0.972835 -1.06169 0
M  V30 1312 H 126.637 -0.578649 -4.17408 0
M  V30 1313 H 125.361 0.258556 -3.25575 0
M  V30 1314 H 124.02 -1.87145 -3.15234 0
M  V30 1315 H 123.668 -0.250145 -5.02378 0
M  V30 1316 H 123.368 -1.92492 -5.55176 0
M  V30 1317 H 124.892 -1.10968 -6.00432 0
M  V30 1318 H 126.306 -3.06349 -4.84586 0
M  V30 1319 H 124.703 -3.82333 -4.62538 0
M  V30 1320 H 125.773 -3.61966 -3.22658 0
M  V30 1321 N 127.117 1.15442 -1.07289 0
M  V30 1322 C 128.533 1.38201 -0.798288 0
M  V30 1323 C 128.733 1.92429 0.597769 0
M  V30 1324 O 127.789 2.12962 1.3566 0
M  V30 1325 C 129.102 2.35357 -1.87156 0
M  V30 1326 C 130.65 2.49021 -1.89624 0
M  V30 1327 C 131.125 3.49468 -2.96034 0
M  V30 1328 N 132.616 3.57003 -2.95132 0
M  V30 1329 C 133.351 4.34543 -3.74112 0
M  V30 1330 N 132.847 5.15421 -4.6294 0
M  V30 1331 N 134.64 4.29625 -3.62462 0
M  V30 1332 H 126.791 0.78584 -1.97328 0
M  V30 1333 H 129.054 0.408065 -0.855679 0
M  V30 1334 H 128.76 2.02626 -2.87464 0
M  V30 1335 H 128.634 3.35129 -1.73114 0
M  V30 1336 H 131.021 2.81051 -0.899687 0
M  V30 1337 H 131.102 1.4925 -2.07745 0
M  V30 1338 H 130.746 3.18173 -3.95889 0
M  V30 1339 H 130.676 4.48992 -2.75161 0
M  V30 1340 H 133.167 2.99276 -2.30743 0
M  V30 1341 H 133.48 5.7183 -5.19837 0
M  V30 1342 H 131.825 5.14729 -4.66989 0
M  V30 1343 H 135.016 3.65505 -2.92444 0
M  V30 1344 H 135.189 4.89807 -4.24256 0
M  V30 1345 N 128.595 0.856903 1.32268 0
M  V30 1346 C 129.82 0.474569 2.01897 0
M  V30 1347 C 130.245 -0.921766 1.63967 0
M  V30 1348 O 129.603 -1.60589 0.84148 0
M  V30 1349 C 129.651 0.623799 3.55164 0
M  V30 1350 O 128.755 -0.342459 4.10976 0
M  V30 1351 H 128.096 0.190422 0.63611 0
M  V30 1352 H 130.626 1.15672 1.68764 0
M  V30 1353 H 130.636 0.512169 4.04773 0
M  V30 1354 H 129.311 1.64202 3.82113 0
M  V30 1355 H 127.888 -0.18688 3.72431 0
M  V30 1356 N 130.073 -1.45103 0.615059 0
M  V30 1357 C 130.983 -2.34382 -0.101034 0
M  V30 1358 C 131.999 -1.51681 -0.852585 0
M  V30 1359 O 133.175 -1.8446 -0.808484 0
M  V30 1360 C 130.24 -3.29417 -1.08099 0
M  V30 1361 C 129.301 -4.28025 -0.330577 0
M  V30 1362 C 128.534 -5.1852 -1.26385 0
M  V30 1363 O 128.757 -5.12598 -2.50198 0
M  V30 1364 O 127.691 -5.97122 -0.756866 0
M  V30 1365 H 131.517 -2.97033 0.632855 0
M  V30 1366 H 129.102 -1.4461 0.375293 0
M  V30 1367 H 130.984 -3.87958 -1.6452 0
M  V30 1368 H 129.659 -2.69321 -1.79577 0
M  V30 1369 H 128.566 -3.73078 0.276283 0
M  V30 1370 H 129.899 -4.90997 0.343866 0
M  V30 1371 N 131.551 -0.354651 -1.53558 0
M  V30 1372 C 132.828 0.294281 -1.93374 0
M  V30 1373 C 133.208 1.67313 -1.28723 0
M  V30 1374 O 132.556 2.24179 -0.442247 0
M  V30 1375 C 132.766 0.355445 -3.47185 0
M  V30 1376 C 134.114 0.601007 -4.20325 0
M  V30 1377 O 135.138 0.437106 -3.53508 0
M  V30 1378 O 133.997 0.919322 -5.38712 0
M  V30 1379 H 131.091 0.174033 -0.808481 0
M  V30 1380 H 133.637 -0.406638 -1.64756 0
M  V30 1381 H 132.409 -0.611729 -3.86489 0
M  V30 1382 H 132.032 1.1027 -3.82003 0
M  V30 1383 N 133.029 1.57378 -0.0835403 0
M  V30 1384 C 134.257 1.98263 0.59157 0
M  V30 1385 C 134.672 0.962302 1.62435 0
M  V30 1386 O 134.029 -0.049581 1.82433 0
M  V30 1387 C 134.08 3.39214 1.24965 0
M  V30 1388 O 133.801 4.37339 0.258186 0
M  V30 1389 C 135.302 3.95038 2.01147 0
M  V30 1390 H 132.522 0.651773 0.159477 0
M  V30 1391 H 135.066 2.03878 -0.159415 0
M  V30 1392 H 133.221 3.34649 1.95164 0
M  V30 1393 H 133.635 5.19371 0.731734 0
M  V30 1394 H 135.109 4.95848 2.42567 0
M  V30 1395 H 135.586 3.32222 2.87272 0
M  V30 1396 H 136.192 4.0304 1.35789 0
M  V30 1397 N 134.507 -0.190092 1.56449 0
M  V30 1398 C 135.47 -1.21925 1.9408 0
M  V30 1399 C 136.47 -1.38176 0.822431 0
M  V30 1400 O 137.66 -1.35903 1.08977 0
M  V30 1401 C 134.792 -2.58773 2.21922 0
M  V30 1402 H 135.985 -0.897464 2.86157 0
M  V30 1403 H 133.538 -0.43181 1.50217 0
M  V30 1404 H 134.273 -2.95998 1.32499 0
M  V30 1405 H 134.058 -2.48348 3.03424 0
M  V30 1406 H 135.548 -3.32978 2.52022 0
M  V30 1407 N 135.985 -1.50799 -0.457987 0
M  V30 1408 C 137.232 -1.62442 -1.20908 0
M  V30 1409 C 137.56 -0.330865 -1.91665 0
M  V30 1410 O 136.815 0.68401 -1.83357 0
M  V30 1411 C 137.114 -2.76358 -2.2663 0
M  V30 1412 C 136.78 -4.16378 -1.73033 0
M  V30 1413 C 135.442 -4.54473 -1.58138 0
M  V30 1414 C 137.794 -5.03836 -1.33413 0
M  V30 1415 C 135.122 -5.77754 -1.02065 0
M  V30 1416 C 137.474 -6.27676 -0.78778 0
M  V30 1417 C 136.138 -6.64562 -0.625561 0
M  V30 1418 H 135.408 -0.594417 -0.442435 0
M  V30 1419 H 138.055 -1.84772 -0.503136 0
M  V30 1420 H 136.36 -2.48167 -3.03184 0
M  V30 1421 H 138.057 -2.82568 -2.84528 0
M  V30 1422 H 134.647 -3.86331 -1.85598 0
M  V30 1423 H 138.831 -4.75026 -1.4375 0
M  V30 1424 H 134.087 -6.04997 -0.882547 0
M  V30 1425 H 138.261 -6.94797 -0.472177 0
M  V30 1426 H 135.888 -7.59965 -0.188926 0
M  V30 1427 N 137.463 0.71206 -1.40597 0
M  V30 1428 C 138.693 1.49894 -1.42181 0
M  V30 1429 C 139.101 1.89189 -0.0208078 0
M  V30 1430 O 138.444 1.56223 0.966436 0
M  V30 1431 C 138.506 2.80215 -2.25211 0
M  V30 1432 C 138.17 2.63221 -3.73582 0
M  V30 1433 C 139.167 2.30249 -4.66135 0
M  V30 1434 C 136.852 2.79376 -4.17438 0
M  V30 1435 C 138.846 2.13645 -6.00529 0
M  V30 1436 C 136.533 2.6239 -5.51901 0
M  V30 1437 C 137.531 2.29573 -6.43262 0
M  V30 1438 O 137.219 2.12719 -7.75246 0
M  V30 1439 H 136.951 0.469031 -0.486812 0
M  V30 1440 H 139.505 0.88564 -1.85326 0
M  V30 1441 H 137.735 3.4389 -1.76852 0
M  V30 1442 H 139.424 3.41947 -2.18694 0
M  V30 1443 H 140.19 2.17398 -4.33547 0
M  V30 1444 H 136.069 3.03906 -3.46644 0
M  V30 1445 H 139.613 1.87953 -6.71803 0
M  V30 1446 H 135.51 2.74826 -5.84073 0
M  V30 1447 H 136.278 2.27611 -7.86216 0
M  V30 1448 N 138.941 1.26152 0.944643 0
M  V30 1449 C 140.171 1.14094 1.72239 0
M  V30 1450 C 140.579 -0.306931 1.86694 0
M  V30 1451 O 139.922 -1.22222 1.3714 0
M  V30 1452 C 139.984 1.73316 3.14963 0
M  V30 1453 C 139.648 3.2239 3.23904 0
M  V30 1454 C 140.645 4.19252 3.07447 0
M  V30 1455 C 138.33 3.62788 3.47405 0
M  V30 1456 C 140.324 5.54491 3.14353 0
M  V30 1457 C 138.011 4.98162 3.53947 0
M  V30 1458 C 139.009 5.93823 3.37436 0
M  V30 1459 O 138.697 7.26732 3.43679 0
M  V30 1460 H 138.429 0.398292 0.546205 0
M  V30 1461 H 140.983 1.67201 1.19301 0
M  V30 1462 H 139.213 1.14667 3.69308 0
M  V30 1463 H 140.902 1.56214 3.74636 0
M  V30 1464 H 141.668 3.8938 2.8915 0
M  V30 1465 H 137.547 2.88816 3.59313 0
M  V30 1466 H 141.091 6.29137 3.01384 0
M  V30 1467 H 136.988 5.27695 3.71763 0
M  V30 1468 H 137.756 7.3496 3.60245 0
M  V30 1469 N 140.419 -1.14872 1.07899 0
M  V30 1470 C 141.659 -1.8745 0.814965 0
M  V30 1471 C 142.023 -1.80758 -0.64733 0
M  V30 1472 O 143.224 -2.48422 -1.02664 0
M  V30 1473 C 141.495 -3.32286 1.31607 0
M  V30 1474 S 143.054 -4.22537 1.18357 0
M  V30 1475 H 139.872 -0.646833 0.295174 0
M  V30 1476 H 142.474 -1.38555 1.37923 0
M  V30 1477 H 141.178 -3.34703 2.37491 0
M  V30 1478 H 140.709 -3.86238 0.747261 0
M  V30 1479 H 142.724 -4.96044 0.124586 0
M  V30 1480 N 141.898 -0.863906 -1.31812 0
M  V30 1481 C 143.144 -0.472535 -1.97218 0
M  V30 1482 C 143.477 0.971394 -1.68159 0
M  V30 1483 O 142.752 1.68309 -0.974798 0
M  V30 1484 C 143.035 -0.723054 -3.52766 0
M  V30 1485 C 142.888 -2.21608 -3.91421 0
M  V30 1486 C 144.207 -0.185522 -4.39709 0
M  V30 1487 H 141.326 -0.173158 -0.71637 0
M  V30 1488 H 143.968 -1.08403 -1.56041 0
M  V30 1489 H 142.118 -0.202577 -3.87971 0
M  V30 1490 H 143.79 -2.80334 -3.66347 0
M  V30 1491 H 142.033 -2.691 -3.40246 0
M  V30 1492 H 142.704 -2.34203 -4.99853 0
M  V30 1493 H 145.18 -0.630726 -4.11292 0
M  V30 1494 H 144.056 -0.390306 -5.47511 0
M  V30 1495 H 144.317 0.912229 -4.32586 0
M  V30 1496 N 143.376 1.44774 -0.622745 0
M  V30 1497 C 144.324 2.32387 0.0994683 0
M  V30 1498 C 145.318 1.46859 0.844326 0
M  V30 1499 O 146.524 1.63254 0.758174 0
M  V30 1500 H 142.899 0.750273 0.0509291 0
M  V30 1501 H 144.87 2.91062 -0.65767 0
M  V30 1502 C 143.619 3.30723 1.07319 0
M  V30 1503 H 142.942 3.96541 0.509462 0
M  V30 1504 H 144.382 3.94725 1.54817 0
M  V30 1505 C 142.841 2.59021 2.15429 0
M  V30 1506 O 143.371 2.38286 3.23393 0
M  V30 1507 N 141.577 2.189 1.91131 0
M  V30 1508 H 141.124 2.35964 1.03337 0
M  V30 1509 H 141.082 1.71251 2.63668 0
M  V30 1510 N 144.854 0.36279 1.53368 0
M  V30 1511 C 146.102 -0.227326 2.00817 0
M  V30 1512 C 146.423 -1.49511 1.25186 0
M  V30 1513 O 145.693 -1.92482 0.364348 0
M  V30 1514 H 144.273 -0.0869923 0.741917 0
M  V30 1515 H 146.935 0.488381 1.88682 0
M  V30 1516 H 146.031 -0.456273 3.08747 0
M  V30 1517 N 146.332 -1.57332 0.0918853 0
M  V30 1518 C 147.28 -2.15075 -0.885747 0
M  V30 1519 C 148.274 -1.09277 -1.29441 0
M  V30 1520 O 149.48 -1.27627 -1.26931 0
M  V30 1521 H 145.855 -0.687966 -0.303656 0
M  V30 1522 H 147.826 -2.96047 -0.373995 0
M  V30 1523 C 146.575 -2.74325 -2.13638 0
M  V30 1524 H 145.898 -3.55418 -1.8308 0
M  V30 1525 H 147.338 -3.183 -2.80109 0
M  V30 1526 C 145.797 -1.70062 -2.90827 0
M  V30 1527 O 146.327 -1.13763 -3.85254 0
M  V30 1528 N 144.533 -1.40628 -2.54307 0
M  V30 1529 H 144.08 -1.866 -1.7759 0
M  V30 1530 H 144.038 -0.711043 -3.06254 0
M  V30 1531 N 147.81 0.181792 -1.56548 0
M  V30 1532 C 149.221 0.745244 -1.71181 0
M  V30 1533 C 149.572 1.83262 -0.70068 0
M  V30 1534 O 148.697 2.15946 0.140154 0
M  V30 1535 C 149.292 1.35859 -3.10367 0
M  V30 1536 C 147.851 1.86898 -3.2672 0
M  V30 1537 C 146.998 0.743942 -2.67134 0
M  V30 1538 H 149.949 -0.0434661 -1.5864 0
M  V30 1539 H 149.97 2.22817 -3.08436 0
M  V30 1540 H 149.482 0.566948 -3.83937 0
M  V30 1541 H 147.583 2.68738 -2.5809 0
M  V30 1542 H 147.696 2.02162 -4.34359 0
M  V30 1543 H 146.06 1.16169 -2.26665 0
M  V30 1544 H 146.843 -0.035676 -3.43281 0
M  V30 1545 N 149.288 1.51039 0.449983 0
M  V30 1546 C 150.534 1.64287 1.19923 0
M  V30 1547 C 150.889 0.348701 1.89214 0
M  V30 1548 O 150.182 -0.654751 1.80065 0
M  V30 1549 C 150.376 2.77556 2.25161 0
M  V30 1550 C 150.205 4.17862 1.66198 0
M  V30 1551 C 148.975 4.83976 1.45243 0
M  V30 1552 C 151.173 5.01388 1.14519 0
M  V30 1553 N 149.155 6.08433 0.817437 0
M  V30 1554 C 150.526 6.16743 0.634705 0
M  V30 1555 C 152.581 4.87008 1.03574 0
M  V30 1556 C 151.284 7.19295 0.0255452 0
M  V30 1557 C 153.31 5.89757 0.440489 0
M  V30 1558 C 152.672 7.04375 -0.0595112 0
M  V30 1559 H 148.771 0.655161 0.426952 0
M  V30 1560 H 151.355 1.88228 0.49781 0
M  V30 1561 H 149.526 2.553 2.92706 0
M  V30 1562 H 151.258 2.80049 2.92155 0
M  V30 1563 H 148.013 4.41627 1.71063 0
M  V30 1564 H 148.437 6.75017 0.517747 0
M  V30 1565 H 153.079 3.9866 1.4082 0
M  V30 1566 H 150.797 8.07302 -0.359071 0
M  V30 1567 H 154.383 5.80698 0.35788 0
M  V30 1568 H 153.263 7.82521 -0.512882 0
M  V30 1569 N 150.766 -0.704594 1.40972 0
M  V30 1570 C 151.696 -1.83124 1.44872 0
M  V30 1571 C 152.677 -1.67281 0.30838 0
M  V30 1572 O 153.862 -1.87149 0.518556 0
M  V30 1573 C 150.992 -3.21181 1.32136 0
M  V30 1574 C 149.946 -3.51714 2.43888 0
M  V30 1575 C 149.272 -4.89032 2.16222 0
M  V30 1576 C 150.572 -3.516 3.86232 0
M  V30 1577 H 152.266 -1.80117 2.39161 0
M  V30 1578 H 149.812 -0.865145 1.15114 0
M  V30 1579 H 151.765 -3.99702 1.33479 0
M  V30 1580 H 150.489 -3.24791 0.343279 0
M  V30 1581 H 149.148 -2.75539 2.41813 0
M  V30 1582 H 148.796 -4.89256 1.16778 0
M  V30 1583 H 148.496 -5.10426 2.911 0
M  V30 1584 H 150.02 -5.69873 2.19265 0
M  V30 1585 H 151.434 -4.2014 3.9007 0
M  V30 1586 H 149.831 -3.84523 4.60719 0
M  V30 1587 H 150.901 -2.50757 4.15029 0
M  V30 1588 N 152.244 -1.26651 -0.937939 0
M  V30 1589 C 153.207 -1.08546 -2.01867 0
M  V30 1590 C 154.207 -0.0327327 -1.60767 0
M  V30 1591 O 155.397 -0.276427 -1.71993 0
M  V30 1592 C 152.529 -0.651711 -3.34613 0
M  V30 1593 H 153.722 -2.04502 -2.1936 0
M  V30 1594 H 151.275 -1.09294 -1.11734 0
M  V30 1595 H 152.01 0.309696 -3.22818 0
M  V30 1596 H 151.795 -1.41189 -3.65798 0
M  V30 1597 H 153.285 -0.546973 -4.14002 0
M  V30 1598 N 153.722 1.14298 -1.08507 0
M  V30 1599 C 154.952 1.88945 -0.835663 0
M  V30 1600 C 155.36 1.78894 0.615928 0
M  V30 1601 O 154.703 1.1468 1.43506 0
M  V30 1602 C 154.765 3.39585 -1.17994 0
M  V30 1603 C 154.429 3.7342 -2.63451 0
M  V30 1604 C 155.426 3.73454 -3.61702 0
M  V30 1605 C 153.111 4.03368 -2.99332 0
M  V30 1606 C 155.105 4.02961 -4.93864 0
M  V30 1607 C 152.792 4.32538 -4.31687 0
M  V30 1608 C 153.79 4.32318 -5.28763 0
M  V30 1609 O 153.478 4.6078 -6.58739 0
M  V30 1610 H 153.21 0.605307 -0.300965 0
M  V30 1611 H 155.764 1.45673 -1.44806 0
M  V30 1612 H 153.994 3.83315 -0.51055 0
M  V30 1613 H 155.683 3.9554 -0.911182 0
M  V30 1614 H 156.449 3.50403 -3.35325 0
M  V30 1615 H 152.328 4.02692 -2.24411 0
M  V30 1616 H 155.872 4.02704 -5.69627 0
M  V30 1617 H 151.769 4.55059 -4.57812 0
M  V30 1618 H 152.537 4.78492 -6.64069 0
M  V30 1619 N 155.201 0.870884 1.31352 0
M  V30 1620 C 156.447 0.492314 1.97352 0
M  V30 1621 C 156.802 -0.945174 1.67583 0
M  V30 1622 O 156.095 -1.65674 0.962423 0
M  V30 1623 C 156.289 0.687157 3.50732 0
M  V30 1624 C 156.118 2.14203 3.95407 0
M  V30 1625 C 154.888 2.78382 4.21701 0
M  V30 1626 C 157.086 3.1144 4.09279 0
M  V30 1627 N 155.068 4.14611 4.52737 0
M  V30 1628 C 156.439 4.32702 4.44037 0
M  V30 1629 C 158.494 3.07418 3.91661 0
M  V30 1630 C 157.197 5.50463 4.63015 0
M  V30 1631 C 159.223 4.24438 4.11833 0
M  V30 1632 C 158.585 5.44463 4.46923 0
M  V30 1633 H 154.684 0.229206 0.747655 0
M  V30 1634 H 157.268 1.12568 1.5886 0
M  V30 1635 H 155.439 0.083384 3.8831 0
M  V30 1636 H 157.171 0.276883 4.03752 0
M  V30 1637 H 153.926 2.29326 4.14375 0
M  V30 1638 H 154.35 4.84928 4.72413 0
M  V30 1639 H 158.992 2.15732 3.6362 0
M  V30 1640 H 156.71 6.42666 4.89904 0
M  V30 1641 H 160.296 4.2278 3.99685 0
M  V30 1642 H 159.176 6.33504 4.62214 0
M  V30 1643 N 156.679 -1.44442 0.630414 0
M  V30 1644 C 157.927 -2.01653 0.134351 0
M  V30 1645 C 158.248 -1.49836 -1.24796 0
M  V30 1646 O 157.518 -0.701684 -1.82902 0
M  V30 1647 H 156.098 -0.74554 0.0466769 0
M  V30 1648 H 158.76 -1.76952 0.816955 0
M  V30 1649 H 157.856 -3.11935 0.101498 0
M  V30 1650 N 158.157 -0.370918 -1.53173 0
M  V30 1651 C 159.089 0.507823 -2.23503 0
M  V30 1652 C 160.102 1.04182 -1.251 0
M  V30 1653 O 161.291 0.947286 -1.5129 0
M  V30 1654 C 158.391 1.71447 -2.92334 0
M  V30 1655 C 157.564 1.31105 -4.17289 0
M  V30 1656 C 156.623 2.38035 -4.69282 0
M  V30 1657 O 155.649 2.00204 -5.32829 0
M  V30 1658 N 156.851 3.69697 -4.47554 0
M  V30 1659 H 159.616 -0.0946382 -2.99551 0
M  V30 1660 H 157.177 -0.196358 -1.60705 0
M  V30 1661 H 159.169 2.42469 -3.24023 0
M  V30 1662 H 157.739 2.22368 -2.19707 0
M  V30 1663 H 156.959 0.430462 -3.91843 0
M  V30 1664 H 158.247 1.0179 -4.98514 0
M  V30 1665 H 157.645 4.03205 -3.9679 0
M  V30 1666 H 156.202 4.36807 -4.8378 0
M  V30 1667 N 159.635 1.57281 -0.100228 0
M  V30 1668 C 160.883 1.94153 0.561157 0
M  V30 1669 C 161.204 0.983157 1.68401 0
M  V30 1670 O 160.474 0.0361132 1.95867 0
M  V30 1671 H 159.054 0.716791 0.210283 0
M  V30 1672 H 161.716 1.94202 -0.164765 0
M  V30 1673 H 160.812 2.96709 0.968008 0
M  V30 1674 N 161.113 -0.173488 1.56642 0
M  V30 1675 C 162.341 -0.906095 1.86004 0
M  V30 1676 C 162.756 -1.75921 0.685355 0
M  V30 1677 O 162.113 -1.79198 -0.345578 0
M  V30 1678 C 162.164 -1.78462 3.14378 0
M  V30 1679 O 161.885 -0.965914 4.27319 0
M  V30 1680 C 163.386 -2.62707 3.57071 0
M  V30 1681 H 160.606 -0.263341 0.617165 0
M  V30 1682 H 163.15 -0.174236 2.03756 0
M  V30 1683 H 161.305 -2.46984 2.98459 0
M  V30 1684 H 161.719 -1.56655 5.00559 0
M  V30 1685 H 163.193 -3.19969 4.49804 0
M  V30 1686 H 163.67 -3.37472 2.81086 0
M  V30 1687 H 164.276 -1.99521 3.75595 0
M  V30 1688 N 162.591 -1.51276 -0.441967 0
M  V30 1689 C 163.521 -1.752 -1.54361 0
M  V30 1690 C 164.502 -0.601682 -1.59103 0
M  V30 1691 O 165.687 -0.843913 -1.74905 0
M  V30 1692 C 162.817 -1.87282 -2.92477 0
M  V30 1693 C 161.771 -3.02687 -3.02596 0
M  V30 1694 C 161.097 -2.99947 -4.42647 0
M  V30 1695 C 162.397 -4.4273 -2.77106 0
M  V30 1696 H 164.091 -2.67442 -1.34592 0
M  V30 1697 H 161.637 -1.28694 -0.646048 0
M  V30 1698 H 163.59 -2.02602 -3.695 0
M  V30 1699 H 162.314 -0.916844 -3.13467 0
M  V30 1700 H 160.973 -2.87065 -2.28012 0
M  V30 1701 H 160.621 -2.02136 -4.60597 0
M  V30 1702 H 160.321 -3.77439 -4.50348 0
M  V30 1703 H 161.845 -3.17354 -5.2165 0
M  V30 1704 H 163.259 -4.58727 -3.43864 0
M  V30 1705 H 161.656 -5.21893 -2.96222 0
M  V30 1706 H 162.726 -4.53087 -1.72744 0
M  V30 1707 N 164.069 0.697108 -1.41344 0
M  V30 1708 C 165.315 1.4593 -1.40827 0
M  V30 1709 C 165.648 1.94193 -0.0167098 0
M  V30 1710 O 164.923 1.69425 0.955263 0
M  V30 1711 C 165.206 2.67229 -2.41373 0
M  V30 1712 C 165.059 2.24741 -3.8963 0
M  V30 1713 C 166.378 3.69423 -2.39196 0
M  V30 1714 H 163.497 0.529303 -0.512842 0
M  V30 1715 H 166.139 0.794112 -1.72609 0
M  V30 1716 H 164.289 3.23982 -2.14401 0
M  V30 1717 H 165.961 1.73327 -4.27499 0
M  V30 1718 H 164.204 1.56542 -4.0457 0
M  V30 1719 H 164.875 3.1177 -4.55525 0
M  V30 1720 H 167.351 3.2234 -2.63128 0
M  V30 1721 H 166.227 4.51907 -3.11563 0
M  V30 1722 H 166.488 4.19012 -1.41001 0
M  V30 1723 N 165.547 1.27147 0.931209 0
M  V30 1724 C 166.775 1.16082 1.71267 0
M  V30 1725 C 167.19 -0.282772 1.8667 0
M  V30 1726 O 166.547 -1.19283 1.38122 0
M  V30 1727 C 166.598 1.8358 3.11417 0
M  V30 1728 O 166.319 3.22299 2.96741 0
M  V30 1729 C 167.82 1.78597 4.05732 0
M  V30 1730 H 165.04 0.403758 0.535929 0
M  V30 1731 H 167.584 1.67953 1.16671 0
M  V30 1732 H 165.739 1.35623 3.62885 0
M  V30 1733 H 166.153 3.55851 3.85319 0
M  V30 1734 H 167.627 2.30444 5.01597 0
M  V30 1735 H 168.104 0.754564 4.3267 0
M  V30 1736 H 168.71 2.26152 3.60188 0
M  V30 1737 N 167.025 -1.13721 1.09112 0
M  V30 1738 C 168.271 -1.85198 0.826414 0
M  V30 1739 C 168.604 -1.83129 -0.646319 0
M  V30 1740 O 167.879 -1.2671 -1.47563 0
M  V30 1741 C 168.162 -3.33507 1.35812 0
M  V30 1742 C 168.015 -3.44108 2.89672 0
M  V30 1743 C 169.334 -4.28838 0.989256 0
M  V30 1744 H 166.453 -0.67243 0.301675 0
M  V30 1745 H 169.095 -1.33499 1.35197 0
M  V30 1746 H 167.245 -3.77666 0.911082 0
M  V30 1747 H 168.917 -3.08684 3.428 0
M  V30 1748 H 167.16 -2.85087 3.26967 0
M  V30 1749 H 167.831 -4.48388 3.21951 0
M  V30 1750 H 170.307 -3.92734 1.37475 0
M  V30 1751 H 169.183 -5.31051 1.38838 0
M  V30 1752 H 169.444 -4.4198 -0.102924 0
M  V30 1753 N 168.503 -0.877838 -1.30888 0
M  V30 1754 C 169.728 -0.506629 -2.01117 0
M  V30 1755 C 170.153 0.895564 -1.65412 0
M  V30 1756 O 169.511 1.5923 -0.866922 0
M  V30 1757 C 169.559 -0.680223 -3.54126 0
M  V30 1758 O 168.663 0.277033 -4.11468 0
M  V30 1759 H 168.004 -0.200518 -0.633 0
M  V30 1760 H 170.534 -1.18342 -1.66902 0
M  V30 1761 H 170.544 -0.5765 -4.03907 0
M  V30 1762 H 169.219 -1.70261 -3.79452 0
M  V30 1763 H 167.796 0.127606 -3.72682 0
M  V30 1764 N 169.982 1.44106 -0.638065 0
M  V30 1765 C 171.207 2.0685 -0.150916 0
M  V30 1766 C 171.632 1.47417 1.16833 0
M  V30 1767 O 170.99 0.578264 1.71831 0
M  V30 1768 C 171.038 3.60555 -0.05708 0
M  V30 1769 O 170.142 4.00465 0.984972 0
M  V30 1770 H 169.483 0.658151 -0.0879399 0
M  V30 1771 H 172.013 1.84865 -0.876707 0
M  V30 1772 H 172.023 4.07789 0.131232 0
M  V30 1773 H 170.698 4.03193 -1.02021 0
M  V30 1774 H 169.275 3.64849 0.770672 0
M  V30 1775 N 171.46 0.379036 1.52974 0
M  V30 1776 C 172.423 -0.448865 2.24762 0
M  V30 1777 C 173.423 -0.998689 1.26027 0
M  V30 1778 O 174.613 -0.882313 1.50203 0
M  V30 1779 C 171.745 -1.62872 2.99476 0
M  V30 1780 H 172.938 0.179491 2.99362 0
M  V30 1781 H 170.491 0.13096 1.5575 0
M  V30 1782 H 171.226 -2.29479 2.29151 0
M  V30 1783 H 171.011 -1.24128 3.71934 0
M  V30 1784 H 172.501 -2.2151 3.5401 0
M  V30 1785 N 172.938 -1.57226 0.108567 0
M  V30 1786 C 174.163 -1.99604 -0.563303 0
M  V30 1787 C 174.588 -0.987563 -1.6009 0
M  V30 1788 O 173.946 0.0421687 -1.81251 0
M  V30 1789 C 173.994 -3.40902 -1.17552 0
M  V30 1790 O 173.098 -3.42896 -2.2912 0
M  V30 1791 H 172.439 -0.648704 -0.1417 0
M  V30 1792 H 174.969 -2.03679 0.193961 0
M  V30 1793 H 174.979 -3.78886 -1.51357 0
M  V30 1794 H 173.654 -4.1382 -0.415445 0
M  V30 1795 H 172.231 -3.1672 -1.96832 0
M  V30 1796 N 174.416 0.165178 -1.56732 0
M  V30 1797 C 175.644 0.896218 -1.86482 0
M  V30 1798 C 176.059 1.75555 -0.694675 0
M  V30 1799 O 175.416 1.79379 0.33607 0
M  V30 1800 C 175.467 1.76792 -3.1532 0
M  V30 1801 O 175.188 0.943239 -4.27825 0
M  V30 1802 C 176.689 2.6081 -3.58459 0
M  V30 1803 H 173.909 0.260064 -0.618553 0
M  V30 1804 H 176.453 0.163428 -2.03846 0
M  V30 1805 H 174.608 2.45398 -2.99764 0
M  V30 1806 H 175.022 1.53998 -5.01383 0
M  V30 1807 H 176.496 3.17579 -4.51495 0
M  V30 1808 H 176.973 3.35977 -2.82872 0
M  V30 1809 H 177.579 1.97526 -3.76648 0
M  V30 1810 N 175.894 1.51508 0.433938 0
M  V30 1811 C 176.841 1.73068 1.52696 0
M  V30 1812 C 177.811 0.572441 1.55924 0
M  V30 1813 O 178.996 0.807253 1.72882 0
M  V30 1814 C 176.136 1.86474 2.90381 0
M  V30 1815 C 175.249 3.14037 2.96656 0
M  V30 1816 C 174.384 3.18019 4.25485 0
M  V30 1817 C 173.423 4.39882 4.2564 0
M  V30 1818 N 172.56 4.41394 5.45999 0
M  V30 1819 H 177.4 2.66366 1.33615 0
M  V30 1820 H 174.937 1.32008 0.649018 0
M  V30 1821 H 176.895 1.92229 3.70275 0
M  V30 1822 H 175.525 0.965809 3.08013 0
M  V30 1823 H 174.577 3.17575 2.09404 0
M  V30 1824 H 175.889 4.0394 2.92633 0
M  V30 1825 H 175.043 3.22708 5.13755 0
M  V30 1826 H 173.782 2.2601 4.3217 0
M  V30 1827 H 172.787 4.35366 3.35763 0
M  V30 1828 H 174.012 5.33159 4.20617 0
M  V30 1829 H 171.958 3.52258 5.53399 0
M  V30 1830 H 171.875 5.25111 5.4387 0
M  V30 1831 H 173.143 4.50281 6.36292 0
M  V30 1832 N 177.372 -0.689602 1.41712 0
M  V30 1833 C 178.62 -1.4468 1.4111 0
M  V30 1834 C 178.941 -1.94986 0.0232196 0
M  V30 1835 O 178.211 -1.72097 -0.935913 0
M  V30 1836 H 176.791 -0.536847 0.519427 0
M  V30 1837 H 179.453 -0.815825 1.77004 0
M  V30 1838 H 178.549 -2.30706 2.10193 0
M  V30 1839 N 178.85 -1.27639 -0.924453 0
M  V30 1840 C 180.261 -1.12834 -1.48746 0
M  V30 1841 C 180.612 0.285505 -1.94112 0
M  V30 1842 O 179.737 1.17874 -1.81479 0
M  V30 1843 C 180.332 -2.04217 -2.70334 0
M  V30 1844 C 178.891 -1.93509 -3.22848 0
M  V30 1845 C 178.038 -1.96583 -1.95577 0
M  V30 1846 H 180.989 -1.40484 -0.738233 0
M  V30 1847 H 181.01 -1.59989 -3.4523 0
M  V30 1848 H 180.522 -3.07111 -2.37285 0
M  V30 1849 H 178.623 -0.936131 -3.60649 0
M  V30 1850 H 178.736 -2.79917 -3.88823 0
M  V30 1851 H 177.1 -1.4085 -2.12211 0
M  V30 1852 H 177.883 -3.01137 -1.64837 0
M  V30 1853 N 180.328 1.1314 -1.09713 0
M  V30 1854 C 181.553 1.88862 -0.857081 0
M  V30 1855 C 181.978 1.78729 0.586304 0
M  V30 1856 O 181.336 1.13692 1.41222 0
M  V30 1857 C 181.384 3.36325 -1.30069 0
M  V30 1858 O 180.488 4.09815 -0.461007 0
M  V30 1859 H 179.829 0.587108 -0.310162 0
M  V30 1860 H 182.359 1.43129 -1.46203 0
M  V30 1861 H 182.369 3.87157 -1.28738 0
M  V30 1862 H 181.044 3.43017 -2.35185 0
M  V30 1863 H 179.621 3.68986 -0.538888 0
M  V30 1864 N 181.806 0.884767 1.30421 0
M  V30 1865 C 183.052 0.503851 1.96441 0
M  V30 1866 C 183.385 -0.944518 1.69684 0
M  V30 1867 O 182.66 -1.66737 1.00145 0
M  V30 1868 C 182.943 0.779085 3.51571 0
M  V30 1869 C 182.796 2.27807 3.87846 0
M  V30 1870 C 184.115 0.255452 4.39358 0
M  V30 1871 H 181.234 0.184533 0.713524 0
M  V30 1872 H 183.876 1.10872 1.54297 0
M  V30 1873 H 182.026 0.264274 3.876 0
M  V30 1874 H 183.698 2.86127 3.61841 0
M  V30 1875 H 181.941 2.74479 3.35922 0
M  V30 1876 H 182.612 2.42125 4.96064 0
M  V30 1877 H 185.088 0.696079 4.10236 0
M  V30 1878 H 183.964 0.477361 5.4682 0
M  V30 1879 H 184.225 -0.843293 4.33983 0
M  V30 1880 N 183.284 -1.43765 0.645699 0
M  V30 1881 C 184.531 -2.01898 0.15604 0
M  V30 1882 C 184.859 -1.50887 -1.22733 0
M  V30 1883 O 184.114 -0.689271 -1.8316 0
M  V30 1884 C 184.413 -3.57238 0.107679 0
M  V30 1885 C 184.079 -4.27564 1.43178 0
M  V30 1886 C 182.741 -4.46492 1.7944 0
M  V30 1887 C 185.093 -4.67454 2.30513 0
M  V30 1888 C 182.421 -5.02573 3.02716 0
M  V30 1889 C 184.773 -5.24901 3.53074 0
M  V30 1890 C 183.437 -5.42046 3.89541 0
M  V30 1891 H 182.707 -0.738797 0.057099 0
M  V30 1892 H 185.354 -1.72341 0.834912 0
M  V30 1893 H 183.659 -3.86293 -0.654618 0
M  V30 1894 H 185.356 -3.99965 -0.287938 0
M  V30 1895 H 181.946 -4.13171 1.13963 0
M  V30 1896 H 186.13 -4.5253 2.0379 0
M  V30 1897 H 181.386 -5.14033 3.31028 0
M  V30 1898 H 185.56 -5.54758 4.20971 0
M  V30 1899 H 183.187 -5.85268 4.85145 0
M  V30 1900 N 184.763 -0.387143 -1.52771 0
M  V30 1901 C 186.174 0.0873634 -1.86495 0
M  V30 1902 C 186.525 1.46336 -1.30691 0
M  V30 1903 O 185.65 2.068 -0.637409 0
M  V30 1904 C 186.245 0.165305 -3.38396 0
M  V30 1905 C 184.804 0.584101 -3.7184 0
M  V30 1906 C 183.951 -0.255279 -2.76122 0
M  V30 1907 H 186.902 -0.605104 -1.46711 0
M  V30 1908 H 186.923 0.984848 -3.67534 0
M  V30 1909 H 186.435 -0.836301 -3.78982 0
M  V30 1910 H 184.536 1.59315 -3.36823 0
M  V30 1911 H 184.649 0.343749 -4.77865 0
M  V30 1912 H 183.013 0.279126 -2.53166 0
M  V30 1913 H 183.796 -1.25482 -3.19545 0
M  V30 1914 N 186.241 1.57166 -0.116904 0
M  V30 1915 C 187.171 2.18222 0.830759 0
M  V30 1916 C 188.152 1.12167 1.27877 0
M  V30 1917 O 189.337 1.40394 1.34176 0
M  V30 1918 C 186.467 2.77996 2.08172 0
M  V30 1919 C 185.421 3.89614 1.77157 0
M  V30 1920 C 184.747 4.36187 3.09265 0
M  V30 1921 C 186.047 5.1181 1.04151 0
M  V30 1922 H 187.741 2.97664 0.321992 0
M  V30 1923 H 185.287 1.4318 0.153434 0
M  V30 1924 H 187.24 3.19366 2.74924 0
M  V30 1925 H 185.964 1.9584 2.6137 0
M  V30 1926 H 184.623 3.48816 1.12796 0
M  V30 1927 H 184.271 3.50893 3.60393 0
M  V30 1928 H 183.971 5.11455 2.89288 0
M  V30 1929 H 185.495 4.80207 3.77139 0
M  V30 1930 H 186.909 5.50214 1.61052 0
M  V30 1931 H 185.306 5.92648 0.942762 0
M  V30 1932 H 186.376 4.84892 0.0279022 0
M  V30 1933 N 187.719 -0.156864 1.56817 0
M  V30 1934 C 188.682 -1.17781 1.96622 0
M  V30 1935 C 189.682 -1.36401 0.851555 0
M  V30 1936 O 190.872 -1.33561 1.11836 0
M  V30 1937 C 188.004 -2.54008 2.27361 0
M  V30 1938 H 189.197 -0.836564 2.87996 0
M  V30 1939 H 186.75 -0.39985 1.51099 0
M  V30 1940 H 187.485 -2.9312 1.38748 0
M  V30 1941 H 187.27 -2.41856 3.08623 0
M  V30 1942 H 188.76 -3.27558 2.59029 0
M  V30 1943 N 189.197 -1.51736 -0.425897 0
M  V30 1944 C 190.608 -1.5732 -1.00536 0
M  V30 1945 C 190.959 -0.403537 -1.92005 0
M  V30 1946 O 190.084 0.478256 -2.11049 0
M  V30 1947 C 190.679 -2.85119 -1.8301 0
M  V30 1948 C 189.238 -2.93236 -2.35987 0
M  V30 1949 C 188.385 -2.52098 -1.15508 0
M  V30 1950 H 191.336 -1.57348 -0.206739 0
M  V30 1951 H 191.357 -2.69526 -2.68581 0
M  V30 1952 H 190.869 -3.7023 -1.16411 0
M  V30 1953 H 188.97 -2.12581 -3.06007 0
M  V30 1954 H 189.083 -3.9713 -2.68001 0
M  V30 1955 H 187.447 -2.05558 -1.50393 0
M  V30 1956 H 188.23 -3.39565 -0.505014 0
M  V30 1957 N 190.675 0.682077 -1.42076 0
M  V30 1958 C 191.915 1.45424 -1.43636 0
M  V30 1959 C 192.279 1.91939 -0.0484001 0
M  V30 1960 O 193.48 2.6873 0.0612514 0
M  V30 1961 C 191.751 2.62427 -2.42625 0
M  V30 1962 S 193.31 3.51379 -2.62827 0
M  V30 1963 H 190.128 0.496779 -0.508657 0
M  V30 1964 H 192.73 0.794645 -1.78621 0
M  V30 1965 H 191.434 2.26481 -3.42249 0
M  V30 1966 H 190.965 3.33266 -2.09039 0
M  V30 1967 H 192.98 4.58141 -1.9058 0
M  V30 1968 N 192.153 1.28127 0.917671 0
M  V30 1969 C 193.378 1.18007 1.70555 0
M  V30 1970 C 193.803 -0.258257 1.86319 0
M  V30 1971 O 193.161 -1.1869 1.37049 0
M  V30 1972 C 193.209 1.87948 3.07746 0
M  V30 1973 O 192.313 1.18427 3.9503 0
M  V30 1974 H 191.654 0.409867 0.522403 0
M  V30 1975 H 194.184 1.69379 1.1477 0
M  V30 1976 H 194.194 1.95701 3.58001 0
M  V30 1977 H 192.869 2.92573 2.95591 0
M  V30 1978 H 191.446 1.18811 3.53466 0
M  V30 1979 N 193.631 -1.12557 1.10312 0
M  V30 1980 C 195.047 -1.36036 0.834649 0
M  V30 1981 C 195.247 -1.93946 -0.546539 0
M  V30 1982 O 194.303 -2.16484 -1.29966 0
M  V30 1983 C 195.616 -2.30312 1.9333 0
M  V30 1984 C 197.164 -2.43906 1.9616 0
M  V30 1985 C 197.639 -3.41496 3.05195 0
M  V30 1986 N 199.13 -3.49053 3.04494 0
M  V30 1987 C 199.865 -4.24471 3.85502 0
M  V30 1988 N 199.361 -5.02966 4.76442 0
M  V30 1989 N 201.154 -4.19864 3.73725 0
M  V30 1990 H 193.305 -0.733246 1.99342 0
M  V30 1991 H 195.568 -0.385234 0.866198 0
M  V30 1992 H 195.274 -1.94933 2.92735 0
M  V30 1993 H 195.148 -3.30421 1.81939 0
M  V30 1994 H 197.535 -2.78567 0.973886 0
M  V30 1995 H 197.616 -1.4369 2.11629 0
M  V30 1996 H 197.26 -3.07565 4.04186 0
M  V30 1997 H 197.19 -4.41539 2.86968 0
M  V30 1998 H 199.681 -2.93053 2.38596 0
M  V30 1999 H 199.994 -5.57846 5.34815 0
M  V30 2000 H 198.339 -5.02167 4.80472 0
M  V30 2001 H 201.53 -3.57623 3.02032 0
M  V30 2002 H 201.703 -4.78386 4.37093 0
M  V30 2003 N 195.109 -0.891671 -1.2995 0
M  V30 2004 C 196.334 -0.527932 -2.00568 0
M  V30 2005 C 196.759 0.877969 -1.66353 0
M  V30 2006 O 196.117 1.58301 -0.883762 0
M  V30 2007 C 196.165 -0.717745 -3.53385 0
M  V30 2008 O 195.269 0.233376 -4.11739 0
M  V30 2009 H 194.61 -0.20722 -0.630837 0
M  V30 2010 H 197.14 -1.20105 -1.65638 0
M  V30 2011 H 197.15 -0.619307 -4.03272 0
M  V30 2012 H 195.825 -1.74276 -3.77625 0
M  V30 2013 H 194.402 0.0880706 -3.72796 0
M  V30 2014 N 196.587 1.43421 -0.653314 0
M  V30 2015 C 197.815 2.06163 -0.174491 0
M  V30 2016 C 198.23 1.48969 1.1599 0
M  V30 2017 O 197.587 0.621042 1.71608 0
M  V30 2018 C 197.638 3.61417 -0.0774865 0
M  V30 2019 O 197.359 4.16485 -1.35912 0
M  V30 2020 C 198.86 4.41235 0.427402 0
M  V30 2021 H 196.08 0.664946 -0.0899353 0
M  V30 2022 H 198.624 1.83924 -0.893988 0
M  V30 2023 H 196.779 3.82841 0.59257 0
M  V30 2024 H 197.193 5.10153 -1.21839 0
M  V30 2025 H 198.667 5.5021 0.44423 0
M  V30 2026 H 199.144 4.14268 1.45873 0
M  V30 2027 H 199.75 4.2478 -0.210167 0
M  V30 2028 N 198.065 0.39524 1.52563 0
M  V30 2029 C 199.29 -0.187456 2.06551 0
M  V30 2030 C 199.715 -1.39249 1.26457 0
M  V30 2031 O 199.073 -1.78947 0.291151 0
M  V30 2032 C 199.121 -0.529985 3.56684 0
M  V30 2033 O 198.225 -1.62307 3.79118 0
M  V30 2034 H 197.566 -0.0202537 0.663691 0
M  V30 2035 H 200.096 0.564426 1.96661 0
M  V30 2036 H 200.106 -0.792598 4.00227 0
M  V30 2037 H 198.781 0.350987 4.14416 0
M  V30 2038 H 197.358 -1.3537 3.47461 0
M  V30 2039 N 199.544 -1.57102 0.125237 0
M  V30 2040 C 200.454 -2.19191 -0.8362 0
M  V30 2041 C 201.47 -1.16985 -1.28805 0
M  V30 2042 O 202.646 -1.49479 -1.34974 0
M  V30 2043 C 199.711 -2.78407 -2.06617 0
M  V30 2044 C 198.772 -3.9567 -1.66565 0
M  V30 2045 C 198.005 -4.52052 -2.83698 0
M  V30 2046 O 198.228 -4.07326 -3.99302 0
M  V30 2047 O 197.162 -5.42645 -2.60423 0
M  V30 2048 H 200.988 -3.01816 -0.337776 0
M  V30 2049 H 198.573 -1.4906 -0.100695 0
M  V30 2050 H 200.455 -3.16129 -2.7864 0
M  V30 2051 H 199.13 -1.9881 -2.55453 0
M  V30 2052 H 198.037 -3.62705 -0.916296 0
M  V30 2053 H 199.37 -4.76722 -1.22464 0
M  V30 2054 N 201.022 0.148545 -1.56898 0
M  V30 2055 C 202.247 0.880385 -1.87787 0
M  V30 2056 C 202.672 1.74018 -0.714093 0
M  V30 2057 O 202.03 1.78153 0.336343 0
M  V30 2058 C 202.078 1.71422 -3.17249 0
M  V30 2059 O 201.182 2.8183 -3.01074 0
M  V30 2060 H 200.523 0.245301 -0.617028 0
M  V30 2061 H 203.053 0.139826 -2.04122 0
M  V30 2062 H 203.063 2.10954 -3.49231 0
M  V30 2063 H 201.738 1.08284 -4.01556 0
M  V30 2064 H 200.315 2.45715 -2.80497 0
M  V30 2065 N 202.5 1.5196 0.417844 0
M  V30 2066 C 203.728 1.69426 1.18753 0
M  V30 2067 C 204.143 0.399955 1.84515 0
M  V30 2068 O 203.5 -0.623288 1.71527 0
M  V30 2069 C 203.551 2.82375 2.25714 0
M  V30 2070 O 203.272 4.06793 1.62638 0
M  V30 2071 C 204.773 3.11277 3.15628 0
M  V30 2072 H 201.993 0.568031 0.357186 0
M  V30 2073 H 204.537 1.98475 0.49273 0
M  V30 2074 H 202.692 2.5587 2.90877 0
M  V30 2075 H 203.106 4.69667 2.3348 0
M  V30 2076 H 204.58 3.93843 3.86771 0
M  V30 2077 H 205.057 2.24473 3.77503 0
M  V30 2078 H 205.663 3.39515 2.56144 0
M  V30 2079 N 203.978 -0.674533 1.42435 0
M  V30 2080 C 204.941 -1.76986 1.45632 0
M  V30 2081 C 205.941 -1.5708 0.343871 0
M  V30 2082 O 207.131 -1.63367 0.604709 0
M  V30 2083 C 204.263 -3.15623 1.28822 0
M  V30 2084 H 205.456 -1.75539 2.43158 0
M  V30 2085 H 203.009 -0.884189 1.28887 0
M  V30 2086 H 203.744 -3.22696 0.322193 0
M  V30 2087 H 203.529 -3.31475 2.09444 0
M  V30 2088 H 205.019 -3.95537 1.33942 0
M  V30 2089 N 205.456 -1.28612 -0.910864 0
M  V30 2090 C 206.419 -1.12803 -1.9952 0
M  V30 2091 C 207.419 -0.0668264 -1.60661 0
M  V30 2092 O 208.609 -0.312847 -1.71368 0
M  V30 2093 C 205.741 -0.72254 -3.33155 0
M  V30 2094 H 206.934 -2.09109 -2.14973 0
M  V30 2095 H 204.487 -1.11639 -1.09391 0
M  V30 2096 H 205.222 0.241152 -3.23402 0
M  V30 2097 H 205.007 -1.48916 -3.62721 0
M  V30 2098 H 206.497 -0.634666 -4.12749 0
M  V30 2099 N 206.934 1.1197 -1.10907 0
M  V30 2100 C 207.864 2.19928 -0.784473 0
M  V30 2101 C 208.845 1.6833 0.244726 0
M  V30 2102 O 210.03 1.93892 0.109418 0
M  V30 2103 C 207.16 3.46597 -0.220827 0
M  V30 2104 C 206.114 4.11376 -1.18127 0
M  V30 2105 C 205.44 5.32554 -0.478594 0
M  V30 2106 C 206.74 4.56945 -2.52979 0
M  V30 2107 H 208.434 2.47337 -1.68715 0
M  V30 2108 H 205.98 1.18879 -0.812642 0
M  V30 2109 H 207.933 4.21396 0.0184278 0
M  V30 2110 H 206.657 3.1863 0.717113 0
M  V30 2111 H 205.316 3.38564 -1.40606 0
M  V30 2112 H 204.964 5.00856 0.463976 0
M  V30 2113 H 204.664 5.76844 -1.11912 0
M  V30 2114 H 206.188 6.10096 -0.248 0
M  V30 2115 H 207.602 5.23093 -2.3462 0
M  V30 2116 H 205.999 5.1203 -3.12962 0
M  V30 2117 H 207.069 3.70676 -3.12614 0
M  V30 2118 N 208.412 0.89855 1.29475 0
M  V30 2119 C 209.66 0.522847 1.9522 0
M  V30 2120 C 209.981 -0.93371 1.71192 0
M  V30 2121 O 209.251 -1.65823 1.04305 0
M  V30 2122 H 207.831 0.190366 0.722336 0
M  V30 2123 H 210.493 1.14459 1.5775 0
M  V30 2124 H 209.589 0.704476 3.04045 0
M  V30 2125 N 209.89 -1.43072 0.660911 0
M  V30 2126 C 211.13 -2.03596 0.181146 0
M  V30 2127 C 211.494 -1.51057 -1.18515 0
M  V30 2128 O 212.695 -2.03275 -1.75877 0
M  V30 2129 C 210.966 -3.56845 0.19911 0
M  V30 2130 S 212.525 -4.38289 -0.211684 0
M  V30 2131 H 209.343 -0.706954 0.0757479 0
M  V30 2132 H 211.945 -1.75027 0.870965 0
M  V30 2133 H 210.649 -3.92583 1.1961 0
M  V30 2134 H 210.18 -3.90067 -0.510996 0
M  V30 2135 H 212.195 -4.74583 -1.44863 0
M  V30 2136 N 211.368 -0.403325 -1.52352 0
M  V30 2137 C 212.298 0.416205 -2.29761 0
M  V30 2138 C 213.279 1.05123 -1.33728 0
M  V30 2139 O 214.464 1.06134 -1.62632 0
M  V30 2140 C 211.594 1.53624 -3.11475 0
M  V30 2141 C 210.548 1.02653 -4.15507 0
M  V30 2142 C 209.874 2.23971 -4.85532 0
M  V30 2143 C 211.174 0.08463 -5.22231 0
M  V30 2144 H 212.868 -0.229701 -2.98518 0
M  V30 2145 H 210.414 -0.111913 -1.43564 0
M  V30 2146 H 212.367 2.1165 -3.64393 0
M  V30 2147 H 211.091 2.20994 -2.40477 0
M  V30 2148 H 209.75 0.46871 -3.63591 0
M  V30 2149 H 209.398 2.89883 -4.11068 0
M  V30 2150 H 209.098 1.90521 -5.55856 0
M  V30 2151 H 210.622 2.82614 -5.41259 0
M  V30 2152 H 212.036 0.573509 -5.70424 0
M  V30 2153 H 210.433 -0.160783 -5.99885 0
M  V30 2154 H 211.503 -0.86237 -4.7717 0
M  V30 2155 N 212.846 1.57033 -0.133567 0
M  V30 2156 C 214.092 1.95976 0.521649 0
M  V30 2157 C 214.425 1.01779 1.65393 0
M  V30 2158 O 213.7 0.0576581 1.94415 0
M  V30 2159 C 213.983 3.44738 1.04057 0
M  V30 2160 C 213.836 4.49711 -0.0892897 0
M  V30 2161 C 215.155 3.95682 1.92675 0
M  V30 2162 H 212.274 0.712579 0.188149 0
M  V30 2163 H 214.916 1.88813 -0.212076 0
M  V30 2164 H 213.066 3.50973 1.66583 0
M  V30 2165 H 214.738 4.55565 -0.725152 0
M  V30 2166 H 212.981 4.27261 -0.750378 0
M  V30 2167 H 213.652 5.51099 0.315284 0
M  V30 2168 H 216.128 3.91841 1.39998 0
M  V30 2169 H 215.004 5.00262 2.25897 0
M  V30 2170 H 215.265 3.37239 2.85872 0
M  V30 2171 N 214.325 -0.140222 1.56975 0
M  V30 2172 C 215.272 -1.17292 1.98774 0
M  V30 2173 C 216.242 -1.4232 0.856408 0
M  V30 2174 O 217.427 -1.54541 1.119 0
M  V30 2175 C 214.567 -2.49973 2.37923 0
M  V30 2176 C 213.68 -2.32062 3.64378 0
M  V30 2177 C 212.815 -3.57825 3.926 0
M  V30 2178 C 211.854 -3.3498 5.12303 0
M  V30 2179 N 210.991 -4.52891 5.36502 0
M  V30 2180 H 215.831 -0.809472 2.86795 0
M  V30 2181 H 213.368 -0.388237 1.41884 0
M  V30 2182 H 215.326 -3.27346 2.58652 0
M  V30 2183 H 213.956 -2.84252 1.52972 0
M  V30 2184 H 213.008 -1.45711 3.51387 0
M  V30 2185 H 214.32 -2.11145 4.51906 0
M  V30 2186 H 213.474 -4.43624 4.13863 0
M  V30 2187 H 212.213 -3.81753 3.03506 0
M  V30 2188 H 211.218 -2.4757 4.90906 0
M  V30 2189 H 212.443 -3.12444 6.02956 0
M  V30 2190 H 210.389 -4.76979 4.50363 0
M  V30 2191 H 210.306 -4.35001 6.18312 0
M  V30 2192 H 211.574 -5.39884 5.62268 0
M  V30 2193 N 215.803 -1.52179 -0.40978 0
M  V30 2194 C 217.08 -1.56769 -1.16974 0
M  V30 2195 C 217.46 -0.348322 -2.08206 0
M  V30 2196 O 216.808 0.664862 -2.18613 0
M  V30 2197 C 217.018 -2.89603 -1.9476 0
M  V30 2198 C 218.366 -3.42579 -2.50849 0
M  V30 2199 O 219.39 -2.91338 -2.04941 0
M  V30 2200 O 218.249 -4.32054 -3.34652 0
M  V30 2201 H 215.343 -0.631439 -0.534054 0
M  V30 2202 H 217.889 -1.64507 -0.416613 0
M  V30 2203 H 216.661 -3.698 -1.27921 0
M  V30 2204 H 216.284 -2.85155 -2.77079 0
M  V30 2205 N 217.281 0.66697 -1.42791 0
M  V30 2206 C 218.511 1.45294 -1.46878 0
M  V30 2207 C 218.919 1.89027 -0.0809861 0
M  V30 2208 O 218.262 1.59219 0.916246 0
M  V30 2209 C 218.324 2.72908 -2.34012 0
M  V30 2210 C 217.988 2.51203 -3.81767 0
M  V30 2211 C 218.985 2.15302 -4.73224 0
M  V30 2212 C 216.67 2.65954 -4.26115 0
M  V30 2213 C 218.664 1.94431 -6.07022 0
M  V30 2214 C 216.351 2.44699 -5.59969 0
M  V30 2215 C 217.349 2.08992 -6.5024 0
M  V30 2216 O 217.037 1.87948 -7.81621 0
M  V30 2217 H 216.769 0.453306 -0.501487 0
M  V30 2218 H 219.323 0.826232 -1.88049 0
M  V30 2219 H 217.553 3.38089 -1.87703 0
M  V30 2220 H 219.242 3.34816 -2.29462 0
M  V30 2221 H 220.008 2.03495 -4.40244 0
M  V30 2222 H 215.887 2.92724 -3.56137 0
M  V30 2223 H 219.431 1.66484 -6.77443 0
M  V30 2224 H 215.328 2.56105 -5.9252 0
M  V30 2225 H 216.096 2.02483 -7.93059 0
M  V30 2226 N 218.759 1.29093 0.90403 0
M  V30 2227 C 220.006 1.16813 1.65411 0
M  V30 2228 C 220.334 -0.28128 1.92455 0
M  V30 2229 O 219.589 -1.22006 1.53013 0
M  V30 2230 C 219.888 1.92224 3.01305 0
M  V30 2231 C 219.554 3.41968 2.93885 0
M  V30 2232 C 218.216 3.82807 2.91569 0
M  V30 2233 C 220.568 4.37409 2.83413 0
M  V30 2234 C 217.896 5.1741 2.76594 0
M  V30 2235 C 220.248 5.72097 2.69977 0
M  V30 2236 C 218.912 6.12199 2.66024 0
M  V30 2237 H 218.182 0.42745 0.605283 0
M  V30 2238 H 220.829 1.59981 1.05254 0
M  V30 2239 H 219.134 1.41635 3.65304 0
M  V30 2240 H 220.831 1.80131 3.58265 0
M  V30 2241 H 217.421 3.09504 2.96488 0
M  V30 2242 H 221.605 4.06813 2.84283 0
M  V30 2243 H 216.861 5.47596 2.71935 0
M  V30 2244 H 221.035 6.45704 2.60844 0
M  V30 2245 H 218.662 7.16448 2.54178 0
M  V30 2246 N 220.237 -1.11381 1.11499 0
M  V30 2247 C 221.648 -1.6465 0.880191 0
M  V30 2248 C 221.999 -1.87199 -0.587434 0
M  V30 2249 O 221.124 -1.60667 -1.44966 0
M  V30 2250 C 221.719 -2.99105 1.59128 0
M  V30 2251 C 220.278 -3.49279 1.40289 0
M  V30 2252 C 219.425 -2.24077 1.63354 0
M  V30 2253 H 222.376 -0.950123 1.27116 0
M  V30 2254 H 222.397 -3.66107 1.03664 0
M  V30 2255 H 221.909 -2.82661 2.65941 0
M  V30 2256 H 220.01 -3.70887 0.356888 0
M  V30 2257 H 220.123 -4.2803 2.15238 0
M  V30 2258 H 218.487 -2.31733 1.05698 0
M  V30 2259 H 219.27 -2.10175 2.71443 0
M  V30 2260 N 221.715 -0.905404 -1.28997 0
M  V30 2261 C 222.625 -0.392246 -2.31298 0
M  V30 2262 C 223.641 0.515889 -1.66176 0
M  V30 2263 O 224.817 0.404093 -1.97304 0
M  V30 2264 C 221.882 0.36686 -3.44754 0
M  V30 2265 C 220.943 -0.573485 -4.25452 0
M  V30 2266 C 220.176 0.149488 -5.33491 0
M  V30 2267 O 220.399 1.37255 -5.5364 0
M  V30 2268 O 219.333 -0.510919 -5.99728 0
M  V30 2269 H 223.159 -1.2411 -2.77183 0
M  V30 2270 H 220.744 -0.669926 -1.33538 0
M  V30 2271 H 222.626 0.795907 -4.13816 0
M  V30 2272 H 221.301 1.19169 -3.00966 0
M  V30 2273 H 220.208 -1.05176 -3.59011 0
M  V30 2274 H 221.541 -1.36489 -4.72897 0
M  V30 2275 N 223.193 1.4272 -0.668489 0
M  V30 2276 C 224.604 1.84793 -0.266151 0
M  V30 2277 C 224.955 1.55959 1.19043 0
M  V30 2278 O 224.08 1.01622 1.91055 0
M  V30 2279 C 224.675 3.35436 -0.476271 0
M  V30 2280 C 223.234 3.76182 -0.128113 0
M  V30 2281 C 222.381 2.66344 -0.771777 0
M  V30 2282 H 225.332 1.32656 -0.871098 0
M  V30 2283 H 225.353 3.79515 0.273561 0
M  V30 2284 H 224.865 3.5639 -1.53647 0
M  V30 2285 H 222.966 3.60836 0.928891 0
M  V30 2286 H 223.079 4.75766 -0.564231 0
M  V30 2287 H 221.443 2.53885 -0.203652 0
M  V30 2288 H 222.226 2.90123 -1.83531 0
M  V30 2289 N 224.671 0.411399 1.52136 0
M  V30 2290 C 225.917 -0.163888 2.02137 0
M  V30 2291 C 226.25 -1.44597 1.29636 0
M  V30 2292 O 225.525 -1.90272 0.403353 0
M  V30 2293 C 225.808 -0.40927 3.57767 0
M  V30 2294 C 225.661 0.889643 4.40914 0
M  V30 2295 C 226.98 -1.19042 4.23694 0
M  V30 2296 H 224.099 -0.0580896 0.734707 0
M  V30 2297 H 226.741 0.54531 1.82007 0
M  V30 2298 H 224.891 -1.0134 3.7505 0
M  V30 2299 H 226.563 1.52575 4.35337 0
M  V30 2300 H 224.806 1.50011 4.07037 0
M  V30 2301 H 225.477 0.672314 5.4789 0
M  V30 2302 H 227.953 -0.678942 4.10524 0
M  V30 2303 H 226.829 -1.33086 5.32522 0
M  V30 2304 H 227.09 -2.21166 3.82803 0
M  V30 2305 N 226.149 -1.5696 0.141893 0
M  V30 2306 C 227.377 -2.00322 -0.517579 0
M  V30 2307 C 227.792 -1.02193 -1.58752 0
M  V30 2308 O 227.149 -0.0181619 -1.82491 0
M  V30 2309 C 227.2 -3.43618 -1.12289 0
M  V30 2310 O 226.921 -4.37995 -0.0956929 0
M  V30 2311 C 228.422 -4.02231 -1.86347 0
M  V30 2312 H 225.642 -0.657243 -0.135177 0
M  V30 2313 H 228.186 -2.03146 0.234973 0
M  V30 2314 H 226.341 -3.41662 -1.82609 0
M  V30 2315 H 226.755 -5.21729 -0.538469 0
M  V30 2316 H 228.229 -5.04509 -2.23997 0
M  V30 2317 H 228.706 -3.42655 -2.74744 0
M  V30 2318 H 229.312 -4.07802 -1.20737 0
M  V30 2319 N 227.627 0.131896 -1.57047 0
M  V30 2320 C 228.873 0.843179 -1.84441 0
M  V30 2321 C 229.206 1.80129 -0.725749 0
M  V30 2322 O 228.481 1.92624 0.269469 0
M  V30 2323 C 228.764 1.60442 -3.22382 0
M  V30 2324 C 228.617 0.666782 -4.4483 0
M  V30 2325 C 229.936 2.56354 -3.5773 0
M  V30 2326 H 227.055 0.305081 -0.670891 0
M  V30 2327 H 229.697 0.107839 -1.89694 0
M  V30 2328 H 227.847 2.23128 -3.18035 0
M  V30 2329 H 229.519 0.0497646 -4.61273 0
M  V30 2330 H 227.762 -0.022609 -4.33794 0
M  V30 2331 H 228.433 1.23579 -5.37989 0
M  V30 2332 H 230.909 2.0378 -3.62785 0
M  V30 2333 H 229.785 3.06657 -4.5525 0
M  V30 2334 H 230.046 3.38419 -2.84473 0
M  V30 2335 N 229.106 1.52395 0.401703 0
M  V30 2336 C 230.331 1.70972 1.17403 0
M  V30 2337 C 230.756 0.421615 1.83314 0
M  V30 2338 O 230.114 -0.621564 1.70312 0
M  V30 2339 C 230.162 2.85151 2.20728 0
M  V30 2340 O 229.266 2.51238 3.27037 0
M  V30 2341 H 228.607 0.568927 0.342372 0
M  V30 2342 H 231.137 1.99131 0.469891 0
M  V30 2343 H 231.147 3.10279 2.64936 0
M  V30 2344 H 229.822 3.78603 1.7214 0
M  V30 2345 H 228.399 2.36808 2.88057 0
M  V30 2346 N 230.584 -0.659388 1.43143 0
M  V30 2347 C 231.83 -1.41984 1.45644 0
M  V30 2348 C 232.185 -1.92245 0.0771718 0
M  V30 2349 O 231.478 -1.68976 -0.903205 0
M  V30 2350 C 231.672 -2.62206 2.42864 0
M  V30 2351 C 231.501 -2.23711 3.90107 0
M  V30 2352 C 230.271 -2.12332 4.58523 0
M  V30 2353 C 232.469 -1.84384 4.80112 0
M  V30 2354 N 230.451 -1.67102 5.9072 0
M  V30 2355 C 231.822 -1.5019 6.01534 0
M  V30 2356 C 233.877 -1.71512 4.67427 0
M  V30 2357 C 232.58 -1.04414 7.11681 0
M  V30 2358 C 234.606 -1.27142 5.77572 0
M  V30 2359 C 233.968 -0.938808 6.98116 0
M  V30 2360 H 230.067 -0.515448 0.588079 0
M  V30 2361 H 232.651 -0.759409 1.79279 0
M  V30 2362 H 230.822 -3.25917 2.11265 0
M  V30 2363 H 232.554 -3.28877 2.35843 0
M  V30 2364 H 229.309 -2.31893 4.12944 0
M  V30 2365 H 229.733 -1.46866 6.60878 0
M  V30 2366 H 234.375 -1.95868 3.74694 0
M  V30 2367 H 232.093 -0.788061 8.04248 0
M  V30 2368 H 235.679 -1.17681 5.69774 0
M  V30 2369 H 234.559 -0.6007 7.81896 0
M  V30 2370 N 232.062 -1.29571 -0.897171 0
M  V30 2371 C 233.01 -1.14802 -2.02295 0
M  V30 2372 C 234.004 -0.0629637 -1.69283 0
M  V30 2373 O 235.21 -0.222945 -1.78614 0
M  V30 2374 H 231.585 -0.354692 -0.663097 0
M  V30 2375 H 233.556 -2.10108 -2.11889 0
M  V30 2376 C 232.305 -0.843966 -3.37302 0
M  V30 2377 H 231.628 -1.67093 -3.63208 0
M  V30 2378 H 233.068 -0.780672 -4.16751 0
M  V30 2379 C 231.527 0.452843 -3.33843 0
M  V30 2380 O 232.057 1.47813 -3.73516 0
M  V30 2381 N 230.263 0.459601 -2.86943 0
M  V30 2382 H 229.81 -0.375213 -2.54853 0
M  V30 2383 H 229.768 1.32726 -2.85011 0
M  V30 2384 N 233.54 1.10788 -1.12088 0
M  V30 2385 C 234.765 1.87002 -0.896949 0
M  V30 2386 C 235.19 1.79933 0.548261 0
M  V30 2387 O 234.548 1.16662 1.38779 0
M  V30 2388 C 234.596 3.3349 -1.37174 0
M  V30 2389 O 233.7 4.08745 -0.547831 0
M  V30 2390 H 233.041 0.580397 -0.322545 0
M  V30 2391 H 235.571 1.39996 -1.49206 0
M  V30 2392 H 235.581 3.84339 -1.36922 0
M  V30 2393 H 234.256 3.37951 -2.42408 0
M  V30 2394 H 232.833 3.6776 -0.617034 0
M  V30 2395 N 235.018 0.912232 1.28515 0
M  V30 2396 C 236.266 0.543523 1.94654 0
M  V30 2397 C 236.587 -0.9155 1.72173 0
M  V30 2398 O 235.857 -1.64708 1.06058 0
M  V30 2399 H 234.437 0.198017 0.720277 0
M  V30 2400 H 237.099 1.16126 1.56527 0
M  V30 2401 H 236.195 0.736684 3.03281 0
M  V30 2402 N 236.496 -1.42363 0.676048 0
M  V30 2403 C 237.459 -2.29199 0.00766941 0
M  V30 2404 C 238.459 -1.43389 -0.727745 0
M  V30 2405 O 239.649 -1.64764 -0.56556 0
M  V30 2406 C 236.781 -3.2591 -0.999785 0
M  V30 2407 H 237.974 -2.89794 0.771988 0
M  V30 2408 H 235.527 -1.50024 0.438468 0
M  V30 2409 H 236.262 -2.70256 -1.79255 0
M  V30 2410 H 236.047 -3.89202 -0.475829 0
M  V30 2411 H 237.537 -3.91028 -1.46583 0
M  V30 2412 N 237.974 -0.419461 -1.51915 0
M  V30 2413 C 238.904 0.391813 -2.30189 0
M  V30 2414 C 239.885 1.03699 -1.34836 0
M  V30 2415 O 241.07 1.04403 -1.63748 0
M  V30 2416 C 238.2 1.50312 -3.13087 0
M  V30 2417 C 237.154 0.9824 -4.16573 0
M  V30 2418 C 236.48 2.18809 -4.8788 0
M  V30 2419 C 237.78 0.0292356 -5.22292 0
M  V30 2420 H 239.474 -0.26135 -2.98257 0
M  V30 2421 H 237.02 -0.127134 -1.43438 0
M  V30 2422 H 238.973 2.07773 -3.66617 0
M  V30 2423 H 237.697 2.18431 -2.42807 0
M  V30 2424 H 236.356 0.430119 -3.64068 0
M  V30 2425 H 236.004 2.85507 -4.14119 0
M  V30 2426 H 235.704 1.84615 -5.57845 0
M  V30 2427 H 237.228 2.76858 -5.44226 0
M  V30 2428 H 238.642 0.512976 -5.71 0
M  V30 2429 H 237.039 -0.2244 -5.9968 0
M  V30 2430 H 238.109 -0.912931 -4.76228 0
M  V30 2431 N 239.452 1.56882 -0.150215 0
M  V30 2432 C 240.68 2.00593 0.506948 0
M  V30 2433 C 241.095 1.03033 1.58208 0
M  V30 2434 O 240.452 0.0278396 1.82479 0
M  V30 2435 C 240.503 3.44209 1.10465 0
M  V30 2436 O 240.224 4.3804 0.0724636 0
M  V30 2437 C 241.725 4.03214 1.84211 0
M  V30 2438 H 238.945 0.65795 0.13169 0
M  V30 2439 H 241.489 2.03018 -0.245743 0
M  V30 2440 H 239.644 3.42625 1.80795 0
M  V30 2441 H 240.058 5.22007 0.510793 0
M  V30 2442 H 241.532 5.0569 2.21318 0
M  V30 2443 H 242.009 3.44107 2.72923 0
M  V30 2444 H 242.615 4.08437 1.18572 0
M  V30 2445 N 240.93 -0.123565 1.57115 0
M  V30 2446 C 242.155 -0.850398 1.89164 0
M  V30 2447 C 242.58 -1.7286 0.741688 0
M  V30 2448 O 241.938 -1.78665 -0.307958 0
M  V30 2449 C 241.986 -1.66353 3.19936 0
M  V30 2450 O 241.09 -2.77004 3.0552 0
M  V30 2451 H 240.431 -0.235454 0.620852 0
M  V30 2452 H 242.961 -0.107335 2.04318 0
M  V30 2453 H 242.971 -2.05372 3.52543 0
M  V30 2454 H 241.646 -1.01881 4.03228 0
M  V30 2455 H 240.223 -2.41221 2.84371 0
M  V30 2456 N 242.408 -1.52605 -0.393616 0
M  V30 2457 C 243.656 -1.67093 -1.13685 0
M  V30 2458 C 243.977 -0.411011 -1.90619 0
M  V30 2459 O 243.247 0.574491 -1.87287 0
M  V30 2460 H 241.827 -0.615923 -0.422668 0
M  V30 2461 H 244.489 -1.89704 -0.447039 0
M  V30 2462 H 243.585 -2.51922 -1.84232 0
M  V30 2463 N 243.887 0.651787 -1.4349 0
M  V30 2464 C 245.133 1.41376 -1.45398 0
M  V30 2465 C 245.466 1.94041 -0.0784823 0
M  V30 2466 O 244.741 1.72379 0.900878 0
M  V30 2467 C 245.024 2.59414 -2.49752 0
M  V30 2468 C 244.877 2.12232 -3.96582 0
M  V30 2469 C 246.196 3.61626 -2.50827 0
M  V30 2470 H 243.315 0.512719 -0.529422 0
M  V30 2471 H 245.957 0.738796 -1.75048 0
M  V30 2472 H 244.107 3.16997 -2.246 0
M  V30 2473 H 245.779 1.59639 -4.32797 0
M  V30 2474 H 244.022 1.43592 -4.09346 0
M  V30 2475 H 244.693 2.9712 -4.65214 0
M  V30 2476 H 247.169 3.13805 -2.7325 0
M  V30 2477 H 246.045 4.41766 -3.25783 0
M  V30 2478 H 246.306 4.14314 -1.5426 0
M  V30 2479 N 245.365 1.30045 0.890287 0
M  V30 2480 C 246.315 1.12592 1.9826 0
M  V30 2481 C 247.299 0.0426021 1.60844 0
M  V30 2482 O 248.491 0.265346 1.75 0
M  V30 2483 C 245.62 0.814301 3.33503 0
M  V30 2484 C 244.706 1.93761 3.7725 0
M  V30 2485 N 245.097 3.18232 3.93143 0
M  V30 2486 C 243.395 1.83277 4.06602 0
M  V30 2487 C 244.096 3.9158 4.30163 0
M  V30 2488 N 243.072 3.19591 4.3973 0
M  V30 2489 H 246.874 2.07003 2.08631 0
M  V30 2490 H 244.388 1.21307 1.07974 0
M  V30 2491 H 246.385 0.67029 4.11476 0
M  V30 2492 H 245.045 -0.121797 3.24471 0
M  V30 2493 H 246.056 3.53581 3.78419 0
M  V30 2494 H 242.733 0.97001 4.06075 0
M  V30 2495 H 244.123 4.98744 4.50226 0
M  V30 2496 N 246.843 -1.10192 1.12674 0
M  V30 2497 C 248.071 -1.85983 0.906527 0
M  V30 2498 C 248.486 -1.80783 -0.544333 0
M  V30 2499 O 247.843 -1.19834 -1.37645 0
M  V30 2500 C 247.894 -3.34281 1.37618 0
M  V30 2501 O 247.615 -3.39401 2.77017 0
M  V30 2502 C 249.116 -4.26938 1.19325 0
M  V30 2503 H 246.336 -0.587716 0.323775 0
M  V30 2504 H 248.88 -1.39284 1.49734 0
M  V30 2505 H 247.035 -3.78436 0.828539 0
M  V30 2506 H 247.449 -4.31838 2.97684 0
M  V30 2507 H 248.923 -5.29181 1.57071 0
M  V30 2508 H 249.4 -4.38995 0.134097 0
M  V30 2509 H 250.006 -3.8859 1.72852 0
M  V30 2510 N 248.321 -0.919034 -1.28029 0
M  V30 2511 C 249.568 -0.554934 -1.94748 0
M  V30 2512 C 249.896 0.90231 -1.72304 0
M  V30 2513 O 249.151 1.65767 -1.04018 0
M  V30 2514 C 249.45 -0.816855 -3.4794 0
M  V30 2515 C 249.116 -2.25448 -3.90492 0
M  V30 2516 C 247.778 -2.64752 -4.01821 0
M  V30 2517 C 250.13 -3.18977 -4.12193 0
M  V30 2518 C 247.458 -3.96727 -4.32232 0
M  V30 2519 C 249.81 -4.50523 -4.44086 0
M  V30 2520 C 248.474 -4.89673 -4.53626 0
M  V30 2521 H 247.744 -0.203065 -0.712633 0
M  V30 2522 H 250.391 -1.16136 -1.52265 0
M  V30 2523 H 248.696 -0.127677 -3.91592 0
M  V30 2524 H 250.393 -0.514238 -3.97689 0
M  V30 2525 H 246.983 -1.93952 -3.82205 0
M  V30 2526 H 251.167 -2.89817 -4.02889 0
M  V30 2527 H 246.423 -4.26754 -4.37825 0
M  V30 2528 H 250.597 -5.23005 -4.59825 0
M  V30 2529 H 248.224 -5.91969 -4.76946 0
M  V30 2530 N 249.799 1.42003 -0.683588 0
M  V30 2531 C 251.21 1.84501 -0.285736 0
M  V30 2532 C 251.561 1.57213 1.17382 0
M  V30 2533 O 250.686 1.03642 1.89966 0
M  V30 2534 C 251.281 3.34912 -0.511821 0
M  V30 2535 C 249.84 3.76025 -0.168005 0
M  V30 2536 C 248.987 2.6551 -0.799983 0
M  V30 2537 H 251.938 1.31724 -0.885119 0
M  V30 2538 H 251.959 3.79784 0.233292 0
M  V30 2539 H 251.471 3.54741 -1.57418 0
M  V30 2540 H 249.572 3.61801 0.890567 0
M  V30 2541 H 249.685 4.75141 -0.614661 0
M  V30 2542 H 248.049 2.53654 -0.230568 0
M  V30 2543 H 248.832 2.8816 -1.86597 0
M  V30 2544 N 251.277 0.427512 1.51691 0
M  V30 2545 C 252.24 -0.377132 2.26076 0
M  V30 2546 C 253.24 -0.958089 1.29141 0
M  V30 2547 O 254.43 -0.83408 1.52934 0
M  V30 2548 C 251.562 -1.53262 3.04506 0
M  V30 2549 H 252.755 0.27464 2.9864 0
M  V30 2550 H 250.308 0.180445 1.55255 0
M  V30 2551 H 251.043 -2.22072 2.36335 0
M  V30 2552 H 250.828 -1.12232 3.75694 0
M  V30 2553 H 252.318 -2.10135 3.60878 0
M  V30 2554 N 252.755 -1.56801 0.158532 0
M  V30 2555 C 254.001 -1.96781 -0.490405 0
M  V30 2556 C 254.334 -1.04397 -1.63753 0
M  V30 2557 O 253.609 -0.0885805 -1.94298 0
M  V30 2558 C 253.892 -3.4635 -0.985594 0
M  V30 2559 C 253.745 -4.49512 0.160824 0
M  V30 2560 C 255.064 -3.98697 -1.86355 0
M  V30 2561 H 252.183 -0.715482 -0.176788 0
M  V30 2562 H 254.825 -1.88451 0.242088 0
M  V30 2563 H 252.975 -3.53579 -1.60978 0
M  V30 2564 H 254.647 -4.54353 0.797537 0
M  V30 2565 H 252.89 -4.26013 0.818256 0
M  V30 2566 H 253.561 -5.51531 -0.227569 0
M  V30 2567 H 256.037 -3.94019 -1.33746 0
M  V30 2568 H 254.913 -5.03792 -2.17909 0
M  V30 2569 H 255.174 -3.41744 -2.8047 0
M  V30 2570 N 254.233 0.115231 -1.57178 0
M  V30 2571 C 255.163 1.1423 -2.03651 0
M  V30 2572 C 256.144 1.42967 -0.921655 0
M  V30 2573 O 257.329 1.53343 -1.19162 0
M  V30 2574 C 254.459 2.4675 -2.44401 0
M  V30 2575 C 253.413 2.32467 -3.59365 0
M  V30 2576 C 252.739 3.69984 -3.86026 0
M  V30 2577 C 254.039 1.78203 -4.90959 0
M  V30 2578 H 255.733 0.755749 -2.89705 0
M  V30 2579 H 253.279 0.362093 -1.39373 0
M  V30 2580 H 255.232 3.18854 -2.75517 0
M  V30 2581 H 253.956 2.87302 -1.55322 0
M  V30 2582 H 252.615 1.62811 -3.28463 0
M  V30 2583 H 252.263 4.08028 -2.94147 0
M  V30 2584 H 251.963 3.61279 -4.63412 0
M  V30 2585 H 253.487 4.43587 -4.19599 0
M  V30 2586 H 254.901 2.40128 -5.20587 0
M  V30 2587 H 253.298 1.8031 -5.72371 0
M  V30 2588 H 254.368 0.739876 -4.79222 0
M  V30 2589 N 255.711 1.52812 0.385517 0
M  V30 2590 C 256.643 1.74096 1.49074 0
M  V30 2591 C 257.656 0.621462 1.50472 0
M  V30 2592 O 258.845 0.897245 1.54311 0
M  V30 2593 C 255.945 1.78774 2.87911 0
M  V30 2594 C 255.118 3.08134 3.10439 0
M  V30 2595 C 254.177 3.04313 4.29278 0
M  V30 2596 O 253.203 3.78168 4.25415 0
M  V30 2597 N 254.405 2.23741 5.35649 0
M  V30 2598 H 257.17 2.69455 1.31202 0
M  V30 2599 H 254.731 1.51343 0.575065 0
M  V30 2600 H 256.723 1.73721 3.65518 0
M  V30 2601 H 255.293 0.907869 2.99126 0
M  V30 2602 H 254.513 3.26649 2.20667 0
M  V30 2603 H 255.801 3.93662 3.22347 0
M  V30 2604 H 255.199 1.63211 5.41645 0
M  V30 2605 H 253.756 2.24524 6.11909 0
M  V30 2606 N 257.189 -0.644168 1.43834 0
M  V30 2607 C 258.414 -1.43642 1.49605 0
M  V30 2608 C 258.839 -1.8773 0.117913 0
M  V30 2609 O 258.197 -1.57938 -0.890239 0
M  V30 2610 C 258.245 -2.6416 2.45463 0
M  V30 2611 O 257.349 -3.63538 1.94714 0
M  V30 2612 H 256.69 -0.430329 0.50568 0
M  V30 2613 H 259.22 -0.787448 1.8884 0
M  V30 2614 H 259.23 -3.11864 2.63068 0
M  V30 2615 H 257.905 -2.31414 3.45572 0
M  V30 2616 H 256.482 -3.2273 1.86814 0
M  V30 2617 N 258.668 -1.30515 -0.883378 0
M  V30 2618 C 259.893 -1.22487 -1.67367 0
M  V30 2619 C 260.318 0.208767 -1.86938 0
M  V30 2620 O 259.676 1.15015 -1.40148 0
M  V30 2621 C 259.724 -1.96041 -3.02655 0
M  V30 2622 O 258.828 -1.28859 -3.91751 0
M  V30 2623 H 258.169 -0.423573 -0.511353 0
M  V30 2624 H 260.699 -1.72362 -1.10239 0
M  V30 2625 H 260.709 -2.05124 -3.52687 0
M  V30 2626 H 259.384 -3.00307 -2.8773 0
M  V30 2627 H 257.961 -1.28141 -3.50192 0
M  V30 2628 N 260.146 1.09593 -1.13257 0
M  V30 2629 C 261.394 1.81375 -0.891492 0
M  V30 2630 C 261.715 1.86049 0.584009 0
M  V30 2631 O 260.985 1.34481 1.42449 0
M  V30 2632 H 259.565 0.671708 -0.326828 0
M  V30 2633 H 262.227 1.3256 -1.42877 0
M  V30 2634 H 261.323 2.84612 -1.28071 0
M  V30 2635 N 261.624 0.925811 1.2754 0
M  V30 2636 C 262.554 0.440748 2.29303 0
M  V30 2637 C 263.535 -0.497971 1.62648 0
M  V30 2638 O 264.72 -0.403126 1.8997 0
M  V30 2639 C 261.85 -0.309048 3.45922 0
M  V30 2640 C 260.804 0.54166 4.24559 0
M  V30 2641 C 260.13 -0.337191 5.33636 0
M  V30 2642 C 261.43 1.80516 4.90114 0
M  V30 2643 H 263.124 1.29121 2.70126 0
M  V30 2644 H 260.67 0.622323 1.29858 0
M  V30 2645 H 262.623 -0.659315 4.1621 0
M  V30 2646 H 261.347 -1.19352 3.04011 0
M  V30 2647 H 260.006 0.874609 3.56014 0
M  V30 2648 H 259.654 -1.22056 4.87966 0
M  V30 2649 H 259.354 0.228497 5.87156 0
M  V30 2650 H 260.878 -0.683072 6.06767 0
M  V30 2651 H 262.292 1.52307 5.52698 0
M  V30 2652 H 260.689 2.3142 5.53683 0
M  V30 2653 H 261.759 2.52581 4.13921 0
M  V30 2654 N 263.102 -1.41638 0.69111 0
M  V30 2655 C 264.332 -2.0533 0.228758 0
M  V30 2656 C 264.74 -1.52089 -1.12541 0
M  V30 2657 O 264.083 -0.662145 -1.71351 0
M  V30 2658 C 264.145 -3.59349 0.10407 0
M  V30 2659 C 263.809 -4.35362 1.38956 0
M  V30 2660 C 264.806 -4.64942 2.32648 0
M  V30 2661 C 262.491 -4.74714 1.64169 0
M  V30 2662 C 264.485 -5.32828 3.49818 0
M  V30 2663 C 262.172 -5.42338 2.81625 0
M  V30 2664 C 263.17 -5.71322 3.74273 0
M  V30 2665 O 262.858 -6.37554 4.89673 0
M  V30 2666 H 262.59 -0.667796 0.104997 0
M  V30 2667 H 265.144 -1.82477 0.942938 0
M  V30 2668 H 263.374 -3.80924 -0.665839 0
M  V30 2669 H 265.063 -4.04633 -0.320519 0
M  V30 2670 H 265.829 -4.35025 2.14425 0
M  V30 2671 H 261.708 -4.51538 0.929202 0
M  V30 2672 H 265.252 -5.55368 4.22152 0
M  V30 2673 H 261.149 -5.71673 2.99768 0
M  V30 2674 H 261.917 -6.56049 4.8943 0
M  V30 2675 N 264.58 -0.43555 -1.51462 0
M  V30 2676 C 265.805 0.132627 -2.06976 0
M  V30 2677 C 266.23 1.35848 -1.30104 0
M  V30 2678 O 265.588 1.78112 -0.338493 0
M  V30 2679 C 265.636 0.43523 -3.57964 0
M  V30 2680 O 264.74 1.52198 -3.83288 0
M  V30 2681 H 264.081 0.00265 -0.663995 0
M  V30 2682 H 266.611 -0.616369 -1.95095 0
M  V30 2683 H 266.621 0.686206 -4.02188 0
M  V30 2684 H 265.296 -0.460739 -4.1334 0
M  V30 2685 H 263.873 1.2611 -3.50928 0
M  V30 2686 N 266.058 1.56714 -0.166846 0
M  V30 2687 C 266.988 2.20754 0.760913 0
M  V30 2688 C 267.969 1.16178 1.24244 0
M  V30 2689 O 269.154 1.44592 1.29641 0
M  V30 2690 C 266.284 2.84478 1.99223 0
M  V30 2691 C 265.238 3.95053 1.64672 0
M  V30 2692 C 264.564 4.45805 2.95232 0
M  V30 2693 C 265.864 5.14865 0.878155 0
M  V30 2694 H 267.558 2.98537 0.22713 0
M  V30 2695 H 265.104 1.43596 0.107805 0
M  V30 2696 H 267.057 3.27951 2.64624 0
M  V30 2697 H 265.781 2.04056 2.55007 0
M  V30 2698 H 264.44 3.52228 1.01641 0
M  V30 2699 H 264.088 3.62181 3.49047 0
M  V30 2700 H 263.788 5.204 2.7287 0
M  V30 2701 H 265.312 4.91962 3.6167 0
M  V30 2702 H 266.726 5.55059 1.43466 0
M  V30 2703 H 265.123 5.95348 0.753738 0
M  V30 2704 H 266.193 4.84735 -0.126377 0
M  V30 2705 N 267.536 -0.106894 1.57237 0
M  V30 2706 C 268.761 -0.830287 1.90055 0
M  V30 2707 C 269.186 -1.72064 0.75998 0
M  V30 2708 O 268.544 -1.78982 -0.288991 0
M  V30 2709 C 268.592 -1.6295 3.21683 0
M  V30 2710 O 267.696 -2.73748 3.08441 0
M  V30 2711 H 267.037 -0.228855 0.623315 0
M  V30 2712 H 269.567 -0.085658 2.04421 0
M  V30 2713 H 269.577 -2.01621 3.54701 0
M  V30 2714 H 268.252 -0.975989 4.04286 0
M  V30 2715 H 266.829 -2.38192 2.86913 0
M  V30 2716 N 269.014 -1.53014 -0.377408 0
M  V30 2717 C 270.239 -1.72818 -1.14668 0
M  V30 2718 C 270.664 -0.450725 -1.8262 0
M  V30 2719 O 270.022 0.59439 -1.7128 0
M  V30 2720 C 270.07 -2.88627 -2.16164 0
M  V30 2721 O 269.174 -2.56409 -3.22998 0
M  V30 2722 H 268.515 -0.574301 -0.333278 0
M  V30 2723 H 271.045 -1.99853 -0.438152 0
M  V30 2724 H 271.055 -3.14455 -2.59966 0
M  V30 2725 H 269.73 -3.81294 -1.66095 0
M  V30 2726 H 268.307 -2.4136 -2.84253 0
M  V30 2727 N 270.492 0.636531 -1.44174 0
M  V30 2728 C 271.738 1.39826 -1.4689 0
M  V30 2729 C 272.071 1.93947 -0.0990585 0
M  V30 2730 O 271.346 1.73325 0.882544 0
M  V30 2731 C 271.629 2.56751 -2.5249 0
M  V30 2732 C 271.482 2.08014 -3.98811 0
M  V30 2733 C 272.801 3.58946 -2.54649 0
M  V30 2734 H 269.92 0.507075 -0.53483 0
M  V30 2735 H 272.562 0.720188 -1.75822 0
M  V30 2736 H 270.712 3.14597 -2.2795 0
M  V30 2737 H 272.384 1.5504 -4.34466 0
M  V30 2738 H 270.627 1.39242 -4.10846 0
M  V30 2739 H 271.298 2.92169 -4.68339 0
M  V30 2740 H 273.774 3.1089 -2.76563 0
M  V30 2741 H 272.65 4.38286 -3.3045 0
M  V30 2742 H 272.911 4.12655 -1.58646 0
M  V30 2743 N 271.97 1.30982 0.876444 0
M  V30 2744 C 273.216 1.20474 1.63138 0
M  V30 2745 C 273.549 -0.238096 1.92735 0
M  V30 2746 O 272.824 -1.1692 1.55435 0
M  V30 2747 C 273.107 2.04244 2.96574 0
M  V30 2748 C 272.96 3.56793 2.73896 0
M  V30 2749 C 274.279 1.88684 3.97601 0
M  V30 2750 H 271.398 0.439001 0.591985 0
M  V30 2751 H 274.04 1.60704 1.01361 0
M  V30 2752 H 272.19 1.70063 3.493 0
M  V30 2753 H 273.862 4.01077 2.27892 0
M  V30 2754 H 272.105 3.80548 2.08245 0
M  V30 2755 H 272.776 4.10706 3.68815 0
M  V30 2756 H 275.252 2.18584 3.54062 0
M  V30 2757 H 274.128 2.4961 4.88862 0
M  V30 2758 H 274.389 0.848343 4.33884 0
M  V30 2759 N 273.449 -1.08991 1.13837 0
M  V30 2760 C 274.677 -1.85011 0.926202 0
M  V30 2761 C 275.092 -1.8135 -0.525127 0
M  V30 2762 O 274.449 -1.21287 -1.36366 0
M  V30 2763 C 274.5 -3.32802 1.41155 0
M  V30 2764 O 274.221 -3.36444 2.80601 0
M  V30 2765 C 275.722 -4.25649 1.23847 0
M  V30 2766 H 272.942 -0.584249 0.32999 0
M  V30 2767 H 275.486 -1.37688 1.51202 0
M  V30 2768 H 273.641 -3.77536 0.868631 0
M  V30 2769 H 274.055 -4.28657 3.02248 0
M  V30 2770 H 275.529 -5.27485 1.62675 0
M  V30 2771 H 276.006 -4.38828 0.18065 0
M  V30 2772 H 276.612 -3.86735 1.76964 0
M  V30 2773 N 274.927 -0.932562 -1.27047 0
M  V30 2774 C 276.173 -0.576412 -1.94436 0
M  V30 2775 C 276.506 0.880891 -1.73072 0
M  V30 2776 O 275.781 1.62905 -1.06264 0
M  V30 2777 C 276.064 -0.909031 -3.48437 0
M  V30 2778 C 275.917 -2.42044 -3.79123 0
M  V30 2779 C 277.236 -0.418341 -4.38107 0
M  V30 2780 H 274.355 -0.210888 -0.706184 0
M  V30 2781 H 276.997 -1.16522 -1.50075 0
M  V30 2782 H 275.147 -0.407947 -3.86352 0
M  V30 2783 H 276.819 -2.99359 -3.50973 0
M  V30 2784 H 275.062 -2.86758 -3.25503 0
M  V30 2785 H 275.733 -2.6037 -4.86736 0
M  V30 2786 H 278.209 -0.847856 -4.0737 0
M  V30 2787 H 277.085 -0.679981 -5.44672 0
M  V30 2788 H 277.346 0.681642 -4.36814 0
M  V30 2789 N 276.405 1.4127 -0.698611 0
M  V30 2790 C 277.816 1.84187 -0.305289 0
M  V30 2791 C 278.167 1.58449 1.15708 0
M  V30 2792 O 277.292 1.05651 1.88856 0
M  V30 2793 C 277.887 3.3435 -0.547314 0
M  V30 2794 C 276.446 3.75826 -0.207878 0
M  V30 2795 C 275.593 2.64647 -0.828099 0
M  V30 2796 H 278.544 1.30778 -0.89904 0
M  V30 2797 H 278.565 3.8001 0.192998 0
M  V30 2798 H 278.077 3.53051 -1.61172 0
M  V30 2799 H 276.178 3.62725 0.852143 0
M  V30 2800 H 276.291 4.74462 -0.665021 0
M  V30 2801 H 274.655 2.53395 -0.257458 0
M  V30 2802 H 275.438 2.86165 -1.89643 0
M  V30 2803 N 277.883 0.443576 1.51229 0
M  V30 2804 C 279.108 -0.121648 2.07043 0
M  V30 2805 C 279.533 -1.35156 1.30823 0
M  V30 2806 O 278.891 -1.7793 0.347934 0
M  V30 2807 C 278.939 -0.41624 3.5819 0
M  V30 2808 O 278.043 -1.50163 3.8409 0
M  V30 2809 H 277.384 0.000871367 0.663999 0
M  V30 2810 H 279.914 0.626706 1.94765 0
M  V30 2811 H 279.924 -0.664867 4.02546 0
M  V30 2812 H 278.599 0.482653 4.1309 0
M  V30 2813 H 277.176 -1.24248 3.51592 0
M  V30 2814 N 279.361 -1.56624 0.175154 0
M  V30 2815 C 280.586 -2.01813 -0.478137 0
M  V30 2816 C 281.011 -1.05457 -1.55757 0
M  V30 2817 O 280.369 -0.0347439 -1.81267 0
M  V30 2818 C 280.417 -3.45581 -1.02987 0
M  V30 2819 O 279.521 -3.52305 -2.14371 0
M  V30 2820 H 278.862 -0.65413 -0.114059 0
M  V30 2821 H 281.392 -2.02673 0.280173 0
M  V30 2822 H 281.402 -3.84965 -1.35151 0
M  V30 2823 H 280.077 -4.1521 -0.239556 0
M  V30 2824 H 278.654 -3.24783 -1.83222 0
M  V30 2825 N 280.839 0.0985539 -1.57292 0
M  V30 2826 C 282.064 0.820196 -1.90493 0
M  V30 2827 C 282.489 1.71658 -0.769094 0
M  V30 2828 O 281.847 1.79133 0.279495 0
M  V30 2829 C 281.895 1.61242 -3.22542 0
M  V30 2830 O 280.999 2.72108 -3.09888 0
M  V30 2831 H 280.34 0.225547 -0.62452 0
M  V30 2832 H 282.87 0.0748159 -2.04463 0
M  V30 2833 H 282.88 1.99737 -3.55766 0
M  V30 2834 H 281.555 0.954535 -4.04798 0
M  V30 2835 H 280.132 2.36667 -2.88172 0
M  V30 2836 N 282.317 1.53212 0.369288 0
M  V30 2837 C 283.247 1.82365 1.45826 0
M  V30 2838 C 284.228 0.676907 1.56051 0
M  V30 2839 O 285.413 0.926401 1.70679 0
M  V30 2840 C 282.543 2.01023 2.83208 0
M  V30 2841 C 281.497 3.1678 2.8781 0
M  V30 2842 C 280.823 3.20724 4.27832 0
M  V30 2843 C 282.123 4.55447 2.55667 0
M  V30 2844 H 283.817 2.73559 1.21678 0
M  V30 2845 H 281.363 1.3163 0.583911 0
M  V30 2846 H 283.316 2.20001 3.59413 0
M  V30 2847 H 282.04 1.06536 3.08736 0
M  V30 2848 H 280.699 2.97616 2.14056 0
M  V30 2849 H 280.347 2.23882 4.50429 0
M  V30 2850 H 280.047 3.98496 4.31827 0
M  V30 2851 H 281.571 3.41881 5.05915 0
M  V30 2852 H 282.985 4.74611 3.21586 0
M  V30 2853 H 281.382 5.35432 2.70984 0
M  V30 2854 H 282.452 4.60812 1.5093 0
M  V30 2855 N 283.795 -0.628877 1.44509 0
M  V30 2856 C 285.043 -1.38565 1.4712 0
M  V30 2857 C 285.364 -1.94712 0.105899 0
M  V30 2858 O 284.634 -1.75912 -0.862079 0
M  V30 2859 H 283.214 -0.514333 0.541729 0
M  V30 2860 H 285.876 -0.740018 1.80305 0
M  V30 2861 H 284.972 -2.21583 2.19789 0
M  V30 2862 N 285.273 -1.31445 -0.869486 0
M  V30 2863 C 286.501 -1.24122 -1.65534 0
M  V30 2864 C 286.916 0.193387 -1.87807 0
M  V30 2865 O 286.273 1.12557 -1.43656 0
M  V30 2866 C 286.324 -1.98229 -3.02304 0
M  V30 2867 O 286.045 -3.3609 -2.81026 0
M  V30 2868 C 287.546 -1.97751 -3.96749 0
M  V30 2869 H 284.766 -0.428868 -0.516055 0
M  V30 2870 H 287.31 -1.73328 -1.08525 0
M  V30 2871 H 285.465 -1.52782 -3.56001 0
M  V30 2872 H 285.879 -3.7383 -3.67902 0
M  V30 2873 H 287.353 -2.54114 -4.90031 0
M  V30 2874 H 287.83 -0.960137 -4.28577 0
M  V30 2875 H 288.436 -2.43079 -3.48988 0
M  V30 2876 N 286.751 1.08385 -1.14413 0
M  V30 2877 C 287.698 2.15311 -0.831265 0
M  V30 2878 C 288.668 1.64751 0.211292 0
M  V30 2879 O 289.853 1.90627 0.0811674 0
M  V30 2880 C 286.993 3.43658 -0.315143 0
M  V30 2881 C 286.106 4.08064 -1.41802 0
M  V30 2882 C 285.241 5.24207 -0.859126 0
M  V30 2883 C 284.28 5.80554 -1.93967 0
M  V30 2884 N 283.417 6.88042 -1.39793 0
M  V30 2885 H 288.257 2.41415 -1.74708 0
M  V30 2886 H 285.794 1.18474 -0.871909 0
M  V30 2887 H 287.752 4.172 0.00230884 0
M  V30 2888 H 286.382 3.17839 0.56378 0
M  V30 2889 H 285.434 3.3228 -1.85187 0
M  V30 2890 H 286.746 4.45962 -2.23427 0
M  V30 2891 H 285.9 6.04689 -0.49359 0
M  V30 2892 H 284.639 4.87699 -0.011932 0
M  V30 2893 H 283.644 4.98725 -2.31415 0
M  V30 2894 H 284.869 6.19121 -2.79046 0
M  V30 2895 H 282.815 6.53493 -0.572919 0
M  V30 2896 H 282.732 7.24767 -2.15054 0
M  V30 2897 H 284 7.72255 -1.0603 0
M  V30 2898 N 288.23 0.939286 1.26551 0
M  V30 2899 C 289.458 0.602536 1.97932 0
M  V30 2900 C 289.873 -0.82206 1.69964 0
M  V30 2901 O 289.23 -1.54789 0.966784 0
M  V30 2902 C 289.281 0.832946 3.51773 0
M  V30 2903 O 289.002 2.20151 3.78768 0
M  V30 2904 C 290.503 0.506483 4.40397 0
M  V30 2905 H 287.723 0.227248 0.631347 0
M  V30 2906 H 290.267 1.25948 1.61113 0
M  V30 2907 H 288.422 0.222644 3.8676 0
M  V30 2908 H 288.836 2.26013 4.73306 0
M  V30 2909 H 290.31 0.718333 5.47306 0
M  V30 2910 H 290.787 -0.558451 4.35635 0
M  V30 2911 H 291.393 1.09543 4.10951 0
M  V30 2912 N 289.708 -1.40897 0.706093 0
M  V30 2913 C 290.938 -2.05075 0.250523 0
M  V30 2914 C 291.346 -1.53275 -1.10921 0
M  V30 2915 O 290.689 -0.680281 -1.7064 0
M  V30 2916 C 290.751 -3.59219 0.142178 0
M  V30 2917 C 290.415 -4.33864 1.43566 0
M  V30 2918 C 291.412 -4.62448 2.37566 0
M  V30 2919 C 289.097 -4.72946 1.69195 0
M  V30 2920 C 291.091 -5.29088 3.5545 0
M  V30 2921 C 288.778 -5.3932 2.87362 0
M  V30 2922 C 289.776 -5.6732 3.80312 0
M  V30 2923 O 289.464 -6.32325 4.96408 0
M  V30 2924 H 289.196 -0.666645 0.112074 0
M  V30 2925 H 291.75 -1.81467 0.962239 0
M  V30 2926 H 289.98 -3.81609 -0.6254 0
M  V30 2927 H 291.669 -4.0495 -0.277584 0
M  V30 2928 H 292.435 -4.32727 2.19027 0
M  V30 2929 H 288.314 -4.50527 0.977042 0
M  V30 2930 H 291.858 -5.50859 4.28018 0
M  V30 2931 H 287.755 -5.68461 3.05814 0
M  V30 2932 H 288.523 -6.50821 4.9636 0
M  V30 2933 N 291.186 -0.45159 -1.50991 0
M  V30 2934 C 292.414 0.108334 -2.06616 0
M  V30 2935 C 292.829 1.35224 -1.31757 0
M  V30 2936 O 292.186 1.78475 -0.381174 0
M  V30 2937 C 292.237 0.41619 -3.59096 0
M  V30 2938 O 291.958 -0.778361 -4.3113 0
M  V30 2939 C 293.459 1.02523 -4.31282 0
M  V30 2940 H 290.679 0.00159995 -0.670998 0
M  V30 2941 H 293.223 -0.634771 -1.94399 0
M  V30 2942 H 291.378 1.10921 -3.71181 0
M  V30 2943 H 291.792 -0.511181 -5.22003 0
M  V30 2944 H 293.266 1.19053 -5.39009 0
M  V30 2945 H 293.743 2.01013 -3.905 0
M  V30 2946 H 294.349 0.371173 -4.23677 0
M  V30 2947 N 292.664 1.56529 -0.183458 0
M  V30 2948 C 293.904 1.99141 0.460667 0
M  V30 2949 C 294.268 1.06736 1.59597 0
M  V30 2950 O 295.469 1.38538 2.30349 0
M  V30 2951 C 293.74 3.45358 0.919939 0
M  V30 2952 S 295.299 4.09999 1.56354 0
M  V30 2953 H 292.117 0.695479 0.147748 0
M  V30 2954 H 294.719 1.93429 -0.283782 0
M  V30 2955 H 293.423 4.10315 0.0834208 0
M  V30 2956 H 292.954 3.54862 1.69814 0
M  V30 2957 H 294.969 4.06046 2.85203 0
M  V30 2958 N 294.142 -0.090211 1.57342 0
M  V30 2959 C 295.09 -1.12792 2.03422 0
M  V30 2960 C 296.084 -1.41182 0.936166 0
M  V30 2961 O 297.29 -1.40805 1.12133 0
M  V30 2962 H 293.665 -0.380986 0.648347 0
M  V30 2963 H 295.636 -0.71299 2.89757 0
M  V30 2964 C 294.385 -2.43855 2.47851 0
M  V30 2965 H 293.708 -2.22855 3.31927 0
M  V30 2966 H 295.148 -3.14955 2.83865 0
M  V30 2967 C 293.607 -3.08503 1.3538 0
M  V30 2968 O 294.137 -3.95805 0.685641 0
M  V30 2969 N 292.343 -2.68831 1.10355 0
M  V30 2970 H 291.89 -1.97929 1.64869 0
M  V30 2971 H 291.848 -3.12412 0.353031 0
M  V30 2972 N 295.62 -1.53406 -0.361157 0
M  V30 2973 C 296.866 -1.70054 -1.10496 0
M  V30 2974 C 297.199 -0.453278 -1.88836 0
M  V30 2975 O 296.474 0.5495 -1.86576 0
M  V30 2976 C 296.757 -2.95317 -2.06058 0
M  V30 2977 C 296.61 -4.3021 -1.31298 0
M  V30 2978 C 297.929 -3.16193 -3.06121 0
M  V30 2979 H 295.048 -0.618799 -0.400321 0
M  V30 2980 H 297.69 -1.86052 -0.385318 0
M  V30 2981 H 295.84 -2.81809 -2.67425 0
M  V30 2982 H 297.512 -4.55538 -0.726807 0
M  V30 2983 H 295.755 -4.29421 -0.614853 0
M  V30 2984 H 296.426 -5.14 -2.01265 0
M  V30 2985 H 298.902 -3.28916 -2.5486 0
M  V30 2986 H 297.778 -4.05266 -3.70204 0
M  V30 2987 H 298.039 -2.31676 -3.76535 0
M  V30 2988 N 297.098 0.621204 -1.44841 0
M  V30 2989 C 298.375 1.38 -1.38619 0
M  V30 2990 C 298.755 2.11041 -0.0498935 0
M  V30 2991 O 298.103 2.06992 0.967816 0
M  V30 2992 C 298.313 2.33817 -2.59096 0
M  V30 2993 C 299.661 2.96844 -3.03593 0
M  V30 2994 O 300.685 2.44141 -2.59371 0
M  V30 2995 O 299.544 3.92476 -3.80296 0
M  V30 2996 H 296.638 0.61811 -0.549426 0
M  V30 2997 H 299.184 0.645429 -1.56947 0
M  V30 2998 H 297.956 1.79012 -3.47952 0
M  V30 2999 H 297.579 3.14676 -2.43032 0
M  V30 3000 N 298.576 1.31904 0.862503 0
M  V30 3001 C 299.526 1.16772 1.95827 0
M  V30 3002 C 300.51 0.0767098 1.60717 0
M  V30 3003 O 301.702 0.302407 1.74398 0
M  V30 3004 C 298.831 0.884858 3.317 0
M  V30 3005 C 297.917 2.0172 3.73055 0
M  V30 3006 N 298.308 3.265 3.86305 0
M  V30 3007 C 296.606 1.91861 4.02623 0
M  V30 3008 C 297.307 4.00616 4.2176 0
M  V30 3009 N 296.283 3.28847 4.32852 0
M  V30 3010 H 300.085 2.11382 2.04193 0
M  V30 3011 H 297.599 1.2357 1.05377 0
M  V30 3012 H 299.596 0.757419 4.09962 0
M  V30 3013 H 298.256 -0.0529448 3.24657 0
M  V30 3014 H 299.267 3.61529 3.70833 0
M  V30 3015 H 295.944 1.05593 4.03926 0
M  V30 3016 H 297.334 5.08182 4.39546 0
M  V30 3017 N 300.054 -1.07777 1.14986 0
M  V30 3018 C 301.001 -2.14867 0.842672 0
M  V30 3019 C 301.971 -1.6486 -0.202552 0
M  V30 3020 O 303.156 -1.90668 -0.0710568 0
M  V30 3021 C 300.296 -3.43486 0.333363 0
M  V30 3022 C 299.409 -4.07306 1.43965 0
M  V30 3023 C 298.544 -5.23744 0.886914 0
M  V30 3024 C 297.583 -5.79517 1.97043 0
M  V30 3025 N 296.72 -6.87291 1.4344 0
M  V30 3026 H 301.56 -2.40485 1.75986 0
M  V30 3027 H 299.097 -1.1801 0.878179 0
M  V30 3028 H 301.055 -4.17195 0.0198163 0
M  V30 3029 H 299.685 -3.18133 -0.546916 0
M  V30 3030 H 298.737 -3.31293 1.86946 0
M  V30 3031 H 300.049 -4.44771 2.25788 0
M  V30 3032 H 299.203 -6.04419 0.525651 0
M  V30 3033 H 297.942 -4.87685 0.0377957 0
M  V30 3034 H 296.947 -4.97491 2.34057 0
M  V30 3035 H 298.172 -6.17632 2.82325 0
M  V30 3036 H 296.118 -6.5318 0.607567 0
M  V30 3037 H 296.035 -7.23617 2.18895 0
M  V30 3038 H 297.303 -7.71682 1.10124 0
M  V30 3039 N 301.532 -0.945985 -1.26051 0
M  V30 3040 C 302.943 -0.638096 -1.75457 0
M  V30 3041 C 303.294 0.846672 -1.76991 0
M  V30 3042 O 302.419 1.66262 -1.38513 0
M  V30 3043 C 303.014 -1.15157 -3.18629 0
M  V30 3044 C 301.573 -0.894004 -3.65629 0
M  V30 3045 C 300.72 -1.29967 -2.44957 0
M  V30 3046 H 303.671 -1.12376 -1.1206 0
M  V30 3047 H 303.692 -0.507615 -3.77099 0
M  V30 3048 H 303.204 -2.23222 -3.1748 0
M  V30 3049 H 301.305 0.172057 -3.72203 0
M  V30 3050 H 301.418 -1.52439 -4.54202 0
M  V30 3051 H 299.782 -0.718078 -2.44368 0
M  V30 3052 H 300.565 -2.38935 -2.46505 0
M  V30 3053 N 303.011 1.40521 -0.713556 0
M  V30 3054 C 304.236 2.05759 -0.26035 0
M  V30 3055 C 304.661 1.53403 1.08854 0
M  V30 3056 O 304.019 0.668535 1.68524 0
M  V30 3057 C 304.067 3.59745 -0.248122 0
M  V30 3058 O 303.171 4.05123 0.77131 0
M  V30 3059 H 302.512 0.652564 -0.122703 0
M  V30 3060 H 305.042 1.79958 -0.973467 0
M  V30 3061 H 305.052 4.07911 -0.0851129 0
M  V30 3062 H 303.727 3.97218 -1.2325 0
M  V30 3063 H 302.304 3.68422 0.57619 0
M  V30 3064 N 304.489 0.459591 1.5075 0
M  V30 3065 C 305.437 -0.354678 2.2988 0
M  V30 3066 C 306.431 -1.00086 1.36672 0
M  V30 3067 O 307.637 -0.933277 1.53915 0
M  V30 3068 H 304.012 -0.13321 0.740107 0
M  V30 3069 H 305.983 0.333269 2.96533 0
M  V30 3070 C 304.732 -1.43073 3.169 0
M  V30 3071 H 304.055 -0.942882 3.88523 0
M  V30 3072 H 305.495 -1.97328 3.75284 0
M  V30 3073 C 303.954 -2.42633 2.33732 0
M  V30 3074 O 304.484 -3.47658 2.01238 0
M  V30 3075 N 302.69 -2.14066 1.9653 0
M  V30 3076 H 302.237 -1.28685 2.23155 0
M  V30 3077 H 302.195 -2.80917 1.41185 0
M  V30 3078 N 305.967 -1.56429 0.191757 0
M  V30 3079 C 307.195 -2.01867 -0.453586 0
M  V30 3080 C 307.61 -1.07191 -1.5542 0
M  V30 3081 O 306.967 -0.0762108 -1.82341 0
M  V30 3082 C 307.018 -3.47017 -1.013 0
M  V30 3083 O 306.739 -4.38078 0.0437005 0
M  V30 3084 C 308.24 -4.07956 -1.73456 0
M  V30 3085 H 305.46 -0.661211 -0.114199 0
M  V30 3086 H 308.004 -2.02295 0.299483 0
M  V30 3087 H 306.159 -3.47298 -1.71647 0
M  V30 3088 H 306.573 -5.23178 -0.372212 0
M  V30 3089 H 308.047 -5.1138 -2.07833 0
M  V30 3090 H 308.524 -3.51222 -2.63704 0
M  V30 3091 H 309.13 -4.11437 -1.07702 0
M  V30 3092 N 307.445 0.0818655 -1.57387 0
M  V30 3093 C 308.392 1.09834 -2.0299 0
M  V30 3094 C 309.362 1.39043 -0.908639 0
M  V30 3095 O 310.547 1.50282 -1.17559 0
M  V30 3096 C 307.687 2.40971 -2.47037 0
M  V30 3097 C 306.8 2.18379 -3.7274 0
M  V30 3098 C 305.935 3.43008 -4.0561 0
M  V30 3099 C 304.974 3.15736 -5.24383 0
M  V30 3100 N 304.111 4.32667 -5.52941 0
M  V30 3101 H 308.951 0.702472 -2.89602 0
M  V30 3102 H 306.488 0.33531 -1.43227 0
M  V30 3103 H 308.446 3.1752 -2.70623 0
M  V30 3104 H 307.076 2.78379 -1.63417 0
M  V30 3105 H 306.128 1.32569 -3.56552 0
M  V30 3106 H 307.44 1.94227 -4.59431 0
M  V30 3107 H 306.594 4.27958 -4.30043 0
M  V30 3108 H 305.333 3.70225 -3.17466 0
M  V30 3109 H 304.338 2.2918 -4.99757 0
M  V30 3110 H 305.563 2.8985 -6.14136 0
M  V30 3111 H 303.509 4.59935 -4.67756 0
M  V30 3112 H 303.426 4.11753 -6.34031 0
M  V30 3113 H 304.694 5.18644 -5.81918 0
M  V30 3114 N 308.923 1.53595 0.353017 0
M  V30 3115 C 310.169 1.70638 1.09593 0
M  V30 3116 C 310.502 0.463286 1.88593 0
M  V30 3117 O 309.777 -0.539597 1.86865 0
M  V30 3118 C 310.06 2.96406 2.04489 0
M  V30 3119 C 309.913 4.30901 1.29014 0
M  V30 3120 C 311.232 3.17812 3.0444 0
M  V30 3121 H 308.351 0.620913 0.397034 0
M  V30 3122 H 310.993 1.86254 0.375446 0
M  V30 3123 H 309.143 2.83223 2.65927 0
M  V30 3124 H 310.815 4.55917 0.702638 0
M  V30 3125 H 309.058 4.29741 0.592071 0
M  V30 3126 H 309.729 5.1506 1.98537 0
M  V30 3127 H 312.205 3.30263 2.53112 0
M  V30 3128 H 311.081 4.07223 3.6805 0
M  V30 3129 H 311.342 2.33669 3.75301 0
M  V30 3130 N 310.401 -0.613514 1.45168 0
M  V30 3131 C 311.678 -1.37263 1.39349 0
M  V30 3132 C 312.058 -2.11012 0.0610848 0
M  V30 3133 O 311.406 -2.07502 -0.956825 0
M  V30 3134 C 311.616 -2.3244 2.60332 0
M  V30 3135 C 312.964 -2.9523 3.05163 0
M  V30 3136 O 313.988 -2.42762 2.60663 0
M  V30 3137 O 312.847 -3.90454 3.82372 0
M  V30 3138 H 309.941 -0.615188 0.552696 0
M  V30 3139 H 312.487 -0.637097 1.57287 0
M  V30 3140 H 311.259 -1.77164 3.48896 0
M  V30 3141 H 310.882 -3.13383 2.44698 0
M  V30 3142 N 311.879 -1.3236 -0.855495 0
M  V30 3143 C 312.826 -1.21225 -1.964 0
M  V30 3144 C 313.796 -0.0946204 -1.6583 0
M  V30 3145 O 314.981 -0.27002 -1.8888 0
M  V30 3146 C 312.121 -0.940419 -3.32039 0
M  V30 3147 C 311.234 -2.14276 -3.75113 0
M  V30 3148 C 310.369 -1.80648 -4.9954 0
M  V30 3149 C 309.408 -2.97208 -5.35102 0
M  V30 3150 N 308.545 -2.63678 -6.50706 0
M  V30 3151 H 313.385 -2.16042 -2.05255 0
M  V30 3152 H 310.922 -1.07451 -1.00463 0
M  V30 3153 H 312.88 -0.763311 -4.10158 0
M  V30 3154 H 311.51 -0.0290413 -3.22787 0
M  V30 3155 H 310.562 -2.43017 -2.92655 0
M  V30 3156 H 311.874 -3.01468 -3.97389 0
M  V30 3157 H 311.028 -1.59484 -5.85363 0
M  V30 3158 H 309.767 -0.906678 -4.79198 0
M  V30 3159 H 308.772 -3.19004 -4.47791 0
M  V30 3160 H 309.997 -3.87918 -5.57401 0
M  V30 3161 H 307.943 -1.76238 -6.31883 0
M  V30 3162 H 307.86 -3.444 -6.72997 0
M  V30 3163 H 309.128 -2.45942 -7.39684 0
M  V30 3164 N 313.357 1.07166 -1.15556 0
M  V30 3165 C 314.773 1.31899 -0.898603 0
M  V30 3166 C 314.973 1.96333 0.453383 0
M  V30 3167 O 314.029 2.22438 1.19489 0
M  V30 3168 C 315.342 2.20826 -2.04099 0
M  V30 3169 C 316.89 2.34269 -2.07574 0
M  V30 3170 C 317.365 3.26546 -3.21141 0
M  V30 3171 N 318.856 3.34127 -3.20801 0
M  V30 3172 C 319.591 4.05595 -4.05315 0
M  V30 3173 N 319.087 4.79661 -4.99897 0
M  V30 3174 N 320.88 4.01555 -3.93332 0
M  V30 3175 H 313.031 0.637302 -2.02613 0
M  V30 3176 H 315.294 0.343468 -0.883591 0
M  V30 3177 H 315 1.80744 -3.01703 0
M  V30 3178 H 314.874 3.21364 -1.97496 0
M  V30 3179 H 317.261 2.73603 -1.10568 0
M  V30 3180 H 317.342 1.33429 -2.18244 0
M  V30 3181 H 316.986 2.87931 -4.184 0
M  V30 3182 H 316.916 4.27345 -3.07708 0
M  V30 3183 H 319.407 2.81336 -2.52306 0
M  V30 3184 H 319.72 5.31694 -5.60822 0
M  V30 3185 H 318.065 4.78671 -5.03884 0
M  V30 3186 H 321.256 3.42806 -3.18751 0
M  V30 3187 H 321.429 4.56987 -4.5942 0
M  V30 3188 N 314.835 0.952656 1.25548 0
M  V30 3189 C 316.081 0.607272 1.93494 0
M  V30 3190 C 316.414 -0.853245 1.74452 0
M  V30 3191 O 315.689 -1.61194 1.08843 0
M  V30 3192 C 315.972 0.96435 3.46947 0
M  V30 3193 C 315.825 2.48045 3.75225 0
M  V30 3194 C 317.144 0.487987 4.37386 0
M  V30 3195 H 314.263 0.222096 0.702739 0
M  V30 3196 H 316.905 1.18895 1.48203 0
M  V30 3197 H 315.055 0.469361 3.85654 0
M  V30 3198 H 316.727 3.04905 3.46166 0
M  V30 3199 H 314.97 2.919 3.209 0
M  V30 3200 H 315.641 2.6808 4.82532 0
M  V30 3201 H 318.117 0.912558 4.0597 0
M  V30 3202 H 316.993 0.766547 5.43521 0
M  V30 3203 H 317.254 -0.612063 4.37843 0
M  V30 3204 N 316.313 -1.40141 0.720998 0
M  V30 3205 C 317.223 -2.34486 0.0731031 0
M  V30 3206 C 318.239 -1.57587 -0.737723 0
M  V30 3207 O 319.415 -1.89949 -0.669429 0
M  V30 3208 C 316.48 -3.36528 -0.833656 0
M  V30 3209 C 315.541 -4.29298 -0.0121673 0
M  V30 3210 C 314.774 -5.26466 -0.875742 0
M  V30 3211 O 314.997 -5.29745 -2.11485 0
M  V30 3212 O 313.931 -6.01092 -0.31185 0
M  V30 3213 H 317.757 -2.9152 0.851444 0
M  V30 3214 H 315.342 -1.41427 0.481527 0
M  V30 3215 H 317.224 -3.99093 -1.35289 0
M  V30 3216 H 315.899 -2.81899 -1.59105 0
M  V30 3217 H 314.806 -3.70001 0.552262 0
M  V30 3218 H 316.139 -4.87094 0.707129 0
M  V30 3219 N 317.792 -0.46758 -1.50504 0
M  V30 3220 C 319.017 0.0886943 -2.0721 0
M  V30 3221 C 319.442 1.33057 -1.32956 0
M  V30 3222 O 318.8 1.77354 -0.376197 0
M  V30 3223 C 318.848 0.359202 -3.58806 0
M  V30 3224 O 317.952 1.44034 -3.8643 0
M  V30 3225 H 317.293 -0.0114349 -0.663902 0
M  V30 3226 H 319.823 -0.657613 -1.93744 0
M  V30 3227 H 319.833 0.600742 -4.03553 0
M  V30 3228 H 318.508 -0.548311 -4.1227 0
M  V30 3229 H 317.085 1.18638 -3.53524 0
M  V30 3230 N 319.27 1.56325 -0.20005 0
M  V30 3231 C 320.217 2.1932 0.718833 0
M  V30 3232 C 321.187 1.14198 1.20615 0
M  V30 3233 O 322.372 1.42469 1.26914 0
M  V30 3234 C 319.512 2.86041 1.93066 0
M  V30 3235 C 318.625 4.05702 1.48425 0
M  V30 3236 C 317.76 4.60266 2.65196 0
M  V30 3237 C 316.799 5.72273 2.17185 0
M  V30 3238 N 315.936 6.21221 3.27152 0
M  V30 3239 H 320.776 2.97486 0.17489 0
M  V30 3240 H 318.313 1.46911 0.0745794 0
M  V30 3241 H 320.271 3.22897 2.64184 0
M  V30 3242 H 318.901 2.1043 2.44783 0
M  V30 3243 H 317.953 3.74475 0.668755 0
M  V30 3244 H 319.265 4.86699 1.09204 0
M  V30 3245 H 318.419 4.99453 3.4443 0
M  V30 3246 H 317.158 3.78386 3.07693 0
M  V30 3247 H 316.163 5.3261 1.36407 0
M  V30 3248 H 317.388 6.55974 1.75713 0
M  V30 3249 H 315.334 5.42263 3.69171 0
M  V30 3250 H 315.251 6.97284 2.92116 0
M  V30 3251 H 316.519 6.65063 4.06585 0
M  V30 3252 N 320.748 -0.0735177 1.57428 0
M  V30 3253 C 321.978 -0.78483 1.91112 0
M  V30 3254 C 322.386 -1.71729 0.7941 0
M  V30 3255 O 321.729 -1.82105 -0.241542 0
M  V30 3256 C 321.791 -1.63346 3.20247 0
M  V30 3257 C 321.455 -0.870557 4.48632 0
M  V30 3258 C 322.452 -0.19058 5.19551 0
M  V30 3259 C 320.137 -0.838242 4.95256 0
M  V30 3260 C 322.131 0.511503 6.35344 0
M  V30 3261 C 319.818 -0.132386 6.10957 0
M  V30 3262 C 320.816 0.541288 6.80852 0
M  V30 3263 O 320.504 1.23578 7.94345 0
M  V30 3264 H 320.236 -0.228408 0.636244 0
M  V30 3265 H 322.79 -0.0486039 2.05342 0
M  V30 3266 H 321.02 -2.41245 3.02222 0
M  V30 3267 H 322.709 -2.22329 3.39595 0
M  V30 3268 H 323.475 -0.206864 4.84559 0
M  V30 3269 H 319.354 -1.35206 4.40727 0
M  V30 3270 H 322.898 1.03789 6.89836 0
M  V30 3271 H 318.795 -0.114023 6.45399 0
M  V30 3272 H 319.563 1.14487 8.10454 0
M  V30 3273 N 322.226 -1.5378 -0.344866 0
M  V30 3274 C 323.474 -1.70625 -1.08311 0
M  V30 3275 C 323.795 -0.471447 -1.89215 0
M  V30 3276 O 323.065 0.514616 -1.8902 0
M  V30 3277 H 321.645 -0.629058 -0.402859 0
M  V30 3278 H 324.307 -1.9103 -0.386459 0
M  V30 3279 H 323.403 -2.57656 -1.76124 0
M  V30 3280 N 323.704 0.605807 -1.45491 0
M  V30 3281 C 325.115 1.18777 -1.44045 0
M  V30 3282 C 325.466 1.95471 -0.169001 0
M  V30 3283 O 324.591 2.0374 0.729324 0
M  V30 3284 C 325.186 2.16064 -2.60963 0
M  V30 3285 C 323.745 2.69633 -2.62631 0
M  V30 3286 C 322.892 1.45072 -2.36325 0
M  V30 3287 H 325.843 0.395017 -1.53705 0
M  V30 3288 H 325.864 2.9913 -2.35163 0
M  V30 3289 H 325.376 1.60217 -3.53486 0
M  V30 3290 H 323.477 3.29414 -1.74119 0
M  V30 3291 H 323.59 3.13944 -3.61906 0
M  V30 3292 H 321.954 1.74089 -1.85917 0
M  V30 3293 H 322.737 0.910899 -3.30995 0
M  V30 3294 N 325.182 1.32811 0.848464 0
M  V30 3295 C 326.593 1.21315 1.41914 0
M  V30 3296 C 326.944 -0.171847 1.95446 0
M  V30 3297 O 326.069 -1.07093 1.88043 0
M  V30 3298 C 326.664 2.19631 2.57968 0
M  V30 3299 C 325.223 2.12003 3.11017 0
M  V30 3300 C 324.37 2.07651 1.83783 0
M  V30 3301 H 327.321 1.44549 0.655071 0
M  V30 3302 H 327.342 1.79845 3.35315 0
M  V30 3303 H 326.854 3.20423 2.18976 0
M  V30 3304 H 324.955 1.14481 3.54577 0
M  V30 3305 H 325.068 3.02111 3.71841 0
M  V30 3306 H 323.432 1.52983 2.03638 0
M  V30 3307 H 324.215 3.10235 1.47 0
M  V30 3308 N 326.66 -1.06551 1.16123 0
M  V30 3309 C 327.9 -1.80889 0.951766 0
M  V30 3310 C 328.264 -1.85062 -0.511465 0
M  V30 3311 O 329.465 -2.55353 -0.83954 0
M  V30 3312 C 327.736 -3.21609 1.55893 0
M  V30 3313 S 329.295 -4.12593 1.49373 0
M  V30 3314 H 326.113 -0.623156 0.342341 0
M  V30 3315 H 328.715 -1.27943 1.47821 0
M  V30 3316 H 327.419 -3.16165 2.61664 0
M  V30 3317 H 326.95 -3.79631 1.0317 0
M  V30 3318 H 328.965 -4.93753 0.492196 0
M  V30 3319 N 328.138 -0.959301 -1.25041 0
M  V30 3320 C 329.549 -0.65667 -1.74771 0
M  V30 3321 C 329.9 0.827852 -1.77879 0
M  V30 3322 O 329.025 1.64783 -1.40269 0
M  V30 3323 C 329.62 -1.1853 -3.1739 0
M  V30 3324 C 328.179 -0.932734 -3.6466 0
M  V30 3325 C 327.326 -1.32558 -2.43564 0
M  V30 3326 H 330.277 -1.13558 -1.10862 0
M  V30 3327 H 330.298 -0.547582 -3.76539 0
M  V30 3328 H 329.81 -2.26576 -3.15095 0
M  V30 3329 H 327.911 0.13257 -3.72364 0
M  V30 3330 H 328.024 -1.57248 -4.52559 0
M  V30 3331 H 326.388 -0.743956 -2.43593 0
M  V30 3332 H 327.171 -2.41537 -2.43957 0
M  V30 3333 N 329.616 1.39756 -0.72842 0
M  V30 3334 C 331.027 1.83498 -0.344289 0
M  V30 3335 C 331.378 1.60868 1.12321 0
M  V30 3336 O 330.503 1.09634 1.86573 0
M  V30 3337 C 331.098 3.33114 -0.618112 0
M  V30 3338 C 329.657 3.753 -0.287549 0
M  V30 3339 C 328.804 2.62831 -0.884048 0
M  V30 3340 H 331.755 1.28842 -0.926578 0
M  V30 3341 H 331.776 3.80334 0.112349 0
M  V30 3342 H 331.288 3.49553 -1.68625 0
M  V30 3343 H 329.389 3.64451 0.775012 0
M  V30 3344 H 329.502 4.72945 -0.765512 0
M  V30 3345 H 327.866 2.52792 -0.311149 0
M  V30 3346 H 328.649 2.82078 -1.95671 0
M  V30 3347 N 331.094 0.475555 1.50254 0
M  V30 3348 C 332.334 -0.0765802 2.04256 0
M  V30 3349 C 332.698 -1.36587 1.34937 0
M  V30 3350 O 333.899 -2.00066 1.79519 0
M  V30 3351 C 332.17 -0.251668 3.56513 0
M  V30 3352 S 333.729 -0.761716 4.32138 0
M  V30 3353 H 330.547 -0.0138456 0.710865 0
M  V30 3354 H 333.149 0.643714 1.84598 0
M  V30 3355 H 331.853 0.692404 4.04517 0
M  V30 3356 H 331.384 -0.997946 3.80532 0
M  V30 3357 H 333.399 -2.03451 4.52573 0
M  V30 3358 N 332.573 -1.56217 0.208337 0
M  V30 3359 C 333.984 -1.84243 -0.301904 0
M  V30 3360 C 334.335 -1.12939 -1.60434 0
M  V30 3361 O 333.46 -0.39461 -2.12772 0
M  V30 3362 C 334.055 -3.34231 -0.554543 0
M  V30 3363 C 332.614 -3.62621 -1.00912 0
M  V30 3364 C 331.761 -2.77224 -0.064933 0
M  V30 3365 H 334.712 -1.52712 0.431833 0
M  V30 3366 H 334.733 -3.5372 -1.40223 0
M  V30 3367 H 334.245 -3.86099 0.393561 0
M  V30 3368 H 332.346 -3.16197 -1.97104 0
M  V30 3369 H 332.459 -4.7071 -0.892674 0
M  V30 3370 H 330.823 -2.48256 -0.56929 0
M  V30 3371 H 331.606 -3.31887 0.877851 0
M  V30 3372 N 334.051 0.0651679 -1.57465 0
M  V30 3373 C 335.014 1.06117 -2.03155 0
M  V30 3374 C 336.014 1.31204 -0.929632 0
M  V30 3375 O 337.204 1.26813 -1.19432 0
M  V30 3376 C 334.336 2.4032 -2.41783 0
M  V30 3377 H 335.529 0.667231 -2.92383 0
M  V30 3378 H 333.082 0.311075 -1.53173 0
M  V30 3379 H 333.817 2.84532 -1.55601 0
M  V30 3380 H 333.602 2.23451 -3.22199 0
M  V30 3381 H 335.092 3.11898 -2.77685 0
M  V30 3382 N 335.529 1.53961 0.336706 0
M  V30 3383 C 336.94 1.62914 0.911925 0
M  V30 3384 C 337.291 0.514795 1.89326 0
M  V30 3385 O 336.416 -0.354395 2.13478 0
M  V30 3386 C 337.011 2.95304 1.66076 0
M  V30 3387 C 335.57 3.06496 2.18489 0
M  V30 3388 C 334.717 2.58403 1.00613 0
M  V30 3389 H 337.668 1.58285 0.114649 0
M  V30 3390 H 337.689 2.84727 2.5241 0
M  V30 3391 H 337.201 3.76387 0.946276 0
M  V30 3392 H 335.302 2.3006 2.93092 0
M  V30 3393 H 335.415 4.1208 2.44391 0
M  V30 3394 H 333.779 2.13977 1.38152 0
M  V30 3395 H 334.562 3.41932 0.306179 0
M  V30 3396 N 337.007 -0.598083 1.45811 0
M  V30 3397 C 337.917 -1.73632 1.57763 0
M  V30 3398 C 338.933 -1.67763 0.461676 0
M  V30 3399 O 340.109 -1.87949 0.723685 0
M  V30 3400 C 337.174 -3.10114 1.55018 0
M  V30 3401 C 336.235 -3.27364 2.77726 0
M  V30 3402 C 335.468 -4.57334 2.75102 0
M  V30 3403 O 335.691 -5.40258 1.8297 0
M  V30 3404 O 334.625 -4.77502 3.66437 0
M  V30 3405 H 338.451 -1.66498 2.53992 0
M  V30 3406 H 336.036 -0.763308 1.28429 0
M  V30 3407 H 337.918 -3.9141 1.56129 0
M  V30 3408 H 336.593 -3.17718 0.619431 0
M  V30 3409 H 335.5 -2.45619 2.82174 0
M  V30 3410 H 336.833 -3.24641 3.69958 0
M  V30 3411 N 338.485 -1.33259 -0.841409 0
M  V30 3412 C 339.732 -1.24572 -1.5965 0
M  V30 3413 C 340.06 0.189137 -1.93578 0
M  V30 3414 O 339.315 1.14566 -1.5866 0
M  V30 3415 C 339.614 -2.06381 -2.9179 0
M  V30 3416 C 339.28 -3.556 -2.77235 0
M  V30 3417 C 337.942 -3.96282 -2.72973 0
M  V30 3418 C 340.294 -4.50433 -2.62221 0
M  V30 3419 C 337.622 -5.30017 -2.51592 0
M  V30 3420 C 339.974 -5.84327 -2.42374 0
M  V30 3421 C 338.638 -6.24194 -2.36512 0
M  V30 3422 H 337.908 -0.455842 -0.5842 0
M  V30 3423 H 340.555 -1.6482 -0.975016 0
M  V30 3424 H 338.86 -1.58903 -3.5813 0
M  V30 3425 H 340.557 -1.97019 -3.49263 0
M  V30 3426 H 337.147 -3.23298 -2.81384 0
M  V30 3427 H 341.331 -4.19914 -2.64549 0
M  V30 3428 H 336.587 -5.59947 -2.45499 0
M  V30 3429 H 340.761 -6.57414 -2.29739 0
M  V30 3430 H 338.388 -7.27759 -2.19706 0
M  V30 3431 N 339.963 1.05934 -1.16686 0
M  V30 3432 C 340.893 2.1546 -0.899949 0
M  V30 3433 C 341.874 1.69391 0.155154 0
M  V30 3434 O 343.059 1.94199 0.00648693 0
M  V30 3435 C 340.189 3.44939 -0.404241 0
M  V30 3436 C 339.143 4.04536 -1.39767 0
M  V30 3437 C 338.469 5.29268 -0.760216 0
M  V30 3438 C 339.769 4.42893 -2.76845 0
M  V30 3439 H 341.463 2.38046 -1.81588 0
M  V30 3440 H 339.009 1.14404 -0.874514 0
M  V30 3441 H 340.962 4.20901 -0.204971 0
M  V30 3442 H 339.686 3.21983 0.547206 0
M  V30 3443 H 338.345 3.30635 -1.58355 0
M  V30 3444 H 337.993 5.02611 0.197831 0
M  V30 3445 H 337.693 5.70101 -1.42332 0
M  V30 3446 H 339.217 6.07924 -0.57105 0
M  V30 3447 H 340.631 5.09921 -2.62019 0
M  V30 3448 H 339.028 4.94721 -3.39663 0
M  V30 3449 H 340.098 3.53584 -3.31823 0
M  V30 3450 N 341.441 0.965919 1.2453 0
M  V30 3451 C 342.689 0.625593 1.92174 0
M  V30 3452 C 343.01 -0.841652 1.75901 0
M  V30 3453 O 342.28 -1.60061 1.12948 0
M  V30 3454 H 340.86 0.228388 0.71123 0
M  V30 3455 H 343.522 1.2266 1.51461 0
M  V30 3456 H 342.618 0.864653 2.99884 0
M  V30 3457 N 342.919 -1.39368 0.735821 0
M  V30 3458 C 344.167 -2.00101 0.283562 0
M  V30 3459 C 344.488 -1.5868 -1.13338 0
M  V30 3460 O 343.758 -0.835423 -1.77193 0
M  V30 3461 H 342.338 -0.740024 0.101851 0
M  V30 3462 H 345 -1.70404 0.945962 0
M  V30 3463 H 344.096 -3.10323 0.332604 0
M  V30 3464 N 344.397 -0.483516 -1.5 0
M  V30 3465 C 345.808 -0.0314176 -1.86674 0
M  V30 3466 C 346.159 1.37728 -1.39733 0
M  V30 3467 O 345.284 2.02327 -0.767635 0
M  V30 3468 C 345.879 -0.0502376 -3.38763 0
M  V30 3469 C 344.438 0.346442 -3.74802 0
M  V30 3470 C 343.585 -0.430366 -2.7394 0
M  V30 3471 H 346.536 -0.697182 -1.42566 0
M  V30 3472 H 346.557 0.749116 -3.73053 0
M  V30 3473 H 346.069 -1.07563 -3.72897 0
M  V30 3474 H 344.17 1.37572 -3.46273 0
M  V30 3475 H 344.283 0.0391486 -4.79084 0
M  V30 3476 H 342.647 0.117557 -2.54429 0
M  V30 3477 H 343.43 -1.4555 -3.10918 0
M  V30 3478 N 345.875 1.56104 -0.216619 0
M  V30 3479 C 347.1 2.0301 0.424462 0
M  V30 3480 C 347.525 1.0955 1.52907 0
M  V30 3481 O 346.883 0.0827914 1.81111 0
M  V30 3482 C 346.931 3.4819 0.937883 0
M  V30 3483 O 346.035 3.57865 2.04955 0
M  V30 3484 H 345.376 0.656925 0.0966755 0
M  V30 3485 H 347.906 2.01859 -0.33381 0
M  V30 3486 H 347.916 3.88413 1.24897 0
M  V30 3487 H 346.591 4.15699 0.129387 0
M  V30 3488 H 345.168 3.29527 1.74546 0
M  V30 3489 N 347.353 -0.0568162 1.57498 0
M  V30 3490 C 348.599 -0.75422 1.88253 0
M  V30 3491 C 348.932 -1.76461 0.810865 0
M  V30 3492 O 348.207 -1.93691 -0.177259 0
M  V30 3493 C 348.49 -1.44878 3.2967 0
M  V30 3494 C 348.343 -0.453789 4.47505 0
M  V30 3495 C 349.662 -2.38994 3.69554 0
M  V30 3496 H 346.781 -0.272724 0.684683 0
M  V30 3497 H 349.423 -0.0172113 1.89992 0
M  V30 3498 H 347.573 -2.077 3.28318 0
M  V30 3499 H 349.245 0.170371 4.60985 0
M  V30 3500 H 347.488 0.229552 4.33192 0
M  V30 3501 H 348.159 -0.977699 5.43273 0
M  V30 3502 H 350.635 -1.86239 3.72095 0
M  V30 3503 H 349.511 -2.84587 4.69363 0
M  V30 3504 H 349.772 -3.24461 3.00296 0
M  V30 3505 N 348.832 -1.54138 -0.328536 0
M  V30 3506 C 350.079 -1.72105 -1.06706 0
M  V30 3507 C 350.407 -0.492111 -1.88171 0
M  V30 3508 O 349.662 0.526153 -1.88494 0
M  V30 3509 C 349.961 -2.9457 -2.02393 0
M  V30 3510 C 349.627 -4.29544 -1.37122 0
M  V30 3511 C 348.289 -4.6624 -1.19052 0
M  V30 3512 C 350.641 -5.1333 -0.902331 0
M  V30 3513 C 347.969 -5.84325 -0.527331 0
M  V30 3514 C 350.321 -6.32094 -0.252988 0
M  V30 3515 C 348.985 -6.67473 -0.0600901 0
M  V30 3516 H 348.255 -0.629775 -0.390466 0
M  V30 3517 H 350.902 -1.88372 -0.34473 0
M  V30 3518 H 349.207 -2.72969 -2.81061 0
M  V30 3519 H 350.904 -3.05665 -2.59557 0
M  V30 3520 H 347.494 -4.0067 -1.52188 0
M  V30 3521 H 351.678 -4.855 -1.02974 0
M  V30 3522 H 346.934 -6.103 -0.366634 0
M  V30 3523 H 351.108 -6.96299 0.118366 0
M  V30 3524 H 348.735 -7.58832 0.455828 0
M  V30 3525 N 350.31 0.590341 -1.46126 0
M  V30 3526 C 351.24 1.71032 -1.58966 0
M  V30 3527 C 352.221 1.64302 -0.440335 0
M  V30 3528 O 353.406 1.82436 -0.665634 0
M  V30 3529 C 350.536 3.09665 -1.57241 0
M  V30 3530 C 349.49 3.31221 -2.71066 0
M  V30 3531 C 348.816 4.70303 -2.54399 0
M  V30 3532 C 350.116 3.19796 -4.1295 0
M  V30 3533 H 351.81 1.60543 -2.52718 0
M  V30 3534 H 349.356 0.770933 -1.21625 0
M  V30 3535 H 351.309 3.87831 -1.64819 0
M  V30 3536 H 350.033 3.21036 -0.600289 0
M  V30 3537 H 348.692 2.55452 -2.62944 0
M  V30 3538 H 348.34 4.78429 -1.55288 0
M  V30 3539 H 348.04 4.85679 -3.30741 0
M  V30 3540 H 349.564 5.50647 -2.63857 0
M  V30 3541 H 350.978 3.87815 -4.22223 0
M  V30 3542 H 349.375 3.46696 -4.89818 0
M  V30 3543 H 350.445 2.16983 -4.33643 0
M  V30 3544 N 351.788 1.33704 0.83433 0
M  V30 3545 C 353.035 1.25417 1.58987 0
M  V30 3546 C 353.363 -0.178869 1.93676 0
M  V30 3547 O 352.618 -1.13723 1.59265 0
M  V30 3548 C 352.917 2.07926 2.90692 0
M  V30 3549 C 352.583 3.57066 2.75345 0
M  V30 3550 C 351.245 3.97724 2.70867 0
M  V30 3551 C 353.597 4.51817 2.59828 0
M  V30 3552 C 350.925 5.31344 2.48778 0
M  V30 3553 C 353.277 5.85604 2.39272 0
M  V30 3554 C 351.941 6.25439 2.33199 0
M  V30 3555 H 351.211 0.458934 0.581774 0
M  V30 3556 H 353.858 1.65335 0.966261 0
M  V30 3557 H 352.163 1.608 3.57282 0
M  V30 3558 H 353.86 1.98868 3.48213 0
M  V30 3559 H 350.45 3.24785 2.79665 0
M  V30 3560 H 354.634 4.21311 2.62319 0
M  V30 3561 H 349.89 5.61241 2.42526 0
M  V30 3562 H 354.064 6.58623 2.2625 0
M  V30 3563 H 351.691 7.28914 2.15843 0
M  V30 3564 N 353.266 -1.05314 1.17247 0
M  V30 3565 C 354.677 -1.59753 0.96623 0
M  V30 3566 C 355.028 -1.9005 -0.487378 0
M  V30 3567 O 354.153 -1.68126 -1.36245 0
M  V30 3568 C 354.748 -2.90249 1.74759 0
M  V30 3569 C 353.307 -3.41352 1.58606 0
M  V30 3570 C 352.454 -2.15103 1.75002 0
M  V30 3571 H 355.405 -0.881406 1.31973 0
M  V30 3572 H 355.426 -3.60097 1.22925 0
M  V30 3573 H 354.938 -2.68166 2.8055 0
M  V30 3574 H 353.039 -3.68474 0.552985 0
M  V30 3575 H 353.152 -4.16019 2.37624 0
M  V30 3576 H 351.516 -2.25804 1.17833 0
M  V30 3577 H 352.299 -1.95491 2.82202 0
M  V30 3578 N 354.744 -0.972509 -1.24016 0
M  V30 3579 C 356.155 -0.67517 -1.74064 0
M  V30 3580 C 356.506 0.808939 -1.78747 0
M  V30 3581 O 355.631 1.63286 -1.42009 0
M  V30 3582 C 356.226 -1.21889 -3.16115 0
M  V30 3583 C 354.785 -0.971358 -3.6365 0
M  V30 3584 C 353.932 -1.35134 -2.42145 0
M  V30 3585 H 356.883 -1.14727 -1.09651 0
M  V30 3586 H 356.904 -0.587489 -3.75937 0
M  V30 3587 H 356.416 -2.29906 -3.12674 0
M  V30 3588 H 354.517 0.0930686 -3.72484 0
M  V30 3589 H 354.63 -1.62039 -4.50866 0
M  V30 3590 H 352.994 -0.769751 -2.4279 0
M  V30 3591 H 353.777 -2.4411 -2.41381 0
M  V30 3592 N 356.222 1.38976 -0.743202 0
M  V30 3593 C 357.169 2.30544 -0.10861 0
M  V30 3594 C 358.139 1.49642 0.720869 0
M  V30 3595 O 359.324 1.78304 0.679142 0
M  V30 3596 C 356.464 3.36018 0.786496 0
M  V30 3597 C 355.577 4.31963 -0.0564849 0
M  V30 3598 C 354.712 5.24506 0.840657 0
M  V30 3599 C 353.751 6.121 -0.00658363 0
M  V30 3600 N 352.888 6.96973 0.846943 0
M  V30 3601 H 357.728 2.8424 -0.895088 0
M  V30 3602 H 355.265 1.3995 -0.453048 0
M  V30 3603 H 357.223 3.95768 1.31999 0
M  V30 3604 H 355.853 2.83758 1.53887 0
M  V30 3605 H 354.905 3.73763 -0.707492 0
M  V30 3606 H 356.217 4.93703 -0.711229 0
M  V30 3607 H 355.371 5.89322 1.4417 0
M  V30 3608 H 354.11 4.63107 1.52916 0
M  V30 3609 H 353.115 5.46289 -0.620366 0
M  V30 3610 H 354.34 6.75565 -0.691992 0
M  V30 3611 H 352.286 6.38133 1.52059 0
M  V30 3612 H 352.203 7.5559 0.248864 0
M  V30 3613 H 353.471 7.6621 1.43328 0
M  V30 3614 N 357.7 0.491464 1.49741 0
M  V30 3615 C 359.111 0.0413169 1.86654 0
M  V30 3616 C 359.462 -1.36985 1.40462 0
M  V30 3617 O 358.587 -2.01917 0.778354 0
M  V30 3618 C 359.182 0.0682023 3.38731 0
M  V30 3619 C 357.741 -0.32656 3.74981 0
M  V30 3620 C 356.888 0.444888 2.73708 0
M  V30 3621 H 359.839 0.704733 1.42194 0
M  V30 3622 H 359.86 -0.729322 3.73445 0
M  V30 3623 H 359.372 1.09539 3.72321 0
M  V30 3624 H 357.473 -1.35734 3.46997 0
M  V30 3625 H 357.586 -0.013741 4.79098 0
M  V30 3626 H 355.95 -0.104062 2.54487 0
M  V30 3627 H 356.733 1.47197 3.10142 0
M  V30 3628 N 359.178 -1.55987 0.224894 0
M  V30 3629 C 360.125 -2.20436 -0.68385 0
M  V30 3630 C 361.095 -1.16102 -1.18783 0
M  V30 3631 O 362.28 -1.4447 -1.24632 0
M  V30 3632 C 359.42 -2.89076 -1.88491 0
M  V30 3633 C 358.533 -4.08012 -1.41951 0
M  V30 3634 C 357.668 -4.64426 -2.5784 0
M  V30 3635 C 356.707 -5.75656 -2.08053 0
M  V30 3636 N 355.844 -6.26347 -3.17227 0
M  V30 3637 H 360.684 -2.97727 -0.12754 0
M  V30 3638 H 358.221 -1.47011 -0.0511978 0
M  V30 3639 H 360.179 -3.27059 -2.59014 0
M  V30 3640 H 358.809 -2.14298 -2.41405 0
M  V30 3641 H 357.861 -3.75492 -0.609095 0
M  V30 3642 H 359.173 -4.88375 -1.01447 0
M  V30 3643 H 358.327 -5.04869 -3.3644 0
M  V30 3644 H 357.066 -3.83233 -3.01635 0
M  V30 3645 H 356.071 -5.34712 -1.27916 0
M  V30 3646 H 357.296 -6.58686 -1.65255 0
M  V30 3647 H 355.242 -5.48067 -3.60497 0
M  V30 3648 H 355.159 -7.01843 -2.80986 0
M  V30 3649 H 356.427 -6.71447 -3.95953 0
M  V30 3650 N 360.656 0.0484629 -1.57525 0
M  V30 3651 C 361.933 0.777447 -1.79486 0
M  V30 3652 C 362.313 1.94597 -0.818251 0
M  V30 3653 O 361.661 2.28047 0.143767 0
M  V30 3654 C 361.871 1.22864 -3.26658 0
M  V30 3655 C 363.219 1.65251 -3.91123 0
M  V30 3656 O 364.243 1.32372 -3.3069 0
M  V30 3657 O 363.102 2.26207 -4.97486 0
M  V30 3658 H 360.196 0.374357 -0.737419 0
M  V30 3659 H 362.742 0.0267359 -1.69679 0
M  V30 3660 H 361.514 0.393589 -3.89316 0
M  V30 3661 H 361.137 2.03996 -3.41279 0
M  V30 3662 N 362.134 1.5431 0.320358 0
M  V30 3663 C 363.362 1.76636 1.07738 0
M  V30 3664 C 363.777 0.51649 1.81598 0
M  V30 3665 O 363.134 -0.512942 1.75143 0
M  V30 3666 C 363.185 2.96158 2.07299 0
M  V30 3667 O 362.906 4.16313 1.36438 0
M  V30 3668 C 364.407 3.3072 2.95193 0
M  V30 3669 H 361.627 0.589597 0.320339 0
M  V30 3670 H 364.171 2.01207 0.36551 0
M  V30 3671 H 362.326 2.73851 2.74016 0
M  V30 3672 H 362.74 4.83565 2.03138 0
M  V30 3673 H 364.214 4.17643 3.60941 0
M  V30 3674 H 364.691 2.48026 3.62463 0
M  V30 3675 H 365.297 3.55117 2.34034 0
M  V30 3676 N 363.613 -0.582584 1.46437 0
M  V30 3677 C 364.543 -1.70187 1.59871 0
M  V30 3678 C 365.524 -1.64066 0.449042 0
M  V30 3679 O 366.709 -1.82081 0.6753 0
M  V30 3680 C 363.839 -3.08827 1.58881 0
M  V30 3681 C 362.793 -3.29779 2.72819 0
M  V30 3682 C 362.119 -4.68947 2.5689 0
M  V30 3683 C 363.419 -3.17601 4.1464 0
M  V30 3684 H 365.113 -1.592 2.53566 0
M  V30 3685 H 362.659 -0.764472 1.22032 0
M  V30 3686 H 364.612 -3.86951 1.66873 0
M  V30 3687 H 363.336 -3.20713 0.617306 0
M  V30 3688 H 361.995 -2.54054 2.64296 0
M  V30 3689 H 361.643 -4.77599 1.57823 0
M  V30 3690 H 361.343 -4.83919 3.33312 0
M  V30 3691 H 362.867 -5.4924 2.66773 0
M  V30 3692 H 364.281 -3.8557 4.24274 0
M  V30 3693 H 362.678 -3.44094 4.9165 0
M  V30 3694 H 363.748 -2.14681 4.34788 0
M  V30 3695 N 365.091 -1.34144 -0.827227 0
M  V30 3696 C 366.024 -1.19707 -1.94282 0
M  V30 3697 C 367.002 -0.0897256 -1.62352 0
M  V30 3698 O 368.186 -0.254095 -1.8678 0
M  V30 3699 C 365.313 -0.838646 -3.28153 0
M  V30 3700 C 364.359 -1.95514 -3.79047 0
M  V30 3701 S 365.192 -3.56793 -3.99323 0
M  V30 3702 C 366.348 -3.22983 -5.36127 0
M  V30 3703 H 366.581 -2.1414 -2.06231 0
M  V30 3704 H 364.114 -1.19121 -0.982321 0
M  V30 3705 H 366.072 -0.638637 -4.05502 0
M  V30 3706 H 364.733 0.0872776 -3.13979 0
M  V30 3707 H 363.926 -1.658 -4.75948 0
M  V30 3708 H 363.528 -2.11241 -3.08631 0
M  V30 3709 H 365.82 -2.74531 -6.19386 0
M  V30 3710 H 366.763 -4.19008 -5.70822 0
M  V30 3711 H 367.171 -2.59276 -5.01434 0
M  V30 3712 N 366.569 1.04691 -1.17803 0
M  V30 3713 C 367.818 1.77176 -0.963931 0
M  V30 3714 C 368.131 1.88888 0.508015 0
M  V30 3715 O 369.337 2.58164 0.840465 0
M  V30 3716 C 367.793 3.18518 -1.67555 0
M  V30 3717 C 367.401 3.14919 -3.18637 0
M  V30 3718 C 369.145 3.95424 -1.54402 0
M  V30 3719 C 367.052 4.51081 -3.82466 0
M  V30 3720 H 365.982 0.664116 -0.357023 0
M  V30 3721 H 368.633 1.17303 -1.4111 0
M  V30 3722 H 367.015 3.78748 -1.15613 0
M  V30 3723 H 368.189 2.64178 -3.77554 0
M  V30 3724 H 366.504 2.51512 -3.31859 0
M  V30 3725 H 369.101 4.96106 -1.99456 0
M  V30 3726 H 369.444 4.13343 -0.495329 0
M  V30 3727 H 369.977 3.41754 -2.0359 0
M  V30 3728 H 366.716 4.38368 -4.87354 0
M  V30 3729 H 366.236 5.01951 -3.28337 0
M  V30 3730 H 367.915 5.2001 -3.84965 0
M  V30 3731 N 368.047 0.979072 1.23499 0
M  V30 3732 C 369.272 0.664845 1.96455 0
M  V30 3733 C 369.697 -0.761287 1.72006 0
M  V30 3734 O 369.055 -1.51837 0.990713 0
M  V30 3735 C 369.103 0.959479 3.47601 0
M  V30 3736 O 368.207 0.0508168 4.12369 0
M  V30 3737 H 367.548 0.250185 0.615064 0
M  V30 3738 H 370.078 1.31231 1.5697 0
M  V30 3739 H 370.088 0.895642 3.98048 0
M  V30 3740 H 368.763 1.99876 3.64723 0
M  V30 3741 H 367.34 0.16895 3.72517 0
M  V30 3742 N 369.525 -1.3858 0.750561 0
M  V30 3743 C 370.941 -1.53759 0.427824 0
M  V30 3744 C 371.141 -1.71401 -1.05943 0
M  V30 3745 O 370.197 -1.72331 -1.84549 0
M  V30 3746 C 371.51 -2.74642 1.22443 0
M  V30 3747 C 373.058 -2.88489 1.2142 0
M  V30 3748 C 373.533 -4.12329 1.9937 0
M  V30 3749 N 375.024 -4.194 1.96616 0
M  V30 3750 C 375.759 -5.14209 2.53727 0
M  V30 3751 N 375.255 -6.14709 3.19539 0
M  V30 3752 N 377.048 -5.06537 2.43673 0
M  V30 3753 H 369.199 -1.25377 1.71447 0
M  V30 3754 H 371.462 -0.608844 0.726645 0
M  V30 3755 H 371.168 -2.68 2.27747 0
M  V30 3756 H 371.042 -3.67745 0.839273 0
M  V30 3757 H 373.429 -2.94614 0.169232 0
M  V30 3758 H 373.51 -1.96406 1.63885 0
M  V30 3759 H 373.154 -4.06966 3.03877 0
M  V30 3760 H 373.084 -5.03486 1.54302 0
M  V30 3761 H 375.575 -3.47421 1.48684 0
M  V30 3762 H 375.888 -6.8354 3.60545 0
M  V30 3763 H 374.233 -6.1505 3.23633 0
M  V30 3764 H 377.424 -4.26962 1.91889 0
M  V30 3765 H 377.597 -5.80245 2.88479 0
M  V30 3766 N 371.003 -0.499398 -1.49478 0
M  V30 3767 C 372.231 0.0425456 -2.06856 0
M  V30 3768 C 372.646 1.30964 -1.35992 0
M  V30 3769 O 372.003 1.77172 -0.437762 0
M  V30 3770 C 372.054 0.301735 -3.60239 0
M  V30 3771 O 371.775 -0.915127 -4.28436 0
M  V30 3772 C 373.276 0.887499 -4.34325 0
M  V30 3773 H 370.496 -0.0197482 -0.670709 0
M  V30 3774 H 373.04 -0.696297 -1.92281 0
M  V30 3775 H 371.195 0.990556 -3.74522 0
M  V30 3776 H 371.609 -0.676993 -5.20113 0
M  V30 3777 H 373.083 1.01845 -5.42523 0
M  V30 3778 H 373.56 1.88488 -3.96698 0
M  V30 3779 H 374.166 0.236196 -4.24644 0
M  V30 3780 N 372.481 1.55866 -0.233164 0
M  V30 3781 C 373.892 1.847 0.272554 0
M  V30 3782 C 374.243 1.15477 1.58617 0
M  V30 3783 O 373.368 0.42841 2.12117 0
M  V30 3784 C 373.963 3.35071 0.501299 0
M  V30 3785 C 372.522 3.6418 0.951304 0
M  V30 3786 C 371.669 2.77292 0.0208209 0
M  V30 3787 H 374.62 1.52005 -0.456074 0
M  V30 3788 H 374.641 3.55906 1.34577 0
M  V30 3789 H 374.153 3.85424 -0.454936 0
M  V30 3790 H 372.254 3.19293 1.92049 0
M  V30 3791 H 372.367 4.72071 0.817675 0
M  V30 3792 H 370.731 2.49131 0.529723 0
M  V30 3793 H 371.514 3.30448 -0.93054 0
M  V30 3794 N 373.959 -0.0401083 1.57549 0
M  V30 3795 C 374.869 -1.06133 2.0922 0
M  V30 3796 C 375.885 -1.40356 1.0284 0
M  V30 3797 O 377.061 -1.49897 1.34509 0
M  V30 3798 C 374.126 -2.34658 2.55218 0
M  V30 3799 C 373.187 -2.07117 3.76033 0
M  V30 3800 C 372.42 -3.29514 4.19829 0
M  V30 3801 O 372.643 -4.39794 3.63232 0
M  V30 3802 O 371.577 -3.15863 5.12362 0
M  V30 3803 H 375.403 -0.652244 2.96613 0
M  V30 3804 H 372.988 -0.256368 1.47184 0
M  V30 3805 H 374.87 -3.10239 2.85184 0
M  V30 3806 H 373.545 -2.74883 1.70941 0
M  V30 3807 H 372.452 -1.29139 3.51104 0
M  V30 3808 H 373.785 -1.71754 4.61261 0
M  V30 3809 N 375.437 -1.54477 -0.31217 0
M  V30 3810 C 376.683 -1.73483 -1.0503 0
M  V30 3811 C 377.016 -0.513125 -1.87298 0
M  V30 3812 O 376.291 0.489864 -1.8823 0
M  V30 3813 C 376.574 -3.01723 -1.96558 0
M  V30 3814 C 376.427 -4.3417 -1.17545 0
M  V30 3815 C 377.746 -3.25772 -2.95907 0
M  V30 3816 H 374.865 -0.631222 -0.380432 0
M  V30 3817 H 377.507 -1.87184 -0.325932 0
M  V30 3818 H 375.657 -2.90174 -2.58324 0
M  V30 3819 H 377.329 -4.5762 -0.581513 0
M  V30 3820 H 375.572 -4.31159 -0.477925 0
M  V30 3821 H 376.243 -5.20143 -1.84811 0
M  V30 3822 H 378.719 -3.36857 -2.44267 0
M  V30 3823 H 377.595 -4.16838 -3.57123 0
M  V30 3824 H 377.856 -2.43537 -3.68974 0
M  V30 3825 N 376.915 0.57481 -1.46744 0
M  V30 3826 C 378.143 1.35856 -1.56047 0
M  V30 3827 C 378.558 1.87691 -0.204365 0
M  V30 3828 O 377.915 1.64049 0.79963 0
M  V30 3829 C 377.966 2.54066 -2.57163 0
M  V30 3830 O 377.687 2.04377 -3.87507 0
M  V30 3831 C 379.188 3.46514 -2.76483 0
M  V30 3832 H 376.408 0.414754 -0.527466 0
M  V30 3833 H 378.952 0.698035 -1.92218 0
M  V30 3834 H 377.107 3.16092 -2.23974 0
M  V30 3835 H 377.521 2.81419 -4.4261 0
M  V30 3836 H 378.995 4.25919 -3.51137 0
M  V30 3837 H 379.472 3.98951 -1.83671 0
M  V30 3838 H 380.078 2.90318 -3.10799 0
M  V30 3839 N 378.394 1.34581 0.820102 0
M  V30 3840 C 379.634 1.28448 1.58998 0
M  V30 3841 C 379.998 -0.142883 1.91468 0
M  V30 3842 O 381.199 -0.328422 2.66786 0
M  V30 3843 C 379.47 2.153 2.85273 0
M  V30 3844 S 381.029 2.26548 3.75794 0
M  V30 3845 H 377.847 0.456685 0.54494 0
M  V30 3846 H 380.449 1.69825 0.968487 0
M  V30 3847 H 379.153 3.18008 2.59421 0
M  V30 3848 H 378.684 1.7483 3.52417 0
M  V30 3849 H 380.699 1.44034 4.74835 0
M  V30 3850 N 379.872 -1.04064 1.18357 0
M  V30 3851 C 381.118 -1.77528 0.980397 0
M  V30 3852 C 381.451 -1.87948 -0.48879 0
M  V30 3853 O 380.726 -1.3876 -1.36293 0
M  V30 3854 C 381.009 -3.20797 1.63588 0
M  V30 3855 C 380.862 -3.1832 3.17793 0
M  V30 3856 C 382.181 -4.18911 1.34914 0
M  V30 3857 H 379.3 -0.644443 0.357578 0
M  V30 3858 H 381.942 -1.2156 1.46024 0
M  V30 3859 H 380.092 -3.68586 1.22788 0
M  V30 3860 H 381.764 -2.78521 3.67728 0
M  V30 3861 H 380.007 -2.56351 3.49952 0
M  V30 3862 H 380.678 -4.19489 3.58794 0
M  V30 3863 H 383.154 -3.7967 1.70265 0
M  V30 3864 H 382.03 -5.17374 1.83346 0
M  V30 3865 H 382.291 -4.41262 0.272027 0
M  V30 3866 N 381.35 -0.985608 -1.22978 0
M  V30 3867 C 382.596 -0.65836 -1.91816 0
M  V30 3868 C 382.929 0.806692 -1.76653 0
M  V30 3869 O 382.204 1.58252 -1.13078 0
M  V30 3870 C 382.487 -1.056 -3.44268 0
M  V30 3871 C 382.34 -2.57906 -3.68516 0
M  V30 3872 C 383.659 -0.603781 -4.35939 0
M  V30 3873 H 380.778 -0.24065 -0.696604 0
M  V30 3874 H 383.42 -1.22783 -1.44998 0
M  V30 3875 H 381.57 -0.571445 -3.84274 0
M  V30 3876 H 383.242 -3.13976 -3.3796 0
M  V30 3877 H 381.485 -3.00305 -3.13048 0
M  V30 3878 H 382.156 -2.80779 -4.75255 0
M  V30 3879 H 384.632 -1.01987 -4.03408 0
M  V30 3880 H 383.508 -0.910383 -5.41298 0
M  V30 3881 H 383.769 0.495761 -4.39312 0
M  V30 3882 N 382.828 1.3818 -0.7579 0
M  V30 3883 C 384.074 2.00316 -0.316453 0
M  V30 3884 C 384.407 1.60026 1.10025 0
M  V30 3885 O 383.682 0.839835 1.75434 0
M  V30 3886 C 383.965 3.57349 -0.444245 0
M  V30 3887 C 383.818 4.07591 -1.90236 0
M  V30 3888 C 385.137 4.3981 0.1598 0
M  V30 3889 H 382.256 0.727741 -0.116459 0
M  V30 3890 H 384.898 1.6406 -0.958352 0
M  V30 3891 H 383.048 3.88365 0.102233 0
M  V30 3892 H 384.72 3.87199 -2.50748 0
M  V30 3893 H 382.963 3.60297 -2.41595 0
M  V30 3894 H 383.634 5.16677 -1.94291 0
M  V30 3895 H 386.11 4.14971 -0.306314 0
M  V30 3896 H 384.986 5.48885 0.0401675 0
M  V30 3897 H 385.247 4.24102 1.24859 0
M  V30 3898 N 384.306 0.507319 1.49211 0
M  V30 3899 C 385.583 -0.0982702 1.95353 0
M  V30 3900 C 385.963 -1.53516 1.449 0
M  V30 3901 O 385.311 -2.18594 0.66551 0
M  V30 3902 C 385.521 -0.00440283 3.49 0
M  V30 3903 C 386.869 -0.175147 4.24239 0
M  V30 3904 O 387.893 -0.0792891 3.56112 0
M  V30 3905 O 386.752 -0.37276 5.45227 0
M  V30 3906 H 383.846 -0.0918236 0.821887 0
M  V30 3907 H 386.392 0.570307 1.5983 0
M  V30 3908 H 385.164 0.997402 3.78375 0
M  V30 3909 H 384.787 -0.712845 3.91158 0
M  V30 3910 N 385.784 -1.5574 0.241426 0
M  V30 3911 C 387.03 -1.99104 -0.385406 0
M  V30 3912 C 387.363 -1.1293 -1.57988 0
M  V30 3913 O 386.638 -0.191449 -1.93555 0
M  V30 3914 C 386.921 -3.51087 -0.800616 0
M  V30 3915 C 386.774 -4.48028 0.398874 0
M  V30 3916 C 388.093 -4.08015 -1.64959 0
M  V30 3917 H 385.212 -0.723848 -0.138614 0
M  V30 3918 H 387.854 -1.86903 0.341642 0
M  V30 3919 H 386.004 -3.61615 -1.4201 0
M  V30 3920 H 387.676 -4.49487 1.03726 0
M  V30 3921 H 385.919 -4.21077 1.04293 0
M  V30 3922 H 386.59 -5.51962 0.0651056 0
M  V30 3923 H 389.066 -4.00555 -1.12672 0
M  V30 3924 H 387.942 -5.14635 -1.90898 0
M  V30 3925 H 388.203 -3.56131 -2.61961 0
M  V30 3926 N 387.262 0.0317525 -1.57568 0
M  V30 3927 C 388.487 0.738664 -1.938 0
M  V30 3928 C 388.912 1.68242 -0.841208 0
M  V30 3929 O 388.27 1.80157 0.203267 0
M  V30 3930 C 388.318 1.47417 -3.29091 0
M  V30 3931 O 387.422 2.5872 -3.2115 0
M  V30 3932 H 386.763 0.198856 -0.633524 0
M  V30 3933 H 389.293 -0.0119713 -2.04596 0
M  V30 3934 H 389.303 1.84468 -3.63917 0
M  V30 3935 H 387.978 0.781988 -4.08482 0
M  V30 3936 H 386.555 2.24231 -2.97951 0
M  V30 3937 N 388.74 1.54641 0.303973 0
M  V30 3938 C 389.672 1.81754 1.39636 0
M  V30 3939 C 390.685 0.70035 1.46966 0
M  V30 3940 O 391.874 0.97778 1.49338 0
M  V30 3941 C 388.974 1.93785 2.7803 0
M  V30 3942 C 388.147 3.24156 2.93669 0
M  V30 3943 C 387.206 3.26641 4.12544 0
M  V30 3944 O 386.232 4.00187 4.04771 0
M  V30 3945 N 387.434 2.5182 5.23036 0
M  V30 3946 H 390.199 2.76031 1.16734 0
M  V30 3947 H 387.76 1.54178 0.494033 0
M  V30 3948 H 389.752 1.92852 3.55795 0
M  V30 3949 H 388.322 1.06515 2.93893 0
M  V30 3950 H 387.542 3.37887 2.03042 0
M  V30 3951 H 388.83 4.10195 3.01027 0
M  V30 3952 H 388.228 1.91692 5.32232 0
M  V30 3953 H 386.785 2.56644 5.99147 0
M  V30 3954 N 390.218 -0.567019 1.47046 0
M  V30 3955 C 391.128 -1.70247 1.6141 0
M  V30 3956 C 392.144 -1.66746 0.497157 0
M  V30 3957 O 393.32 -1.86371 0.763389 0
M  V30 3958 C 390.385 -3.06756 1.61561 0
M  V30 3959 C 389.446 -3.21399 2.84607 0
M  V30 3960 C 388.679 -4.51396 2.84741 0
M  V30 3961 O 388.902 -5.36255 1.94388 0
M  V30 3962 O 387.836 -4.69621 3.76483 0
M  V30 3963 H 391.662 -1.61073 2.57467 0
M  V30 3964 H 389.247 -0.735894 1.30019 0
M  V30 3965 H 391.129 -3.8801 1.64396 0
M  V30 3966 H 389.804 -3.16333 0.686684 0
M  V30 3967 H 388.711 -2.39579 2.8732 0
M  V30 3968 H 390.044 -3.16721 3.76761 0
M  V30 3969 N 391.696 -1.35014 -0.812953 0
M  V30 3970 C 392.973 -1.18502 -1.55617 0
M  V30 3971 C 393.353 0.238421 -2.09749 0
M  V30 3972 O 392.701 1.2411 -1.91857 0
M  V30 3973 C 392.911 -2.24783 -2.66971 0
M  V30 3974 C 394.259 -2.60268 -3.35478 0
M  V30 3975 O 395.283 -2.23648 -2.77236 0
M  V30 3976 O 394.142 -3.2321 -4.40678 0
M  V30 3977 H 391.236 -0.459984 -0.687272 0
M  V30 3978 H 393.782 -1.46677 -0.853464 0
M  V30 3979 H 392.554 -3.20284 -2.24798 0
M  V30 3980 H 392.177 -1.97841 -3.44884 0
M  V30 3981 N 393.175 1.03435 -1.18907 0
M  V30 3982 C 394.586 1.58195 -0.991523 0
M  V30 3983 C 394.937 1.90801 0.457081 0
M  V30 3984 O 394.062 1.70272 1.33553 0
M  V30 3985 C 394.657 2.87432 -1.79355 0
M  V30 3986 C 393.216 3.38785 -1.64017 0
M  V30 3987 C 392.363 2.12292 -1.78402 0
M  V30 3988 H 395.314 0.860299 -1.33359 0
M  V30 3989 H 395.335 3.58096 -1.28638 0
M  V30 3990 H 394.847 2.63669 -2.84781 0
M  V30 3991 H 392.948 3.67547 -0.611536 0
M  V30 3992 H 393.061 4.12186 -2.44212 0
M  V30 3993 H 391.425 2.23901 -1.2141 0
M  V30 3994 H 392.208 1.90977 -2.85277 0
M  V30 3995 N 394.653 0.992116 1.22453 0
M  V30 3996 C 395.563 0.55065 2.28046 0
M  V30 3997 C 396.579 -0.400189 1.69335 0
M  V30 3998 O 397.755 -0.267215 1.99619 0
M  V30 3999 C 394.82 -0.128496 3.46462 0
M  V30 4000 C 393.881 0.865208 4.20491 0
M  V30 4001 C 393.114 0.218377 5.33253 0
M  V30 4002 O 393.337 -0.987894 5.6178 0
M  V30 4003 O 392.271 0.922845 5.94783 0
M  V30 4004 H 396.097 1.4291 2.67975 0
M  V30 4005 H 393.682 0.760326 1.28606 0
M  V30 4006 H 395.564 -0.508947 4.18315 0
M  V30 4007 H 394.239 -0.981526 3.0846 0
M  V30 4008 H 393.146 1.29658 3.50913 0
M  V30 4009 H 394.479 1.68741 4.62371 0
M  V30 4010 N 396.131 -1.37776 0.765217 0
M  V30 4011 C 397.377 -2.00145 0.327072 0
M  V30 4012 C 397.71 -1.60607 -1.09175 0
M  V30 4013 O 396.985 -0.849127 -1.74986 0
M  V30 4014 C 397.268 -3.57109 0.46319 0
M  V30 4015 C 397.121 -4.06576 1.92395 0
M  V30 4016 C 398.44 -4.39888 -0.136473 0
M  V30 4017 H 395.559 -0.727113 0.120316 0
M  V30 4018 H 398.201 -1.63549 0.967039 0
M  V30 4019 H 396.351 -3.88414 -0.0816358 0
M  V30 4020 H 398.023 -3.85864 2.52798 0
M  V30 4021 H 396.266 -3.59011 2.43503 0
M  V30 4022 H 396.937 -5.15639 1.97028 0
M  V30 4023 H 399.413 -4.14803 0.328317 0
M  V30 4024 H 398.289 -5.48899 -0.0110582 0
M  V30 4025 H 398.55 -4.24758 -1.22608 0
M  V30 4026 N 397.609 -0.515225 -1.4894 0
M  V30 4027 C 398.541 0.292481 -2.27326 0
M  V30 4028 C 399.554 0.917838 -1.3446 0
M  V30 4029 O 400.743 0.798772 -1.5963 0
M  V30 4030 C 397.843 1.42803 -3.07344 0
M  V30 4031 C 397.016 0.907347 -4.27885 0
M  V30 4032 C 396.075 1.92222 -4.89834 0
M  V30 4033 O 395.101 1.48506 -5.49486 0
M  V30 4034 N 396.303 3.25355 -4.80754 0
M  V30 4035 H 399.068 -0.379721 -2.97285 0
M  V30 4036 H 396.629 -0.348638 -1.58102 0
M  V30 4037 H 398.621 2.10481 -3.45658 0
M  V30 4038 H 397.191 2.00414 -2.39902 0
M  V30 4039 H 396.411 0.0550218 -3.94162 0
M  V30 4040 H 397.699 0.538108 -5.05946 0
M  V30 4041 H 397.097 3.6355 -4.33414 0
M  V30 4042 H 395.654 3.88707 -5.23211 0
M  V30 4043 N 399.087 1.5561 -0.249682 0
M  V30 4044 C 400.334 1.99011 0.374287 0
M  V30 4045 C 400.662 1.13785 1.57744 0
M  V30 4046 O 399.917 0.189326 1.94782 0
M  V30 4047 C 400.216 3.4775 0.824887 0
M  V30 4048 C 399.882 4.50086 -0.270819 0
M  V30 4049 C 398.544 4.77791 -0.571746 0
M  V30 4050 C 400.896 5.11312 -1.01041 0
M  V30 4051 C 398.224 5.63997 -1.61629 0
M  V30 4052 C 400.576 5.98651 -2.0445 0
M  V30 4053 C 399.24 6.24688 -2.35204 0
M  V30 4054 H 398.51 0.728233 0.136961 0
M  V30 4055 H 401.157 1.88122 -0.358087 0
M  V30 4056 H 399.462 3.55985 1.63651 0
M  V30 4057 H 401.159 3.78721 1.31799 0
M  V30 4058 H 397.749 4.28592 -0.026136 0
M  V30 4059 H 401.933 4.89953 -0.791177 0
M  V30 4060 H 397.189 5.82425 -1.85988 0
M  V30 4061 H 401.363 6.45135 -2.62248 0
M  V30 4062 H 398.99 6.91281 -3.16282 0
M  V30 4063 N 400.565 -0.0233959 1.57583 0
M  V30 4064 C 401.513 -1.04063 2.08023 0
M  V30 4065 C 402.507 -1.37084 0.995204 0
M  V30 4066 O 403.713 -1.35923 1.18004 0
M  V30 4067 H 400.088 -0.353144 0.663922 0
M  V30 4068 H 402.059 -0.589453 2.9252 0
M  V30 4069 C 400.808 -2.33123 2.57971 0
M  V30 4070 H 400.131 -2.08577 3.4108 0
M  V30 4071 H 401.571 -3.02632 2.96967 0
M  V30 4072 C 400.03 -3.02483 1.48342 0
M  V30 4073 O 400.56 -3.92541 0.852898 0
M  V30 4074 N 398.766 -2.63909 1.21658 0
M  V30 4075 H 398.313 -1.90758 1.73116 0
M  V30 4076 H 398.271 -3.10633 0.485218 0
M  V30 4077 N 402.043 -1.548 -0.295768 0
M  V30 4078 C 403.289 -1.75517 -1.02789 0
M  V30 4079 C 403.644 -0.537266 -1.84746 0
M  V30 4080 O 402.937 0.470299 -1.85738 0
M  V30 4081 C 403.131 -2.98797 -1.961 0
M  V30 4082 C 402.96 -4.3246 -1.23321 0
M  V30 4083 C 401.73 -4.96131 -0.95822 0
M  V30 4084 C 403.928 -5.10365 -0.635024 0
M  V30 4085 N 401.91 -6.1357 -0.201257 0
M  V30 4086 C 403.281 -6.19999 -0.0110937 0
M  V30 4087 C 405.336 -4.94957 -0.540594 0
M  V30 4088 C 404.039 -7.15904 0.698136 0
M  V30 4089 C 406.065 -5.91197 0.154992 0
M  V30 4090 C 405.427 -7.00203 0.767752 0
M  V30 4091 H 401.526 -0.694786 -0.358882 0
M  V30 4092 H 404.11 -1.92281 -0.305943 0
M  V30 4093 H 402.281 -2.83448 -2.6554 0
M  V30 4094 H 404.013 -3.08017 -2.62502 0
M  V30 4095 H 400.768 -4.56595 -1.25771 0
M  V30 4096 H 401.192 -6.76802 0.16389 0
M  V30 4097 H 405.834 -4.10803 -1.00003 0
M  V30 4098 H 403.552 -7.99595 1.16933 0
M  V30 4099 H 407.138 -5.81353 0.228069 0
M  V30 4100 H 406.018 -7.73393 1.29743 0
M  V30 4101 N 403.521 0.559213 -1.47345 0
M  V30 4102 C 404.751 1.33999 -1.57251 0
M  V30 4103 C 405.159 1.87905 -0.220978 0
M  V30 4104 O 404.502 1.65577 0.795617 0
M  V30 4105 C 404.564 2.54798 -2.53611 0
M  V30 4106 C 404.228 2.22192 -3.99349 0
M  V30 4107 C 405.225 1.79607 -4.87891 0
M  V30 4108 C 402.91 2.33613 -4.44669 0
M  V30 4109 C 404.904 1.48868 -6.19772 0
M  V30 4110 C 402.591 2.02487 -5.76578 0
M  V30 4111 C 403.589 1.60183 -6.63951 0
M  V30 4112 O 403.277 1.29451 -7.93409 0
M  V30 4113 H 403.009 0.414858 -0.533731 0
M  V30 4114 H 405.563 0.684465 -1.9366 0
M  V30 4115 H 403.793 3.23235 -2.12265 0
M  V30 4116 H 405.482 3.16873 -2.53666 0
M  V30 4117 H 406.248 1.70278 -4.54126 0
M  V30 4118 H 402.127 2.65501 -3.76869 0
M  V30 4119 H 405.671 1.15775 -6.87926 0
M  V30 4120 H 401.568 2.11448 -6.09885 0
M  V30 4121 H 402.336 1.43098 -8.05894 0
M  V30 4122 N 404.999 1.35443 0.805782 0
M  V30 4123 C 406.245 1.28952 1.56522 0
M  V30 4124 C 406.578 -0.135597 1.93726 0
M  V30 4125 O 405.853 -1.08516 1.61414 0
M  V30 4126 C 406.136 2.19678 2.85331 0
M  V30 4127 C 405.989 3.7081 2.54598 0
M  V30 4128 C 407.308 2.09495 3.8704 0
M  V30 4129 H 404.427 0.469764 0.567883 0
M  V30 4130 H 407.069 1.65851 0.927001 0
M  V30 4131 H 405.219 1.8834 3.39795 0
M  V30 4132 H 406.891 4.12593 2.06312 0
M  V30 4133 H 405.134 3.91051 1.8778 0
M  V30 4134 H 405.805 4.29679 3.46525 0
M  V30 4135 H 408.281 2.37045 3.41978 0
M  V30 4136 H 407.157 2.75173 4.74943 0
M  V30 4137 H 407.418 1.07714 4.28777 0
M  V30 4138 N 406.477 -1.02803 1.19454 0
M  V30 4139 C 407.754 -1.73299 0.907013 0
M  V30 4140 C 408.134 -2.02772 -0.587086 0
M  V30 4141 O 407.482 -1.68304 -1.54551 0
M  V30 4142 C 407.692 -3.00912 1.76785 0
M  V30 4143 C 409.04 -3.74403 2.00268 0
M  V30 4144 O 410.064 -3.10841 1.73943 0
M  V30 4145 O 408.923 -4.88675 2.4466 0
M  V30 4146 H 406.017 -0.754727 0.338106 0
M  V30 4147 H 408.563 -1.08754 1.30271 0
M  V30 4148 H 407.335 -2.75366 2.7801 0
M  V30 4149 H 406.958 -3.73197 1.37149 0
M  V30 4150 N 407.956 -0.998596 -1.21925 0
M  V30 4151 C 409.204 -0.676325 -1.90448 0
M  V30 4152 C 409.525 0.794719 -1.78071 0
M  V30 4153 O 408.795 1.5701 -1.17152 0
M  V30 4154 H 407.375 -0.247165 -0.704925 0
M  V30 4155 H 410.037 -1.26633 -1.48156 0
M  V30 4156 H 409.133 -0.943858 -2.97486 0
M  V30 4157 N 409.434 1.37368 -0.772513 0
M  V30 4158 C 410.68 1.99969 -0.337681 0
M  V30 4159 C 411.013 1.61184 1.08321 0
M  V30 4160 O 410.288 0.858395 1.74533 0
M  V30 4161 C 410.571 3.56858 -0.482121 0
M  V30 4162 C 410.424 4.0555 -1.94549 0
M  V30 4163 C 411.743 4.39955 0.113143 0
M  V30 4164 H 408.862 0.726464 -0.124171 0
M  V30 4165 H 411.504 1.63034 -0.975699 0
M  V30 4166 H 409.654 3.88452 0.0610361 0
M  V30 4167 H 411.326 3.84518 -2.54841 0
M  V30 4168 H 409.569 3.57715 -2.45403 0
M  V30 4169 H 410.24 5.14587 -1.9976 0
M  V30 4170 H 412.716 4.14623 -0.35031 0
M  V30 4171 H 411.592 5.48897 -0.0180514 0
M  V30 4172 H 411.853 4.25403 1.20354 0
M  V30 4173 N 410.912 0.523116 1.48665 0
M  V30 4174 C 411.822 -0.247406 2.33292 0
M  V30 4175 C 412.838 -0.945769 1.46052 0
M  V30 4176 O 414.014 -0.922253 1.79043 0
M  V30 4177 C 411.079 -1.28487 3.22012 0
M  V30 4178 C 410.14 -0.597592 4.2512 0
M  V30 4179 C 409.373 -1.58563 5.09601 0
M  V30 4180 O 409.596 -2.81763 4.95949 0
M  V30 4181 O 408.53 -1.12879 5.91221 0
M  V30 4182 H 412.356 0.445869 3.00409 0
M  V30 4183 H 409.941 0.284128 1.46673 0
M  V30 4184 H 411.823 -1.88459 3.7691 0
M  V30 4185 H 410.498 -1.96068 2.57564 0
M  V30 4186 H 409.405 0.0424407 3.74076 0
M  V30 4187 H 410.738 0.0361517 4.92187 0
M  V30 4188 N 412.39 -1.55475 0.257931 0
M  V30 4189 C 413.636 -1.99502 -0.364266 0
M  V30 4190 C 413.969 -1.146 -1.56782 0
M  V30 4191 O 413.244 -0.211968 -1.93342 0
M  V30 4192 C 413.527 -3.51917 -0.763333 0
M  V30 4193 C 413.38 -4.4758 0.446371 0
M  V30 4194 C 414.699 -4.09742 -1.60623 0
M  V30 4195 H 411.818 -0.725277 -0.130929 0
M  V30 4196 H 414.46 -1.8653 0.361446 0
M  V30 4197 H 412.61 -3.63101 -1.38166 0
M  V30 4198 H 414.282 -4.48362 1.08487 0
M  V30 4199 H 412.525 -4.19947 1.08753 0
M  V30 4200 H 413.196 -5.51862 0.123645 0
M  V30 4201 H 415.672 -4.01727 -1.08418 0
M  V30 4202 H 414.548 -5.16631 -1.85429 0
M  V30 4203 H 414.809 -3.58889 -2.58169 0
M  V30 4204 N 413.868 0.0150385 -1.57593 0
M  V30 4205 C 414.818 1.01943 -2.0394 0
M  V30 4206 C 415.802 1.31209 -0.931286 0
M  V30 4207 O 416.994 1.30559 -1.19513 0
M  V30 4208 C 414.123 2.31621 -2.53391 0
M  V30 4209 C 413.209 2.05384 -3.7105 0
M  V30 4210 N 413.6 1.49253 -4.83278 0
M  V30 4211 C 411.898 2.35601 -3.78693 0
M  V30 4212 C 412.599 1.39143 -5.64813 0
M  V30 4213 N 411.575 1.87187 -5.10355 0
M  V30 4214 H 415.377 0.57969 -2.88126 0
M  V30 4215 H 412.891 0.221056 -1.60888 0
M  V30 4216 H 414.888 3.044 -2.84862 0
M  V30 4217 H 413.548 2.76261 -1.70616 0
M  V30 4218 H 414.559 1.17334 -5.04433 0
M  V30 4219 H 411.236 2.8322 -3.06746 0
M  V30 4220 H 412.626 0.961153 -6.6499 0
M  V30 4221 N 415.346 1.54954 0.287554 0
M  V30 4222 C 416.294 1.87606 1.37502 0
M  V30 4223 C 417.288 0.751001 1.51843 0
M  V30 4224 O 418.494 0.935169 1.53801 0
M  V30 4225 H 414.869 0.595231 0.459569 0
M  V30 4226 H 416.84 2.78477 1.07206 0
M  V30 4227 C 415.589 2.15183 2.73115 0
M  V30 4228 H 414.912 3.01234 2.62866 0
M  V30 4229 H 416.352 2.4196 3.48183 0
M  V30 4230 C 414.811 0.954686 3.2309 0
M  V30 4231 O 415.341 0.181949 4.01288 0
M  V30 4232 N 413.547 0.756368 2.80584 0
M  V30 4233 H 413.094 1.38643 2.17108 0
M  V30 4234 H 413.052 -0.0430391 3.14371 0
M  V30 4235 N 416.824 -0.551391 1.4764 0
M  V30 4236 C 417.787 -1.64007 1.60107 0
M  V30 4237 C 418.787 -1.53601 0.47576 0
M  V30 4238 O 419.977 -1.57655 0.740988 0
M  V30 4239 C 417.109 -3.03569 1.55108 0
M  V30 4240 H 418.302 -1.543 2.57161 0
M  V30 4241 H 415.855 -0.771776 1.35917 0
M  V30 4242 H 416.59 -3.18804 0.594519 0
M  V30 4243 H 416.375 -3.12532 2.36783 0
M  V30 4244 H 417.865 -3.82762 1.66982 0
M  V30 4245 N 418.302 -1.35869 -0.798587 0
M  V30 4246 C 419.249 -1.29446 -1.91082 0
M  V30 4247 C 420.219 -0.16487 -1.6528 0
M  V30 4248 O 421.404 -0.349888 -1.87564 0
M  V30 4249 C 418.544 -1.0804 -3.27752 0
M  V30 4250 C 417.657 -2.29993 -3.65687 0
M  V30 4251 C 416.792 -2.01673 -4.91428 0
M  V30 4252 C 415.831 -3.19636 -5.22015 0
M  V30 4253 N 414.968 -2.91039 -6.38937 0
M  V30 4254 H 419.808 -2.24553 -1.95907 0
M  V30 4255 H 417.345 -1.11615 -0.958148 0
M  V30 4256 H 419.303 -0.936586 -4.06551 0
M  V30 4257 H 417.933 -0.16592 -3.22373 0
M  V30 4258 H 416.985 -2.55211 -2.82085 0
M  V30 4259 H 418.297 -3.18052 -3.84245 0
M  V30 4260 H 417.451 -1.84168 -5.78072 0
M  V30 4261 H 416.19 -1.10911 -4.74921 0
M  V30 4262 H 415.195 -3.37709 -4.33858 0
M  V30 4263 H 416.42 -4.11211 -5.40447 0
M  V30 4264 H 414.366 -2.0288 -6.2384 0
M  V30 4265 H 414.283 -3.72635 -6.57784 0
M  V30 4266 H 415.551 -2.77093 -7.28587 0
M  V30 4267 N 419.78 1.02168 -1.19998 0
M  V30 4268 C 421.008 1.79296 -1.03249 0
M  V30 4269 C 421.423 1.84103 0.418502 0
M  V30 4270 O 420.78 1.29031 1.29063 0
M  V30 4271 C 420.831 3.24007 -1.60319 0
M  V30 4272 O 420.552 3.19512 -2.99739 0
M  V30 4273 C 422.053 4.17704 -1.48453 0
M  V30 4274 H 419.273 0.564016 -0.363493 0
M  V30 4275 H 421.817 1.28639 -1.58973 0
M  V30 4276 H 419.972 3.7183 -1.08727 0
M  V30 4277 H 420.386 4.10306 -3.26725 0
M  V30 4278 H 421.86 5.17104 -1.93153 0
M  V30 4279 H 422.337 4.37029 -0.436193 0
M  V30 4280 H 422.943 3.7576 -1.99211 0
M  V30 4281 N 421.258 1.00505 1.21394 0
M  V30 4282 C 422.205 0.565496 2.23765 0
M  V30 4283 C 423.175 -0.408466 1.60999 0
M  V30 4284 O 424.36 -0.310503 1.88257 0
M  V30 4285 C 421.5 -0.101667 3.4495 0
M  V30 4286 C 420.613 0.915479 4.22188 0
M  V30 4287 C 419.748 0.220574 5.30742 0
M  V30 4288 C 418.787 1.22527 5.99711 0
M  V30 4289 N 417.924 0.557831 6.9988 0
M  V30 4290 H 422.764 1.44314 2.60725 0
M  V30 4291 H 420.301 0.722643 1.28126 0
M  V30 4292 H 422.259 -0.505504 4.14126 0
M  V30 4293 H 420.889 -0.94303 3.08718 0
M  V30 4294 H 419.941 1.43756 3.52191 0
M  V30 4295 H 421.253 1.68005 4.69655 0
M  V30 4296 H 420.407 -0.239368 6.06228 0
M  V30 4297 H 419.146 -0.576401 4.84282 0
M  V30 4298 H 418.151 1.69571 5.22997 0
M  V30 4299 H 419.376 2.02332 6.48258 0
M  V30 4300 H 417.322 -0.219486 6.55633 0
M  V30 4301 H 417.239 1.26065 7.45415 0
M  V30 4302 H 418.507 0.121095 7.79406 0
M  V30 4303 N 422.737 -1.36956 0.779787 0
M  V30 4304 C 424.148 -1.82094 0.412156 0
M  V30 4305 C 424.499 -1.64926 -1.06273 0
M  V30 4306 O 423.624 -1.16483 -1.82375 0
M  V30 4307 C 424.219 -3.3059 0.741319 0
M  V30 4308 C 422.778 -3.73974 0.426641 0
M  V30 4309 C 421.925 -2.59368 0.980987 0
M  V30 4310 H 424.876 -1.25314 0.973758 0
M  V30 4311 H 424.897 -3.80489 0.028887 0
M  V30 4312 H 424.409 -3.43054 1.81482 0
M  V30 4313 H 422.51 -3.67076 -0.639215 0
M  V30 4314 H 422.623 -4.69778 0.940515 0
M  V30 4315 H 420.987 -2.51463 0.404757 0
M  V30 4316 H 421.77 -2.74621 2.06005 0
M  V30 4317 N 424.215 -0.530993 -1.48385 0
M  V30 4318 C 425.631 -0.188919 -1.58478 0
M  V30 4319 C 425.831 1.30786 -1.53288 0
M  V30 4320 O 424.887 2.08619 -1.42248 0
M  V30 4321 C 426.2 -0.792343 -2.90073 0
M  V30 4322 C 427.748 -0.76117 -3.03604 0
M  V30 4323 C 428.223 -1.34319 -4.37861 0
M  V30 4324 N 429.714 -1.3052 -4.44431 0
M  V30 4325 C 430.449 -1.72543 -5.46824 0
M  V30 4326 N 429.945 -2.22299 -6.56167 0
M  V30 4327 N 431.738 -1.63773 -5.37712 0
M  V30 4328 H 423.889 -1.50377 -1.50002 0
M  V30 4329 H 426.152 -0.625559 -0.712306 0
M  V30 4330 H 425.858 -1.84323 -2.99529 0
M  V30 4331 H 425.732 -0.270026 -3.76232 0
M  V30 4332 H 428.119 0.280957 -2.93759 0
M  V30 4333 H 428.2 -1.32097 -2.19053 0
M  V30 4334 H 427.844 -2.38425 -4.4846 0
M  V30 4335 H 427.774 -0.759064 -5.21101 0
M  V30 4336 H 430.265 -0.940973 -3.65997 0
M  V30 4337 H 430.578 -2.52356 -7.30436 0
M  V30 4338 H 428.923 -2.26293 -6.57127 0
M  V30 4339 H 432.114 -1.24698 -4.51185 0
M  V30 4340 H 432.287 -1.96844 -6.17379 0
M  V30 4341 N 425.693 1.55336 -0.266172 0
M  V30 4342 C 426.603 2.2583 0.635458 0
M  V30 4343 C 427.619 1.28106 1.17749 0
M  V30 4344 O 428.795 1.61024 1.20968 0
M  V30 4345 C 425.86 2.95879 1.80712 0
M  V30 4346 C 424.921 4.09059 1.30265 0
M  V30 4347 C 424.154 4.75759 2.41846 0
M  V30 4348 O 424.377 4.41622 3.61007 0
M  V30 4349 O 423.311 5.63888 2.1051 0
M  V30 4350 H 427.137 3.03631 0.0646693 0
M  V30 4351 H 424.722 1.49361 -0.0339177 0
M  V30 4352 H 426.604 3.39932 2.49047 0
M  V30 4353 H 425.279 2.21002 2.36516 0
M  V30 4354 H 424.186 3.69482 0.586019 0
M  V30 4355 H 425.519 4.85811 0.790458 0
M  V30 4356 N 427.171 -0.0066808 1.57599 0
M  V30 4357 C 428.081 -1.01671 2.11424 0
M  V30 4358 C 429.097 -1.38143 1.05795 0
M  V30 4359 O 430.273 -1.47011 1.37658 0
M  V30 4360 C 427.338 -2.29192 2.60139 0
M  V30 4361 C 426.399 -1.99094 3.80342 0
M  V30 4362 C 425.632 -3.20535 4.26724 0
M  V30 4363 O 425.855 -4.3199 3.72479 0
M  V30 4364 O 424.789 -3.04924 5.18946 0
M  V30 4365 H 428.615 -0.589181 2.9793 0
M  V30 4366 H 426.2 -0.225091 1.47695 0
M  V30 4367 H 428.082 -3.0412 2.917 0
M  V30 4368 H 426.757 -2.71195 1.76733 0
M  V30 4369 H 425.664 -1.21663 3.53764 0
M  V30 4370 H 426.997 -1.61931 4.648 0
M  V30 4371 N 428.649 -1.55105 -0.279332 0
M  V30 4372 C 429.581 -1.83952 -1.36727 0
M  V30 4373 C 430.594 -0.723642 -1.45833 0
M  V30 4374 O 431.783 -1.00141 -1.47763 0
M  V30 4375 C 428.883 -1.98183 -2.74912 0
M  V30 4376 C 428.056 -3.28787 -2.88475 0
M  V30 4377 C 427.115 -3.33162 -4.07295 0
M  V30 4378 O 426.141 -4.06576 -3.98353 0
M  V30 4379 N 427.343 -2.60109 -5.18964 0
M  V30 4380 H 430.108 -2.77853 -1.12328 0
M  V30 4381 H 427.669 -1.54945 -0.469442 0
M  V30 4382 H 429.661 -1.98488 -3.52682 0
M  V30 4383 H 428.231 -1.11177 -2.92162 0
M  V30 4384 H 427.451 -3.41075 -1.97641 0
M  V30 4385 H 428.739 -4.14933 -2.94463 0
M  V30 4386 H 428.137 -2.00136 -5.29115 0
M  V30 4387 H 426.694 -2.66143 -5.94988 0
M  V30 4388 N 430.127 0.543554 -1.4793 0
M  V30 4389 C 431.374 1.30008 -1.55255 0
M  V30 4390 C 431.702 1.93245 -0.220612 0
M  V30 4391 O 430.957 1.79141 0.787843 0
M  V30 4392 C 431.256 2.42078 -2.62932 0
M  V30 4393 C 430.922 1.96583 -4.0579 0
M  V30 4394 C 429.584 1.83893 -4.44676 0
M  V30 4395 C 431.936 1.62034 -4.95373 0
M  V30 4396 C 429.264 1.34969 -5.70964 0
M  V30 4397 C 431.616 1.14577 -6.22137 0
M  V30 4398 C 430.28 1.00493 -6.59892 0
M  V30 4399 H 429.55 0.475735 -0.568117 0
M  V30 4400 H 432.197 0.608075 -1.81589 0
M  V30 4401 H 430.502 3.16892 -2.30406 0
M  V30 4402 H 432.199 3.00236 -2.65818 0
M  V30 4403 H 428.789 2.07407 -3.75074 0
M  V30 4404 H 432.973 1.70705 -4.66019 0
M  V30 4405 H 428.229 1.2274 -5.98953 0
M  V30 4406 H 432.403 0.869109 -6.90955 0
M  V30 4407 H 430.03 0.623624 -7.57638 0
M  V30 4408 N 431.605 1.3629 0.791371 0
M  V30 4409 C 432.553 1.30514 1.92533 0
M  V30 4410 C 433.547 0.197285 1.68247 0
M  V30 4411 O 434.753 0.364176 1.76278 0
M  V30 4412 H 431.128 0.406263 0.632815 0
M  V30 4413 H 433.099 2.26282 1.94523 0
M  V30 4414 C 431.848 1.10933 3.29529 0
M  V30 4415 H 431.171 1.95427 3.48781 0
M  V30 4416 H 432.611 1.10937 4.0923 0
M  V30 4417 C 431.07 -0.186123 3.36385 0
M  V30 4418 O 431.6 -1.17664 3.84081 0
M  V30 4419 N 429.806 -0.230128 2.89687 0
M  V30 4420 H 429.353 0.576545 2.51065 0
M  V30 4421 H 429.311 -1.09658 2.94657 0
M  V30 4422 N 433.083 -1.0153 1.20538 0
M  V30 4423 C 434.308 -1.79283 1.04271 0
M  V30 4424 C 434.733 -1.8372 -0.403544 0
M  V30 4425 O 434.091 -1.27321 -1.2907 0
M  V30 4426 C 434.139 -3.21535 1.63241 0
M  V30 4427 O 433.243 -4.03099 0.870908 0
M  V30 4428 H 432.584 -0.55293 0.367647 0
M  V30 4429 H 435.114 -1.27696 1.59859 0
M  V30 4430 H 435.124 -3.72243 1.6703 0
M  V30 4431 H 433.799 -3.1762 2.68497 0
M  V30 4432 H 432.376 -3.61693 0.907323 0
M  V30 4433 N 434.561 -1.01147 -1.20859 0
M  V30 4434 C 435.789 -0.716911 -1.94082 0
M  V30 4435 C 436.204 0.721568 -1.74467 0
M  V30 4436 O 435.561 1.48889 -1.05539 0
M  V30 4437 C 435.612 -1.03662 -3.46318 0
M  V30 4438 O 435.333 -2.4186 -3.65288 0
M  V30 4439 C 436.834 -0.762386 -4.36695 0
M  V30 4440 H 434.054 -0.26367 -0.617024 0
M  V30 4441 H 436.598 -1.35127 -1.53496 0
M  V30 4442 H 434.753 -0.447757 -3.84804 0
M  V30 4443 H 435.167 -2.53224 -4.59323 0
M  V30 4444 H 436.641 -1.03621 -5.42187 0
M  V30 4445 H 437.118 0.303514 -4.3815 0
M  V30 4446 H 437.724 -1.33316 -4.03865 0
M  V30 4447 N 436.039 1.36541 -0.78704 0
M  V30 4448 C 437.269 2.03266 -0.369662 0
M  V30 4449 C 437.677 1.59481 1.01796 0
M  V30 4450 O 437.02 0.778612 1.66383 0
M  V30 4451 C 437.082 3.57779 -0.351371 0
M  V30 4452 C 436.746 4.24756 -1.68617 0
M  V30 4453 C 437.743 4.47811 -2.64124 0
M  V30 4454 C 435.428 4.62277 -1.96481 0
M  V30 4455 C 437.422 5.07464 -3.85693 0
M  V30 4456 C 435.109 5.21649 -3.18317 0
M  V30 4457 C 436.107 5.44182 -4.12741 0
M  V30 4458 O 435.795 6.02307 -5.32429 0
M  V30 4459 H 435.527 0.658977 -0.150751 0
M  V30 4460 H 438.081 1.75548 -1.0664 0
M  V30 4461 H 436.311 3.84606 0.401847 0
M  V30 4462 H 438 4.05879 0.0410147 0
M  V30 4463 H 438.766 4.19221 -2.43883 0
M  V30 4464 H 434.645 4.44065 -1.23805 0
M  V30 4465 H 438.189 5.24968 -4.59407 0
M  V30 4466 H 434.086 5.49664 -3.38437 0
M  V30 4467 H 434.854 6.20775 -5.33461 0
M  V30 4468 N 437.518 0.538854 1.48102 0
M  V30 4469 C 438.934 0.19732 1.58376 0
M  V30 4470 C 439.134 -1.29971 1.5398 0
M  V30 4471 O 438.19 -2.07861 1.43352 0
M  V30 4472 C 439.503 0.807716 2.89649 0
M  V30 4473 C 441.051 0.77726 3.03196 0
M  V30 4474 C 441.526 1.36639 4.37143 0
M  V30 4475 N 443.017 1.32875 4.43732 0
M  V30 4476 C 443.752 1.7544 5.45901 0
M  V30 4477 N 443.248 2.25776 6.54979 0
M  V30 4478 N 445.041 1.66623 5.36836 0
M  V30 4479 H 437.192 1.5117 1.49202 0
M  V30 4480 H 439.455 0.629327 0.708979 0
M  V30 4481 H 439.161 1.85909 2.98548 0
M  V30 4482 H 439.035 0.289975 3.76084 0
M  V30 4483 H 441.422 -0.265374 2.93904 0
M  V30 4484 H 441.503 1.33256 2.18349 0
M  V30 4485 H 441.147 2.408 4.47189 0
M  V30 4486 H 441.077 0.786689 5.20691 0
M  V30 4487 H 443.568 0.96037 3.65493 0
M  V30 4488 H 443.881 2.56226 7.29087 0
M  V30 4489 H 442.226 2.29775 6.55918 0
M  V30 4490 H 445.417 1.27089 4.50517 0
M  V30 4491 H 445.59 2.00115 6.16326 0
M  V30 4492 N 438.996 -1.55193 0.274407 0
M  V30 4493 C 440.242 -1.99877 -0.343086 0
M  V30 4494 C 440.575 -1.16256 -1.55558 0
M  V30 4495 O 439.85 -0.232462 -1.93106 0
M  V30 4496 C 440.133 -3.52706 -0.725965 0
M  V30 4497 C 439.986 -4.47081 0.493818 0
M  V30 4498 C 441.305 -4.11422 -1.56268 0
M  V30 4499 H 438.424 -0.726625 -0.123229 0
M  V30 4500 H 441.066 -1.86136 0.38121 0
M  V30 4501 H 439.216 -3.64546 -1.34307 0
M  V30 4502 H 440.888 -4.47186 1.13237 0
M  V30 4503 H 439.131 -4.1877 1.13201 0
M  V30 4504 H 439.802 -5.51699 0.18217 0
M  V30 4505 H 442.278 -4.02855 -1.04151 0
M  V30 4506 H 441.154 -5.18568 -1.79939 0
M  V30 4507 H 441.415 -3.61607 -2.54348 0
M  V30 4508 N 440.474 -0.00167713 -1.576 0
M  V30 4509 C 441.72 0.683832 -1.90923 0
M  V30 4510 C 442.053 1.7333 -0.875799 0
M  V30 4511 O 441.328 1.94215 0.10525 0
M  V30 4512 C 441.611 1.32543 -3.3482 0
M  V30 4513 C 441.464 0.287387 -4.48881 0
M  V30 4514 C 442.783 2.25114 -3.78169 0
M  V30 4515 H 439.902 0.247125 -0.694333 0
M  V30 4516 H 442.544 -0.0533149 -1.89925 0
M  V30 4517 H 440.694 1.95372 -3.35801 0
M  V30 4518 H 442.366 -0.341346 -4.60035 0
M  V30 4519 H 440.609 -0.39017 -4.32042 0
M  V30 4520 H 441.28 0.775393 -5.46527 0
M  V30 4521 H 443.756 1.723 -3.7875 0
M  V30 4522 H 442.632 2.66971 -4.79602 0
M  V30 4523 H 442.893 3.13092 -3.12131 0
M  V30 4524 N 441.952 1.55251 0.271103 0
M  V30 4525 C 443.177 1.80306 1.02491 0
M  V30 4526 C 443.602 0.575457 1.79081 0
M  V30 4527 O 442.96 -0.474987 1.74967 0
M  V30 4528 C 443.008 3.02832 1.95768 0
M  V30 4529 O 442.112 2.78051 3.04568 0
M  V30 4530 H 441.453 0.595896 0.292923 0
M  V30 4531 H 443.983 2.02397 0.299436 0
M  V30 4532 H 443.993 3.31616 2.37686 0
M  V30 4533 H 442.668 3.9183 1.39434 0
M  V30 4534 H 441.245 2.60369 2.66951 0
M  V30 4535 N 443.43 -0.535701 1.48216 0
M  V30 4536 C 444.676 -1.29375 1.56173 0
M  V30 4537 C 445.009 -1.92804 0.232429 0
M  V30 4538 O 444.284 -1.78992 -0.761048 0
M  V30 4539 C 444.567 -2.38747 2.69577 0
M  V30 4540 C 444.42 -1.80046 4.12193 0
M  V30 4541 C 445.739 -3.40551 2.78771 0
M  V30 4542 H 442.858 -0.469027 0.568491 0
M  V30 4543 H 445.5 -0.597358 1.80365 0
M  V30 4544 H 443.65 -2.98147 2.4908 0
M  V30 4545 H 445.322 -1.24742 4.44114 0
M  V30 4546 H 443.565 -1.10609 4.19462 0
M  V30 4547 H 444.236 -2.59212 4.87353 0
M  V30 4548 H 446.712 -2.91099 2.97322 0
M  V30 4549 H 445.588 -4.1448 3.59857 0
M  V30 4550 H 445.849 -4.00746 1.86696 0
M  V30 4551 N 444.908 -1.36708 -0.784132 0
M  V30 4552 C 445.838 -1.34153 -1.91116 0
M  V30 4553 C 446.819 -0.212121 -1.68772 0
M  V30 4554 O 448.004 -0.410581 -1.8981 0
M  V30 4555 C 445.134 -1.13535 -3.28218 0
M  V30 4556 C 444.088 -2.23356 -3.65097 0
M  V30 4557 C 443.414 -1.87875 -5.00607 0
M  V30 4558 C 444.714 -3.65473 -3.73131 0
M  V30 4559 H 446.408 -2.28459 -1.93512 0
M  V30 4560 H 443.954 -1.09973 -0.929618 0
M  V30 4561 H 445.907 -1.10381 -4.06687 0
M  V30 4562 H 444.631 -0.156804 -3.26223 0
M  V30 4563 H 443.29 -2.25645 -2.88929 0
M  V30 4564 H 442.938 -0.885814 -4.95139 0
M  V30 4565 H 442.638 -2.61406 -5.26252 0
M  V30 4566 H 444.162 -1.86286 -5.81489 0
M  V30 4567 H 445.576 -3.65382 -4.41779 0
M  V30 4568 H 443.973 -4.37953 -4.10265 0
M  V30 4569 H 445.043 -3.99995 -2.74102 0
M  V30 4570 N 446.386 1.0089 -1.21074 0
M  V30 4571 C 447.614 1.78191 -1.05145 0
M  V30 4572 C 448.029 1.84537 0.398952 0
M  V30 4573 O 447.386 1.30393 1.27687 0
M  V30 4574 C 447.437 3.22288 -1.63746 0
M  V30 4575 O 447.158 3.16315 -3.03111 0
M  V30 4576 C 448.659 4.16106 -1.52875 0
M  V30 4577 H 445.879 0.560129 -0.369454 0
M  V30 4578 H 448.423 1.26945 -1.60328 0
M  V30 4579 H 446.578 3.70655 -1.12664 0
M  V30 4580 H 446.992 4.06817 -3.31059 0
M  V30 4581 H 448.466 5.15026 -1.98626 0
M  V30 4582 H 448.943 4.36541 -0.482521 0
M  V30 4583 H 449.549 3.73625 -2.03185 0
M  V30 4584 N 447.864 1.01787 1.20321 0
M  V30 4585 C 449.11 0.708985 1.90003 0
M  V30 4586 C 449.443 -0.759572 1.78729 0
M  V30 4587 O 448.718 -1.55198 1.17234 0
M  V30 4588 C 449.001 1.1469 3.41348 0
M  V30 4589 C 448.854 2.67586 3.61549 0
M  V30 4590 C 450.173 0.71915 4.34185 0
M  V30 4591 H 447.292 0.259034 0.689978 0
M  V30 4592 H 449.934 1.26584 1.41692 0
M  V30 4593 H 448.084 0.673128 3.82624 0
M  V30 4594 H 449.756 3.22826 3.29517 0
M  V30 4595 H 447.999 3.085 3.04976 0
M  V30 4596 H 448.67 2.93281 4.67643 0
M  V30 4597 H 451.146 1.12647 4.00562 0
M  V30 4598 H 450.022 1.05358 5.38694 0
M  V30 4599 H 450.283 -0.379111 4.40472 0
M  V30 4600 N 449.342 -1.36122 0.79427 0
M  V30 4601 C 450.272 -2.32551 0.210328 0
M  V30 4602 C 451.253 -1.56884 -0.657386 0
M  V30 4603 O 452.438 -1.85014 -0.590207 0
M  V30 4604 C 449.568 -3.41128 -0.651819 0
M  V30 4605 C 448.522 -4.27842 0.116395 0
M  V30 4606 C 447.848 -5.2763 -0.86666 0
M  V30 4607 C 449.148 -5.05647 1.30837 0
M  V30 4608 H 450.842 -2.81636 1.01594 0
M  V30 4609 H 448.388 -1.35407 0.489981 0
M  V30 4610 H 450.341 -4.07581 -1.07031 0
M  V30 4611 H 449.065 -2.90622 -1.49019 0
M  V30 4612 H 447.724 -3.62952 0.515915 0
M  V30 4613 H 447.372 -4.73395 -1.70019 0
M  V30 4614 H 447.072 -5.86514 -0.35705 0
M  V30 4615 H 448.596 -5.96955 -1.28361 0
M  V30 4616 H 450.01 -5.65113 0.965393 0
M  V30 4617 H 448.407 -5.73967 1.75161 0
M  V30 4618 H 449.477 -4.37006 2.10128 0
M  V30 4619 N 450.82 -0.546701 -1.47814 0
M  V30 4620 C 451.77 0.227042 -2.26867 0
M  V30 4621 C 452.754 0.894844 -1.33721 0
M  V30 4622 O 453.946 0.794887 -1.58147 0
M  V30 4623 C 451.075 1.26299 -3.19223 0
M  V30 4624 C 450.161 0.59913 -4.19847 0
M  V30 4625 N 450.552 -0.324777 -5.04756 0
M  V30 4626 C 448.85 0.854331 -4.37741 0
M  V30 4627 C 449.551 -0.709386 -5.77358 0
M  V30 4628 N 448.527 -0.0666153 -5.43559 0
M  V30 4629 H 452.329 -0.483476 -2.89896 0
M  V30 4630 H 449.843 -0.365893 -1.58224 0
M  V30 4631 H 451.84 1.83116 -3.74532 0
M  V30 4632 H 450.5 1.97471 -2.57751 0
M  V30 4633 H 451.511 -0.698351 -5.1317 0
M  V30 4634 H 448.188 1.55536 -3.87447 0
M  V30 4635 H 449.578 -1.46796 -6.55668 0
M  V30 4636 N 452.299 1.55045 -0.282633 0
M  V30 4637 C 453.231 2.2023 0.634924 0
M  V30 4638 C 454.244 1.18931 1.11172 0
M  V30 4639 O 455.433 1.4562 1.03233 0
M  V30 4640 C 452.533 2.82041 1.87899 0
M  V30 4641 C 451.706 4.091 1.54776 0
M  V30 4642 C 450.765 4.54887 2.64507 0
M  V30 4643 O 449.791 5.20496 2.30375 0
M  V30 4644 N 450.993 4.25659 3.94709 0
M  V30 4645 H 453.758 2.99601 0.0769811 0
M  V30 4646 H 451.319 1.61565 -0.104048 0
M  V30 4647 H 453.311 3.09613 2.60619 0
M  V30 4648 H 451.881 2.06618 2.3458 0
M  V30 4649 H 451.101 3.88736 0.654049 0
M  V30 4650 H 452.389 4.9187 1.30158 0
M  V30 4651 H 451.787 3.7306 4.25256 0
M  V30 4652 H 450.344 4.57984 4.63782 0
M  V30 4653 N 453.777 0.010035 1.57597 0
M  V30 4654 C 455.054 -0.710296 1.82248 0
M  V30 4655 C 455.434 -1.91426 0.889911 0
M  V30 4656 O 454.782 -2.28424 -0.0590292 0
M  V30 4657 C 454.992 -1.10655 3.30993 0
M  V30 4658 C 456.34 -1.50621 3.96987 0
M  V30 4659 O 457.364 -1.20007 3.35375 0
M  V30 4660 O 456.223 -2.07587 5.05539 0
M  V30 4661 H 453.317 -0.34673 0.750804 0
M  V30 4662 H 455.863 0.0362578 1.69661 0
M  V30 4663 H 454.635 -0.248826 3.90508 0
M  V30 4664 H 454.258 -1.91189 3.48615 0
M  V30 4665 N 455.255 -1.55392 -0.262866 0
M  V30 4666 C 456.501 -1.77657 -0.990424 0
M  V30 4667 C 456.856 -0.576333 -1.83565 0
M  V30 4668 O 456.149 0.430795 -1.86694 0
M  V30 4669 C 456.343 -3.02889 -1.89718 0
M  V30 4670 C 456.172 -4.34979 -1.14121 0
M  V30 4671 C 454.942 -4.98052 -0.852768 0
M  V30 4672 C 457.14 -5.11597 -0.526625 0
M  V30 4673 N 455.122 -6.13859 -0.0710649 0
M  V30 4674 C 456.493 -6.19883 0.12042 0
M  V30 4675 C 458.548 -4.95992 -0.435485 0
M  V30 4676 C 457.251 -7.14262 0.849833 0
M  V30 4677 C 459.277 -5.90735 0.280359 0
M  V30 4678 C 458.639 -6.98417 0.916103 0
M  V30 4679 H 454.738 -0.702242 -0.344064 0
M  V30 4680 H 457.322 -1.92887 -0.265088 0
M  V30 4681 H 455.493 -2.89017 -2.59468 0
M  V30 4682 H 457.225 -3.13516 -2.5591 0
M  V30 4683 H 453.98 -4.5916 -1.16058 0
M  V30 4684 H 454.404 -6.76302 0.307413 0
M  V30 4685 H 459.046 -4.12832 -0.912671 0
M  V30 4686 H 456.764 -7.96935 1.33867 0
M  V30 4687 H 460.35 -5.80738 0.351332 0
M  V30 4688 H 459.23 -7.70467 1.46119 0
M  V30 4689 N 456.733 0.527833 -1.48498 0
M  V30 4690 C 457.663 1.64136 -1.66077 0
M  V30 4691 C 458.644 1.62286 -0.509625 0
M  V30 4692 O 459.829 1.79449 -0.742413 0
M  V30 4693 C 456.959 3.02717 -1.70234 0
M  V30 4694 C 455.913 3.19426 -2.8487 0
M  V30 4695 C 455.239 4.5909 -2.74118 0
M  V30 4696 C 456.539 3.01993 -4.26142 0
M  V30 4697 H 458.233 1.4968 -2.593 0
M  V30 4698 H 455.779 0.718654 -1.24785 0
M  V30 4699 H 457.732 3.80491 -1.8112 0
M  V30 4700 H 456.456 3.18201 -0.735911 0
M  V30 4701 H 455.115 2.4407 -2.73542 0
M  V30 4702 H 454.763 4.71413 -1.7544 0
M  V30 4703 H 454.463 4.71214 -3.51042 0
M  V30 4704 H 455.987 5.3896 -2.86974 0
M  V30 4705 H 457.401 3.69558 -4.38292 0
M  V30 4706 H 455.798 3.2561 -5.04082 0
M  V30 4707 H 456.868 1.98396 -4.42456 0
M  V30 4708 N 458.211 1.37122 0.776871 0
M  V30 4709 C 459.159 1.32549 1.91138 0
M  V30 4710 C 460.153 0.215119 1.68029 0
M  V30 4711 O 461.359 0.382852 1.75881 0
M  V30 4712 H 457.734 0.412952 0.62847 0
M  V30 4713 H 459.705 2.28332 1.92112 0
M  V30 4714 C 458.454 1.14422 3.28333 0
M  V30 4715 H 457.777 1.99115 3.46689 0
M  V30 4716 H 459.217 1.15272 4.0803 0
M  V30 4717 C 457.676 -0.150434 3.36564 0
M  V30 4718 O 458.206 -1.13584 3.85307 0
M  V30 4719 N 456.412 -0.19939 2.89915 0
M  V30 4720 H 455.959 0.603142 2.5044 0
M  V30 4721 H 455.917 -1.06526 2.95803 0
M  V30 4722 N 459.689 -1.00246 1.21608 0
M  V30 4723 C 460.937 -1.73717 1.0328 0
M  V30 4724 C 461.258 -1.90102 -0.434318 0
M  V30 4725 O 460.528 -1.45376 -1.31311 0
M  V30 4726 H 459.108 -0.643613 0.379172 0
M  V30 4727 H 461.77 -1.20787 1.52959 0
M  V30 4728 H 460.866 -2.73535 1.50283 0
M  V30 4729 N 461.167 -1.02423 -1.1978 0
M  V30 4730 C 462.114 -0.601023 -2.22837 0
M  V30 4731 C 463.084 0.382801 -1.61629 0
M  V30 4732 O 464.269 0.280514 -1.88727 0
M  V30 4733 C 461.409 0.0467755 -3.45068 0
M  V30 4734 C 460.522 -0.98253 -4.20678 0
M  V30 4735 C 459.657 -0.304982 -5.30324 0
M  V30 4736 C 458.696 -1.32052 -5.97686 0
M  V30 4737 N 457.833 -0.669105 -6.98904 0
M  V30 4738 H 462.673 -1.48444 -2.58396 0
M  V30 4739 H 460.21 -0.742936 -1.2696 0
M  V30 4740 H 462.168 0.439556 -4.14878 0
M  V30 4741 H 460.798 0.893796 -3.10179 0
M  V30 4742 H 459.85 -1.49341 -3.49859 0
M  V30 4743 H 461.162 -1.75455 -4.66923 0
M  V30 4744 H 460.316 0.142893 -6.06532 0
M  V30 4745 H 459.055 0.499283 -4.85138 0
M  V30 4746 H 458.06 -1.7787 -5.20233 0
M  V30 4747 H 459.285 -2.1262 -6.44957 0
M  V30 4748 H 457.231 0.115152 -6.55899 0
M  V30 4749 H 457.148 -1.37908 -7.43315 0
M  V30 4750 H 458.416 -0.245076 -7.79115 0
M  V30 4751 N 462.645 1.35699 -0.801477 0
M  V30 4752 C 463.555 2.33661 -0.209691 0
M  V30 4753 C 464.571 1.6162 0.644591 0
M  V30 4754 O 465.747 1.93529 0.557545 0
M  V30 4755 C 462.812 3.40816 0.636033 0
M  V30 4756 C 461.873 4.28639 -0.238147 0
M  V30 4757 C 461.106 5.30676 0.567307 0
M  V30 4758 O 461.329 5.41174 1.8024 0
M  V30 4759 O 460.263 6.01887 -0.0391336 0
M  V30 4760 H 464.089 2.8606 -1.01996 0
M  V30 4761 H 461.674 1.38379 -0.563164 0
M  V30 4762 H 463.556 4.06301 1.11791 0
M  V30 4763 H 462.231 2.90696 1.42399 0
M  V30 4764 H 461.138 3.66152 -0.767044 0
M  V30 4765 H 462.471 4.82143 -0.989915 0
M  V30 4766 N 464.123 0.554532 1.47522 0
M  V30 4767 C 465.353 0.0342074 2.06572 0
M  V30 4768 C 465.761 -1.26375 1.40805 0
M  V30 4769 O 465.104 -1.7683 0.49769 0
M  V30 4770 C 465.166 -0.235096 3.5873 0
M  V30 4771 C 464.83 0.973024 4.46521 0
M  V30 4772 C 465.827 1.8779 4.848 0
M  V30 4773 C 463.512 1.18694 4.88075 0
M  V30 4774 C 465.506 2.98039 5.63428 0
M  V30 4775 C 463.193 2.29254 5.66468 0
M  V30 4776 C 464.191 3.18757 6.04055 0
M  V30 4777 O 463.879 4.27401 6.8087 0
M  V30 4778 H 463.611 0.041587 0.67472 0
M  V30 4779 H 466.165 0.766748 1.90552 0
M  V30 4780 H 464.395 -1.02191 3.72953 0
M  V30 4781 H 466.084 -0.700477 3.9981 0
M  V30 4782 H 466.85 1.72467 4.53299 0
M  V30 4783 H 462.729 0.49947 4.58286 0
M  V30 4784 H 466.273 3.67926 5.92685 0
M  V30 4785 H 462.17 2.4455 5.97382 0
M  V30 4786 H 462.938 4.25415 6.9926 0
M  V30 4787 N 465.601 -1.54893 0.290851 0
M  V30 4788 C 466.548 -2.23138 -0.58974 0
M  V30 4789 C 467.518 -1.21036 -1.13752 0
M  V30 4790 O 468.703 -1.49626 -1.18392 0
M  V30 4791 C 465.843 -2.96811 -1.76061 0
M  V30 4792 C 464.956 -4.13665 -1.24519 0
M  V30 4793 C 464.091 -4.74944 -2.3791 0
M  V30 4794 C 463.13 -5.83963 -1.83451 0
M  V30 4795 N 462.267 -6.39239 -2.90376 0
M  V30 4796 H 467.107 -2.98 -0.00114915 0
M  V30 4797 H 464.644 -1.47096 0.0112006 0
M  V30 4798 H 466.602 -3.37751 -2.44909 0
M  V30 4799 H 465.232 -2.24344 -2.32098 0
M  V30 4800 H 464.284 -3.77737 -0.449288 0
M  V30 4801 H 465.596 -4.92238 -0.806424 0
M  V30 4802 H 464.75 -5.18684 -3.14724 0
M  V30 4803 H 463.489 -3.95682 -2.85109 0
M  V30 4804 H 462.494 -5.39657 -1.05122 0
M  V30 4805 H 463.719 -6.65103 -1.37169 0
M  V30 4806 H 461.665 -5.62864 -3.36927 0
M  V30 4807 H 461.582 -7.13129 -2.50965 0
M  V30 4808 H 462.85 -6.87637 -3.67118 0
M  V30 4809 N 467.08 -0.0183926 -1.57589 0
M  V30 4810 C 468.32 0.666846 -1.93216 0
M  V30 4811 C 468.684 1.69905 -0.894215 0
M  V30 4812 O 469.885 2.436 -1.13633 0
M  V30 4813 C 468.156 1.27684 -3.33814 0
M  V30 4814 S 469.715 1.98464 -3.91353 0
M  V30 4815 H 466.533 0.219826 -0.676164 0
M  V30 4816 H 469.135 -0.0794893 -1.95338 0
M  V30 4817 H 467.839 0.513006 -4.07181 0
M  V30 4818 H 467.37 2.06071 -3.3511 0
M  V30 4819 H 469.385 3.26189 -3.73918 0
M  V30 4820 N 468.558 1.5553 0.254621 0
M  V30 4821 C 469.505 1.89666 1.31512 0
M  V30 4822 C 470.475 0.750057 1.482 0
M  V30 4823 O 471.66 1.00301 1.62309 0
M  V30 4824 C 468.8 2.19009 2.667 0
M  V30 4825 C 467.913 3.46435 2.58083 0
M  V30 4826 C 467.048 3.65386 3.85573 0
M  V30 4827 C 466.087 4.8644 3.71541 0
M  V30 4828 N 465.224 5.01952 4.90906 0
M  V30 4829 H 470.064 2.80109 1.017 0
M  V30 4830 H 467.601 1.38666 0.490938 0
M  V30 4831 H 469.559 2.34025 3.45381 0
M  V30 4832 H 468.189 1.31779 2.94676 0
M  V30 4833 H 467.241 3.39792 1.71013 0
M  V30 4834 H 468.553 4.35258 2.43622 0
M  V30 4835 H 467.707 3.80319 4.72697 0
M  V30 4836 H 466.446 2.74781 4.02922 0
M  V30 4837 H 465.451 4.71491 2.82801 0
M  V30 4838 H 466.676 5.78497 3.55694 0
M  V30 4839 H 464.622 4.14283 5.08631 0
M  V30 4840 H 464.539 5.84851 4.79046 0
M  V30 4841 H 465.807 5.21289 5.7955 0
M  V30 4842 N 470.036 -0.519951 1.48776 0
M  V30 4843 C 471.282 -1.27711 1.57536 0
M  V30 4844 C 471.615 -1.92547 0.252866 0
M  V30 4845 O 470.89 -1.7979 -0.742021 0
M  V30 4846 C 471.173 -2.35875 2.72094 0
M  V30 4847 C 471.026 -1.75664 4.1408 0
M  V30 4848 C 472.345 -3.37575 2.82367 0
M  V30 4849 H 469.464 -0.462971 0.573434 0
M  V30 4850 H 472.106 -0.578194 1.80989 0
M  V30 4851 H 470.256 -2.95488 2.52228 0
M  V30 4852 H 471.928 -1.20025 4.45412 0
M  V30 4853 H 470.171 -1.06154 4.20611 0
M  V30 4854 H 470.842 -2.54029 4.90075 0
M  V30 4855 H 473.318 -2.87929 3.00393 0
M  V30 4856 H 472.194 -4.1064 3.64233 0
M  V30 4857 H 472.455 -3.98743 1.90936 0
M  V30 4858 N 471.514 -1.37532 -0.769588 0
M  V30 4859 C 472.739 -1.36231 -1.56384 0
M  V30 4860 C 473.164 0.0495849 -1.88035 0
M  V30 4861 O 472.522 1.02723 -1.49391 0
M  V30 4862 C 472.57 -2.20986 -2.84952 0
M  V30 4863 O 471.674 -1.61597 -3.79421 0
M  V30 4864 H 471.015 -0.465387 -0.473615 0
M  V30 4865 H 473.545 -1.81085 -0.952342 0
M  V30 4866 H 473.555 -2.34277 -3.34034 0
M  V30 4867 H 472.23 -3.23612 -2.61243 0
M  V30 4868 H 470.807 -1.57359 -3.38072 0
M  V30 4869 N 472.992 0.995999 -1.22138 0
M  V30 4870 C 473.94 2.10673 -0.985876 0
M  V30 4871 C 474.934 1.69255 0.0699553 0
M  V30 4872 O 476.14 1.79812 -0.0822176 0
M  V30 4873 H 472.515 0.688865 -0.30161 0
M  V30 4874 H 474.486 2.27711 -1.92848 0
M  V30 4875 C 473.235 3.42881 -0.576909 0
M  V30 4876 H 472.558 3.75191 -1.38101 0
M  V30 4877 H 473.998 4.21589 -0.451518 0
M  V30 4878 C 472.457 3.29265 0.713196 0
M  V30 4879 O 472.987 3.60777 1.76643 0
M  V30 4880 N 471.193 2.82456 0.683162 0
M  V30 4881 H 470.74 2.5701 -0.174242 0
M  V30 4882 H 470.698 2.73727 1.54663 0
M  V30 4883 N 474.47 1.03057 1.19235 0
M  V30 4884 C 475.417 0.612832 2.22515 0
M  V30 4885 C 476.387 -0.374224 1.61829 0
M  V30 4886 O 477.572 -0.270501 1.88873 0
M  V30 4887 C 474.712 -0.028475 3.45088 0
M  V30 4888 C 473.825 1.00483 4.20151 0
M  V30 4889 C 472.96 0.333102 5.30155 0
M  V30 4890 C 471.999 1.3522 5.96977 0
M  V30 4891 N 471.136 0.70616 6.9854 0
M  V30 4892 H 475.976 1.49812 2.57605 0
M  V30 4893 H 473.513 0.749658 1.26564 0
M  V30 4894 H 475.471 -0.417548 4.15105 0
M  V30 4895 H 474.101 -0.877334 3.10649 0
M  V30 4896 H 473.153 1.51194 3.49062 0
M  V30 4897 H 474.465 1.77929 4.65986 0
M  V30 4898 H 473.619 -0.110725 6.06599 0
M  V30 4899 H 472.358 -0.473547 4.85396 0
M  V30 4900 H 471.363 1.80627 5.19282 0
M  V30 4901 H 472.588 2.16037 6.4382 0
M  V30 4902 H 470.534 -0.0803667 6.55951 0
M  V30 4903 H 470.451 1.41848 7.42573 0
M  V30 4904 H 471.719 0.286391 7.78974 0
M  V30 4905 N 475.948 -1.35272 0.808662 0
M  V30 4906 C 477.196 -1.98316 0.389233 0
M  V30 4907 C 477.517 -1.64465 -1.04767 0
M  V30 4908 O 476.787 -0.928175 -1.72516 0
M  V30 4909 H 475.367 -0.733585 0.140935 0
M  V30 4910 H 478.029 -1.6515 1.03496 0
M  V30 4911 H 477.125 -3.08123 0.496631 0
M  V30 4912 N 477.426 -0.562348 -1.47226 0
M  V30 4913 C 478.356 0.170627 -2.32876 0
M  V30 4914 C 479.337 0.903748 -1.44106 0
M  V30 4915 O 480.522 0.883206 -1.72954 0
M  V30 4916 C 477.652 1.19786 -3.25989 0
M  V30 4917 C 476.606 0.580875 -4.2404 0
M  V30 4918 C 475.932 1.71311 -5.06514 0
M  V30 4919 C 477.232 -0.468714 -5.20193 0
M  V30 4920 H 478.926 -0.544441 -2.94408 0
M  V30 4921 H 476.472 -0.263271 -1.41573 0
M  V30 4922 H 478.425 1.71884 -3.84752 0
M  V30 4923 H 477.149 1.94294 -2.62521 0
M  V30 4924 H 475.808 0.0811538 -3.6651 0
M  V30 4925 H 475.456 2.44736 -4.39447 0
M  V30 4926 H 475.156 1.30604 -5.72902 0
M  V30 4927 H 476.68 2.23725 -5.68137 0
M  V30 4928 H 478.094 -0.0336028 -5.7329 0
M  V30 4929 H 476.491 -0.794957 -5.94811 0
M  V30 4930 H 477.561 -1.36269 -4.65359 0
M  V30 4931 N 478.904 1.54736 -0.299062 0
M  V30 4932 C 480.315 1.8569 0.193971 0
M  V30 4933 C 480.666 1.22101 1.53577 0
M  V30 4934 O 479.791 0.51799 2.10109 0
M  V30 4935 C 480.386 3.36895 0.358733 0
M  V30 4936 C 478.945 3.67887 0.795986 0
M  V30 4937 C 478.092 2.77131 -0.096807 0
M  V30 4938 H 481.043 1.49934 -0.520134 0
M  V30 4939 H 481.064 3.61294 1.19361 0
M  V30 4940 H 480.576 3.83148 -0.617998 0
M  V30 4941 H 478.677 3.27151 1.78334 0
M  V30 4942 H 478.79 4.75114 0.616718 0
M  V30 4943 H 477.154 2.51153 0.423581 0
M  V30 4944 H 477.937 3.26204 -1.06986 0
M  V30 4945 N 480.382 0.0267497 1.57577 0
M  V30 4946 C 481.607 -0.666227 1.96408 0
M  V30 4947 C 482.032 -1.65004 0.903071 0
M  V30 4948 O 481.39 -1.80787 -0.136263 0
M  V30 4949 C 481.438 -1.35101 3.34335 0
M  V30 4950 O 480.542 -2.46623 3.30531 0
M  V30 4951 H 479.883 -0.175206 0.640468 0
M  V30 4952 H 482.413 0.0878977 2.04411 0
M  V30 4953 H 482.423 -1.70834 3.70513 0
M  V30 4954 H 481.098 -0.629844 4.11103 0
M  V30 4955 H 479.675 -2.13019 3.06068 0
M  V30 4956 N 481.861 -1.55662 -0.24637 0
M  V30 4957 C 483.086 -1.81914 -0.996093 0
M  V30 4958 C 483.511 -0.603875 -1.78143 0
M  V30 4959 O 482.869 0.447091 -1.75701 0
M  V30 4960 C 482.917 -3.05908 -1.90925 0
M  V30 4961 O 482.021 -2.82861 -3.00105 0
M  V30 4962 H 481.362 -0.600481 -0.283406 0
M  V30 4963 H 483.892 -2.02848 -0.267199 0
M  V30 4964 H 483.902 -3.35356 -2.3238 0
M  V30 4965 H 482.577 -3.93999 -1.33183 0
M  V30 4966 H 481.154 -2.64583 -2.62775 0
M  V30 4967 N 483.339 0.512053 -1.4905 0
M  V30 4968 C 484.588 1.26343 -1.57227 0
M  V30 4969 C 484.901 1.93876 -0.259155 0
M  V30 4970 O 486.107 2.70612 -0.219358 0
M  V30 4971 C 484.563 2.29343 -2.77362 0
M  V30 4972 C 484.171 1.67799 -4.15388 0
M  V30 4973 C 485.915 3.05378 -2.94864 0
M  V30 4974 C 483.822 2.68845 -5.2676 0
M  V30 4975 H 482.752 0.475231 -0.585382 0
M  V30 4976 H 485.403 0.53862 -1.75417 0
M  V30 4977 H 483.785 3.04938 -2.52643 0
M  V30 4978 H 484.959 0.982715 -4.50199 0
M  V30 4979 H 483.274 1.04194 -4.03153 0
M  V30 4980 H 485.871 3.80921 -3.75238 0
M  V30 4981 H 486.214 3.62327 -2.05 0
M  V30 4982 H 486.747 2.36898 -3.19569 0
M  V30 4983 H 483.486 2.16692 -6.18647 0
M  V30 4984 H 483.006 3.36647 -4.96416 0
M  V30 4985 H 484.685 3.31487 -5.5563 0
M  V30 4986 N 484.817 1.37938 0.762283 0
M  V30 4987 C 485.727 1.36681 1.90671 0
M  V30 4988 C 486.743 0.265078 1.71969 0
M  V30 4989 O 487.919 0.502055 1.95042 0
M  V30 4990 C 484.984 1.18211 3.25925 0
M  V30 4991 C 484.045 2.3811 3.57214 0
M  V30 4992 C 483.278 2.20512 4.86014 0
M  V30 4993 O 483.501 1.19429 5.57757 0
M  V30 4994 O 482.435 3.08911 5.16583 0
M  V30 4995 H 486.261 2.33091 1.94685 0
M  V30 4996 H 483.846 1.18767 0.906356 0
M  V30 4997 H 485.728 1.09937 4.06807 0
M  V30 4998 H 484.403 0.248807 3.22742 0
M  V30 4999 H 483.31 2.51958 2.76529 0
M  V30 5000 H 484.643 3.30041 3.65149 0
M  V30 5001 N 486.295 -0.989507 1.22664 0
M  V30 5002 C 487.242 -2.08024 0.999733 0
M  V30 5003 C 488.212 -1.65909 -0.0797047 0
M  V30 5004 O 489.397 -1.90669 0.0705715 0
M  V30 5005 C 486.537 -3.40067 0.587234 0
M  V30 5006 C 485.65 -3.95505 1.73781 0
M  V30 5007 C 484.785 -5.15722 1.27297 0
M  V30 5008 C 483.824 -5.63305 2.39488 0
M  V30 5009 N 482.961 -6.74758 1.94026 0
M  V30 5010 H 487.801 -2.26768 1.9334 0
M  V30 5011 H 485.338 -1.11171 0.963297 0
M  V30 5012 H 487.296 -4.15899 0.329227 0
M  V30 5013 H 485.926 -3.21314 -0.309426 0
M  V30 5014 H 484.978 -3.16513 2.11006 0
M  V30 5015 H 486.29 -4.26797 2.58158 0
M  V30 5016 H 485.444 -5.98854 0.972546 0
M  V30 5017 H 484.183 -4.86061 0.399445 0
M  V30 5018 H 483.188 -4.78759 2.70315 0
M  V30 5019 H 484.413 -5.94988 3.27362 0
M  V30 5020 H 482.359 -6.46874 1.09041 0
M  V30 5021 H 482.276 -7.05386 2.71968 0
M  V30 5022 H 483.544 -7.61387 1.67062 0
M  V30 5023 N 487.773 -1.03688 -1.18687 0
M  V30 5024 C 489.001 -0.757918 -1.92518 0
M  V30 5025 C 489.416 0.684398 -1.75959 0
M  V30 5026 O 488.773 1.46617 -1.08673 0
M  V30 5027 C 488.824 -1.10985 -3.44042 0
M  V30 5028 O 488.545 -2.49554 -3.60076 0
M  V30 5029 C 490.046 -0.854844 -4.3498 0
M  V30 5030 H 487.266 -0.276699 -0.611293 0
M  V30 5031 H 489.81 -1.38352 -1.50595 0
M  V30 5032 H 487.965 -0.529279 -3.83767 0
M  V30 5033 H 488.379 -2.6291 -4.53849 0
M  V30 5034 H 489.853 -1.15098 -5.39867 0
M  V30 5035 H 490.33 0.210507 -4.38695 0
M  V30 5036 H 490.936 -1.41853 -4.00946 0
M  V30 5037 N 489.251 1.34841 -0.815825 0
M  V30 5038 C 490.5 1.97755 -0.396976 0
M  V30 5039 C 490.813 1.65422 1.04379 0
M  V30 5040 O 492.019 2.21771 1.5662 0
M  V30 5041 C 490.475 3.53818 -0.658869 0
M  V30 5042 C 490.083 3.95051 -2.11278 0
M  V30 5043 C 491.827 4.23397 -0.305834 0
M  V30 5044 C 489.734 5.43997 -2.31994 0
M  V30 5045 H 488.664 0.739985 -0.1447 0
M  V30 5046 H 491.315 1.53781 -1.00118 0
M  V30 5047 H 489.697 3.95997 0.0154112 0
M  V30 5048 H 490.871 3.63998 -2.82564 0
M  V30 5049 H 489.186 3.38388 -2.42657 0
M  V30 5050 H 491.783 5.32899 -0.43854 0
M  V30 5051 H 492.126 4.09508 0.748952 0
M  V30 5052 H 492.659 3.8667 -0.934403 0
M  V30 5053 H 489.398 5.62865 -3.35952 0
M  V30 5054 H 488.918 5.76589 -1.65244 0
M  V30 5055 H 490.597 6.10584 -2.14001 0
M  V30 5056 N 490.729 0.570148 1.46925 0
M  V30 5057 C 491.954 0.0542592 2.07329 0
M  V30 5058 C 492.379 -1.23582 1.41806 0
M  V30 5059 O 491.737 -1.74341 0.497479 0
M  V30 5060 C 491.785 -0.111175 3.60429 0
M  V30 5061 O 490.889 -1.17071 3.95434 0
M  V30 5062 H 490.23 0.0571425 0.661537 0
M  V30 5063 H 492.76 0.789516 1.88753 0
M  V30 5064 H 492.77 -0.321315 4.06733 0
M  V30 5065 H 491.445 0.831012 4.07513 0
M  V30 5066 H 490.022 -0.940029 3.60857 0
M  V30 5067 N 492.207 -1.54576 0.307264 0
M  V30 5068 C 493.154 -2.23751 -0.56604 0
M  V30 5069 C 494.124 -1.22235 -1.12462 0
M  V30 5070 O 495.309 -1.50873 -1.16799 0
M  V30 5071 C 492.449 -2.98661 -1.72903 0
M  V30 5072 C 491.562 -4.14963 -1.20124 0
M  V30 5073 C 490.697 -4.77441 -2.3286 0
M  V30 5074 C 489.736 -5.85875 -1.77247 0
M  V30 5075 N 488.873 -6.42282 -2.8358 0
M  V30 5076 H 493.713 -2.97984 0.0304578 0
M  V30 5077 H 491.25 -1.47076 0.0268015 0
M  V30 5078 H 493.208 -3.40329 -2.41313 0
M  V30 5079 H 491.838 -2.26793 -2.29706 0
M  V30 5080 H 490.89 -3.78193 -0.409198 0
M  V30 5081 H 492.202 -4.93066 -0.754171 0
M  V30 5082 H 491.356 -5.21993 -3.09205 0
M  V30 5083 H 490.095 -3.98684 -2.80896 0
M  V30 5084 H 489.1 -5.40741 -0.993926 0
M  V30 5085 H 490.325 -6.6652 -1.30107 0
M  V30 5086 H 488.271 -5.66406 -3.30939 0
M  V30 5087 H 488.188 -7.1575 -2.43388 0
M  V30 5088 H 489.456 -6.91492 -3.59804 0
M  V30 5089 N 493.685 -0.035106 -1.57561 0
M  V30 5090 C 494.648 0.929819 -2.09492 0
M  V30 5091 C 495.648 1.25026 -1.01119 0
M  V30 5092 O 496.838 1.18961 -1.27255 0
M  V30 5093 C 493.97 2.24457 -2.56577 0
M  V30 5094 H 495.163 0.479935 -2.96035 0
M  V30 5095 H 492.716 0.213033 -1.54841 0
M  V30 5096 H 493.451 2.74061 -1.73382 0
M  V30 5097 H 493.236 2.02508 -3.35757 0
M  V30 5098 H 494.726 2.93607 -2.96959 0
M  V30 5099 N 495.163 1.55791 0.238111 0
M  V30 5100 C 496.11 1.9105 1.29493 0
M  V30 5101 C 497.08 0.765733 1.47397 0
M  V30 5102 O 498.265 1.02017 1.61236 0
M  V30 5103 C 495.405 2.21826 2.64362 0
M  V30 5104 C 494.518 3.49153 2.54394 0
M  V30 5105 C 493.653 3.69455 3.81676 0
M  V30 5106 C 492.692 4.90353 3.66361 0
M  V30 5107 N 491.829 5.07131 4.85554 0
M  V30 5108 H 496.669 2.81172 0.987233 0
M  V30 5109 H 494.206 1.39179 0.476203 0
M  V30 5110 H 496.164 2.37675 3.4288 0
M  V30 5111 H 494.794 1.34897 2.93262 0
M  V30 5112 H 493.846 3.41587 1.67399 0
M  V30 5113 H 495.158 4.37818 2.38991 0
M  V30 5114 H 494.312 3.85311 4.68636 0
M  V30 5115 H 493.051 2.7904 3.99985 0
M  V30 5116 H 492.056 4.74464 2.77784 0
M  V30 5117 H 493.281 5.82237 3.49538 0
M  V30 5118 H 491.227 4.19654 5.04209 0
M  V30 5119 H 491.144 5.89899 4.72816 0
M  V30 5120 H 492.412 5.27407 5.73988 0
M  V30 5121 N 496.642 -0.504142 1.49319 0
M  V30 5122 C 497.89 -1.25598 1.58334 0
M  V30 5123 C 498.211 -1.93114 0.270538 0
M  V30 5124 O 497.481 -1.82585 -0.709891 0
M  V30 5125 H 496.061 -0.466571 0.58337 0
M  V30 5126 H 498.723 -0.584547 1.85928 0
M  V30 5127 H 497.819 -2.02159 2.37778 0
M  V30 5128 N 498.12 -1.38341 -0.754957 0
M  V30 5129 C 499.052 -1.31347 -1.87831 0
M  V30 5130 C 500.065 -0.225955 -1.61224 0
M  V30 5131 O 501.254 -0.48341 -1.7183 0
M  V30 5132 C 498.354 -1.01201 -3.23437 0
M  V30 5133 C 497.527 -2.20834 -3.77559 0
M  V30 5134 C 496.586 -1.87454 -4.91678 0
M  V30 5135 O 495.612 -2.59934 -5.06382 0
M  V30 5136 N 496.814 -0.828682 -5.74555 0
M  V30 5137 H 499.579 -2.28147 -1.94342 0
M  V30 5138 H 497.14 -1.32184 -0.934828 0
M  V30 5139 H 499.132 -0.769249 -3.97322 0
M  V30 5140 H 497.702 -0.132011 -3.12321 0
M  V30 5141 H 496.922 -2.61184 -2.95256 0
M  V30 5142 H 498.21 -3.00678 -4.10451 0
M  V30 5143 H 497.608 -0.227591 -5.65242 0
M  V30 5144 H 496.165 -0.645802 -6.48593 0
M  V30 5145 N 499.598 0.982988 -1.23187 0
M  V30 5146 C 501.009 1.53847 -1.05773 0
M  V30 5147 C 501.36 1.92568 0.375744 0
M  V30 5148 O 500.485 1.75783 1.26211 0
M  V30 5149 C 501.08 2.79567 -1.91384 0
M  V30 5150 C 499.639 3.31524 -1.78238 0
M  V30 5151 C 498.786 2.04534 -1.87246 0
M  V30 5152 H 501.737 0.802962 -1.36888 0
M  V30 5153 H 501.758 3.52317 -1.43711 0
M  V30 5154 H 501.27 2.51353 -2.95708 0
M  V30 5155 H 499.371 3.64623 -0.766875 0
M  V30 5156 H 499.484 4.01457 -2.61475 0
M  V30 5157 H 497.848 2.1855 -1.30797 0
M  V30 5158 H 498.631 1.78706 -2.9312 0
M  V30 5159 N 501.076 1.04316 1.18135 0
M  V30 5160 C 502.492 0.762858 1.40188 0
M  V30 5161 C 502.692 -0.646547 1.90846 0
M  V30 5162 O 501.748 -1.41036 2.0944 0
M  V30 5163 C 503.061 1.81106 2.40044 0
M  V30 5164 C 504.609 1.83226 2.53766 0
M  V30 5165 C 505.084 2.87044 3.56889 0
M  V30 5166 N 506.575 2.85951 3.64398 0
M  V30 5167 C 507.31 3.62932 4.43923 0
M  V30 5168 N 506.806 4.49672 5.27036 0
M  V30 5169 N 508.599 3.51411 4.38711 0
M  V30 5170 H 500.75 1.95264 0.835805 0
M  V30 5171 H 503.013 0.845017 0.429709 0
M  V30 5172 H 502.719 2.82214 2.09876 0
M  V30 5173 H 502.593 1.64529 3.39426 0
M  V30 5174 H 504.98 0.827869 2.8325 0
M  V30 5175 H 505.061 2.03879 1.54489 0
M  V30 5176 H 504.705 3.87663 3.28145 0
M  V30 5177 H 504.635 2.63645 4.5585 0
M  V30 5178 H 507.126 2.23051 3.05052 0
M  V30 5179 H 507.439 5.05116 5.84874 0
M  V30 5180 H 505.784 4.53738 5.26447 0
M  V30 5181 H 508.975 2.83047 3.72829 0
M  V30 5182 H 509.148 4.11654 5.00445 0
M  V30 5183 N 502.554 -1.34406 0.822964 0
M  V30 5184 C 503.464 -2.33298 0.246838 0
M  V30 5185 C 504.48 -1.62625 -0.618797 0
M  V30 5186 O 505.656 -1.94391 -0.526685 0
M  V30 5187 C 502.721 -3.41785 -0.581731 0
M  V30 5188 C 501.782 -4.28206 0.306309 0
M  V30 5189 C 501.015 -5.31512 -0.48281 0
M  V30 5190 O 501.238 -5.43973 -1.71607 0
M  V30 5191 O 500.172 -6.01749 0.134884 0
M  V30 5192 H 503.998 -2.84401 1.06534 0
M  V30 5193 H 501.583 -1.37466 0.585108 0
M  V30 5194 H 503.465 -4.08028 -1.05313 0
M  V30 5195 H 502.14 -2.92925 -1.37756 0
M  V30 5196 H 501.047 -3.64885 0.825199 0
M  V30 5197 H 502.38 -4.80507 1.06649 0
M  V30 5198 N 504.032 -0.577932 -1.46621 0
M  V30 5199 C 505.443 -0.150071 -1.86096 0
M  V30 5200 C 505.794 1.28563 -1.48209 0
M  V30 5201 O 504.919 1.97036 -0.894754 0
M  V30 5202 C 505.514 -0.265576 -3.37758 0
M  V30 5203 C 504.073 0.10738 -3.76247 0
M  V30 5204 C 503.22 -0.603711 -2.70649 0
M  V30 5205 H 506.171 -0.786438 -1.37844 0
M  V30 5206 H 506.192 0.510352 -3.77062 0
M  V30 5207 H 505.704 -1.3106 -3.65301 0
M  V30 5208 H 503.805 1.15272 -3.54321 0
M  V30 5209 H 503.918 -0.26561 -4.78363 0
M  V30 5210 H 502.282 -0.0444884 -2.54661 0
M  V30 5211 H 503.065 -1.65029 -3.01032 0
M  V30 5212 N 505.51 1.54411 -0.315457 0
M  V30 5213 C 506.442 2.21527 0.588067 0
M  V30 5214 C 507.455 1.21263 1.08624 0
M  V30 5215 O 508.644 1.47777 1.00121 0
M  V30 5216 C 505.744 2.85963 1.81875 0
M  V30 5217 C 504.917 4.12291 1.46063 0
M  V30 5218 C 503.976 4.60396 2.54799 0
M  V30 5219 O 503.002 5.25265 2.19283 0
M  V30 5220 N 504.204 4.33935 3.85591 0
M  V30 5221 H 506.969 2.99697 0.013414 0
M  V30 5222 H 504.53 1.61308 -0.138295 0
M  V30 5223 H 506.522 3.15071 2.53993 0
M  V30 5224 H 505.092 2.11548 2.30144 0
M  V30 5225 H 504.312 3.90036 0.571445 0
M  V30 5226 H 505.6 4.9452 1.19695 0
M  V30 5227 H 504.998 3.81996 4.17248 0
M  V30 5228 H 503.555 4.67718 4.53964 0
M  V30 5229 N 506.988 0.0434614 1.5754 0
M  V30 5230 C 508.234 -0.632971 1.92669 0
M  V30 5231 C 508.567 -1.70947 0.921446 0
M  V30 5232 O 507.842 -1.94426 -0.0537202 0
M  V30 5233 C 508.125 -1.23619 3.38216 0
M  V30 5234 C 507.978 -0.168274 4.49485 0
M  V30 5235 C 509.297 -2.15008 3.84005 0
M  V30 5236 H 506.416 -0.228629 0.700641 0
M  V30 5237 H 509.058 0.103651 1.89717 0
M  V30 5238 H 507.208 -1.864 3.40863 0
M  V30 5239 H 508.88 0.463196 4.58969 0
M  V30 5240 H 507.123 0.504581 4.30855 0
M  V30 5241 H 507.794 -0.630218 5.48391 0
M  V30 5242 H 510.27 -1.62198 3.83185 0
M  V30 5243 H 509.146 -2.54161 4.86511 0
M  V30 5244 H 509.407 -3.04707 3.20322 0
M  V30 5245 N 508.466 -1.55915 -0.229846 0
M  V30 5246 C 509.696 -1.82352 -0.971152 0
M  V30 5247 C 510.104 -0.619231 -1.7878 0
M  V30 5248 O 509.447 0.421597 -1.78797 0
M  V30 5249 C 509.509 -3.02399 -1.9441 0
M  V30 5250 C 509.173 -4.37739 -1.31277 0
M  V30 5251 C 510.17 -5.15074 -0.706757 0
M  V30 5252 C 507.855 -4.84454 -1.32702 0
M  V30 5253 C 509.849 -6.37281 -0.123413 0
M  V30 5254 C 507.536 -6.06605 -0.739831 0
M  V30 5255 C 508.534 -6.82858 -0.139071 0
M  V30 5256 O 508.222 -8.027 0.439007 0
M  V30 5257 H 507.954 -0.61035 -0.290601 0
M  V30 5258 H 510.508 -2.03839 -0.252746 0
M  V30 5259 H 508.738 -2.76709 -2.70128 0
M  V30 5260 H 510.427 -3.15779 -2.55026 0
M  V30 5261 H 511.193 -4.80093 -0.688131 0
M  V30 5262 H 507.072 -4.25081 -1.78402 0
M  V30 5263 H 510.616 -6.96741 0.346124 0
M  V30 5264 H 506.513 -6.4106 -0.755841 0
M  V30 5265 H 507.281 -8.17824 0.332521 0
M  V30 5266 N 509.944 0.496216 -1.49584 0
M  V30 5267 C 511.172 1.27394 -1.63029 0
M  V30 5268 C 511.587 1.86344 -0.303569 0
M  V30 5269 O 510.944 1.68057 0.711547 0
M  V30 5270 C 510.995 2.40077 -2.70269 0
M  V30 5271 O 510.716 1.83549 -3.97796 0
M  V30 5272 C 512.217 3.31372 -2.94462 0
M  V30 5273 H 509.437 0.386211 -0.54871 0
M  V30 5274 H 511.981 0.595163 -1.95648 0
M  V30 5275 H 510.136 3.03775 -2.40415 0
M  V30 5276 H 510.55 2.57561 -4.56905 0
M  V30 5277 H 512.024 4.06707 -3.73221 0
M  V30 5278 H 512.501 3.88654 -2.0456 0
M  V30 5279 H 513.107 2.73435 -3.25751 0
M  V30 5280 N 511.423 1.38739 0.74761 0
M  V30 5281 C 512.353 1.39173 1.87492 0
M  V30 5282 C 513.334 0.256794 1.6815 0
M  V30 5283 O 514.519 0.460762 1.88655 0
M  V30 5284 C 511.649 1.22197 3.25093 0
M  V30 5285 C 510.603 2.32957 3.59047 0
M  V30 5286 C 509.929 2.01082 4.95449 0
M  V30 5287 C 511.229 3.75237 3.6331 0
M  V30 5288 H 512.923 2.3351 1.87386 0
M  V30 5289 H 510.469 1.12399 0.900134 0
M  V30 5290 H 512.422 1.21124 4.03617 0
M  V30 5291 H 511.146 0.243241 3.25693 0
M  V30 5292 H 509.805 2.33226 2.82845 0
M  V30 5293 H 509.453 1.01678 4.92616 0
M  V30 5294 H 509.153 2.75267 5.19136 0
M  V30 5295 H 510.677 2.01638 5.76346 0
M  V30 5296 H 512.091 3.76966 4.31937 0
M  V30 5297 H 510.488 4.48677 3.98509 0
M  V30 5298 H 511.558 4.07122 2.634 0
M  V30 5299 N 512.901 -0.976442 1.23707 0
M  V30 5300 C 514.312 -1.53284 1.06587 0
M  V30 5301 C 514.663 -1.92765 -0.365526 0
M  V30 5302 O 513.788 -1.7645 -1.25277 0
M  V30 5303 C 514.383 -2.78548 1.92864 0
M  V30 5304 C 512.942 -3.30574 1.79994 0
M  V30 5305 C 512.089 -2.03538 1.88328 0
M  V30 5306 H 515.04 -0.795692 1.37311 0
M  V30 5307 H 515.061 -3.5155 1.45577 0
M  V30 5308 H 514.573 -2.49782 2.97037 0
M  V30 5309 H 512.674 -3.64211 0.786202 0
M  V30 5310 H 512.787 -4.00065 2.636 0
M  V30 5311 H 511.151 -2.17853 1.31954 0
M  V30 5312 H 511.934 -1.77149 2.94063 0
M  V30 5313 N 514.379 -1.04941 -1.1758 0
M  V30 5314 C 515.79 -0.784501 -1.69418 0
M  V30 5315 C 516.141 0.693625 -1.8353 0
M  V30 5316 O 515.266 1.53925 -1.52106 0
M  V30 5317 C 515.861 -1.41746 -3.07723 0
M  V30 5318 C 514.42 -1.20066 -3.56737 0
M  V30 5319 C 513.567 -1.5026 -2.33061 0
M  V30 5320 H 516.518 -1.21469 -1.02133 0
M  V30 5321 H 516.539 -0.825381 -3.7144 0
M  V30 5322 H 516.051 -2.49325 -2.9742 0
M  V30 5323 H 514.152 -0.144006 -3.72322 0
M  V30 5324 H 514.265 -1.90384 -4.39648 0
M  V30 5325 H 512.629 -0.922598 -2.37403 0
M  V30 5326 H 513.412 -2.58967 -2.25368 0
M  V30 5327 N 515.857 1.33968 -0.830081 0
M  V30 5328 C 517.082 2.02813 -0.433796 0
M  V30 5329 C 517.507 1.62076 0.954614 0
M  V30 5330 O 516.865 0.808955 1.62252 0
M  V30 5331 C 516.913 3.56348 -0.552115 0
M  V30 5332 O 516.017 4.10202 0.425191 0
M  V30 5333 H 515.358 0.639817 -0.177567 0
M  V30 5334 H 517.888 1.7106 -1.12248 0
M  V30 5335 H 517.898 4.05722 -0.430513 0
M  V30 5336 H 516.573 3.85344 -1.56471 0
M  V30 5337 H 515.15 3.71979 0.261878 0
M  V30 5338 N 517.335 0.585699 1.46312 0
M  V30 5339 C 518.267 -0.183687 2.28463 0
M  V30 5340 C 519.28 -0.85264 1.38686 0
M  V30 5341 O 520.469 -0.721701 1.6326 0
M  V30 5342 C 517.569 -1.27977 3.13808 0
M  V30 5343 C 516.742 -0.702164 4.31727 0
M  V30 5344 C 515.801 -1.68633 4.98447 0
M  V30 5345 O 514.827 -1.22121 5.55945 0
M  V30 5346 N 516.029 -3.02047 4.95729 0
M  V30 5347 H 518.794 0.521127 2.95134 0
M  V30 5348 H 516.355 0.423673 1.56258 0
M  V30 5349 H 518.347 -1.9375 3.55307 0
M  V30 5350 H 516.917 -1.8874 2.4919 0
M  V30 5351 H 516.137 0.1331 3.93975 0
M  V30 5352 H 517.425 -0.296101 5.07938 0
M  V30 5353 H 516.823 -3.42457 4.50266 0
M  V30 5354 H 515.38 -3.63301 5.41161 0
M  V30 5355 N 518.813 -1.54241 0.323641 0
M  V30 5356 C 519.723 -2.28033 -0.551205 0
M  V30 5357 C 520.739 -1.32388 -1.12913 0
M  V30 5358 O 521.915 -1.65403 -1.14908 0
M  V30 5359 C 518.98 -3.02382 -1.69606 0
M  V30 5360 C 518.041 -4.13612 -1.14993 0
M  V30 5361 C 517.274 -4.84407 -2.24022 0
M  V30 5362 O 517.497 -4.54716 -3.44368 0
M  V30 5363 O 516.431 -5.71312 -1.89436 0
M  V30 5364 H 520.257 -3.03662 0.048066 0
M  V30 5365 H 517.842 -1.49133 0.0893289 0
M  V30 5366 H 519.724 -3.48941 -2.36259 0
M  V30 5367 H 518.399 -2.29628 -2.28151 0
M  V30 5368 H 517.306 -3.71402 -0.448484 0
M  V30 5369 H 518.639 -4.8841 -0.609608 0
M  V30 5370 N 520.291 -0.0518155 -1.57515 0
M  V30 5371 C 521.201 0.937539 -2.15052 0
M  V30 5372 C 522.217 1.34121 -1.10849 0
M  V30 5373 O 523.393 1.418 -1.4302 0
M  V30 5374 C 520.458 2.19379 -2.68466 0
M  V30 5375 C 519.519 1.84841 -3.87469 0
M  V30 5376 C 518.752 3.04477 -4.38326 0
M  V30 5377 O 518.975 4.17868 -3.88256 0
M  V30 5378 O 517.909 2.85453 -5.29906 0
M  V30 5379 H 521.735 0.478201 -2.99912 0
M  V30 5380 H 519.32 0.17012 -1.48428 0
M  V30 5381 H 521.202 2.93084 -3.02787 0
M  V30 5382 H 519.877 2.64449 -1.86677 0
M  V30 5383 H 518.784 1.08449 -3.58036 0
M  V30 5384 H 520.117 1.44569 -4.7049 0
M  V30 5385 N 521.769 1.56035 0.221574 0
M  V30 5386 C 522.702 1.87427 1.30178 0
M  V30 5387 C 523.68 0.731658 1.45209 0
M  V30 5388 O 524.864 0.980016 1.61022 0
M  V30 5389 C 521.991 2.08127 2.67209 0
M  V30 5390 C 521.037 3.30813 2.69194 0
M  V30 5391 S 521.87 4.86738 2.23263 0
M  V30 5392 C 523.026 5.10474 3.62171 0
M  V30 5393 H 523.259 2.78756 1.03355 0
M  V30 5394 H 520.792 1.48469 0.423813 0
M  V30 5395 H 522.75 2.20736 3.46101 0
M  V30 5396 H 521.411 1.17595 2.91256 0
M  V30 5397 H 520.604 3.42341 3.6989 0
M  V30 5398 H 520.206 3.1706 1.98366 0
M  V30 5399 H 522.498 4.9937 4.5786 0
M  V30 5400 H 523.441 6.12359 3.55558 0
M  V30 5401 H 523.849 4.38208 3.55857 0
M  V30 5402 N 523.247 -0.488276 1.49845 0
M  V30 5403 C 524.475 -1.26527 1.63702 0
M  V30 5404 C 524.89 -1.8618 0.313447 0
M  V30 5405 O 524.247 -1.68432 -0.702624 0
M  V30 5406 C 524.298 -2.3864 2.71538 0
M  V30 5407 O 524.019 -1.81437 3.98763 0
M  V30 5408 C 525.52 -3.29805 2.96215 0
M  V30 5409 H 522.74 -0.383295 0.55075 0
M  V30 5410 H 525.284 -0.584779 1.95961 0
M  V30 5411 H 523.439 -3.02496 2.42023 0
M  V30 5412 H 523.853 -2.55135 4.58265 0
M  V30 5413 H 525.327 -4.04722 3.75372 0
M  V30 5414 H 525.804 -3.87563 2.06619 0
M  V30 5415 H 526.41 -2.71703 3.27196 0
M  V30 5416 N 524.725 -1.39134 -0.740242 0
M  V30 5417 C 525.672 -1.37434 -1.8542 0
M  V30 5418 C 526.642 -0.234822 -1.64432 0
M  V30 5419 O 527.827 -0.429125 -1.85912 0
M  V30 5420 C 524.967 -1.21844 -3.22875 0
M  V30 5421 C 524.08 -2.45296 -3.55603 0
M  V30 5422 C 523.215 -2.22334 -4.82432 0
M  V30 5423 C 522.254 -3.41488 -5.07988 0
M  V30 5424 N 521.391 -3.17877 -6.26018 0
M  V30 5425 H 526.231 -2.3266 -1.86207 0
M  V30 5426 H 523.768 -1.15578 -0.909946 0
M  V30 5427 H 525.726 -1.10818 -4.02213 0
M  V30 5428 H 524.356 -0.3025 -3.21379 0
M  V30 5429 H 523.408 -2.66945 -2.71006 0
M  V30 5430 H 524.72 -3.34063 -3.7041 0
M  V30 5431 H 523.874 -2.0852 -5.69741 0
M  V30 5432 H 522.613 -1.30954 -4.6979 0
M  V30 5433 H 521.618 -3.55807 -4.19144 0
M  V30 5434 H 522.843 -4.33763 -5.22519 0
M  V30 5435 H 520.789 -2.29156 -6.14673 0
M  V30 5436 H 520.706 -4.00198 -6.41387 0
M  V30 5437 H 521.974 -3.07746 -7.16179 0
M  V30 5438 N 526.204 0.969867 -1.24223 0
M  V30 5439 C 527.152 2.08535 -1.03034 0
M  V30 5440 C 528.146 1.69366 0.0340379 0
M  V30 5441 O 529.352 1.79597 -0.12034 0
M  V30 5442 H 525.727 0.682313 -0.316154 0
M  V30 5443 H 527.698 2.23569 -1.97635 0
M  V30 5444 C 526.447 3.4158 -0.649509 0
M  V30 5445 H 525.77 3.72177 -1.46028 0
M  V30 5446 H 527.21 4.20536 -0.540841 0
M  V30 5447 C 525.669 3.30703 0.643194 0
M  V30 5448 O 526.199 3.64443 1.68951 0
M  V30 5449 N 524.405 2.83841 0.623095 0
M  V30 5450 H 523.952 2.56583 -0.228719 0
M  V30 5451 H 523.91 2.76946 1.48823 0
M  V30 5452 N 527.682 1.05563 1.17022 0
M  V30 5453 C 528.614 0.617888 2.20714 0
M  V30 5454 C 529.627 -0.320303 1.59618 0
M  V30 5455 O 530.816 -0.112449 1.78145 0
M  V30 5456 C 527.916 -0.115333 3.38704 0
M  V30 5457 C 527.089 0.834493 4.29366 0
M  V30 5458 C 526.148 0.141855 5.26009 0
M  V30 5459 O 525.174 0.777151 5.6387 0
M  V30 5460 N 526.376 -1.11934 5.69606 0
M  V30 5461 H 529.141 1.50981 2.58892 0
M  V30 5462 H 526.702 0.938008 1.31958 0
M  V30 5463 H 528.694 -0.588918 4.00392 0
M  V30 5464 H 527.264 -0.908967 2.99093 0
M  V30 5465 H 526.484 1.48762 3.65053 0
M  V30 5466 H 527.772 1.4791 4.86827 0
M  V30 5467 H 527.17 -1.65574 5.40927 0
M  V30 5468 H 525.727 -1.53692 6.33421 0
M  V30 5469 N 529.16 -1.33526 0.837174 0
M  V30 5470 C 530.406 -1.9813 0.432704 0
M  V30 5471 C 530.739 -1.66168 -1.00508 0
M  V30 5472 O 530.014 -0.94069 -1.70239 0
M  V30 5473 C 530.297 -3.54151 0.651834 0
M  V30 5474 C 530.15 -3.95806 2.13676 0
M  V30 5475 C 531.469 -4.39993 0.0968937 0
M  V30 5476 H 528.588 -0.719713 0.15869 0
M  V30 5477 H 531.23 -1.58193 1.05237 0
M  V30 5478 H 529.38 -3.88301 0.124369 0
M  V30 5479 H 531.052 -3.71921 2.72896 0
M  V30 5480 H 529.295 -3.45599 2.62191 0
M  V30 5481 H 529.966 -5.0447 2.24084 0
M  V30 5482 H 532.442 -4.12479 0.547733 0
M  V30 5483 H 531.318 -5.48186 0.279917 0
M  V30 5484 H 531.579 -4.3066 -0.9992 0
M  V30 5485 N 530.638 -0.59345 -1.46 0
M  V30 5486 C 531.863 -0.0872365 -2.07216 0
M  V30 5487 C 532.288 1.2131 -1.43755 0
M  V30 5488 O 531.646 1.73528 -0.525152 0
M  V30 5489 C 531.694 0.0538197 -3.6056 0
M  V30 5490 O 530.798 1.10765 -3.97247 0
M  V30 5491 H 530.139 -0.0676598 -0.660544 0
M  V30 5492 H 532.669 -0.819445 -1.87473 0
M  V30 5493 H 532.679 0.256567 -4.07193 0
M  V30 5494 H 531.354 -0.895739 -4.0614 0
M  V30 5495 H 529.931 0.882501 -3.62307 0
M  V30 5496 N 532.116 1.54067 -0.331816 0
M  V30 5497 C 533.046 2.27569 0.522932 0
M  V30 5498 C 534.027 1.28679 1.11247 0
M  V30 5499 O 535.212 1.57504 1.13605 0
M  V30 5500 C 532.342 3.0397 1.67987 0
M  V30 5501 C 531.296 4.10267 1.21924 0
M  V30 5502 C 530.622 4.74555 2.46377 0
M  V30 5503 C 531.922 5.21268 0.32815 0
M  V30 5504 H 533.616 2.99264 -0.0901977 0
M  V30 5505 H 531.162 1.4393 -0.044821 0
M  V30 5506 H 533.115 3.54123 2.28418 0
M  V30 5507 H 531.839 2.29906 2.31971 0
M  V30 5508 H 530.498 3.61009 0.637809 0
M  V30 5509 H 530.146 3.97098 3.08743 0
M  V30 5510 H 529.846 5.46363 2.16243 0
M  V30 5511 H 531.37 5.27487 3.07555 0
M  V30 5512 H 532.784 5.67128 0.838978 0
M  V30 5513 H 531.181 5.99982 0.119228 0
M  V30 5514 H 532.251 4.80673 -0.638839 0
M  V30 5515 N 533.594 0.0601682 1.57485 0
M  V30 5516 C 534.822 -0.620937 1.97363 0
M  V30 5517 C 535.237 -1.63846 0.938082 0
M  V30 5518 O 534.594 -1.82339 -0.0766578 0
M  V30 5519 C 534.645 -1.29987 3.37321 0
M  V30 5520 O 534.366 -0.323081 4.36907 0
M  V30 5521 C 535.867 -2.06989 3.92008 0
M  V30 5522 H 533.087 -0.169135 0.649334 0
M  V30 5523 H 535.631 0.129132 2.04092 0
M  V30 5524 H 533.786 -2.0011 3.31715 0
M  V30 5525 H 534.2 -0.808754 5.18227 0
M  V30 5526 H 535.674 -2.49901 4.92192 0
M  V30 5527 H 536.151 -2.92173 3.2792 0
M  V30 5528 H 536.757 -1.41757 4.0098 0
M  V30 5529 N 535.072 -1.5615 -0.213296 0
M  V30 5530 C 536.312 -1.81325 -0.943435 0
M  V30 5531 C 536.676 -0.634934 -1.81198 0
M  V30 5532 O 537.877 -0.766166 -2.5765 0
M  V30 5533 C 536.148 -3.11437 -1.75334 0
M  V30 5534 S 537.707 -3.57955 -2.53799 0
M  V30 5535 H 534.525 -0.636538 -0.316766 0
M  V30 5536 H 537.127 -1.94387 -0.208313 0
M  V30 5537 H 535.831 -3.95228 -1.10556 0
M  V30 5538 H 535.362 -3.01204 -2.53061 0
M  V30 5539 H 537.377 -3.21947 -3.77577 0
M  V30 5540 N 536.55 0.480323 -1.50102 0
M  V30 5541 C 537.48 1.58769 -1.71215 0
M  V30 5542 C 538.461 1.60583 -0.560997 0
M  V30 5543 O 539.646 1.76996 -0.799127 0
M  V30 5544 C 536.776 2.97148 -1.79778 0
M  V30 5545 C 535.73 3.10201 -2.94888 0
M  V30 5546 C 535.056 4.50137 -2.88584 0
M  V30 5547 C 536.356 2.88283 -4.35534 0
M  V30 5548 H 538.05 1.41354 -2.6393 0
M  V30 5549 H 535.596 0.678591 -1.27008 0
M  V30 5550 H 537.549 3.74536 -1.93133 0
M  V30 5551 H 536.273 3.15699 -0.836772 0
M  V30 5552 H 534.932 2.35244 -2.81169 0
M  V30 5553 H 534.58 4.65593 -1.90349 0
M  V30 5554 H 534.28 4.59808 -3.65856 0
M  V30 5555 H 535.804 5.29558 -3.03976 0
M  V30 5556 H 537.218 3.55427 -4.49827 0
M  V30 5557 H 535.615 3.09408 -5.14186 0
M  V30 5558 H 536.685 1.84219 -4.48544 0
M  V30 5559 N 538.028 1.39524 0.732853 0
M  V30 5560 C 539.274 1.37068 1.49467 0
M  V30 5561 C 539.607 -0.0327166 1.94172 0
M  V30 5562 O 538.882 -0.998071 1.66939 0
M  V30 5563 C 539.165 2.34494 2.73285 0
M  V30 5564 C 539.018 3.83784 2.34585 0
M  V30 5565 C 540.337 2.29717 3.75391 0
M  V30 5566 H 537.456 0.499206 0.542183 0
M  V30 5567 H 540.098 1.70532 0.837783 0
M  V30 5568 H 538.248 2.06087 3.29333 0
M  V30 5569 H 539.92 4.22949 1.84151 0
M  V30 5570 H 538.163 4.00455 1.66787 0
M  V30 5571 H 538.834 4.47444 3.23262 0
M  V30 5572 H 541.31 2.54839 3.28932 0
M  V30 5573 H 540.186 2.99962 4.59689 0
M  V30 5574 H 540.447 1.30291 4.22465 0
M  V30 5575 N 539.506 -0.963266 1.24736 0
M  V30 5576 C 540.453 -2.05857 1.04363 0
M  V30 5577 C 541.423 -1.6604 -0.0444951 0
M  V30 5578 O 542.608 -1.90477 0.110999 0
M  V30 5579 C 539.748 -3.38745 0.659235 0
M  V30 5580 C 538.861 -3.9173 1.82131 0
M  V30 5581 C 537.996 -5.12906 1.38208 0
M  V30 5582 C 537.035 -5.58098 2.51382 0
M  V30 5583 N 536.172 -6.7049 2.08295 0
M  V30 5584 H 541.012 -2.22616 1.98107 0
M  V30 5585 H 538.549 -1.09103 0.986661 0
M  V30 5586 H 540.507 -4.15107 0.417371 0
M  V30 5587 H 539.137 -3.21898 -0.241201 0
M  V30 5588 H 538.189 -3.11966 2.17672 0
M  V30 5589 H 539.501 -4.21225 2.67153 0
M  V30 5590 H 538.655 -5.96657 1.09935 0
M  V30 5591 H 537.394 -4.85105 0.502456 0
M  V30 5592 H 536.399 -4.72917 2.80409 0
M  V30 5593 H 537.624 -5.87911 3.39909 0
M  V30 5594 H 535.57 -6.44416 1.22737 0
M  V30 5595 H 535.487 -6.99458 2.86869 0
M  V30 5596 H 536.755 -7.57672 1.83175 0
M  V30 5597 N 540.985 -1.06182 -1.16461 0
M  V30 5598 C 542.233 -0.776326 -1.86595 0
M  V30 5599 C 542.554 0.69921 -1.82033 0
M  V30 5600 O 541.824 1.50579 -1.2531 0
M  V30 5601 H 540.404 -0.284184 -0.690832 0
M  V30 5602 H 543.066 -1.34308 -1.41235 0
M  V30 5603 H 542.162 -1.10022 -2.92064 0
M  V30 5604 N 542.463 1.3308 -0.844243 0
M  V30 5605 C 543.71 1.97605 -0.44255 0
M  V30 5606 C 544.038 1.66856 0.999458 0
M  V30 5607 O 543.293 0.943586 1.7145 0
M  V30 5608 C 543.592 3.52045 -0.616354 0
M  V30 5609 C 543.258 4.02757 -2.02726 0
M  V30 5610 C 541.92 4.16316 -2.41317 0
M  V30 5611 C 544.272 4.29776 -2.9486 0
M  V30 5612 C 541.6 4.54232 -3.71335 0
M  V30 5613 C 543.952 4.69146 -4.24364 0
M  V30 5614 C 542.616 4.80911 -4.62904 0
M  V30 5615 H 541.886 0.723088 -0.161941 0
M  V30 5616 H 544.533 1.58663 -1.0723 0
M  V30 5617 H 542.838 3.91681 0.0966812 0
M  V30 5618 H 544.535 3.99981 -0.285756 0
M  V30 5619 H 541.125 3.9268 -1.71756 0
M  V30 5620 H 545.309 4.18818 -2.6628 0
M  V30 5621 H 540.565 4.61535 -4.00993 0
M  V30 5622 H 544.739 4.89008 -4.95827 0
M  V30 5623 H 542.366 5.10048 -5.63698 0
M  V30 5624 N 543.941 0.601185 1.45683 0
M  V30 5625 C 545.171 0.0999093 2.06358 0
M  V30 5626 C 545.579 -1.21831 1.44754 0
M  V30 5627 O 544.922 -1.75157 0.553695 0
M  V30 5628 C 544.984 -0.12085 3.59297 0
M  V30 5629 C 544.648 1.11459 4.432 0
M  V30 5630 C 545.645 2.03118 4.7858 0
M  V30 5631 C 543.33 1.34162 4.84051 0
M  V30 5632 C 545.324 3.15814 5.53661 0
M  V30 5633 C 543.011 2.4716 5.58888 0
M  V30 5634 C 544.009 3.37814 5.93608 0
M  V30 5635 O 543.697 4.48846 6.66928 0
M  V30 5636 H 543.429 0.0630316 0.673055 0
M  V30 5637 H 545.983 0.826982 1.88016 0
M  V30 5638 H 544.213 -0.902744 3.76015 0
M  V30 5639 H 545.902 -0.572925 4.01836 0
M  V30 5640 H 546.668 1.86801 4.47583 0
M  V30 5641 H 542.547 0.645018 4.56465 0
M  V30 5642 H 546.091 3.86596 5.8068 0
M  V30 5643 H 541.988 2.63432 5.89299 0
M  V30 5644 H 542.756 4.47446 6.85371 0
M  V30 5645 N 545.419 -1.53889 0.339982 0
M  V30 5646 C 546.83 -1.86139 -0.144671 0
M  V30 5647 C 547.181 -1.2613 -1.50285 0
M  V30 5648 O 546.306 -0.573515 -2.08662 0
M  V30 5649 C 546.901 -3.37728 -0.269285 0
M  V30 5650 C 545.46 -3.69868 -0.698168 0
M  V30 5651 C 544.607 -2.76777 0.170249 0
M  V30 5652 H 547.558 -1.48503 0.559704 0
M  V30 5653 H 547.579 -3.64331 -1.0974 0
M  V30 5654 H 547.091 -3.81375 0.719366 0
M  V30 5655 H 545.192 -3.31764 -1.69597 0
M  V30 5656 H 545.305 -4.76582 -0.490533 0
M  V30 5657 H 543.669 -2.52188 -0.356844 0
M  V30 5658 H 544.452 -3.23253 1.15597 0
M  V30 5659 N 546.897 -0.0685191 -1.57451 0
M  V30 5660 C 548.122 0.613919 -1.98106 0
M  V30 5661 C 548.547 1.62551 -0.946501 0
M  V30 5662 O 547.905 1.81085 0.0882824 0
M  V30 5663 C 547.953 1.26189 -3.378 0
M  V30 5664 O 547.057 2.37773 -3.36954 0
M  V30 5665 H 546.398 0.158163 -0.644888 0
M  V30 5666 H 548.928 -0.142063 -2.04106 0
M  V30 5667 H 548.938 1.60951 -3.74912 0
M  V30 5668 H 547.613 0.520625 -4.12629 0
M  V30 5669 H 546.19 2.04829 -3.11608 0
M  V30 5670 N 548.375 1.56261 0.205012 0
M  V30 5671 C 549.652 1.70856 0.952233 0
M  V30 5672 C 550.032 0.620501 2.01775 0
M  V30 5673 O 549.38 -0.370035 2.25484 0
M  V30 5674 C 549.59 3.12807 1.54767 0
M  V30 5675 C 550.938 3.72733 2.0336 0
M  V30 5676 O 551.962 3.15873 1.64629 0
M  V30 5677 O 550.821 4.72501 2.746 0
M  V30 5678 H 547.915 0.696496 0.445895 0
M  V30 5679 H 550.461 1.6857 0.195489 0
M  V30 5680 H 549.233 3.83465 0.779132 0
M  V30 5681 H 548.856 3.1928 2.36951 0
M  V30 5682 N 549.853 -0.472356 1.50355 0
M  V30 5683 C 551.102 -1.2213 1.60522 0
M  V30 5684 C 551.415 -1.9312 0.310466 0
M  V30 5685 O 552.621 -2.69936 0.291029 0
M  V30 5686 C 551.077 -2.21909 2.83345 0
M  V30 5687 C 550.685 -1.56727 4.19691 0
M  V30 5688 C 552.429 -2.97453 3.02856 0
M  V30 5689 C 550.336 -2.54785 5.33703 0
M  V30 5690 H 549.266 -0.459543 0.597776 0
M  V30 5691 H 551.917 -0.491922 1.76783 0
M  V30 5692 H 550.299 -2.98133 2.60639 0
M  V30 5693 H 551.473 -0.863007 4.52646 0
M  V30 5694 H 549.788 -0.934685 4.05774 0
M  V30 5695 H 552.385 -3.70838 3.85205 0
M  V30 5696 H 552.728 -3.56764 2.14534 0
M  V30 5697 H 553.261 -2.28342 3.25737 0
M  V30 5698 H 550 -2.00214 6.24175 0
M  V30 5699 H 549.52 -3.23367 5.05167 0
M  V30 5700 H 551.199 -3.16639 5.64224 0
M  V30 5701 N 551.331 -1.39911 -0.725443 0
M  V30 5702 C 552.294 -1.39156 -1.82121 0
M  V30 5703 C 553.294 -0.287018 -1.58218 0
M  V30 5704 O 554.484 -0.545421 -1.65441 0
M  V30 5705 C 551.616 -1.1736 -3.20062 0
M  V30 5706 H 552.809 -2.36672 -1.84191 0
M  V30 5707 H 550.362 -1.25615 -0.930079 0
M  V30 5708 H 551.097 -0.205648 -3.23647 0
M  V30 5709 H 550.882 -1.97358 -3.3881 0
M  V30 5710 H 552.372 -1.19596 -4.00108 0
M  V30 5711 N 552.809 0.956637 -1.25245 0
M  V30 5712 C 554.055 1.70352 -1.10036 0
M  V30 5713 C 554.388 1.90869 0.358156 0
M  V30 5714 O 553.663 1.47819 1.26411 0
M  V30 5715 C 553.946 3.08766 -1.85298 0
M  V30 5716 C 553.799 2.95672 -3.38966 0
M  V30 5717 C 555.118 4.08622 -1.63451 0
M  V30 5718 H 552.237 0.618279 -0.401123 0
M  V30 5719 H 554.879 1.11212 -1.54051 0
M  V30 5720 H 553.029 3.59252 -1.47887 0
M  V30 5721 H 554.701 2.52527 -3.86041 0
M  V30 5722 H 552.944 2.31634 -3.6678 0
M  V30 5723 H 553.615 3.93776 -3.86839 0
M  V30 5724 H 556.091 3.67038 -1.96015 0
M  V30 5725 H 554.967 5.03514 -2.18551 0
M  V30 5726 H 555.228 4.3834 -0.575357 0
M  V30 5727 N 554.287 1.06798 1.15896 0
M  V30 5728 C 555.197 0.694564 2.24083 0
M  V30 5729 C 556.213 -0.291687 1.71538 0
M  V30 5730 O 557.389 -0.139723 2.00915 0
M  V30 5731 C 554.454 0.0921014 3.46578 0
M  V30 5732 C 553.515 1.13087 4.14137 0
M  V30 5733 C 552.748 0.557064 5.30785 0
M  V30 5734 O 552.971 -0.628623 5.66925 0
M  V30 5735 O 551.905 1.29924 5.8771 0
M  V30 5736 H 555.731 1.59663 2.58344 0
M  V30 5737 H 553.316 0.840575 1.2351 0
M  V30 5738 H 555.198 -0.241884 4.20705 0
M  V30 5739 H 553.873 -0.78337 3.14078 0
M  V30 5740 H 552.78 1.51712 3.41957 0
M  V30 5741 H 554.113 1.97805 4.50704 0
M  V30 5742 N 555.766 -1.3263 0.851289 0
M  V30 5743 C 557.012 -1.98061 0.462963 0
M  V30 5744 C 557.367 -1.66162 -0.969948 0
M  V30 5745 O 556.66 -0.937723 -1.67085 0
M  V30 5746 C 556.854 -3.51713 0.635015 0
M  V30 5747 C 556.683 -3.98544 2.0831 0
M  V30 5748 C 555.453 -4.25787 2.72091 0
M  V30 5749 C 557.651 -4.13858 3.0533 0
M  V30 5750 N 555.633 -4.58842 4.07845 0
M  V30 5751 C 557.004 -4.50412 4.26063 0
M  V30 5752 C 559.059 -3.96182 3.0157 0
M  V30 5753 C 557.762 -4.71136 5.43529 0
M  V30 5754 C 559.788 -4.18088 4.18278 0
M  V30 5755 C 559.15 -4.54956 5.37768 0
M  V30 5756 H 555.249 -0.750976 0.218082 0
M  V30 5757 H 557.833 -1.60514 1.10197 0
M  V30 5758 H 556.004 -3.88391 0.0257298 0
M  V30 5759 H 557.736 -4.04118 0.216915 0
M  V30 5760 H 554.491 -4.17734 2.23149 0
M  V30 5761 H 554.915 -4.7956 4.77862 0
M  V30 5762 H 559.557 -3.66783 2.1031 0
M  V30 5763 H 557.275 -4.9939 6.35323 0
M  V30 5764 H 560.861 -4.05918 4.168 0
M  V30 5765 H 559.741 -4.71567 6.26573 0
M  V30 5766 N 557.244 -0.608902 -1.45362 0
M  V30 5767 C 558.154 0.110969 -2.34337 0
M  V30 5768 C 559.17 0.859007 -1.51318 0
M  V30 5769 O 560.346 0.816296 -1.84116 0
M  V30 5770 C 557.411 1.09494 -3.28956 0
M  V30 5771 C 556.472 0.348718 -4.27881 0
M  V30 5772 C 555.705 1.28582 -5.17979 0
M  V30 5773 O 555.928 2.52369 -5.11533 0
M  V30 5774 O 554.862 0.782172 -5.96796 0
M  V30 5775 H 558.688 -0.620258 -2.97299 0
M  V30 5776 H 556.273 -0.36916 -1.44767 0
M  V30 5777 H 558.155 1.66163 -3.87257 0
M  V30 5778 H 556.83 1.80717 -2.68557 0
M  V30 5779 H 555.737 -0.260465 -3.73192 0
M  V30 5780 H 557.07 -0.323049 -4.91139 0
M  V30 5781 N 558.722 1.53707 -0.348139 0
M  V30 5782 C 559.947 2.05877 0.250883 0
M  V30 5783 C 560.372 1.22115 1.43072 0
M  V30 5784 O 559.73 0.235986 1.79758 0
M  V30 5785 C 559.778 3.54886 0.639416 0
M  V30 5786 O 558.882 3.73948 1.73888 0
M  V30 5787 H 558.223 0.662754 0.040653 0
M  V30 5788 H 560.753 1.98303 -0.503685 0
M  V30 5789 H 560.763 3.97601 0.915295 0
M  V30 5790 H 559.438 4.153 -0.223386 0
M  V30 5791 H 558.015 3.43134 1.45991 0
M  V30 5792 N 560.2 0.0768682 1.57412 0
M  V30 5793 C 561.148 -0.906229 2.1422 0
M  V30 5794 C 562.142 -1.30477 1.08037 0
M  V30 5795 O 563.348 -1.28143 1.2641 0
M  V30 5796 H 559.723 -0.310207 0.685037 0
M  V30 5797 H 561.694 -0.402228 2.95677 0
M  V30 5798 C 560.443 -2.16245 2.72274 0
M  V30 5799 H 559.766 -1.86463 3.53655 0
M  V30 5800 H 561.206 -2.83134 3.15613 0
M  V30 5801 C 559.665 -2.92437 1.67279 0
M  V30 5802 O 560.195 -3.86322 1.10081 0
M  V30 5803 N 558.401 -2.55637 1.38195 0
M  V30 5804 H 557.948 -1.79363 1.84897 0
M  V30 5805 H 557.906 -3.06919 0.681787 0
M  V30 5806 N 561.678 -1.56367 -0.196722 0
M  V30 5807 C 562.926 -1.80172 -0.915554 0
M  V30 5808 C 563.247 -0.649649 -1.8386 0
M  V30 5809 O 562.517 0.332111 -1.93064 0
M  V30 5810 H 561.097 -0.664592 -0.341067 0
M  V30 5811 H 563.759 -1.93844 -0.202622 0
M  V30 5812 H 562.855 -2.7327 -1.50764 0
M  V30 5813 N 563.156 0.464375 -1.50603 0
M  V30 5814 C 564.088 1.57916 -1.66118 0
M  V30 5815 C 565.101 1.53497 -0.54246 0
M  V30 5816 O 566.29 1.58763 -0.815877 0
M  V30 5817 C 563.39 2.96809 -1.63577 0
M  V30 5818 C 562.563 3.26026 -2.91592 0
M  V30 5819 C 561.622 4.44506 -2.81604 0
M  V30 5820 O 560.648 4.44484 -3.55559 0
M  V30 5821 N 561.85 5.46549 -1.95614 0
M  V30 5822 H 564.615 1.45022 -2.62276 0
M  V30 5823 H 562.176 0.652903 -1.48151 0
M  V30 5824 H 564.168 3.74048 -1.54499 0
M  V30 5825 H 562.738 3.03438 -0.751262 0
M  V30 5826 H 561.958 2.37337 -3.14746 0
M  V30 5827 H 563.246 3.42361 -3.76386 0
M  V30 5828 H 562.644 5.49391 -1.34854 0
M  V30 5829 H 561.201 6.22746 -1.92435 0
M  V30 5830 N 564.634 1.40294 0.718013 0
M  V30 5831 C 566.045 1.34289 1.29705 0
M  V30 5832 C 566.396 0.0152228 1.96194 0
M  V30 5833 O 565.521 -0.88682 1.97394 0
M  V30 5834 C 566.116 2.43219 2.3586 0
M  V30 5835 C 564.675 2.40682 2.89394 0
M  V30 5836 C 563.822 2.24223 1.63154 0
M  V30 5837 H 566.773 1.50135 0.514312 0
M  V30 5838 H 566.794 2.10986 3.16647 0
M  V30 5839 H 566.306 3.39836 1.87439 0
M  V30 5840 H 564.407 1.47756 3.42051 0
M  V30 5841 H 564.52 3.36177 3.41353 0
M  V30 5842 H 562.884 1.71696 1.88129 0
M  V30 5843 H 563.667 3.22834 1.16761 0
M  V30 5844 N 566.112 -0.949982 1.2575 0
M  V30 5845 C 567.022 -2.08109 1.08295 0
M  V30 5846 C 568.038 -1.7399 0.0188181 0
M  V30 5847 O 569.214 -2.00187 0.220724 0
M  V30 5848 C 566.279 -3.39383 0.708534 0
M  V30 5849 C 565.34 -3.8734 1.85111 0
M  V30 5850 C 564.573 -5.12349 1.49447 0
M  V30 5851 O 564.796 -5.6905 0.392212 0
M  V30 5852 O 563.73 -5.5513 2.32624 0
M  V30 5853 H 567.556 -2.25738 2.03165 0
M  V30 5854 H 565.141 -1.06545 1.04731 0
M  V30 5855 H 567.023 -4.18277 0.512061 0
M  V30 5856 H 565.698 -3.23013 -0.210854 0
M  V30 5857 H 564.605 -3.09429 2.10248 0
M  V30 5858 H 565.938 -4.08216 2.74991 0
M  V30 5859 N 567.59 -1.07411 -1.15328 0
M  V30 5860 C 568.538 -0.689316 -2.22151 0
M  V30 5861 C 569.532 0.300156 -1.6672 0
M  V30 5862 O 570.738 0.163804 -1.79253 0
M  V30 5863 H 567.113 -0.204834 -0.723566 0
M  V30 5864 H 569.084 -1.59988 -2.51886 0
M  V30 5865 C 567.833 -0.103848 -3.47545 0
M  V30 5866 H 567.156 -0.856367 -3.90521 0
M  V30 5867 H 568.596 0.127725 -4.23808 0
M  V30 5868 C 567.055 1.15563 -3.1646 0
M  V30 5869 O 567.585 2.242 -3.33312 0
M  V30 5870 N 565.791 1.06203 -2.70498 0
M  V30 5871 H 565.338 0.177933 -2.56985 0
M  V30 5872 H 565.296 1.90553 -2.50074 0
M  V30 5873 N 569.068 1.32177 -0.85831 0
M  V30 5874 C 570.016 2.30729 -0.294442 0
M  V30 5875 C 571.01 1.59009 0.584165 0
M  V30 5876 O 572.216 1.73713 0.471562 0
M  V30 5877 H 568.591 0.748097 -0.0765171 0
M  V30 5878 H 570.562 2.75774 -1.1398 0
M  V30 5879 C 569.311 3.44098 0.499208 0
M  V30 5880 H 568.634 3.99449 -0.167579 0
M  V30 5881 H 570.074 4.15202 0.859273 0
M  V30 5882 C 568.533 2.91684 1.68588 0
M  V30 5883 O 569.063 2.89481 2.78503 0
M  V30 5884 N 567.269 2.48036 1.51415 0
M  V30 5885 H 566.816 2.50027 0.620006 0
M  V30 5886 H 566.774 2.13322 2.30957 0
M  V30 5887 N 570.547 0.616602 1.45037 0
M  V30 5888 C 571.777 0.121791 2.06241 0
M  V30 5889 C 572.185 -1.20289 1.46038 0
M  V30 5890 O 571.528 -1.7456 0.572242 0
M  V30 5891 C 571.59 -0.0827345 3.59405 0
M  V30 5892 C 571.254 1.16153 4.41993 0
M  V30 5893 C 572.251 2.08183 4.76399 0
M  V30 5894 C 569.936 1.39288 4.82601 0
M  V30 5895 C 571.93 3.21668 5.5028 0
M  V30 5896 C 569.617 2.53073 5.56235 0
M  V30 5897 C 570.615 3.44091 5.89992 0
M  V30 5898 O 570.303 4.55894 6.6213 0
M  V30 5899 H 570.035 0.0701667 0.672349 0
M  V30 5900 H 572.589 0.846877 1.87129 0
M  V30 5901 H 570.819 -0.862812 3.76952 0
M  V30 5902 H 572.508 -0.530273 4.02421 0
M  V30 5903 H 573.274 1.91538 4.45576 0
M  V30 5904 H 569.153 0.693396 4.55755 0
M  V30 5905 H 572.697 3.92733 5.76547 0
M  V30 5906 H 568.594 2.69667 5.86472 0
M  V30 5907 H 569.362 4.5469 6.80587 0
M  V30 5908 N 572.025 -1.5352 0.356285 0
M  V30 5909 C 572.972 -2.25439 -0.494569 0
M  V30 5910 C 573.942 -1.25752 -1.08516 0
M  V30 5911 O 575.127 -1.54513 -1.1194 0
M  V30 5912 C 572.267 -3.04011 -1.63313 0
M  V30 5913 C 571.38 -4.18574 -1.06862 0
M  V30 5914 C 570.515 -4.84607 -2.17552 0
M  V30 5915 C 569.554 -5.91218 -1.58518 0
M  V30 5916 N 568.691 -6.50979 -2.63003 0
M  V30 5917 H 573.531 -2.97737 0.125244 0
M  V30 5918 H 571.068 -1.46916 0.0735789 0
M  V30 5919 H 573.026 -3.47834 -2.30363 0
M  V30 5920 H 571.656 -2.33986 -2.22374 0
M  V30 5921 H 570.708 -3.79303 -0.288672 0
M  V30 5922 H 572.02 -4.95215 -0.596924 0
M  V30 5923 H 571.174 -5.31566 -2.92442 0
M  V30 5924 H 569.913 -4.07418 -2.6807 0
M  V30 5925 H 568.918 -5.4363 -0.821391 0
M  V30 5926 H 570.143 -6.70322 -1.08836 0
M  V30 5927 H 568.089 -5.76648 -3.12751 0
M  V30 5928 H 568.006 -7.23131 -2.20493 0
M  V30 5929 H 569.274 -7.02589 -3.37623 0
M  V30 5930 N 573.503 -0.0852151 -1.57369 0
M  V30 5931 C 574.731 0.58946 -1.98325 0
M  V30 5932 C 575.146 1.62333 -0.96403 0
M  V30 5933 O 574.503 1.82438 0.0476395 0
M  V30 5934 C 574.554 1.24604 -3.39347 0
M  V30 5935 O 574.275 0.253532 -4.37366 0
M  V30 5936 C 575.776 2.00726 -3.95252 0
M  V30 5937 H 572.996 0.158783 -0.651942 0
M  V30 5938 H 575.54 -0.161584 -2.03861 0
M  V30 5939 H 573.695 1.94808 -3.34856 0
M  V30 5940 H 574.109 0.726207 -5.19448 0
M  V30 5941 H 575.583 2.42039 -4.96106 0
M  V30 5942 H 576.06 2.86919 -3.32527 0
M  V30 5943 H 576.666 1.3536 -4.03185 0
M  V30 5944 N 574.981 1.5647 0.188427 0
M  V30 5945 C 576.209 1.85131 0.923803 0
M  V30 5946 C 576.624 0.668537 1.76567 0
M  V30 5947 O 575.981 -0.362662 1.7886 0
M  V30 5948 C 576.032 3.12661 1.81453 0
M  V30 5949 O 575.753 4.26378 1.00665 0
M  V30 5950 C 577.254 3.54548 2.66103 0
M  V30 5951 H 574.474 0.614624 0.269218 0
M  V30 5952 H 577.018 2.03581 0.193671 0
M  V30 5953 H 575.173 2.96088 2.49821 0
M  V30 5954 H 575.587 4.99041 1.61425 0
M  V30 5955 H 577.061 4.4673 3.24247 0
M  V30 5956 H 577.538 2.77853 3.40139 0
M  V30 5957 H 578.144 3.73674 2.03096 0
M  V30 5958 N 576.459 -0.456382 1.50847 0
M  V30 5959 C 577.87 -1.03685 1.55262 0
M  V30 5960 C 578.221 -1.92779 0.364771 0
M  V30 5961 O 577.346 -2.10043 -0.52068 0
M  V30 5962 C 577.941 -1.88718 2.81374 0
M  V30 5963 C 576.5 -2.41847 2.88422 0
M  V30 5964 C 575.647 -1.20564 2.49719 0
M  V30 5965 H 578.598 -0.238399 1.56899 0
M  V30 5966 H 578.619 -2.73957 2.6406 0
M  V30 5967 H 578.131 -1.23847 3.67809 0
M  V30 5968 H 576.232 -3.10228 2.06372 0
M  V30 5969 H 576.345 -2.75947 3.9165 0
M  V30 5970 H 574.709 -1.54504 2.02486 0
M  V30 5971 H 575.492 -0.573326 3.38479 0
M  V30 5972 N 577.937 -1.40673 -0.710563 0
M  V30 5973 C 579.348 -1.34975 -1.28991 0
M  V30 5974 C 579.699 -0.0256272 -1.96183 0
M  V30 5975 O 578.824 0.876339 -1.97862 0
M  V30 5976 C 579.419 -2.44467 -2.34567 0
M  V30 5977 C 577.978 -2.42213 -2.88114 0
M  V30 5978 C 577.125 -2.25085 -1.61963 0
M  V30 5979 H 580.076 -1.50406 -0.506343 0
M  V30 5980 H 580.097 -2.12663 -3.15523 0
M  V30 5981 H 579.609 -3.40825 -1.85634 0
M  V30 5982 H 577.71 -1.49568 -3.41263 0
M  V30 5983 H 577.823 -3.37983 -3.39565 0
M  V30 5984 H 576.187 -1.72691 -1.87216 0
M  V30 5985 H 576.97 -3.23449 -1.15047 0
M  V30 5986 N 579.415 0.9433 -1.26252 0
M  V30 5987 C 580.661 1.69175 -1.11837 0
M  V30 5988 C 580.994 1.91238 0.337891 0
M  V30 5989 O 580.269 1.49152 1.24836 0
M  V30 5990 C 580.552 3.06783 -1.88563 0
M  V30 5991 C 580.405 2.9206 -3.42083 0
M  V30 5992 C 581.724 4.06865 -1.67776 0
M  V30 5993 H 578.843 0.61399 -0.407658 0
M  V30 5994 H 581.485 1.09572 -1.55222 0
M  V30 5995 H 579.635 3.57663 -1.51689 0
M  V30 5996 H 581.307 2.48419 -3.88698 0
M  V30 5997 H 579.55 2.27731 -3.69217 0
M  V30 5998 H 580.221 3.89651 -3.90994 0
M  V30 5999 H 582.697 3.64939 -1.99897 0
M  V30 6000 H 581.573 5.01168 -2.23879 0
M  V30 6001 H 581.834 4.37705 -0.621816 0
M  V30 6002 N 580.893 1.08022 1.14757 0
M  V30 6003 C 581.823 0.728248 2.21853 0
M  V30 6004 C 582.804 -0.287486 1.67653 0
M  V30 6005 O 583.989 -0.158727 1.9355 0
M  V30 6006 C 581.119 0.132549 3.47047 0
M  V30 6007 C 580.073 1.07619 4.14249 0
M  V30 6008 C 579.399 0.342907 5.33599 0
M  V30 6009 C 580.699 2.41268 4.63235 0
M  V30 6010 H 582.393 1.62365 2.51551 0
M  V30 6011 H 579.939 0.782125 1.20908 0
M  V30 6012 H 581.892 -0.125665 4.21213 0
M  V30 6013 H 580.616 -0.797971 3.16702 0
M  V30 6014 H 579.275 1.31944 3.42033 0
M  V30 6015 H 578.923 -0.59129 4.99513 0
M  V30 6016 H 578.623 0.971955 5.79506 0
M  V30 6017 H 580.147 0.0926538 6.1053 0
M  V30 6018 H 581.561 2.21232 5.28894 0
M  V30 6019 H 579.958 2.9983 5.19829 0
M  V30 6020 H 581.028 3.03079 3.78512 0
M  V30 6021 N 582.371 -1.3172 0.865308 0
M  V30 6022 C 583.648 -1.91574 0.394789 0
M  V30 6023 C 584.028 -1.78769 -1.12271 0
M  V30 6024 O 583.376 -1.19245 -1.94918 0
M  V30 6025 C 583.586 -3.37957 0.870982 0
M  V30 6026 C 584.934 -4.15073 0.894384 0
M  V30 6027 O 585.958 -3.4672 0.816325 0
M  V30 6028 O 584.817 -5.37151 1.00651 0
M  V30 6029 H 581.911 -0.818649 0.117229 0
M  V30 6030 H 584.457 -1.4042 0.952913 0
M  V30 6031 H 583.229 -3.41269 1.91444 0
M  V30 6032 H 582.852 -3.96534 0.290907 0
M  V30 6033 N 583.85 -0.624285 -1.44708 0
M  V30 6034 C 585.075 -0.131171 -2.06985 0
M  V30 6035 C 585.5 1.18234 -1.46295 0
M  V30 6036 O 584.858 1.72375 -0.561842 0
M  V30 6037 C 584.906 -0.0226724 -3.60593 0
M  V30 6038 O 584.01 1.02314 -3.99507 0
M  V30 6039 H 583.351 -0.0816556 -0.65896 0
M  V30 6040 H 585.88 -0.859027 -1.85693 0
M  V30 6041 H 585.891 0.170138 -4.07645 0
M  V30 6042 H 584.566 -0.981685 -4.04148 0
M  V30 6043 H 583.143 0.805452 -3.64097 0
M  V30 6044 N 585.328 1.53329 -0.364422 0
M  V30 6045 C 586.605 1.93557 0.281962 0
M  V30 6046 C 586.985 1.29786 1.6649 0
M  V30 6047 O 586.333 0.456512 2.23893 0
M  V30 6048 C 586.543 3.47405 0.333331 0
M  V30 6049 C 587.891 4.20699 0.574231 0
M  V30 6050 O 588.915 3.53779 0.414588 0
M  V30 6051 O 587.774 5.39287 0.885002 0
M  V30 6052 H 584.868 0.809573 0.168881 0
M  V30 6053 H 587.414 1.64494 -0.417121 0
M  V30 6054 H 586.186 3.86091 -0.636326 0
M  V30 6055 H 585.809 3.82697 1.07836 0
M  V30 6056 N 586.806 0.0935595 1.57322 0
M  V30 6057 C 588.054 -0.569383 1.93913 0
M  V30 6058 C 588.375 -1.68817 0.976009 0
M  V30 6059 O 587.645 -1.9588 0.0278099 0
M  V30 6060 H 586.225 -0.21332 0.715894 0
M  V30 6061 H 588.887 0.156531 1.9427 0
M  V30 6062 H 587.983 -0.980577 2.96296 0
M  V30 6063 N 588.284 -1.56567 -0.180126 0
M  V30 6064 C 589.509 -1.85975 -0.918041 0
M  V30 6065 C 589.934 -0.678888 -1.75422 0
M  V30 6066 O 589.292 0.372168 -1.77439 0
M  V30 6067 C 589.34 -3.13731 -1.77779 0
M  V30 6068 O 588.444 -2.95335 -2.87838 0
M  V30 6069 H 587.785 -0.61196 -0.257683 0
M  V30 6070 H 590.315 -2.03798 -0.180923 0
M  V30 6071 H 590.325 -3.4491 -2.17948 0
M  V30 6072 H 589 -3.99293 -1.16352 0
M  V30 6073 H 587.577 -2.7549 -2.51316 0
M  V30 6074 N 589.762 0.448376 -1.51087 0
M  V30 6075 C 591.009 1.19872 -1.63209 0
M  V30 6076 C 591.337 1.91451 -0.343062 0
M  V30 6077 O 590.592 1.83789 0.672321 0
M  V30 6078 C 590.891 2.24866 -2.77795 0
M  V30 6079 C 590.557 1.70378 -4.17471 0
M  V30 6080 C 589.219 1.55241 -4.55471 0
M  V30 6081 C 591.571 1.30203 -5.04675 0
M  V30 6082 C 588.899 0.983844 -5.78392 0
M  V30 6083 C 591.251 0.747798 -6.28165 0
M  V30 6084 C 589.915 0.583233 -6.64947 0
M  V30 6085 H 589.185 0.438642 -0.597222 0
M  V30 6086 H 591.832 0.49136 -1.85089 0
M  V30 6087 H 590.137 3.01598 -2.50092 0
M  V30 6088 H 591.834 2.82723 -2.84374 0
M  V30 6089 H 588.424 1.83134 -3.87505 0
M  V30 6090 H 592.608 1.40723 -4.75932 0
M  V30 6091 H 587.864 0.844007 -6.05546 0
M  V30 6092 H 592.038 0.427927 -6.95084 0
M  V30 6093 H 589.665 0.140532 -7.6007 0
M  V30 6094 N 591.24 1.41047 0.703093 0
M  V30 6095 C 592.487 1.4 1.46309 0
M  V30 6096 C 592.815 0.00654574 1.94499 0
M  V30 6097 O 592.07 -0.980255 1.6938 0
M  V30 6098 C 592.369 2.34686 2.6955 0
M  V30 6099 C 592.035 3.81684 2.40058 0
M  V30 6100 C 590.697 4.21731 2.31725 0
M  V30 6101 C 593.049 4.74525 2.15581 0
M  V30 6102 C 590.377 5.52637 1.97001 0
M  V30 6103 C 592.729 6.05744 1.82366 0
M  V30 6104 C 591.393 6.44819 1.72524 0
M  V30 6105 H 590.663 0.512295 0.535382 0
M  V30 6106 H 593.31 1.73792 0.804275 0
M  V30 6107 H 591.615 1.94122 3.40329 0
M  V30 6108 H 593.312 2.31152 3.27673 0
M  V30 6109 H 589.902 3.49963 2.47435 0
M  V30 6110 H 594.086 4.44395 2.20968 0
M  V30 6111 H 589.342 5.81802 1.87928 0
M  V30 6112 H 593.516 6.77189 1.62444 0
M  V30 6113 H 591.143 7.46168 1.45385 0
M  V30 6114 N 592.718 -0.936591 1.26751 0
M  V30 6115 C 593.648 -2.05315 1.11212 0
M  V30 6116 C 594.629 -1.70092 0.0160262 0
M  V30 6117 O 595.814 -1.93279 0.188894 0
M  V30 6118 C 592.944 -3.39123 0.749171 0
M  V30 6119 C 591.898 -3.88425 1.79751 0
M  V30 6120 C 591.224 -5.18936 1.28876 0
M  V30 6121 C 592.524 -4.12798 3.19992 0
M  V30 6122 H 594.218 -2.18573 2.04613 0
M  V30 6123 H 591.764 -1.05027 0.985159 0
M  V30 6124 H 593.717 -4.16704 0.627323 0
M  V30 6125 H 592.441 -3.25855 -0.220543 0
M  V30 6126 H 591.1 -3.13028 1.90811 0
M  V30 6127 H 590.748 -5.02051 0.308757 0
M  V30 6128 H 590.448 -5.52892 1.98958 0
M  V30 6129 H 591.972 -5.99096 1.17967 0
M  V30 6130 H 593.386 -4.80977 3.11983 0
M  V30 6131 H 591.783 -4.58044 3.87705 0
M  V30 6132 H 592.853 -3.18412 3.65707 0
M  V30 6133 N 594.196 -1.08629 -1.14182 0
M  V30 6134 C 595.426 -0.837673 -1.88856 0
M  V30 6135 C 595.834 0.614024 -1.78959 0
M  V30 6136 O 595.177 1.43384 -1.14833 0
M  V30 6137 C 595.239 -1.18355 -3.39459 0
M  V30 6138 C 594.903 -2.63848 -3.73139 0
M  V30 6139 C 595.9 -3.62099 -3.73069 0
M  V30 6140 C 593.585 -2.99761 -4.03049 0
M  V30 6141 C 595.579 -4.94292 -4.02435 0
M  V30 6142 C 593.266 -4.32147 -4.32078 0
M  V30 6143 C 594.264 -5.29223 -4.31755 0
M  V30 6144 O 593.952 -6.59229 -4.60079 0
M  V30 6145 H 593.684 -0.301609 -0.604986 0
M  V30 6146 H 596.238 -1.44961 -1.45518 0
M  V30 6147 H 594.468 -0.514628 -3.8326 0
M  V30 6148 H 596.157 -0.915391 -3.95443 0
M  V30 6149 H 596.923 -3.35698 -3.50046 0
M  V30 6150 H 592.802 -2.2484 -4.02453 0
M  V30 6151 H 596.346 -5.70055 -4.02098 0
M  V30 6152 H 592.243 -4.58296 -4.54571 0
M  V30 6153 H 593.011 -6.64578 -4.77785 0
M  V30 6154 N 595.674 1.31259 -0.872281 0
M  V30 6155 C 596.899 2.0133 -0.498099 0
M  V30 6156 C 597.324 1.65031 0.902568 0
M  V30 6157 O 596.682 0.860164 1.59596 0
M  V30 6158 C 596.73 3.54411 -0.665205 0
M  V30 6159 O 595.834 4.11347 0.294473 0
M  V30 6160 H 595.175 0.633844 -0.197832 0
M  V30 6161 H 597.705 1.67402 -1.17633 0
M  V30 6162 H 597.715 4.04147 -0.559373 0
M  V30 6163 H 596.39 3.80171 -1.68651 0
M  V30 6164 H 594.967 3.72624 0.143403 0
M  V30 6165 N 597.152 0.631951 1.44375 0
M  V30 6166 C 598.568 0.297642 1.568 0
M  V30 6167 C 598.768 -1.19916 1.61934 0
M  V30 6168 O 597.824 -1.98324 1.56281 0
M  V30 6169 C 599.137 0.990286 2.83926 0
M  V30 6170 C 600.685 0.968507 2.97639 0
M  V30 6171 C 601.16 1.64163 4.27568 0
M  V30 6172 N 602.651 1.60826 4.34384 0
M  V30 6173 C 603.386 2.09802 5.33639 0
M  V30 6174 N 602.882 2.66973 6.39294 0
M  V30 6175 N 604.675 2.00426 5.25153 0
M  V30 6176 H 596.826 1.60353 1.39286 0
M  V30 6177 H 599.089 0.673142 0.667521 0
M  V30 6178 H 598.795 2.04519 2.8612 0
M  V30 6179 H 598.669 0.528563 3.73478 0
M  V30 6180 H 601.056 -0.0779247 2.94997 0
M  V30 6181 H 601.137 1.46873 2.09433 0
M  V30 6182 H 600.781 2.68752 4.3097 0
M  V30 6183 H 600.711 1.11624 5.14634 0
M  V30 6184 H 603.202 1.19087 3.58646 0
M  V30 6185 H 603.515 3.02074 7.11316 0
M  V30 6186 H 601.86 2.71024 6.39977 0
M  V30 6187 H 605.051 1.55483 4.41523 0
M  V30 6188 H 605.224 2.38906 6.02352 0
M  V30 6189 N 598.631 -1.53133 0.372548 0
M  V30 6190 C 599.561 -2.28876 -0.462412 0
M  V30 6191 C 600.542 -1.31583 -1.07796 0
M  V30 6192 O 601.727 -1.60461 -1.09389 0
M  V30 6193 C 598.857 -3.08317 -1.59868 0
M  V30 6194 C 597.811 -4.13355 -1.11003 0
M  V30 6195 C 597.137 -4.8092 -2.33708 0
M  V30 6196 C 598.437 -5.21955 -0.18983 0
M  V30 6197 H 600.131 -2.9892 0.169511 0
M  V30 6198 H 597.677 -1.43761 0.0829658 0
M  V30 6199 H 599.63 -3.60055 -2.18949 0
M  V30 6200 H 598.354 -2.35976 -2.25794 0
M  V30 6201 H 597.013 -3.62573 -0.541869 0
M  V30 6202 H 596.661 -4.05144 -2.98106 0
M  V30 6203 H 596.361 -5.51904 -2.01682 0
M  V30 6204 H 597.885 -5.35455 -2.93462 0
M  V30 6205 H 599.299 -5.69153 -0.688319 0
M  V30 6206 H 597.696 -6.00087 0.0398887 0
M  V30 6207 H 598.766 -4.78811 0.766057 0
M  V30 6208 N 600.109 -0.101901 -1.5727 0
M  V30 6209 C 601.337 0.568392 -1.98939 0
M  V30 6210 C 601.752 1.61301 -0.981194 0
M  V30 6211 O 601.109 1.82478 0.0282869 0
M  V30 6212 C 601.16 1.20997 -3.40649 0
M  V30 6213 O 600.881 0.207129 -4.3761 0
M  V30 6214 C 602.382 1.96523 -3.97358 0
M  V30 6215 H 599.602 0.15186 -0.65359 0
M  V30 6216 H 602.146 -0.183198 -2.03678 0
M  V30 6217 H 600.301 1.91245 -3.36904 0
M  V30 6218 H 600.715 0.671071 -5.20189 0
M  V30 6219 H 602.189 2.36764 -4.98645 0
M  V30 6220 H 602.666 2.83376 -3.35552 0
M  V30 6221 H 603.272 1.31076 -4.04598 0
M  V30 6222 N 601.587 1.56661 0.17182 0
M  V30 6223 C 602.833 1.82235 0.889845 0
M  V30 6224 C 603.166 0.679673 1.81918 0
M  V30 6225 O 602.441 -0.318404 1.91876 0
M  V30 6226 C 602.724 3.18195 1.68595 0
M  V30 6227 C 602.577 4.42989 0.779773 0
M  V30 6228 C 603.896 3.5109 2.65375 0
M  V30 6229 H 601.015 0.66291 0.322056 0
M  V30 6230 H 603.657 1.89358 0.15608 0
M  V30 6231 H 601.807 3.12253 2.3115 0
M  V30 6232 H 603.479 4.60997 0.16714 0
M  V30 6233 H 601.722 4.33711 0.0877964 0
M  V30 6234 H 602.393 5.3467 1.3723 0
M  V30 6235 H 604.869 3.57482 2.12946 0
M  V30 6236 H 603.745 4.47298 3.18144 0
M  V30 6237 H 604.006 2.75768 3.45549 0
M  V30 6238 N 603.065 -0.440357 1.51323 0
M  V30 6239 C 604.342 -1.20109 1.5438 0
M  V30 6240 C 604.722 -2.08866 0.306303 0
M  V30 6241 O 604.07 -2.1723 -0.708773 0
M  V30 6242 C 604.28 -2.00555 2.8562 0
M  V30 6243 C 605.628 -2.577 3.37455 0
M  V30 6244 O 606.652 -2.10769 2.8715 0
M  V30 6245 O 605.511 -3.43289 4.25224 0
M  V30 6246 H 602.605 -0.546668 0.620551 0
M  V30 6247 H 605.151 -0.449672 1.63634 0
M  V30 6248 H 603.923 -1.35346 3.67147 0
M  V30 6249 H 603.546 -2.82768 2.79514 0
M  V30 6250 N 604.543 -1.41418 -0.695603 0
M  V30 6251 C 605.49 -1.43264 -1.80954 0
M  V30 6252 C 606.46 -0.287016 -1.63601 0
M  V30 6253 O 607.645 -0.488054 -1.84452 0
M  V30 6254 C 604.785 -1.32054 -3.18835 0
M  V30 6255 C 603.898 -2.56485 -3.4762 0
M  V30 6256 C 603.033 -2.3757 -4.75115 0
M  V30 6257 C 602.072 -3.57477 -4.96867 0
M  V30 6258 N 601.209 -3.37632 -6.15588 0
M  V30 6259 H 606.049 -2.38467 -1.78711 0
M  V30 6260 H 603.586 -1.18415 -0.872715 0
M  V30 6261 H 605.544 -1.23558 -3.98484 0
M  V30 6262 H 604.174 -0.404592 -3.20254 0
M  V30 6263 H 603.226 -2.75432 -2.62376 0
M  V30 6264 H 604.538 -3.45678 -3.59594 0
M  V30 6265 H 603.692 -2.2654 -5.62818 0
M  V30 6266 H 602.431 -1.45834 -4.65386 0
M  V30 6267 H 601.436 -3.68961 -4.07612 0
M  V30 6268 H 602.661 -4.50167 -5.08455 0
M  V30 6269 H 600.607 -2.48596 -6.07072 0
M  V30 6270 H 600.524 -4.20401 -6.2833 0
M  V30 6271 H 601.792 -3.30375 -7.06026 0
M  V30 6272 N 606.021 0.929856 -1.27246 0
M  V30 6273 C 607.246 1.71674 -1.16374 0
M  V30 6274 C 607.671 1.86064 0.276024 0
M  V30 6275 O 607.029 1.3591 1.19992 0
M  V30 6276 C 607.077 3.09526 -1.85003 0
M  V30 6277 O 606.181 3.96142 -1.14653 0
M  V30 6278 H 605.522 0.52629 -0.404863 0
M  V30 6279 H 608.052 1.16381 -1.68276 0
M  V30 6280 H 608.062 3.59852 -1.92276 0
M  V30 6281 H 606.737 2.98369 -2.89739 0
M  V30 6282 H 605.314 3.54584 -1.15433 0
M  V30 6283 N 607.499 1.09233 1.13605 0
M  V30 6284 C 608.915 0.82163 1.36826 0
M  V30 6285 C 609.115 -0.565021 1.93416 0
M  V30 6286 O 608.171 -1.32026 2.15234 0
M  V30 6287 C 609.484 1.91124 2.32147 0
M  V30 6288 C 611.032 1.93824 2.45767 0
M  V30 6289 C 611.507 3.01923 3.44393 0
M  V30 6290 N 612.998 3.01149 3.51942 0
M  V30 6291 C 613.733 3.81434 4.2813 0
M  V30 6292 N 613.229 4.71621 5.07489 0
M  V30 6293 N 615.022 3.69702 4.23411 0
M  V30 6294 H 607.173 1.98633 0.752234 0
M  V30 6295 H 609.436 0.862482 0.393482 0
M  V30 6296 H 609.142 2.90862 1.97717 0
M  V30 6297 H 609.016 1.78777 3.32142 0
M  V30 6298 H 611.403 0.94726 2.79483 0
M  V30 6299 H 611.484 2.10248 1.45703 0
M  V30 6300 H 611.128 4.01232 3.11408 0
M  V30 6301 H 611.058 2.82742 4.44257 0
M  V30 6302 H 613.549 2.35789 2.95317 0
M  V30 6303 H 613.862 5.29468 5.62924 0
M  V30 6304 H 612.207 4.75658 5.06729 0
M  V30 6305 H 615.398 2.98606 3.60489 0
M  V30 6306 H 615.571 4.32509 4.82535 0
M  V30 6307 N 608.977 -1.30795 0.87923 0
M  V30 6308 C 610.223 -1.97035 0.50487 0
M  V30 6309 C 610.578 -1.68182 -0.934484 0
M  V30 6310 O 609.871 -0.972953 -1.65058 0
M  V30 6311 C 610.065 -3.50287 0.709476 0
M  V30 6312 C 609.894 -3.94035 2.16717 0
M  V30 6313 C 608.664 -4.1992 2.81061 0
M  V30 6314 C 610.862 -4.07288 3.1404 0
M  V30 6315 N 608.844 -4.50088 4.17486 0
M  V30 6316 C 610.215 -4.41273 4.35521 0
M  V30 6317 C 612.27 -3.89696 3.09906 0
M  V30 6318 C 610.973 -4.59501 5.534 0
M  V30 6319 C 612.999 -4.09122 4.27052 0
M  V30 6320 C 612.361 -4.43447 5.47297 0
M  V30 6321 H 608.46 -0.746181 0.233962 0
M  V30 6322 H 611.044 -1.5814 1.13577 0
M  V30 6323 H 609.215 -3.8825 0.108108 0
M  V30 6324 H 610.947 -4.03567 0.302585 0
M  V30 6325 H 607.702 -4.12906 2.3196 0
M  V30 6326 H 608.126 -4.69316 4.87926 0
M  V30 6327 H 612.768 -3.62239 2.18043 0
M  V30 6328 H 610.486 -4.85802 6.45773 0
M  V30 6329 H 614.072 -3.96985 4.25316 0
M  V30 6330 H 612.952 -4.58171 6.36435 0
M  V30 6331 N 610.455 -0.639598 -1.44038 0
M  V30 6332 C 611.387 0.0987684 -2.28987 0
M  V30 6333 C 612.4 0.80058 -1.41755 0
M  V30 6334 O 613.589 0.660611 -1.65826 0
M  V30 6335 C 610.689 1.16242 -3.18341 0
M  V30 6336 C 609.862 0.541447 -4.34036 0
M  V30 6337 C 608.921 1.50017 -5.04362 0
M  V30 6338 O 607.947 1.01403 -5.60095 0
M  V30 6339 N 609.149 2.83441 -5.06598 0
M  V30 6340 H 611.914 -0.630305 -2.92997 0
M  V30 6341 H 609.475 -0.481376 -1.54578 0
M  V30 6342 H 611.467 1.80429 -3.62253 0
M  V30 6343 H 610.037 1.79362 -2.56024 0
M  V30 6344 H 609.257 -0.27923 -3.9321 0
M  V30 6345 H 610.545 0.107379 -5.08687 0
M  V30 6346 H 609.943 3.2551 -4.62666 0
M  V30 6347 H 608.5 3.42966 -5.54272 0
M  V30 6348 N 611.933 1.52934 -0.380664 0
M  V30 6349 C 612.843 2.29921 0.466192 0
M  V30 6350 C 613.859 1.36488 1.07922 0
M  V30 6351 O 615.035 1.69553 1.0869 0
M  V30 6352 C 612.1 3.08468 1.58266 0
M  V30 6353 C 611.161 4.17595 0.995627 0
M  V30 6354 C 610.394 4.92387 2.05889 0
M  V30 6355 O 610.617 4.67184 3.27254 0
M  V30 6356 O 609.551 5.77949 1.68102 0
M  V30 6357 H 613.377 3.03274 -0.160735 0
M  V30 6358 H 610.962 1.48698 -0.144617 0
M  V30 6359 H 612.844 3.57469 2.23145 0
M  V30 6360 H 611.519 2.37937 2.19471 0
M  V30 6361 H 610.426 3.72811 0.310332 0
M  V30 6362 H 611.759 4.90336 0.427918 0
M  V30 6363 N 613.412 0.11024 1.57214 0
M  V30 6364 C 614.66 -0.548783 1.94506 0
M  V30 6365 C 614.981 -1.67772 0.99386 0
M  V30 6366 O 614.251 -1.9584 0.0485841 0
M  V30 6367 H 612.831 -0.205715 0.718116 0
M  V30 6368 H 615.493 0.177127 1.94093 0
M  V30 6369 H 614.589 -0.949096 2.97319 0
M  V30 6370 N 614.89 -1.56749 -0.16351 0
M  V30 6371 C 615.838 -1.97939 -1.22159 0
M  V30 6372 C 616.832 -0.869288 -1.45395 0
M  V30 6373 O 618.038 -1.05443 -1.45883 0
M  V30 6374 H 614.413 -0.629869 -0.410815 0
M  V30 6375 H 616.384 -2.86115 -0.847381 0
M  V30 6376 C 615.133 -2.36206 -2.55151 0
M  V30 6377 H 614.456 -3.2117 -2.38097 0
M  V30 6378 H 615.896 -2.68863 -3.27854 0
M  V30 6379 C 614.355 -1.20841 -3.14482 0
M  V30 6380 O 614.885 -0.500258 -3.98573 0
M  V30 6381 N 613.091 -0.976943 -2.73686 0
M  V30 6382 H 612.638 -1.55457 -2.05404 0
M  V30 6383 H 612.596 -0.206912 -3.13718 0
M  V30 6384 N 616.368 0.432326 -1.51554 0
M  V30 6385 C 617.614 1.18309 -1.64714 0
M  V30 6386 C 617.947 1.90745 -0.364696 0
M  V30 6387 O 617.222 1.8381 0.635936 0
M  V30 6388 C 617.505 2.1961 -2.85383 0
M  V30 6389 C 617.358 1.51223 -4.23617 0
M  V30 6390 C 618.677 3.20538 -3.01569 0
M  V30 6391 H 615.796 0.428751 -0.599451 0
M  V30 6392 H 618.438 0.471689 -1.84052 0
M  V30 6393 H 616.588 2.8028 -2.69027 0
M  V30 6394 H 618.26 0.938516 -4.51652 0
M  V30 6395 H 616.503 0.814501 -4.26085 0
M  V30 6396 H 617.174 2.25024 -5.04052 0
M  V30 6397 H 619.65 2.69926 -3.16669 0
M  V30 6398 H 618.526 3.88706 -3.87555 0
M  V30 6399 H 618.787 3.86933 -2.13859 0
M  V30 6400 N 617.846 1.41785 0.688094 0
M  V30 6401 C 619.093 1.41544 1.44816 0
M  V30 6402 C 619.421 0.0271746 1.94481 0
M  V30 6403 O 618.676 -0.962235 1.7041 0
M  V30 6404 C 618.975 2.37532 2.67046 0
M  V30 6405 C 618.641 3.84209 2.35996 0
M  V30 6406 C 617.303 4.24165 2.27239 0
M  V30 6407 C 619.655 4.76785 2.10536 0
M  V30 6408 C 616.983 5.54695 1.91128 0
M  V30 6409 C 619.335 6.07644 1.75931 0
M  V30 6410 C 617.999 6.46613 1.65675 0
M  V30 6411 H 617.269 0.517945 0.529919 0
M  V30 6412 H 619.916 1.74635 0.785797 0
M  V30 6413 H 618.221 1.9772 3.38251 0
M  V30 6414 H 619.918 2.34615 3.25203 0
M  V30 6415 H 616.508 3.52567 2.4371 0
M  V30 6416 H 620.692 4.46714 2.16242 0
M  V30 6417 H 615.948 5.83762 1.81746 0
M  V30 6418 H 620.122 6.78874 1.55252 0
M  V30 6419 H 617.749 7.47668 1.37463 0
M  V30 6420 N 619.324 -0.923095 1.27737 0
M  V30 6421 C 620.549 -1.71054 1.17283 0
M  V30 6422 C 620.974 -1.86208 -0.266153 0
M  V30 6423 O 620.332 -1.36545 -1.1927 0
M  V30 6424 C 620.38 -3.0854 1.86642 0
M  V30 6425 O 619.484 -3.95528 1.16752 0
M  V30 6426 H 618.825 -0.524136 0.407649 0
M  V30 6427 H 621.355 -1.15487 1.6889 0
M  V30 6428 H 621.365 -3.58828 1.94182 0
M  V30 6429 H 620.04 -2.96828 2.91317 0
M  V30 6430 H 618.617 -3.53967 1.17312 0
M  V30 6431 N 620.802 -1.09834 -1.13024 0
M  V30 6432 C 622.042 -0.846664 -1.8604 0
M  V30 6433 C 622.406 0.616557 -1.81831 0
M  V30 6434 O 623.607 0.984329 -2.50129 0
M  V30 6435 C 621.878 -1.37228 -3.30005 0
M  V30 6436 S 623.437 -1.25511 -4.20467 0
M  V30 6437 H 620.255 -0.30611 -0.64173 0
M  V30 6438 H 622.857 -1.40255 -1.36194 0
M  V30 6439 H 621.561 -2.43138 -3.30624 0
M  V30 6440 H 621.092 -0.81271 -3.84914 0
M  V30 6441 H 623.107 -0.208762 -4.95761 0
M  V30 6442 N 622.28 1.30327 -0.886154 0
M  V30 6443 C 623.505 2.0079 -0.519425 0
M  V30 6444 C 623.93 1.65979 0.885013 0
M  V30 6445 O 623.288 0.877043 1.58675 0
M  V30 6446 C 623.336 3.53686 -0.702758 0
M  V30 6447 O 622.44 4.11637 0.250828 0
M  V30 6448 H 621.781 0.63171 -0.204544 0
M  V30 6449 H 624.311 1.66145 -1.19402 0
M  V30 6450 H 624.321 4.03531 -0.602207 0
M  V30 6451 H 622.996 3.78361 -1.72673 0
M  V30 6452 H 621.573 3.72755 0.103873 0
M  V30 6453 N 623.758 0.647228 1.43697 0
M  V30 6454 C 625.004 0.158422 2.0218 0
M  V30 6455 C 625.337 -1.22233 1.50907 0
M  V30 6456 O 624.612 -1.81478 0.699702 0
M  V30 6457 C 624.895 0.1627 3.59732 0
M  V30 6458 C 624.748 1.57694 4.21251 0
M  V30 6459 C 626.067 -0.504138 4.37203 0
M  V30 6460 H 623.186 0.059042 0.734631 0
M  V30 6461 H 625.828 0.826772 1.71069 0
M  V30 6462 H 623.978 -0.406414 3.86368 0
M  V30 6463 H 625.65 2.19618 4.05667 0
M  V30 6464 H 623.893 2.12603 3.7813 0
M  V30 6465 H 624.564 1.53183 5.3032 0
M  V30 6466 H 627.04 -0.0199841 4.16095 0
M  V30 6467 H 625.916 -0.470394 5.46881 0
M  V30 6468 H 626.177 -1.57726 4.13007 0
M  V30 6469 N 625.236 -1.5273 0.388769 0
M  V30 6470 C 626.169 -2.22861 -0.490752 0
M  V30 6471 C 627.147 -1.22912 -1.06449 0
M  V30 6472 O 628.331 -1.51896 -1.11624 0
M  V30 6473 C 625.458 -2.94141 -1.67925 0
M  V30 6474 C 624.504 -4.08355 -1.23081 0
M  V30 6475 S 625.337 -5.35077 -0.212786 0
M  V30 6476 C 626.493 -6.09879 -1.40708 0
M  V30 6477 H 626.726 -2.97115 0.104787 0
M  V30 6478 H 624.259 -1.53428 0.172956 0
M  V30 6479 H 626.217 -3.35818 -2.36085 0
M  V30 6480 H 624.878 -2.19568 -2.24608 0
M  V30 6481 H 624.071 -4.57328 -2.11818 0
M  V30 6482 H 623.673 -3.68688 -0.628121 0
M  V30 6483 H 625.965 -6.36018 -2.33424 0
M  V30 6484 H 626.908 -7.01586 -0.958271 0
M  V30 6485 H 627.316 -5.40646 -1.62364 0
M  V30 6486 N 626.714 -0.118576 -1.57153 0
M  V30 6487 C 627.664 0.842924 -2.11846 0
M  V30 6488 C 628.648 1.22845 -1.03914 0
M  V30 6489 O 629.84 1.19961 -1.30148 0
M  V30 6490 C 626.969 2.09312 -2.72109 0
M  V30 6491 C 626.055 1.73198 -3.87122 0
M  V30 6492 N 626.446 1.07758 -4.94188 0
M  V30 6493 C 624.744 2.02659 -3.97298 0
M  V30 6494 C 625.445 0.907741 -5.74574 0
M  V30 6495 N 624.421 1.4326 -5.24383 0
M  V30 6496 H 628.223 0.333416 -2.92003 0
M  V30 6497 H 625.737 0.0839073 -1.62183 0
M  V30 6498 H 627.734 2.79162 -3.09635 0
M  V30 6499 H 626.394 2.60807 -1.93416 0
M  V30 6500 H 627.405 0.741613 -5.12563 0
M  V30 6501 H 624.082 2.56204 -3.29645 0
M  V30 6502 H 625.472 0.394112 -6.70743 0
M  V30 6503 N 628.193 1.56834 0.155195 0
M  V30 6504 C 629.103 2.009 1.21146 0
M  V30 6505 C 630.119 0.923029 1.475 0
M  V30 6506 O 631.295 1.23189 1.59331 0
M  V30 6507 C 628.36 2.37378 2.52691 0
M  V30 6508 C 627.421 3.59883 2.34057 0
M  V30 6509 C 626.654 3.94612 3.59329 0
M  V30 6510 O 626.877 3.30104 4.65175 0
M  V30 6511 O 625.811 4.87895 3.52479 0
M  V30 6512 H 629.637 2.9105 0.867371 0
M  V30 6513 H 627.222 1.44916 0.363298 0
M  V30 6514 H 629.104 2.61737 3.3026 0
M  V30 6515 H 627.779 1.50385 2.86646 0
M  V30 6516 H 626.686 3.40722 1.54465 0
M  V30 6517 H 628.019 4.47468 2.0502 0
M  V30 6518 N 629.671 -0.424282 1.51781 0
M  V30 6519 C 630.634 -1.49848 1.73431 0
M  V30 6520 C 631.634 -1.49016 0.604225 0
M  V30 6521 O 632.824 -1.50808 0.871935 0
M  V30 6522 C 629.956 -2.89332 1.80277 0
M  V30 6523 H 631.149 -1.3195 2.69312 0
M  V30 6524 H 628.702 -0.653809 1.41968 0
M  V30 6525 H 629.437 -3.12618 0.862568 0
M  V30 6526 H 629.222 -2.9134 2.62419 0
M  V30 6527 H 630.712 -3.67233 1.98821 0
M  V30 6528 N 631.149 -1.42148 -0.680565 0
M  V30 6529 C 632.079 -1.4796 -1.80638 0
M  V30 6530 C 633.06 -0.336728 -1.66734 0
M  V30 6531 O 634.245 -0.550247 -1.86242 0
M  V30 6532 C 631.375 -1.37569 -3.18892 0
M  V30 6533 C 630.329 -2.49823 -3.47524 0
M  V30 6534 C 629.655 -2.24491 -4.85291 0
M  V30 6535 C 630.955 -3.92144 -3.44994 0
M  V30 6536 H 632.649 -2.42184 -1.76032 0
M  V30 6537 H 630.195 -1.16566 -0.845481 0
M  V30 6538 H 632.148 -1.40243 -3.97379 0
M  V30 6539 H 630.872 -0.398357 -3.24162 0
M  V30 6540 H 629.531 -2.46455 -2.71395 0
M  V30 6541 H 629.179 -1.25066 -4.87204 0
M  V30 6542 H 628.879 -2.99722 -5.05411 0
M  V30 6543 H 630.403 -2.28906 -5.66069 0
M  V30 6544 H 631.817 -3.97145 -4.13459 0
M  V30 6545 H 630.214 -4.67179 -3.76648 0
M  V30 6546 H 631.284 -4.19225 -2.43676 0
M  V30 6547 N 632.627 0.916307 -1.28225 0
M  V30 6548 C 633.577 2.00488 -1.08574 0
M  V30 6549 C 634.561 1.60897 -0.0101874 0
M  V30 6550 O 635.753 1.75499 -0.230034 0
M  V30 6551 C 632.882 3.35076 -0.746943 0
M  V30 6552 C 631.968 3.81077 -1.86121 0
M  V30 6553 N 632.359 3.99475 -3.10247 0
M  V30 6554 C 630.657 4.10212 -1.75048 0
M  V30 6555 C 631.358 4.37965 -3.82834 0
M  V30 6556 N 630.334 4.4608 -3.10667 0
M  V30 6557 H 634.136 2.1276 -2.02757 0
M  V30 6558 H 631.65 1.10397 -1.19107 0
M  V30 6559 H 633.647 4.12743 -0.587252 0
M  V30 6560 H 632.307 3.2416 0.187146 0
M  V30 6561 H 633.318 3.85466 -3.45885 0
M  V30 6562 H 629.995 4.07947 -0.887999 0
M  V30 6563 H 631.385 4.60183 -4.89572 0
M  V30 6564 N 634.105 1.10431 1.1244 0
M  V30 6565 C 635.053 0.747974 2.20246 0
M  V30 6566 C 636.047 -0.255848 1.67457 0
M  V30 6567 O 637.253 -0.116221 1.79624 0
M  V30 6568 H 633.628 0.223946 0.71788 0
M  V30 6569 H 635.599 1.6661 2.47556 0
M  V30 6570 C 634.348 0.195957 3.47147 0
M  V30 6571 H 633.671 0.959606 3.88113 0
M  V30 6572 H 635.111 -0.0153154 4.23997 0
M  V30 6573 C 633.57 -1.07132 3.19413 0
M  V30 6574 O 634.1 -2.15284 3.3914 0
M  V30 6575 N 632.306 -0.98994 2.73219 0
M  V30 6576 H 631.853 -0.109736 2.57366 0
M  V30 6577 H 631.811 -1.83856 2.55038 0
M  V30 6578 N 635.583 -1.29855 0.893053 0
M  V30 6579 C 636.533 -2.25493 0.337211 0
M  V30 6580 C 637.517 -1.51606 -0.53894 0
M  V30 6581 O 638.709 -1.72828 -0.382043 0
M  V30 6582 C 635.838 -3.40467 -0.440117 0
M  V30 6583 C 634.924 -4.217 0.450578 0
M  V30 6584 N 635.315 -4.81312 1.55476 0
M  V30 6585 C 633.613 -4.45315 0.247154 0
M  V30 6586 C 634.314 -5.42241 2.10593 0
M  V30 6587 N 633.29 -5.25267 1.39982 0
M  V30 6588 H 637.092 -2.69137 1.18079 0
M  V30 6589 H 634.606 -1.44388 0.743359 0
M  V30 6590 H 636.603 -4.08038 -0.855021 0
M  V30 6591 H 635.263 -2.98361 -1.28104 0
M  V30 6592 H 636.274 -4.80291 1.93755 0
M  V30 6593 H 632.951 -4.13782 -0.555939 0
M  V30 6594 H 634.341 -5.99517 3.03362 0
M  V30 6595 N 637.061 -0.65484 -1.43351 0
M  V30 6596 C 638.291 -0.176429 -2.05845 0
M  V30 6597 C 638.699 1.16375 -1.49176 0
M  V30 6598 O 638.042 1.72981 -0.618322 0
M  V30 6599 C 638.104 -0.0125844 -3.59498 0
M  V30 6600 C 637.768 -1.27831 -4.38758 0
M  V30 6601 C 638.765 -2.2074 -4.70712 0
M  V30 6602 C 636.45 -1.52035 -4.78739 0
M  V30 6603 C 638.444 -3.36145 -5.41558 0
M  V30 6604 C 636.131 -2.67732 -5.49329 0
M  V30 6605 C 637.129 -3.59612 -5.80662 0
M  V30 6606 O 636.817 -4.73289 -6.4981 0
M  V30 6607 H 636.549 -0.0879682 -0.670252 0
M  V30 6608 H 639.103 -0.896193 -1.84818 0
M  V30 6609 H 637.333 0.762567 -3.79107 0
M  V30 6610 H 639.022 0.423392 -4.03686 0
M  V30 6611 H 639.788 -2.03284 -4.40341 0
M  V30 6612 H 635.667 -0.813987 -4.53757 0
M  V30 6613 H 639.211 -4.07881 -5.65932 0
M  V30 6614 H 635.108 -2.85122 -5.79116 0
M  V30 6615 H 635.876 -4.72575 -6.68293 0
M  V30 6616 N 638.539 1.52521 -0.396863 0
M  V30 6617 C 639.767 2.06091 0.18275 0
M  V30 6618 C 640.182 1.26796 1.39886 0
M  V30 6619 O 639.539 0.316585 1.79733 0
M  V30 6620 C 639.59 3.57362 0.545377 0
M  V30 6621 O 639.311 4.33656 -0.622428 0
M  V30 6622 C 640.812 4.27305 1.18004 0
M  V30 6623 H 638.032 0.670504 0.025789 0
M  V30 6624 H 640.576 1.96561 -0.564276 0
M  V30 6625 H 638.731 3.66941 1.2423 0
M  V30 6626 H 639.145 5.23507 -0.322662 0
M  V30 6627 H 640.619 5.34366 1.38408 0
M  V30 6628 H 641.096 3.83 2.1496 0
M  V30 6629 H 641.702 4.22064 0.523671 0
M  V30 6630 N 640.017 0.126909 1.57088 0
M  V30 6631 C 640.949 -0.850973 2.12817 0
M  V30 6632 C 641.962 -1.22457 1.07276 0
M  V30 6633 O 643.151 -1.17215 1.34622 0
M  V30 6634 C 640.251 -2.15039 2.61938 0
M  V30 6635 C 639.424 -1.94726 3.91664 0
M  V30 6636 C 638.483 -3.0847 4.26301 0
M  V30 6637 O 637.509 -2.81038 4.94981 0
M  V30 6638 N 638.711 -4.35116 3.84259 0
M  V30 6639 H 641.476 -0.3748 2.97347 0
M  V30 6640 H 639.037 -0.0572793 1.61799 0
M  V30 6641 H 641.029 -2.90141 2.82135 0
M  V30 6642 H 639.599 -2.5398 1.82244 0
M  V30 6643 H 638.819 -1.03772 3.80296 0
M  V30 6644 H 640.107 -1.78469 4.76473 0
M  V30 6645 H 639.505 -4.60276 3.2888 0
M  V30 6646 H 638.062 -5.07064 4.09548 0
M  V30 6647 N 641.495 -1.56914 -0.146875 0
M  V30 6648 C 642.442 -1.98275 -1.18134 0
M  V30 6649 C 643.412 -0.850367 -1.42681 0
M  V30 6650 O 644.597 -1.11244 -1.55014 0
M  V30 6651 C 641.737 -2.36861 -2.5098 0
M  V30 6652 C 640.85 -3.63391 -2.33605 0
M  V30 6653 C 639.985 -3.91079 -3.59486 0
M  V30 6654 C 639.024 -5.10879 -3.37149 0
M  V30 6655 N 638.161 -5.34577 -4.55161 0
M  V30 6656 H 643.001 -2.8645 -0.821622 0
M  V30 6657 H 640.538 -1.41718 -0.394248 0
M  V30 6658 H 642.496 -2.57262 -3.28439 0
M  V30 6659 H 641.126 -1.51766 -2.84898 0
M  V30 6660 H 640.178 -3.50766 -1.47199 0
M  V30 6661 H 641.49 -4.51007 -2.13059 0
M  V30 6662 H 640.644 -4.11979 -4.45374 0
M  V30 6663 H 639.383 -3.01885 -3.83036 0
M  V30 6664 H 638.388 -4.89853 -2.49649 0
M  V30 6665 H 639.613 -6.01626 -3.14997 0
M  V30 6666 H 637.559 -4.48337 -4.78884 0
M  V30 6667 H 637.476 -6.16463 -4.37618 0
M  V30 6668 H 638.744 -5.59975 -5.42263 0
M  V30 6669 N 642.974 0.416227 -1.52004 0
M  V30 6670 C 644.199 1.19029 -1.69843 0
M  V30 6671 C 644.624 1.83708 -0.404103 0
M  V30 6672 O 643.982 1.69711 0.637787 0
M  V30 6673 C 644.03 2.23439 -2.83032 0
M  V30 6674 O 643.134 3.29419 -2.48106 0
M  V30 6675 H 642.475 0.347785 -0.565634 0
M  V30 6676 H 645.005 0.488871 -1.98674 0
M  V30 6677 H 645.015 2.67884 -3.07737 0
M  V30 6678 H 643.69 1.75745 -3.76944 0
M  V30 6679 H 642.267 2.90303 -2.34048 0
M  V30 6680 N 644.452 1.42507 0.673017 0
M  V30 6681 C 645.382 1.48916 1.79851 0
M  V30 6682 C 646.363 0.345566 1.66553 0
M  V30 6683 O 647.548 0.560116 1.85947 0
M  V30 6684 C 644.678 1.39258 3.18158 0
M  V30 6685 C 643.632 2.51662 3.46194 0
M  V30 6686 C 642.958 2.27062 4.84094 0
M  V30 6687 C 644.258 3.93968 3.42909 0
M  V30 6688 H 645.952 2.43114 1.74745 0
M  V30 6689 H 643.498 1.17013 0.839288 0
M  V30 6690 H 645.451 1.42349 3.96629 0
M  V30 6691 H 644.175 0.415542 3.23946 0
M  V30 6692 H 642.834 2.47891 2.70084 0
M  V30 6693 H 642.482 1.27648 4.86534 0
M  V30 6694 H 642.182 3.02398 5.03815 0
M  V30 6695 H 643.706 2.31905 5.64847 0
M  V30 6696 H 645.12 3.99332 4.11347 0
M  V30 6697 H 643.517 4.6917 3.74165 0
M  V30 6698 H 644.587 4.20512 2.41449 0
M  V30 6699 N 645.93 -0.909495 1.28709 0
M  V30 6700 C 647.155 -1.69801 1.1909 0
M  V30 6701 C 647.58 -1.86479 -0.246388 0
M  V30 6702 O 646.938 -1.37802 -1.17815 0
M  V30 6703 C 646.986 -3.06543 1.89904 0
M  V30 6704 O 646.09 -3.94268 1.2094 0
M  V30 6705 H 645.431 -0.519783 0.413185 0
M  V30 6706 H 647.961 -1.13689 1.70106 0
M  V30 6707 H 647.971 -3.56748 1.97977 0
M  V30 6708 H 646.646 -2.93722 2.94449 0
M  V30 6709 H 645.223 -3.52702 1.2106 0
M  V30 6710 N 647.408 -1.11026 -1.11852 0
M  V30 6711 C 648.338 -0.786812 -2.19844 0
M  V30 6712 C 649.319 0.242935 -1.68356 0
M  V30 6713 O 650.504 0.107355 -1.93903 0
M  V30 6714 C 647.634 -0.224516 -3.46574 0
M  V30 6715 C 646.588 -1.18564 -4.1125 0
M  V30 6716 C 645.914 -0.484261 -5.32503 0
M  V30 6717 C 647.214 -2.53465 -4.56676 0
M  V30 6718 H 648.908 -1.68978 -2.47158 0
M  V30 6719 H 646.454 -0.813906 -1.18792 0
M  V30 6720 H 648.407 0.0139435 -4.21398 0
M  V30 6721 H 647.131 0.713722 -3.18706 0
M  V30 6722 H 645.79 -1.40966 -3.38414 0
M  V30 6723 H 645.438 0.458646 -5.00905 0
M  V30 6724 H 645.138 -1.12526 -5.76725 0
M  V30 6725 H 646.662 -0.254492 -6.10069 0
M  V30 6726 H 648.076 -2.35177 -5.22843 0
M  V30 6727 H 646.473 -3.13507 -5.11697 0
M  V30 6728 H 647.543 -3.13008 -3.70343 0
M  V30 6729 N 648.886 1.2938 -0.899927 0
M  V30 6730 C 650.111 2.00228 -0.540692 0
M  V30 6731 C 650.536 1.66909 0.867359 0
M  V30 6732 O 649.894 0.893824 1.57735 0
M  V30 6733 C 649.942 3.52921 -0.740232 0
M  V30 6734 O 649.046 4.11879 0.207154 0
M  V30 6735 H 648.387 0.629505 -0.211233 0
M  V30 6736 H 650.917 1.6487 -1.21158 0
M  V30 6737 H 650.927 4.0287 -0.644973 0
M  V30 6738 H 649.602 3.76508 -1.76677 0
M  V30 6739 H 648.179 3.72845 0.0643315 0
M  V30 6740 N 650.364 0.662433 1.43002 0
M  V30 6741 C 651.294 -0.00979809 2.33498 0
M  V30 6742 C 652.275 -0.802329 1.49989 0
M  V30 6743 O 653.46 -0.761964 1.78627 0
M  V30 6744 C 650.59 -0.970446 3.33466 0
M  V30 6745 C 649.544 -0.287383 4.27034 0
M  V30 6746 C 648.87 -1.36012 5.17112 0
M  V30 6747 C 650.17 0.82595 5.15728 0
M  V30 6748 H 651.864 0.745959 2.89958 0
M  V30 6749 H 649.41 0.360172 1.39423 0
M  V30 6750 H 651.363 -1.44971 3.95679 0
M  V30 6751 H 650.087 -1.75748 2.75282 0
M  V30 6752 H 648.746 0.17152 3.66199 0
M  V30 6753 H 648.394 -2.13882 4.55262 0
M  V30 6754 H 648.094 -0.908276 5.80538 0
M  V30 6755 H 649.618 -1.84056 5.82199 0
M  V30 6756 H 651.032 0.42845 5.71697 0
M  V30 6757 H 649.429 1.20282 5.87922 0
M  V30 6758 H 650.499 1.68003 4.54866 0
M  V30 6759 N 651.842 -1.52309 0.404946 0
M  V30 6760 C 653.09 -2.01368 -0.17186 0
M  V30 6761 C 653.411 -1.29261 -1.46002 0
M  V30 6762 O 652.681 -0.41729 -1.91404 0
M  V30 6763 H 651.261 -0.744034 -0.0664993 0
M  V30 6764 H 653.923 -1.87263 0.540228 0
M  V30 6765 H 653.019 -3.09888 -0.370957 0
M  V30 6766 N 653.32 -0.135238 -1.57019 0
M  V30 6767 C 654.267 0.808908 -2.1616 0
M  V30 6768 C 655.237 1.25234 -1.09113 0
M  V30 6769 O 656.422 1.32697 -1.37099 0
M  V30 6770 C 653.562 2.04729 -2.77813 0
M  V30 6771 C 652.675 1.65074 -3.99218 0
M  V30 6772 C 651.81 2.84002 -4.48906 0
M  V30 6773 C 650.849 2.40663 -5.62803 0
M  V30 6774 N 649.986 3.5256 -6.07162 0
M  V30 6775 H 654.826 0.297751 -2.96509 0
M  V30 6776 H 652.363 0.135264 -1.46477 0
M  V30 6777 H 654.321 2.7731 -3.11697 0
M  V30 6778 H 652.951 2.53275 -2.00128 0
M  V30 6779 H 652.003 0.823029 -3.7139 0
M  V30 6780 H 653.315 1.29236 -4.81767 0
M  V30 6781 H 652.469 3.64788 -4.84783 0
M  V30 6782 H 651.208 3.23076 -3.65339 0
M  V30 6783 H 650.213 1.58314 -5.26514 0
M  V30 6784 H 651.438 2.02687 -6.48147 0
M  V30 6785 H 649.384 3.91278 -5.26534 0
M  V30 6786 H 649.301 3.20699 -6.84608 0
M  V30 6787 H 650.569 4.33738 -6.47682 0
M  V30 6788 O 654.837 1.615 0.00369385 0
M  V30 6789 H 655.528 1.8348 0.620863 0
M  V30 END ATOM
M  V30 BEGIN BOND
M  V30 END BOND
M  V30 END CTAB
M  END
$$$$
