drugbank_target|P26439 3 beta-hydroxysteroid dehydrogenase/Delta 5-->4-isomerase type 2 (DB00157; DB01108)
 OpenBabel12092119233D

  0  0  0     0  0            999 V3000
M  V30 BEGIN CTAB
M  V30 COUNTS 5954 6027 0 0 0
M  V30 BEGIN ATOM
M  V30 1 H -0.908 1.98254 -0.117106 0
M  V30 2 N 0 1.576 0 0
M  V30 3 C 0.933 2.03868 1.02534 0
M  V30 4 C 1.911 0.928543 1.3348 0
M  V30 5 O 3.095 1.19667 1.45644 0
M  V30 6 C 0.222 2.43627 2.35294 0
M  V30 7 C -0.732 3.65373 2.2001 0
M  V30 8 S 0.101 5.13292 1.52614 0
M  V30 9 C 1.257 5.56322 2.86805 0
M  V30 10 H 1.49 2.90518 0.631377 0
M  V30 11 H -0.977 1.52953 0.210867 0
M  V30 12 H 0.981 2.67203 3.11629 0
M  V30 13 H -0.358 1.57376 2.7183 0
M  V30 14 H -1.165 3.90944 3.18086 0
M  V30 15 H -1.563 3.418 1.51819 0
M  V30 16 H 0.729 5.58782 3.83104 0
M  V30 17 H 1.672 6.56266 2.65933 0
M  V30 18 H 2.08 4.83886 2.90714 0
M  V30 19 N 1.4781 -0.272755 1.55222 0
M  V30 20 C 2.7261 -1.00234 1.75492 0
M  V30 21 C 3.0471 -1.8681 0.5592 0
M  V30 22 O 2.3171 -1.91215 -0.425882 0
M  V30 23 H 0.8971 -0.373076 0.647166 0
M  V30 24 H 3.5591 -0.296926 1.92625 0
M  V30 25 H 2.6551 -1.63913 2.65592 0
M  V30 26 N 2.9562 -1.48159 -0.537278 0
M  V30 27 C 4.2022 -1.57015 -1.29297 0
M  V30 28 C 4.5572 -0.237791 -1.90925 0
M  V30 29 O 3.8502 0.758621 -1.75942 0
M  V30 30 C 4.0442 -2.63956 -2.40961 0
M  V30 31 C 3.8732 -4.07461 -1.90278 0
M  V30 32 C 2.6432 -4.74685 -1.73213 0
M  V30 33 C 4.8412 -4.93858 -1.43556 0
M  V30 34 N 2.8232 -6.02633 -1.17078 0
M  V30 35 C 4.1942 -6.11993 -0.993204 0
M  V30 36 C 6.2492 -4.80141 -1.31792 0
M  V30 37 C 4.9522 -7.17923 -0.444872 0
M  V30 38 C 6.9782 -5.86186 -0.783585 0
M  V30 39 C 6.3402 -7.03524 -0.351261 0
M  V30 40 H 2.4392 -0.629154 -0.464423 0
M  V30 41 H 5.0232 -1.85006 -0.606705 0
M  V30 42 H 3.1942 -2.378 -3.07093 0
M  V30 43 H 4.9262 -2.62539 -3.07986 0
M  V30 44 H 1.6812 -4.30902 -1.9652 0
M  V30 45 H 2.1052 -6.7085 -0.910421 0
M  V30 46 H 6.7472 -3.89772 -1.63823 0
M  V30 47 H 4.4652 -8.08022 -0.11222 0
M  V30 48 H 8.0512 -5.77624 -0.695835 0
M  V30 49 H 6.9312 -7.8418 0.055777 0
M  V30 50 N 4.4343 0.785586 -1.36625 0
M  V30 51 C 5.6593 1.57963 -1.34397 0
M  V30 52 C 6.0843 1.87964 0.071526 0
M  V30 53 O 5.4423 1.48182 1.0446 0
M  V30 54 C 5.4903 2.87511 -2.17646 0
M  V30 55 O 4.5943 3.81281 -1.57158 0
M  V30 56 H 3.9353 0.479014 -0.459828 0
M  V30 57 H 6.4653 0.973411 -1.79961 0
M  V30 58 H 6.4753 3.36745 -2.30362 0
M  V30 59 H 5.1503 2.65002 -3.20541 0
M  V30 60 H 3.7273 3.39885 -1.53403 0
M  V30 61 N 5.9124 1.20967 1.01018 0
M  V30 62 C 7.1524 1.03511 1.76252 0
M  V30 63 C 7.5164 -0.42458 1.87247 0
M  V30 64 O 8.7174 -0.719508 2.58991 0
M  V30 65 C 6.9884 1.70726 3.13986 0
M  V30 66 S 8.5474 1.68458 4.05176 0
M  V30 67 H 5.3654 0.371037 0.606508 0
M  V30 68 H 7.9674 1.53628 1.20908 0
M  V30 69 H 6.6714 2.76128 3.03614 0
M  V30 70 H 6.2024 1.20767 3.74405 0
M  V30 71 H 8.2174 0.721987 4.90919 0
M  V30 72 N 7.3905 -1.2043 1.01659 0
M  V30 73 C 8.3205 -2.25466 0.607226 0
M  V30 74 C 9.3015 -1.65853 -0.377716 0
M  V30 75 O 10.4865 -1.92409 -0.263149 0
M  V30 76 C 7.6165 -3.47256 -0.0552949 0
M  V30 77 C 6.5705 -4.19462 0.850632 0
M  V30 78 C 5.8965 -5.34673 0.0538859 0
M  V30 79 C 7.1965 -4.75603 2.15868 0
M  V30 80 H 8.8905 -2.59962 1.48526 0
M  V30 81 H 6.4365 -1.2496 0.715605 0
M  V30 82 H 8.3895 -4.19917 -0.353233 0
M  V30 83 H 7.1135 -3.11924 -0.968045 0
M  V30 84 H 5.7725 -3.48667 1.13257 0
M  V30 85 H 5.4205 -4.95585 -0.860514 0
M  V30 86 H 5.1205 -5.83913 0.657192 0
M  V30 87 H 6.6445 -6.10138 -0.237598 0
M  V30 88 H 8.0585 -5.40083 1.92311 0
M  V30 89 H 6.4555 -5.3528 2.71284 0
M  V30 90 H 7.5255 -3.94346 2.82169 0
M  V30 91 N 8.8686 -0.792821 -1.36206 0
M  V30 92 C 10.1146 -0.36733 -1.99446 0
M  V30 93 C 10.4476 1.05917 -1.62774 0
M  V30 94 O 9.7226 1.7324 -0.88421 0
M  V30 95 C 10.0056 -0.535044 -3.56103 0
M  V30 96 C 9.8586 -2.00548 -4.02617 0
M  V30 97 C 11.1776 0.0478191 -4.40074 0
M  V30 98 H 8.2966 -0.134941 -0.724541 0
M  V30 99 H 10.9386 -0.999794 -1.61568 0
M  V30 100 H 9.0886 0.00336329 -3.885 0
M  V30 101 H 10.7606 -2.60521 -3.80692 0
M  V30 102 H 9.0036 -2.50686 -3.54032 0
M  V30 103 H 9.6746 -2.07377 -5.11565 0
M  V30 104 H 12.1506 -0.411822 -4.14057 0
M  V30 105 H 11.0266 -0.0995336 -5.4881 0
M  V30 106 H 11.2876 1.14025 -4.27142 0
M  V30 107 N 10.3467 1.47872 -0.545128 0
M  V30 108 C 11.5747 2.06889 -0.021084 0
M  V30 109 C 11.9897 1.39955 1.2672 0
M  V30 110 O 11.3467 0.492036 1.75742 0
M  V30 111 C 11.3977 3.60996 0.190817 0
M  V30 112 O 11.1187 4.25419 -1.04644 0
M  V30 113 C 12.6197 4.36849 0.753521 0
M  V30 114 H 9.8397 0.669785 -0.0403635 0
M  V30 115 H 12.3837 1.90049 -0.755095 0
M  V30 116 H 10.5387 3.77391 0.87492 0
M  V30 117 H 10.9527 5.17785 -0.836611 0
M  V30 118 H 12.4267 5.45399 0.851139 0
M  V30 119 H 12.9037 4.02306 1.762 0
M  V30 120 H 13.5097 4.25169 0.105503 0
M  V30 121 N 11.8248 0.280983 1.55075 0
M  V30 122 C 13.0728 -0.333455 1.9933 0
M  V30 123 C 13.3938 -1.55937 1.17085 0
M  V30 124 O 12.6638 -1.94143 0.261805 0
M  V30 125 H 11.2438 -0.126197 0.736263 0
M  V30 126 H 13.9058 0.387678 1.91005 0
M  V30 127 H 13.0018 -0.619292 3.05894 0
M  V30 128 N 13.3029 -1.57598 0.00835791 0
M  V30 129 C 14.2659 -2.07884 -0.965242 0
M  V30 130 C 15.2659 -0.989825 -1.26725 0
M  V30 131 O 16.4559 -1.25218 -1.21104 0
M  V30 132 C 13.5879 -2.52731 -2.28779 0
M  V30 133 H 14.7809 -2.95178 -0.530112 0
M  V30 134 H 12.3339 -1.54458 -0.239283 0
M  V30 135 H 13.0689 -1.68705 -2.76964 0
M  V30 136 H 12.8539 -3.32272 -2.08177 0
M  V30 137 H 14.3439 -2.91933 -2.98605 0
M  V30 138 N 14.781 0.264519 -1.55364 0
M  V30 139 C 16.029 0.993021 -1.76021 0
M  V30 140 C 16.35 1.86511 -0.569099 0
M  V30 141 O 15.62 1.91438 0.415735 0
M  V30 142 H 14.2 0.369639 -0.649135 0
M  V30 143 H 16.862 0.286707 -1.9278 0
M  V30 144 H 15.958 1.62502 -2.66457 0
M  V30 145 N 16.2591 1.48442 0.529413 0
M  V30 146 C 17.5071 1.56179 1.28267 0
M  V30 147 C 17.8281 0.237721 1.93546 0
M  V30 148 O 17.0981 -0.740779 1.81354 0
M  V30 149 H 15.6781 0.575367 0.476405 0
M  V30 150 H 18.3401 1.84909 0.61602 0
M  V30 151 H 17.4361 2.34312 2.06165 0
M  V30 152 N 17.7372 -0.778329 1.37039 0
M  V30 153 C 18.6672 -1.90546 1.34962 0
M  V30 154 C 19.6482 -1.68681 0.219274 0
M  V30 155 O 20.8332 -1.89634 0.418624 0
M  V30 156 C 17.9632 -3.27734 1.14925 0
M  V30 157 C 16.9172 -3.64147 2.24902 0
M  V30 158 C 16.2432 -4.99806 1.89996 0
M  V30 159 C 17.5432 -3.71579 3.67051 0
M  V30 160 H 19.2372 -1.92541 2.29277 0
M  V30 161 H 16.7832 -0.924948 1.10366 0
M  V30 162 H 18.7362 -4.06215 1.12104 0
M  V30 163 H 17.4602 -3.26154 0.170631 0
M  V30 164 H 16.1192 -2.8797 2.26868 0
M  V30 165 H 15.7672 -4.94759 0.906796 0
M  V30 166 H 15.4672 -5.25139 2.63634 0
M  V30 167 H 16.9912 -5.80694 1.88749 0
M  V30 168 H 18.4052 -4.40227 3.67251 0
M  V30 169 H 16.8022 -4.08405 4.39688 0
M  V30 170 H 17.8722 -2.72404 4.01154 0
M  V30 171 N 19.2153 -1.21501 -1.00376 0
M  V30 172 C 20.1453 -0.999478 -2.11028 0
M  V30 173 C 21.1263 0.0759671 -1.6993 0
M  V30 174 O 22.3113 -0.0841106 -1.94018 0
M  V30 175 C 19.4413 -0.564709 -3.42678 0
M  V30 176 C 18.3953 -1.58486 -3.97576 0
M  V30 177 C 17.7213 -1.00628 -5.25146 0
M  V30 178 C 19.0213 -2.97204 -4.29496 0
M  V30 179 H 20.7153 -1.92495 -2.29317 0
M  V30 180 H 18.2613 -0.92693 -1.102 0
M  V30 181 H 20.2143 -0.401091 -4.19487 0
M  V30 182 H 18.9383 0.396411 -3.24185 0
M  V30 183 H 17.5973 -1.73606 -3.22888 0
M  V30 184 H 17.2453 -0.0368439 -5.02987 0
M  V30 185 H 16.9453 -1.68771 -5.62841 0
M  V30 186 H 18.4693 -0.854015 -6.04598 0
M  V30 187 H 19.8833 -2.8552 -4.97143 0
M  V30 188 H 18.2803 -3.62372 -4.78338 0
M  V30 189 H 19.3503 -3.47956 -3.3772 0
M  V30 190 N 20.6934 1.19889 -1.02296 0
M  V30 191 C 21.9414 1.89046 -0.714558 0
M  V30 192 C 22.2624 1.79636 0.758681 0
M  V30 193 O 21.5324 1.20292 1.54618 0
M  V30 194 H 20.1124 0.699802 -0.261317 0
M  V30 195 H 22.7744 1.45574 -1.29592 0
M  V30 196 H 21.8704 2.95524 -1.0036 0
M  V30 197 N 22.1715 0.800033 1.35784 0
M  V30 198 C 23.1035 0.163596 2.28615 0
M  V30 199 C 24.1165 -0.633317 1.49976 0
M  V30 200 O 25.3055 -0.466754 1.72289 0
M  V30 201 C 22.4055 -0.790958 3.29541 0
M  V30 202 C 21.5785 -0.0418255 4.3738 0
M  V30 203 C 20.6375 -0.91389 5.18203 0
M  V30 204 O 19.6635 -0.367234 5.68014 0
M  V30 205 N 20.8655 -2.23682 5.35674 0
M  V30 206 H 23.6305 0.96105 2.83873 0
M  V30 207 H 21.1915 0.654894 1.48063 0
M  V30 208 H 23.1835 -1.37844 3.80501 0
M  V30 209 H 21.7535 -1.48925 2.74846 0
M  V30 210 H 20.9735 0.726813 3.87442 0
M  V30 211 H 22.2615 0.474719 5.06581 0
M  V30 212 H 21.6595 -2.70497 4.96838 0
M  V30 213 H 20.2165 -2.77369 5.89839 0
M  V30 214 N 23.6496 -1.47581 0.552962 0
M  V30 215 C 25.0656 -1.5818 0.212424 0
M  V30 216 C 25.2656 -1.55213 -1.28496 0
M  V30 217 O 24.3216 -1.45329 -2.06484 0
M  V30 218 C 25.6346 -2.88865 0.835318 0
M  V30 219 C 27.1826 -3.0244 0.806156 0
M  V30 220 C 27.6576 -4.35819 1.40804 0
M  V30 221 N 29.1486 -4.42444 1.37103 0
M  V30 222 C 29.8836 -5.44202 1.80641 0
M  V30 223 N 29.3796 -6.52795 2.32015 0
M  V30 224 N 31.1726 -5.35222 1.71738 0
M  V30 225 H 23.3236 -1.47753 1.52587 0
M  V30 226 H 25.5866 -0.702941 0.636064 0
M  V30 227 H 25.2926 -2.9676 1.88749 0
M  V30 228 H 25.1666 -3.7579 0.325848 0
M  V30 229 H 27.5536 -2.94144 -0.237317 0
M  V30 230 H 27.6346 -2.17068 1.35334 0
M  V30 231 H 27.2786 -4.44871 2.45056 0
M  V30 232 H 27.2086 -5.19916 0.836338 0
M  V30 233 H 29.6996 -3.6456 0.995202 0
M  V30 234 H 30.0126 -7.26609 2.63171 0
M  V30 235 H 28.3576 -6.53696 2.36023 0
M  V30 236 H 31.5486 -4.49284 1.31382 0
M  V30 237 H 31.7216 -6.14389 2.05987 0
M  V30 238 N 25.1277 -0.289203 -1.54924 0
M  V30 239 C 26.3767 0.324231 -1.99077 0
M  V30 240 C 26.6897 1.5591 -1.18117 0
M  V30 241 O 27.8957 2.24637 -1.52481 0
M  V30 242 C 26.3517 0.628209 -3.54375 0
M  V30 243 C 25.9597 -0.587647 -4.44129 0
M  V30 244 C 27.7037 1.20349 -4.07083 0
M  V30 245 C 25.6107 -0.257475 -5.90839 0
M  V30 246 H 24.5407 0.124924 -0.743579 0
M  V30 247 H 27.1917 -0.396063 -1.79175 0
M  V30 248 H 25.5737 1.40778 -3.70132 0
M  V30 249 H 26.7477 -1.36418 -4.40144 0
M  V30 250 H 25.0627 -1.08074 -4.0213 0
M  V30 251 H 27.6597 1.46456 -5.14252 0
M  V30 252 H 28.0027 2.14195 -3.56968 0
M  V30 253 H 28.5357 0.485889 -3.94821 0
M  V30 254 H 25.2747 -1.16419 -6.45079 0
M  V30 255 H 24.7947 0.482018 -5.9786 0
M  V30 256 H 26.4737 0.145238 -6.46837 0
M  V30 257 N 26.6058 1.57591 -0.0167156 0
M  V30 258 C 27.8518 1.91567 0.665582 0
M  V30 259 C 28.1848 0.892298 1.72487 0
M  V30 260 O 27.4598 -0.0867127 1.94307 0
M  V30 261 C 27.7428 3.36069 1.29342 0
M  V30 262 C 27.5958 4.49135 0.244541 0
M  V30 263 C 28.9148 3.803 2.21495 0
M  V30 264 H 26.0338 0.69666 0.240488 0
M  V30 265 H 28.6758 1.89866 -0.0714356 0
M  V30 266 H 26.8258 3.3765 1.92158 0
M  V30 267 H 28.4978 4.59689 -0.385228 0
M  V30 268 H 26.7408 4.3165 -0.431379 0
M  V30 269 H 27.4118 5.47242 0.723207 0
M  V30 270 H 29.8878 3.80377 1.68678 0
M  V30 271 H 28.7638 4.82127 2.62382 0
M  V30 272 H 29.0248 3.15104 3.101 0
M  V30 273 N 28.0839 -0.256276 1.55502 0
M  V30 274 C 29.4999 -0.604325 1.47716 0
M  V30 275 C 29.6999 -1.88763 0.705039 0
M  V30 276 O 28.7559 -2.51445 0.230613 0
M  V30 277 C 30.0689 -0.715756 2.92057 0
M  V30 278 C 31.6169 -0.808706 3.02372 0
M  V30 279 C 32.0919 -0.951777 4.48001 0
M  V30 280 N 33.5829 -1.01688 4.519 0
M  V30 281 C 34.3179 -1.14668 5.61817 0
M  V30 282 N 33.8139 -1.24261 6.81565 0
M  V30 283 N 35.6069 -1.1791 5.49594 0
M  V30 284 H 27.7579 0.586291 2.04148 0
M  V30 285 H 30.0209 0.201015 0.926443 0
M  V30 286 H 29.7269 0.157027 3.51349 0
M  V30 287 H 29.6009 -1.59071 3.42018 0
M  V30 288 H 31.9879 -1.67195 2.43166 0
M  V30 289 H 32.0689 0.0912063 2.55637 0
M  V30 290 H 31.7129 -0.0931291 5.07815 0
M  V30 291 H 31.6429 -1.86659 4.92408 0
M  V30 292 H 34.1339 -0.954468 3.65648 0
M  V30 293 H 34.4469 -1.34046 7.61086 0
M  V30 294 H 32.7919 -1.21236 6.84344 0
M  V30 295 H 35.9829 -1.10057 4.54978 0
M  V30 296 H 36.1559 -1.27681 6.35296 0
M  V30 297 N 29.562 -1.4872 -0.521534 0
M  V30 298 C 30.492 -1.66771 -1.63431 0
M  V30 299 C 31.473 -0.516499 -1.62069 0
M  V30 300 O 32.658 -0.750013 -1.79132 0
M  V30 301 C 29.788 -1.71515 -3.01993 0
M  V30 302 C 28.742 -2.86222 -3.18216 0
M  V30 303 C 28.068 -2.76061 -4.57924 0
M  V30 304 C 29.368 -4.27419 -3.00184 0
M  V30 305 H 31.062 -2.59932 -1.48579 0
M  V30 306 H 28.608 -1.25089 -0.713358 0
M  V30 307 H 30.561 -1.82731 -3.7972 0
M  V30 308 H 29.285 -0.749393 -3.17886 0
M  V30 309 H 27.944 -2.74575 -2.42908 0
M  V30 310 H 27.592 -1.77437 -4.70665 0
M  V30 311 H 27.292 -3.53037 -4.69722 0
M  V30 312 H 28.816 -2.89256 -5.37739 0
M  V30 313 H 30.23 -4.39855 -3.67697 0
M  V30 314 H 28.627 -5.05458 -3.2347 0
M  V30 315 H 29.697 -4.43293 -1.96518 0
M  V30 316 N 31.0401 0.771051 -1.3745 0
M  V30 317 C 31.9701 1.89827 -1.3597 0
M  V30 318 C 32.9511 1.68562 -0.228216 0
M  V30 319 O 34.1361 1.8941 -0.428675 0
M  V30 320 C 31.2661 3.2712 -1.16662 0
M  V30 321 C 30.2201 3.6295 -2.2683 0
M  V30 322 C 29.5461 4.98791 -1.92644 0
M  V30 323 C 30.8461 3.69627 -3.69017 0
M  V30 324 H 32.5401 1.91323 -2.30295 0
M  V30 325 H 30.0861 0.919082 -1.10855 0
M  V30 326 H 32.0391 4.05615 -1.14256 0
M  V30 327 H 30.7631 3.26059 -0.187926 0
M  V30 328 H 29.4221 2.86763 -2.28392 0
M  V30 329 H 29.0701 4.94271 -0.933021 0
M  V30 330 H 28.7701 5.23733 -2.66416 0
M  V30 331 H 30.2941 5.79685 -1.91826 0
M  V30 332 H 31.7081 4.38273 -3.69581 0
M  V30 333 H 30.1051 4.06067 -4.41848 0
M  V30 334 H 31.1751 2.70273 -4.02592 0
M  V30 335 N 32.5182 1.22032 0.997298 0
M  V30 336 C 33.7642 1.04376 1.73878 0
M  V30 337 C 34.0972 -0.420716 1.89588 0
M  V30 338 O 33.3722 -1.31202 1.43583 0
M  V30 339 C 33.6552 1.75047 3.14691 0
M  V30 340 C 33.5082 3.29062 3.06656 0
M  V30 341 C 34.8272 1.49928 4.13775 0
M  V30 342 H 31.9462 0.380578 0.631133 0
M  V30 343 H 34.5882 1.50312 1.16217 0
M  V30 344 H 32.7382 1.35996 3.63919 0
M  V30 345 H 34.4102 3.7753 2.65083 0
M  V30 346 H 32.6532 3.58967 2.43568 0
M  V30 347 H 33.3242 3.73683 4.06282 0
M  V30 348 H 35.8002 1.83842 3.73285 0
M  V30 349 H 34.6762 2.01878 5.10428 0
M  V30 350 H 34.9372 0.430929 4.39995 0
M  V30 351 N 33.9963 -1.19345 1.0293 0
M  V30 352 C 34.9063 -2.26245 0.620515 0
M  V30 353 C 35.9223 -1.70486 -0.347928 0
M  V30 354 O 37.0983 -2.00347 -0.205704 0
M  V30 355 C 34.1633 -3.46693 -0.0218957 0
M  V30 356 C 33.2243 -4.17632 0.994102 0
M  V30 357 C 32.4573 -5.32329 0.382253 0
M  V30 358 O 32.6803 -5.64552 -0.814676 0
M  V30 359 O 31.6143 -5.91664 1.10531 0
M  V30 360 H 35.4403 -2.63453 1.51083 0
M  V30 361 H 33.0253 -1.26207 0.799513 0
M  V30 362 H 34.9073 -4.19683 -0.380072 0
M  V30 363 H 33.5823 -3.11333 -0.886209 0
M  V30 364 H 32.4893 -3.4676 1.40387 0
M  V30 365 H 33.8223 -4.56964 1.8288 0
M  V30 366 N 35.4744 -0.807222 -1.35358 0
M  V30 367 C 36.3844 -0.219594 -2.3357 0
M  V30 368 C 37.4004 0.637734 -1.61892 0
M  V30 369 O 38.5764 0.549336 -1.93763 0
M  V30 370 C 35.6414 0.62158 -3.41083 0
M  V30 371 C 34.7024 -0.256315 -4.28534 0
M  V30 372 C 33.9354 0.544807 -5.30912 0
M  V30 373 O 34.1584 1.77944 -5.41934 0
M  V30 374 O 33.0924 -0.0646478 -6.01865 0
M  V30 375 H 36.9184 -1.03208 -2.85625 0
M  V30 376 H 34.5034 -0.569025 -1.38139 0
M  V30 377 H 36.3854 1.10067 -4.06772 0
M  V30 378 H 35.0604 1.41165 -2.91297 0
M  V30 379 H 33.9674 -0.782559 -3.65823 0
M  V30 380 H 35.3004 -1.01034 -4.81719 0
M  V30 381 N 36.9525 1.47285 -0.560781 0
M  V30 382 C 37.8995 2.30058 0.18491 0
M  V30 383 C 38.8695 1.39281 0.904986 0
M  V30 384 O 40.0545 1.68241 0.899979 0
M  V30 385 C 37.1945 3.23317 1.20666 0
M  V30 386 C 36.3075 4.29186 0.492285 0
M  V30 387 C 35.4425 5.09592 1.49964 0
M  V30 388 C 34.4815 6.07232 0.770439 0
M  V30 389 N 33.6185 6.80584 1.72479 0
M  V30 390 H 38.4585 2.93302 -0.527048 0
M  V30 391 H 35.9955 1.44568 -0.271738 0
M  V30 392 H 37.9535 3.75811 1.81168 0
M  V30 393 H 36.5835 2.61929 1.88661 0
M  V30 394 H 35.6355 3.7972 -0.227333 0
M  V30 395 H 36.9475 4.98738 -0.0787929 0
M  V30 396 H 36.1015 5.66254 2.17809 0
M  V30 397 H 34.8405 4.3995 2.10464 0
M  V30 398 H 33.8455 5.49745 0.0780846 0
M  V30 399 H 35.0705 6.78884 0.171134 0
M  V30 400 H 33.0165 6.1367 2.3183 0
M  V30 401 H 32.9335 7.46319 1.20596 0
M  V30 402 H 34.2015 7.41818 2.39428 0
M  V30 403 N 38.4306 0.297415 1.54768 0
M  V30 404 C 39.3406 -0.58983 2.27064 0
M  V30 405 C 40.3566 -1.15144 1.30453 0
M  V30 406 O 41.5326 -1.17699 1.63428 0
M  V30 407 C 38.5976 -1.74714 2.9946 0
M  V30 408 C 37.6586 -1.21997 4.11601 0
M  V30 409 C 36.8916 -2.32212 4.80535 0
M  V30 410 O 37.1146 -3.52036 4.48806 0
M  V30 411 O 36.0486 -1.99106 5.68014 0
M  V30 412 H 39.8746 -0.00348199 3.037 0
M  V30 413 H 37.4596 0.0640035 1.49263 0
M  V30 414 H 39.3416 -2.42147 3.44881 0
M  V30 415 H 38.0166 -2.32016 2.25722 0
M  V30 416 H 36.9236 -0.511458 3.70587 0
M  V30 417 H 38.2566 -0.692419 4.87305 0
M  V30 418 N 39.9087 -1.5758 0.0250728 0
M  V30 419 C 40.8387 -2.13007 -0.956575 0
M  V30 420 C 41.8197 -1.0452 -1.342 0
M  V30 421 O 43.0047 -1.32332 -1.42133 0
M  V30 422 C 40.1347 -2.65386 -2.24026 0
M  V30 423 C 39.0887 -3.78623 -1.99571 0
M  V30 424 C 38.4147 -4.17414 -3.3417 0
M  V30 425 C 39.7147 -5.04867 -1.33814 0
M  V30 426 H 41.4087 -2.9528 -0.494991 0
M  V30 427 H 38.9547 -1.42042 -0.236651 0
M  V30 428 H 40.9077 -3.02794 -2.93076 0
M  V30 429 H 39.6317 -1.80268 -2.72343 0
M  V30 430 H 38.2907 -3.41646 -1.32941 0
M  V30 431 H 37.9387 -3.29284 -3.80238 0
M  V30 432 H 37.6387 -4.93719 -3.18615 0
M  V30 433 H 39.1627 -4.57402 -4.04495 0
M  V30 434 H 40.5767 -5.39888 -1.92857 0
M  V30 435 H 38.9737 -5.86144 -1.28669 0
M  V30 436 H 40.0437 -4.83904 -0.310561 0
M  V30 437 N 41.3868 0.248026 -1.55636 0
M  V30 438 C 42.3338 1.30707 -1.90222 0
M  V30 439 C 43.3038 1.47881 -0.756332 0
M  V30 440 O 44.4888 1.61883 -1.00988 0
M  V30 441 C 41.6288 2.65769 -2.20138 0
M  V30 442 C 40.7418 2.56612 -3.47526 0
M  V30 443 C 39.8768 3.8402 -3.67017 0
M  V30 444 C 38.9158 3.69476 -4.8801 0
M  V30 445 N 38.0528 4.88774 -5.04029 0
M  V30 446 H 42.8928 1.00512 -2.80538 0
M  V30 447 H 40.4298 0.485055 -1.38873 0
M  V30 448 H 42.3878 3.44386 -2.35487 0
M  V30 449 H 41.0178 2.94115 -1.33027 0
M  V30 450 H 40.0698 1.69571 -3.40514 0
M  V30 451 H 41.3818 2.41774 -4.36287 0
M  V30 452 H 40.5358 4.7108 -3.8232 0
M  V30 453 H 39.2748 4.01754 -2.76487 0
M  V30 454 H 38.2798 2.80799 -4.72686 0
M  V30 455 H 39.5048 3.53238 -5.8 0
M  V30 456 H 37.4508 5.0687 -4.16435 0
M  V30 457 H 37.3678 4.76562 -5.86877 0
M  V30 458 H 38.6358 5.77335 -5.23741 0
M  V30 459 N 42.8649 1.48995 0.513639 0
M  V30 460 C 43.7749 1.67443 1.64317 0
M  V30 461 C 44.7909 0.556947 1.64846 0
M  V30 462 O 45.9669 0.830082 1.83498 0
M  V30 463 C 43.0319 1.72515 3.00732 0
M  V30 464 C 42.0929 2.96009 3.1093 0
M  V30 465 C 41.3259 3.00829 4.40837 0
M  V30 466 O 41.5489 2.13594 5.28898 0
M  V30 467 O 40.4829 3.93168 4.55744 0
M  V30 468 H 44.3089 2.63106 1.51687 0
M  V30 469 H 41.8939 1.32588 0.688543 0
M  V30 470 H 43.7759 1.78277 3.81831 0
M  V30 471 H 42.4509 0.800278 3.13651 0
M  V30 472 H 41.3579 2.9577 2.29065 0
M  V30 473 H 42.6909 3.87934 3.02933 0
M  V30 474 N 44.343 -0.763751 1.37857 0
M  V30 475 C 45.592 -1.51789 1.32827 0
M  V30 476 C 45.905 -1.95426 -0.0823719 0
M  V30 477 O 47.111 -2.70298 -0.255172 0
M  V30 478 C 45.567 -2.74133 2.33193 0
M  V30 479 C 45.175 -2.37562 3.79827 0
M  V30 480 C 46.919 -3.52054 2.37188 0
M  V30 481 C 44.826 -3.56456 4.71904 0
M  V30 482 H 43.756 -0.569896 0.493695 0
M  V30 483 H 46.407 -0.835822 1.63359 0
M  V30 484 H 44.789 -3.4427 1.9569 0
M  V30 485 H 45.963 -1.75157 4.26212 0
M  V30 486 H 44.278 -1.72798 3.78853 0
M  V30 487 H 46.875 -4.40437 3.03182 0
M  V30 488 H 47.218 -3.92486 1.38782 0
M  V30 489 H 47.751 -2.88921 2.7344 0
M  V30 490 H 44.49 -3.21099 5.71468 0
M  V30 491 H 44.01 -4.17938 4.30218 0
M  V30 492 H 45.689 -4.23168 4.89426 0
M  V30 493 N 45.8211 -1.22559 -0.990812 0
M  V30 494 C 47.2371 -0.985996 -1.255 0
M  V30 495 C 47.4371 0.319173 -1.98956 0
M  V30 496 O 46.4931 1.04127 -2.3003 0
M  V30 497 C 47.8061 -2.18607 -2.06474 0
M  V30 498 C 49.3541 -2.22985 -2.19651 0
M  V30 499 C 49.8291 -3.4255 -3.04012 0
M  V30 500 N 51.3201 -3.42725 -3.11599 0
M  V30 501 C 52.0551 -4.31892 -3.7717 0
M  V30 502 N 51.5511 -5.31279 -4.44651 0
M  V30 503 N 53.3441 -4.19662 -3.73952 0
M  V30 504 H 45.4951 -2.06469 -0.49841 0
M  V30 505 H 47.7581 -0.904853 -0.282747 0
M  V30 506 H 47.4641 -3.13267 -1.59865 0
M  V30 507 H 47.3381 -2.18838 -3.07229 0
M  V30 508 H 49.7251 -1.28871 -2.65474 0
M  V30 509 H 49.8061 -2.26791 -1.18319 0
M  V30 510 H 49.4501 -4.36965 -2.58889 0
M  V30 511 H 49.3801 -3.35984 -4.0549 0
M  V30 512 H 51.8711 -2.70807 -2.63575 0
M  V30 513 H 52.1841 -5.95593 -4.92431 0
M  V30 514 H 50.5291 -5.3519 -4.43392 0
M  V30 515 H 53.7201 -3.41268 -3.20396 0
M  V30 516 H 53.8931 -4.89358 -4.24774 0
M  V30 517 N 47.2992 1.18797 -1.03562 0
M  V30 518 C 48.2622 2.20464 -0.626769 0
M  V30 519 C 49.2622 1.57721 0.313173 0
M  V30 520 O 50.4522 1.73917 0.0992615 0
M  V30 521 C 47.5842 3.40802 0.0818498 0
M  V30 522 H 48.7772 2.58149 -1.5264 0
M  V30 523 H 46.3302 1.32593 -0.827578 0
M  V30 524 H 47.0652 3.08642 0.995518 0
M  V30 525 H 46.8502 3.8758 -0.593652 0
M  V30 526 H 48.3402 4.16092 0.354584 0
M  V30 527 N 48.7773 0.814389 1.34928 0
M  V30 528 C 49.7073 0.244827 2.32213 0
M  V30 529 C 50.6883 -0.634024 1.57842 0
M  V30 530 O 51.8733 -0.562676 1.8587 0
M  V30 531 C 49.0033 -0.601106 3.42058 0
M  V30 532 C 47.9573 0.179896 4.27622 0
M  V30 533 C 47.2833 -0.788237 5.28858 0
M  V30 534 C 48.5833 1.38329 5.03649 0
M  V30 535 H 50.2773 1.05763 2.80097 0
M  V30 536 H 47.8233 0.510029 1.34665 0
M  V30 537 H 49.7763 -1.00968 4.09125 0
M  V30 538 H 48.5003 -1.44688 2.92802 0
M  V30 539 H 47.1593 0.569739 3.62146 0
M  V30 540 H 46.8073 -1.62973 4.75866 0
M  V30 541 H 46.5073 -0.269942 5.8698 0
M  V30 542 H 48.0313 -1.19485 5.98795 0
M  V30 543 H 49.4453 1.04918 5.63618 0
M  V30 544 H 47.8423 1.83662 5.71304 0
M  V30 545 H 48.9123 2.16592 4.33839 0
M  V30 546 N 50.2554 -1.46986 0.568584 0
M  V30 547 C 51.5324 -1.95592 -0.0174074 0
M  V30 548 C 51.9124 -1.51124 -1.47393 0
M  V30 549 O 51.2604 -0.755329 -2.15655 0
M  V30 550 C 51.4704 -3.48719 0.139913 0
M  V30 551 C 52.8184 -4.246 0.000426376 0
M  V30 552 O 53.8424 -3.56135 0.0680316 0
M  V30 553 O 52.7014 -5.46302 -0.146988 0
M  V30 554 H 49.7954 -0.82498 -0.0577599 0
M  V30 555 H 52.3414 -1.57335 0.635909 0
M  V30 556 H 51.1134 -3.73927 1.15301 0
M  V30 557 H 50.7364 -3.93771 -0.550491 0
M  V30 558 N 51.7335 -0.305618 -1.54608 0
M  V30 559 C 52.6805 0.568421 -2.23691 0
M  V30 560 C 53.6505 1.12592 -1.22116 0
M  V30 561 O 54.8355 1.16959 -1.50749 0
M  V30 562 C 51.9755 1.7322 -2.98477 0
M  V30 563 C 51.0885 1.20566 -4.14835 0
M  V30 564 C 50.2235 2.33368 -4.77193 0
M  V30 565 C 49.2625 1.7787 -5.85686 0
M  V30 566 N 48.3995 2.84263 -6.4198 0
M  V30 567 H 53.2395 -0.0272867 -2.97988 0
M  V30 568 H 50.7765 -0.0252363 -1.47078 0
M  V30 569 H 52.7345 2.41675 -3.40072 0
M  V30 570 H 51.3645 2.29947 -2.26548 0
M  V30 571 H 50.4165 0.413223 -3.78149 0
M  V30 572 H 51.7285 0.759417 -4.92985 0
M  V30 573 H 50.8825 3.09761 -5.21664 0
M  V30 574 H 49.6215 2.8132 -3.98385 0
M  V30 575 H 48.6265 0.99968 -5.40635 0
M  V30 576 H 49.8515 1.30816 -6.66381 0
M  V30 577 H 47.7975 3.31541 -5.66053 0
M  V30 578 H 47.7145 2.44149 -7.15491 0
M  V30 579 H 48.9825 3.6054 -6.91109 0
M  V30 580 N 53.2116 1.57565 -0.0334293 0
M  V30 581 C 54.1746 2.09393 0.932048 0
M  V30 582 C 55.1746 1.00986 1.25134 0
M  V30 583 O 56.3646 1.27129 1.19096 0
M  V30 584 C 53.4966 2.56338 2.2473 0
M  V30 585 H 54.6896 2.95984 0.483085 0
M  V30 586 H 52.2426 1.54819 0.21468 0
M  V30 587 H 52.9776 1.7309 2.74245 0
M  V30 588 H 52.7626 3.35542 2.02865 0
M  V30 589 H 54.2526 2.96646 2.93923 0
M  V30 590 N 54.6897 -0.239769 1.55765 0
M  V30 591 C 55.9367 -0.966801 1.7793 0
M  V30 592 C 56.2647 -1.85046 0.599015 0
M  V30 593 O 55.5197 -1.91197 -0.417395 0
M  V30 594 C 55.8187 -1.852 3.05672 0
M  V30 595 C 55.4847 -1.1231 4.36689 0
M  V30 596 C 54.1467 -0.921689 4.72291 0
M  V30 597 C 56.4987 -0.607019 5.17653 0
M  V30 598 C 53.8267 -0.191996 5.86386 0
M  V30 599 C 56.1787 0.109241 6.32506 0
M  V30 600 C 54.8427 0.322073 6.66723 0
M  V30 601 H 54.1127 -0.353778 0.651093 0
M  V30 602 H 56.7597 -0.23634 1.90036 0
M  V30 603 H 55.0647 -2.64975 2.8861 0
M  V30 604 H 56.7617 -2.41635 3.20021 0
M  V30 605 H 53.3517 -1.29004 4.08725 0
M  V30 606 H 57.5357 -0.750153 4.90598 0
M  V30 607 H 52.7917 -0.0166949 6.11398 0
M  V30 608 H 56.9657 0.516737 6.9448 0
M  V30 609 H 54.5927 0.88944 7.54979 0
M  V30 610 N 56.1678 -1.49265 -0.50573 0
M  V30 611 C 57.5838 -1.35923 -0.836486 0
M  V30 612 C 57.7838 -0.388704 -1.97715 0
M  V30 613 O 56.8398 0.181336 -2.51848 0
M  V30 614 C 58.1528 -2.76531 -1.18115 0
M  V30 615 C 59.7008 -2.85197 -1.28964 0
M  V30 616 C 60.1758 -4.26561 -1.66761 0
M  V30 617 N 61.6668 -4.2935 -1.73819 0
M  V30 618 C 62.4018 -5.35693 -2.045 0
M  V30 619 N 61.8978 -6.52287 -2.33438 0
M  V30 620 N 63.6908 -5.23105 -2.05711 0
M  V30 621 H 55.8418 -2.10965 0.246519 0
M  V30 622 H 58.1048 -0.9468 0.0476887 0
M  V30 623 H 57.8108 -3.49226 -0.416398 0
M  V30 624 H 57.6848 -3.11599 -2.1257 0
M  V30 625 H 60.0718 -2.12742 -2.04511 0
M  V30 626 H 60.1528 -2.53718 -0.325704 0
M  V30 627 H 59.7968 -4.99541 -0.917656 0
M  V30 628 H 59.7268 -4.55502 -2.64246 0
M  V30 629 H 62.2178 -3.4526 -1.53635 0
M  V30 630 H 62.5308 -7.29158 -2.56024 0
M  V30 631 H 60.8758 -6.55521 -2.30905 0
M  V30 632 H 64.0668 -4.31026 -1.82577 0
M  V30 633 H 64.2398 -6.06078 -2.29289 0
M  V30 634 N 57.6459 0.756429 -1.3826 0
M  V30 635 C 59.0569 1.33359 -1.30661 0
M  V30 636 C 59.4079 1.96161 0.0388875 0
M  V30 637 O 58.5329 1.94874 0.940918 0
M  V30 638 C 59.1279 2.42477 -2.36622 0
M  V30 639 C 57.6869 2.95922 -2.3261 0
M  V30 640 C 56.8339 1.69275 -2.19639 0
M  V30 641 H 59.7849 0.55552 -1.4866 0
M  V30 642 H 59.8059 3.22345 -2.02174 0
M  V30 643 H 59.3179 1.96739 -3.34538 0
M  V30 644 H 57.4189 3.45996 -1.38267 0
M  V30 645 H 57.5319 3.50494 -3.26636 0
M  V30 646 H 55.8959 1.92793 -1.66442 0
M  V30 647 H 56.6789 1.25619 -3.19491 0
M  V30 648 N 59.124 1.23083 0.984299 0
M  V30 649 C 60.034 1.02515 2.11016 0
M  V30 650 C 61.05 -0.0291702 1.73976 0
M  V30 651 O 62.226 0.165434 2.00719 0
M  V30 652 C 59.291 0.614673 3.41208 0
M  V30 653 C 58.352 1.74359 3.92297 0
M  V30 654 C 57.585 1.35261 5.16275 0
M  V30 655 O 57.808 0.235136 5.69915 0
M  V30 656 O 56.742 2.17227 5.61334 0
M  V30 657 H 60.568 1.96862 2.31255 0
M  V30 658 H 58.153 1.01753 1.09392 0
M  V30 659 H 60.035 0.396518 4.1953 0
M  V30 660 H 58.71 -0.299851 3.22308 0
M  V30 661 H 57.617 2.01635 3.1511 0
M  V30 662 H 58.95 2.63629 4.15645 0
M  V30 663 N 60.6021 -1.18246 1.0419 0
M  V30 664 C 61.5321 -2.24127 0.654914 0
M  V30 665 C 62.5131 -1.66617 -0.342451 0
M  V30 666 O 63.6981 -1.92924 -0.222277 0
M  V30 667 C 60.8281 -3.47295 0.0183757 0
M  V30 668 C 59.7821 -4.17563 0.939414 0
M  V30 669 C 59.1081 -5.34438 0.167286 0
M  V30 670 C 60.4081 -4.70917 2.25908 0
M  V30 671 H 62.1021 -2.56753 1.54007 0
M  V30 672 H 59.6481 -1.23414 0.74195 0
M  V30 673 H 61.6011 -4.20572 -0.264082 0
M  V30 674 H 60.3251 -3.13907 -0.901664 0
M  V30 675 H 58.9841 -3.46186 1.20628 0
M  V30 676 H 58.6321 -4.97298 -0.7552 0
M  V30 677 H 58.3321 -5.82388 0.780901 0
M  V30 678 H 59.8561 -6.10504 -0.108125 0
M  V30 679 H 61.2701 -5.35882 2.03724 0
M  V30 680 H 59.6671 -5.29406 2.82577 0
M  V30 681 H 60.7371 -3.88272 2.9047 0
M  V30 682 N 62.0802 -0.821533 -1.34494 0
M  V30 683 C 63.4962 -0.507117 -1.51329 0
M  V30 684 C 63.6962 0.968964 -1.76673 0
M  V30 685 O 62.7522 1.75348 -1.81685 0
M  V30 686 C 64.0652 -1.36544 -2.67911 0
M  V30 687 C 65.6132 -1.36242 -2.81793 0
M  V30 688 C 66.0882 -2.2052 -4.01416 0
M  V30 689 N 67.5792 -2.18136 -4.08621 0
M  V30 690 C 68.3142 -2.80095 -5.00334 0
M  V30 691 N 67.8102 -3.51039 -5.9728 0
M  V30 692 N 69.6032 -2.69656 -4.93196 0
M  V30 693 H 61.7542 -1.77729 -1.16302 0
M  V30 694 H 64.0172 -0.757291 -0.570276 0
M  V30 695 H 63.7232 -2.41361 -2.55808 0
M  V30 696 H 63.5972 -1.02917 -3.62888 0
M  V30 697 H 65.9842 -0.322041 -2.93338 0
M  V30 698 H 66.0652 -1.73866 -1.87628 0
M  V30 699 H 65.7092 -3.24607 -3.90631 0
M  V30 700 H 65.6392 -1.80247 -4.94791 0
M  V30 701 H 68.1302 -1.6653 -3.39229 0
M  V30 702 H 68.4432 -3.95565 -6.63889 0
M  V30 703 H 66.7882 -3.55145 -5.97409 0
M  V30 704 H 69.9792 -2.13808 -4.16418 0
M  V30 705 H 70.1522 -3.1823 -5.64476 0
M  V30 706 N 63.5583 1.46682 -0.576371 0
M  V30 707 C 64.4683 2.34032 0.163141 0
M  V30 708 C 65.4843 1.49367 0.892501 0
M  V30 709 O 66.6603 1.82252 0.857106 0
M  V30 710 C 63.7253 3.26435 1.16795 0
M  V30 711 C 62.7863 4.26998 0.443944 0
M  V30 712 C 62.0193 5.14986 1.40088 0
M  V30 713 O 62.2423 5.05785 2.637 0
M  V30 714 O 61.1763 5.94906 0.914917 0
M  V30 715 H 65.0023 2.98607 -0.55388 0
M  V30 716 H 62.5873 1.45554 -0.336821 0
M  V30 717 H 64.4693 3.83459 1.74748 0
M  V30 718 H 63.1443 2.64465 1.86655 0
M  V30 719 H 62.0513 3.7368 -0.177271 0
M  V30 720 H 63.3843 4.91736 -0.213566 0
M  V30 721 N 65.0364 0.313813 1.54444 0
M  V30 722 C 65.9464 -0.565714 2.27677 0
M  V30 723 C 66.9624 -1.13754 1.31666 0
M  V30 724 O 68.1384 -1.15959 1.64668 0
M  V30 725 C 65.2034 -1.71528 3.01296 0
M  V30 726 C 64.2644 -1.17624 4.12872 0
M  V30 727 C 63.4974 -2.27102 4.8297 0
M  V30 728 O 63.7204 -3.47256 4.52514 0
M  V30 729 O 62.6544 -1.9307 5.70094 0
M  V30 730 H 66.4804 0.0287296 3.03686 0
M  V30 731 H 64.0654 0.0798312 1.49187 0
M  V30 732 H 65.9474 -2.38476 3.4743 0
M  V30 733 H 64.6224 -2.29608 2.2817 0
M  V30 734 H 63.5294 -0.472124 3.71109 0
M  V30 735 H 64.8624 -0.640695 4.88012 0
M  V30 736 N 66.5145 -1.57545 0.0417849 0
M  V30 737 C 67.7615 -1.92317 -0.634082 0
M  V30 738 C 68.0895 -0.919334 -1.71402 0
M  V30 739 O 67.3445 0.0698253 -1.95575 0
M  V30 740 C 67.6435 -3.33794 -1.27735 0
M  V30 741 C 67.3095 -4.49716 -0.326543 0
M  V30 742 C 65.9715 -4.81156 -0.0648814 0
M  V30 743 C 68.3235 -5.20182 0.325623 0
M  V30 744 C 65.6515 -5.80414 0.856539 0
M  V30 745 C 68.0035 -6.20424 1.23518 0
M  V30 746 C 66.6675 -6.50298 1.5056 0
M  V30 747 H 65.9375 -0.703736 -0.232027 0
M  V30 748 H 68.5845 -1.91205 0.106259 0
M  V30 749 H 66.8895 -3.31228 -2.09274 0
M  V30 750 H 68.5865 -3.57975 -1.80707 0
M  V30 751 H 65.1765 -4.25176 -0.540665 0
M  V30 752 H 69.3605 -4.96112 0.136546 0
M  V30 753 H 64.6165 -6.019 1.07363 0
M  V30 754 H 68.7905 -6.74141 1.74664 0
M  V30 755 H 66.4175 -7.27025 2.22123 0
M  V30 756 N 67.9926 0.231505 -1.5589 0
M  V30 757 C 69.2176 0.978689 -1.82856 0
M  V30 758 C 69.6426 1.77559 -0.620846 0
M  V30 759 O 69.0006 1.76119 0.430305 0
M  V30 760 C 69.0486 1.87997 -3.07716 0
M  V30 761 O 68.1526 2.97393 -2.85712 0
M  V30 762 H 67.4936 0.277663 -0.603158 0
M  V30 763 H 70.0236 0.24783 -2.03093 0
M  V30 764 H 70.0336 2.2917 -3.37558 0
M  V30 765 H 68.7086 1.29417 -3.95252 0
M  V30 766 H 67.2856 2.60238 -2.67078 0
M  V30 767 N 69.4707 1.49531 0.497807 0
M  V30 768 C 70.4177 1.66436 1.59899 0
M  V30 769 C 71.3877 0.505793 1.58212 0
M  V30 770 O 72.5727 0.733202 1.7615 0
M  V30 771 C 69.7127 1.7399 2.98029 0
M  V30 772 C 68.8257 3.01172 3.09708 0
M  V30 773 C 67.9607 2.99686 4.38591 0
M  V30 774 C 66.9997 4.21434 4.43914 0
M  V30 775 N 66.1367 4.1784 5.64229 0
M  V30 776 H 70.9767 2.60459 1.44793 0
M  V30 777 H 68.5137 1.29137 0.704423 0
M  V30 778 H 70.4717 1.76352 3.78095 0
M  V30 779 H 69.1017 0.834301 3.11832 0
M  V30 780 H 68.1537 3.08408 2.22685 0
M  V30 781 H 69.4657 3.91165 3.09502 0
M  V30 782 H 68.6197 3.00628 5.2698 0
M  V30 783 H 67.3587 2.07477 4.41367 0
M  V30 784 H 66.3637 4.20733 3.53926 0
M  V30 785 H 67.5887 5.14839 4.42851 0
M  V30 786 H 65.5347 3.28469 5.67841 0
M  V30 787 H 65.4517 5.01571 5.65652 0
M  V30 788 H 66.7197 4.22889 6.54817 0
M  V30 789 N 70.9488 -0.749086 1.3866 0
M  V30 790 C 71.8788 -1.8764 1.38973 0
M  V30 791 C 72.8598 -1.68178 0.255004 0
M  V30 792 O 74.0448 -1.88704 0.458754 0
M  V30 793 C 71.1748 -3.25222 1.21851 0
M  V30 794 C 70.1288 -3.59295 2.32575 0
M  V30 795 C 69.4548 -4.95663 2.00555 0
M  V30 796 C 70.7548 -3.63709 3.7485 0
M  V30 797 H 72.4488 -1.87635 2.3331 0
M  V30 798 H 69.9948 -0.901329 1.12303 0
M  V30 799 H 71.9478 -4.03746 1.20695 0
M  V30 800 H 70.6718 -3.25719 0.239775 0
M  V30 801 H 69.3308 -2.83093 2.32925 0
M  V30 802 H 68.9788 -4.92724 1.01154 0
M  V30 803 H 68.6788 -5.19429 2.74714 0
M  V30 804 H 70.2028 -5.7656 2.01024 0
M  V30 805 H 71.6168 -4.32338 3.76506 0
M  V30 806 H 70.0138 -3.98986 4.48252 0
M  V30 807 H 71.0838 -2.63834 4.06841 0
M  V30 808 N 72.4269 -1.23603 -0.977757 0
M  V30 809 C 73.3589 -0.977369 -2.07317 0
M  V30 810 C 74.3719 0.0495845 -1.62724 0
M  V30 811 O 75.5609 -0.186261 -1.77526 0
M  V30 812 C 72.6609 -0.451216 -3.35883 0
M  V30 813 C 71.8339 -1.53896 -4.09432 0
M  V30 814 C 70.8929 -1.01721 -5.16274 0
M  V30 815 O 69.9189 -1.70676 -5.43009 0
M  V30 816 N 71.1209 0.153594 -5.80297 0
M  V30 817 H 73.8859 -1.92047 -2.30082 0
M  V30 818 H 71.4469 -1.14497 -1.14465 0
M  V30 819 H 73.4389 -0.0871574 -4.04606 0
M  V30 820 H 72.0089 0.397368 -3.10064 0
M  V30 821 H 71.2289 -2.07566 -3.35127 0
M  V30 822 H 72.5169 -2.27037 -4.55337 0
M  V30 823 H 71.9149 0.730323 -5.60966 0
M  V30 824 H 70.4719 0.458892 -6.50183 0
M  V30 825 N 73.905 1.17692 -1.04816 0
M  V30 826 C 74.853 2.23632 -0.63966 0
M  V30 827 C 75.847 1.6601 0.337219 0
M  V30 828 O 77.053 1.78844 0.203693 0
M  V30 829 H 73.428 0.727949 -0.188665 0
M  V30 830 H 75.399 2.55387 -1.54337 0
M  V30 831 C 74.148 3.4769 -0.0264051 0
M  V30 832 H 73.471 3.92331 -0.769164 0
M  V30 833 H 74.911 4.23418 0.222098 0
M  V30 834 C 73.37 3.13807 1.22584 0
M  V30 835 O 73.9 3.28236 2.31569 0
M  V30 836 N 72.106 2.68065 1.12202 0
M  V30 837 H 71.653 2.56525 0.235133 0
M  V30 838 H 71.611 2.45767 1.96076 0
M  V30 839 N 75.3831 0.828654 1.34056 0
M  V30 840 C 76.7991 0.515135 1.51058 0
M  V30 841 C 76.9991 -0.959581 1.77184 0
M  V30 842 O 76.0551 -1.74382 1.82612 0
M  V30 843 C 77.3681 1.37963 2.67183 0
M  V30 844 C 78.9161 1.37735 2.81066 0
M  V30 845 C 79.3911 2.22645 4.00241 0
M  V30 846 N 80.8821 2.203 4.07458 0
M  V30 847 C 81.6171 2.82744 4.98842 0
M  V30 848 N 81.1131 3.54201 5.9541 0
M  V30 849 N 82.9061 2.72268 4.91759 0
M  V30 850 H 75.0571 1.78343 1.15358 0
M  V30 851 H 77.3201 0.760304 0.566252 0
M  V30 852 H 77.0261 2.42714 2.54525 0
M  V30 853 H 76.9001 1.0484 3.62338 0
M  V30 854 H 79.2871 0.337593 2.93163 0
M  V30 855 H 79.3681 1.74859 1.86703 0
M  V30 856 H 79.0121 3.26674 3.88905 0
M  V30 857 H 78.9421 1.82869 4.93829 0
M  V30 858 H 81.4331 1.68327 3.38341 0
M  V30 859 H 81.7461 3.9908 6.61782 0
M  V30 860 H 80.0911 3.58308 5.95517 0
M  V30 861 H 83.2821 2.16014 4.15278 0
M  V30 862 H 83.4551 3.21219 5.62781 0
M  V30 863 N 76.8612 -1.46375 0.584142 0
M  V30 864 C 78.0892 -2.06761 0.0759296 0
M  V30 865 C 78.5042 -1.43266 -1.22965 0
M  V30 866 O 77.8612 -0.538458 -1.74376 0
M  V30 867 C 77.9122 -3.61375 -0.0950384 0
M  V30 868 O 77.6332 -4.22495 1.15887 0
M  V30 869 C 79.1342 -4.38693 -0.637434 0
M  V30 870 H 76.3542 -0.668479 0.0581075 0
M  V30 871 H 78.8982 -1.8798 0.805218 0
M  V30 872 H 77.0532 -3.79578 -0.774554 0
M  V30 873 H 77.4672 -5.15385 0.973598 0
M  V30 874 H 78.9412 -5.47464 -0.706237 0
M  V30 875 H 79.4182 -4.06836 -1.65472 0
M  V30 876 H 80.0242 -4.25299 0.00725967 0
M  V30 877 N 78.3393 -0.321999 -1.54275 0
M  V30 878 C 79.2863 0.544664 -2.24281 0
M  V30 879 C 80.2563 1.1129 -1.23303 0
M  V30 880 O 81.4413 1.15354 -1.51981 0
M  V30 881 C 78.5813 1.70045 -3.00298 0
M  V30 882 C 77.6943 1.16159 -4.1609 0
M  V30 883 C 76.8293 2.28293 -4.79641 0
M  V30 884 C 75.8683 1.71648 -5.8754 0
M  V30 885 N 75.0053 2.77438 -6.44959 0
M  V30 886 H 79.8453 -0.0588907 -2.97942 0
M  V30 887 H 77.3823 -0.0408345 -1.47043 0
M  V30 888 H 79.3403 2.38054 -3.42616 0
M  V30 889 H 77.9703 2.27531 -2.28975 0
M  V30 890 H 77.0223 0.373092 -3.78566 0
M  V30 891 H 78.3343 0.707087 -4.93763 0
M  V30 892 H 77.4883 3.0421 -5.2492 0
M  V30 893 H 76.2273 2.77079 -4.01346 0
M  V30 894 H 75.2323 0.942282 -5.41665 0
M  V30 895 H 76.4573 1.23741 -6.67731 0
M  V30 896 H 74.4033 3.25519 -5.69538 0
M  V30 897 H 74.3203 2.36547 -7.1804 0
M  V30 898 H 75.5883 3.53189 -6.94894 0
M  V30 899 N 79.8174 1.5752 -0.0501392 0
M  V30 900 C 80.7474 2.14502 0.922566 0
M  V30 901 C 81.7284 1.06642 1.3252 0
M  V30 902 O 82.9134 1.34577 1.4001 0
M  V30 903 C 80.0434 2.68916 2.19776 0
M  V30 904 C 78.9974 3.8175 1.93523 0
M  V30 905 C 78.3234 4.22677 3.27487 0
M  V30 906 C 79.6234 5.06932 1.25765 0
M  V30 907 H 81.3174 2.9603 0.447952 0
M  V30 908 H 78.8634 1.42401 0.214024 0
M  V30 909 H 80.8164 3.07419 2.88222 0
M  V30 910 H 79.5404 1.84578 2.69441 0
M  V30 911 H 78.1994 3.43718 1.27489 0
M  V30 912 H 77.8474 3.35291 3.74952 0
M  V30 913 H 77.5474 4.98725 3.1072 0
M  V30 914 H 79.0714 4.63779 3.97166 0
M  V30 915 H 80.4854 5.42888 1.84244 0
M  V30 916 H 78.8824 5.88116 1.19328 0
M  V30 917 H 79.9524 4.84337 0.233536 0
M  V30 918 N 81.2955 -0.223234 1.56011 0
M  V30 919 C 82.5235 -0.964812 1.83027 0
M  V30 920 C 82.9385 -1.78013 0.62904 0
M  V30 921 O 82.2955 -1.78008 -0.402414 0
M  V30 922 C 82.3465 -1.88373 3.08542 0
M  V30 923 O 82.0675 -1.10137 4.2403 0
M  V30 924 C 83.5685 -2.73934 3.48533 0
M  V30 925 H 80.7885 -0.282842 0.608475 0
M  V30 926 H 83.3325 -0.238971 2.03099 0
M  V30 927 H 81.4875 -2.56354 2.9045 0
M  V30 928 H 81.9015 -1.72501 4.95322 0
M  V30 929 H 83.3755 -3.34117 4.39397 0
M  V30 930 H 83.8525 -3.46244 2.70207 0
M  V30 931 H 84.4585 -2.11369 3.69057 0
M  V30 932 N 82.7736 -1.49793 -0.48987 0
M  V30 933 C 84.0196 -1.60078 -1.24511 0
M  V30 934 C 84.3526 -0.291608 -1.91998 0
M  V30 935 O 83.6276 0.705647 -1.81248 0
M  V30 936 C 83.9106 -2.76791 -2.30345 0
M  V30 937 C 83.7636 -4.17535 -1.67286 0
M  V30 938 C 85.0826 -2.89111 -3.31817 0
M  V30 939 H 82.2016 -0.582645 -0.451324 0
M  V30 940 H 84.8436 -1.82117 -0.541612 0
M  V30 941 H 82.9936 -2.5813 -2.90346 0
M  V30 942 H 84.6656 -4.4774 -1.11026 0
M  V30 943 H 82.9086 -4.22665 -0.976577 0
M  V30 944 H 83.5796 -4.95094 -2.44103 0
M  V30 945 H 86.0556 -3.06133 -2.81819 0
M  V30 946 H 84.9316 -3.72433 -4.03219 0
M  V30 947 H 85.1926 -1.9893 -3.94815 0
M  V30 948 N 84.2517 0.741722 -1.39055 0
M  V30 949 C 85.1817 1.869 -1.39966 0
M  V30 950 C 86.1627 1.6804 -0.26392 0
M  V30 951 O 87.3477 1.88458 -0.468755 0
M  V30 952 C 84.4777 3.24572 -1.23574 0
M  V30 953 C 83.4317 3.58056 -2.34477 0
M  V30 954 C 82.7577 4.94593 -2.0318 0
M  V30 955 C 84.0577 3.61716 -3.76774 0
M  V30 956 H 85.7517 1.86395 -2.34302 0
M  V30 957 H 83.2977 0.895361 -1.1278 0
M  V30 958 H 85.2507 4.031 -1.22834 0
M  V30 959 H 83.9747 3.25587 -0.257045 0
M  V30 960 H 82.6337 2.81854 -2.34423 0
M  V30 961 H 82.2817 4.92181 -1.03765 0
M  V30 962 H 81.9817 5.17964 -2.77465 0
M  V30 963 H 83.5057 5.75486 -2.04079 0
M  V30 964 H 84.9197 4.30335 -3.78794 0
M  V30 965 H 83.3167 3.96603 -4.50362 0
M  V30 966 H 84.3867 2.61672 -4.08235 0
M  V30 967 N 85.7298 1.2412 0.971189 0
M  V30 968 C 86.6398 1.04747 2.09917 0
M  V30 969 C 87.6558 -0.0107162 1.73997 0
M  V30 970 O 88.8318 0.186714 2.00533 0
M  V30 971 C 85.8968 0.650828 3.40537 0
M  V30 972 C 84.9578 1.7851 3.90426 0
M  V30 973 C 84.1908 1.40729 5.14812 0
M  V30 974 O 84.4138 0.29557 5.69634 0
M  V30 975 O 83.3478 2.23168 5.58999 0
M  V30 976 H 87.1738 1.99304 2.29154 0
M  V30 977 H 84.7588 1.02908 1.08307 0
M  V30 978 H 86.6408 0.440992 4.19086 0
M  V30 979 H 85.3158 -0.265649 3.22608 0
M  V30 980 H 84.2228 2.04966 3.12953 0
M  V30 981 H 85.5558 2.68023 4.12825 0
M  V30 982 N 87.2079 -1.17134 1.05439 0
M  V30 983 C 88.4559 -1.87085 0.764429 0
M  V30 984 C 88.7769 -1.81584 -0.710787 0
M  V30 985 O 88.0469 -1.24349 -1.51374 0
M  V30 986 H 86.6269 -0.692627 0.279779 0
M  V30 987 H 89.2889 -1.42087 1.33406 0
M  V30 988 H 88.3849 -2.92759 1.0816 0
M  V30 989 N 88.686 -0.835752 -1.33615 0
M  V30 990 C 89.963 -0.352017 -1.92406 0
M  V30 991 C 90.343 1.16225 -1.76224 0
M  V30 992 O 89.691 1.97526 -1.14873 0
M  V30 993 C 89.901 -0.795485 -3.39813 0
M  V30 994 C 91.249 -0.801703 -4.16963 0
M  V30 995 O 92.273 -0.738889 -3.48452 0
M  V30 996 O 91.132 -0.886607 -5.3926 0
M  V30 997 H 88.226 -0.0989641 -0.821057 0
M  V30 998 H 90.772 -0.921397 -1.42507 0
M  V30 999 H 89.544 -1.83795 -3.45449 0
M  V30 1000 H 89.167 -0.202505 -3.97084 0
M  V30 1001 N 90.1641 1.46063 -0.591896 0
M  V30 1002 C 91.4131 2.01547 -0.0786637 0
M  V30 1003 C 91.7261 1.46796 1.29268 0
M  V30 1004 O 92.9321 1.94157 1.89777 0
M  V30 1005 C 91.3881 3.59787 -0.0900024 0
M  V30 1006 C 90.9961 4.23534 -1.46023 0
M  V30 1007 C 92.7401 4.22895 0.368806 0
M  V30 1008 C 90.6471 5.73881 -1.4288 0
M  V30 1009 H 89.5771 0.753564 -0.0256388 0
M  V30 1010 H 92.2281 1.677 -0.744905 0
M  V30 1011 H 90.6101 3.90752 0.642586 0
M  V30 1012 H 91.7841 4.04167 -2.21328 0
M  V30 1013 H 90.0991 3.72558 -1.85982 0
M  V30 1014 H 92.6961 5.33116 0.411258 0
M  V30 1015 H 93.0391 3.9247 1.38827 0
M  V30 1016 H 93.5721 3.9659 -0.31001 0
M  V30 1017 H 90.3111 6.0898 -2.42536 0
M  V30 1018 H 89.8311 5.95486 -0.718095 0
M  V30 1019 H 91.5101 6.36776 -1.14565 0
M  V30 1020 N 91.6422 0.330177 1.54103 0
M  V30 1021 C 92.5722 -0.525353 2.27513 0
M  V30 1022 C 93.5532 -1.11383 1.2856 0
M  V30 1023 O 94.7382 -1.13773 1.57383 0
M  V30 1024 C 91.8682 -1.6831 3.03791 0
M  V30 1025 C 90.8222 -1.2236 4.10137 0
M  V30 1026 C 90.1482 -2.46882 4.74293 0
M  V30 1027 C 91.4482 -0.333697 5.21233 0
M  V30 1028 H 93.1422 0.087013 2.99274 0
M  V30 1029 H 90.6882 0.0432893 1.43935 0
M  V30 1030 H 92.6412 -2.28795 3.5388 0
M  V30 1031 H 91.3652 -2.32216 2.29659 0
M  V30 1032 H 90.0242 -0.64165 3.60941 0
M  V30 1033 H 89.6722 -3.09165 3.96769 0
M  V30 1034 H 89.3722 -2.16825 5.46133 0
M  V30 1035 H 90.8962 -3.08117 5.27159 0
M  V30 1036 H 92.3102 -0.845013 5.67038 0
M  V30 1037 H 90.7072 -0.125612 5.99969 0
M  V30 1038 H 91.7772 0.633724 4.80741 0
M  V30 1039 N 93.1203 -1.57491 0.0584922 0
M  V30 1040 C 94.3973 -1.84346 -0.653918 0
M  V30 1041 C 94.7773 -0.948355 -1.88599 0
M  V30 1042 O 94.1253 -0.0112403 -2.28497 0
M  V30 1043 C 94.3353 -3.34239 -1.00425 0
M  V30 1044 C 95.6833 -4.01431 -1.38342 0
M  V30 1045 O 96.7073 -3.38907 -1.09637 0
M  V30 1046 O 95.5663 -5.11683 -1.91943 0
M  V30 1047 H 92.6603 -0.761112 -0.323478 0
M  V30 1048 H 95.2063 -1.6947 0.0884125 0
M  V30 1049 H 93.9783 -3.91089 -0.128625 0
M  V30 1050 H 93.6013 -3.54329 -1.80378 0
M  V30 1051 N 94.5984 0.214957 -1.56127 0
M  V30 1052 C 95.5084 1.28727 -1.96129 0
M  V30 1053 C 96.5244 1.50916 -0.866044 0
M  V30 1054 O 97.7004 1.63918 -1.17016 0
M  V30 1055 C 94.7654 2.61569 -2.27558 0
M  V30 1056 C 93.8264 2.47625 -3.50685 0
M  V30 1057 C 93.0594 3.74132 -3.80606 0
M  V30 1058 O 93.2824 4.77438 -3.12104 0
M  V30 1059 O 92.2164 3.70849 -4.74083 0
M  V30 1060 H 96.0424 0.977855 -2.87527 0
M  V30 1061 H 93.6274 0.418358 -1.43423 0
M  V30 1062 H 95.5094 3.40012 -2.48938 0
M  V30 1063 H 94.1844 2.92178 -1.39332 0
M  V30 1064 H 93.0914 1.67361 -3.34576 0
M  V30 1065 H 94.4244 2.21954 -4.39315 0
M  V30 1066 N 96.0765 1.50051 0.48192 0
M  V30 1067 C 97.4875 1.5348 1.06305 0
M  V30 1068 C 97.8385 0.331997 1.93371 0
M  V30 1069 O 96.9635 -0.556256 2.09129 0
M  V30 1070 C 97.5585 2.7813 1.93466 0
M  V30 1071 C 96.1175 2.84275 2.46707 0
M  V30 1072 C 95.2645 2.47637 1.24785 0
M  V30 1073 H 98.2155 1.56472 0.264995 0
M  V30 1074 H 98.2365 2.59372 2.78399 0
M  V30 1075 H 97.7485 3.65654 1.30072 0
M  V30 1076 H 95.8495 2.01077 3.13686 0
M  V30 1077 H 95.9625 3.8691 2.82555 0
M  V30 1078 H 94.3265 1.99835 1.57918 0
M  V30 1079 H 95.1095 3.37457 0.630694 0
M  V30 1080 N 97.5546 -0.734337 1.39446 0
M  V30 1081 C 98.8016 -1.49391 1.36706 0
M  V30 1082 C 99.1296 -1.94465 -0.0367813 0
M  V30 1083 O 98.3846 -1.67154 -1.01774 0
M  V30 1084 C 98.6836 -2.74711 2.28623 0
M  V30 1085 C 98.3496 -2.48501 3.76242 0
M  V30 1086 C 97.0116 -2.41062 4.16464 0
M  V30 1087 C 99.3636 -2.26098 4.69606 0
M  V30 1088 C 96.6916 -2.09262 5.48112 0
M  V30 1089 C 99.0436 -1.95814 6.01531 0
M  V30 1090 C 97.7076 -1.86845 6.40816 0
M  V30 1091 H 96.9776 -0.546661 0.500243 0
M  V30 1092 H 99.6246 -0.842788 1.71957 0
M  V30 1093 H 97.9296 -3.44569 1.86492 0
M  V30 1094 H 99.6266 -3.32741 2.23796 0
M  V30 1095 H 96.2166 -2.55169 3.44364 0
M  V30 1096 H 100.401 -2.30812 4.39363 0
M  V30 1097 H 95.6566 -2.00841 5.77471 0
M  V30 1098 H 99.8306 -1.77488 6.73403 0
M  V30 1099 H 97.4576 -1.6197 7.42745 0
M  V30 1100 N 99.0327 -1.24633 -0.964593 0
M  V30 1101 C 99.9627 -1.06611 -2.07741 0
M  V30 1102 C 100.944 0.0218666 -1.70086 0
M  V30 1103 O 102.129 -0.145793 -1.93652 0
M  V30 1104 C 99.2587 -0.673444 -3.40708 0
M  V30 1105 C 98.2127 -1.71054 -3.92332 0
M  V30 1106 C 97.5387 -1.17285 -5.21678 0
M  V30 1107 C 98.8387 -3.10718 -4.19824 0
M  V30 1108 H 100.533 -1.99693 -2.23076 0
M  V30 1109 H 98.0787 -0.96152 -1.07195 0
M  V30 1110 H 100.032 -0.534345 -4.17998 0
M  V30 1111 H 98.7557 0.293073 -3.25282 0
M  V30 1112 H 97.4147 -1.83791 -3.17201 0
M  V30 1113 H 97.0627 -0.196847 -5.02615 0
M  V30 1114 H 96.7627 -1.86592 -5.57187 0
M  V30 1115 H 98.2867 -1.04593 -6.01575 0
M  V30 1116 H 99.7007 -3.01192 -4.87808 0
M  V30 1117 H 98.0977 -3.77406 -4.66567 0
M  V30 1118 H 99.1677 -3.58524 -3.26479 0
M  V30 1119 N 100.511 1.16574 -1.06058 0
M  V30 1120 C 101.458 2.20883 -0.669263 0
M  V30 1121 C 102.428 1.62729 0.332918 0
M  V30 1122 O 103.613 1.895 0.222346 0
M  V30 1123 C 100.753 3.45049 -0.0593572 0
M  V30 1124 C 99.8658 4.17458 -1.11143 0
M  V30 1125 C 99.0008 5.29135 -0.467916 0
M  V30 1126 C 98.0398 5.93343 -1.50369 0
M  V30 1127 N 97.1768 6.96516 -0.883706 0
M  V30 1128 H 102.017 2.53709 -1.5632 0
M  V30 1129 H 99.5538 1.24616 -0.781625 0
M  V30 1130 H 101.512 4.16033 0.311771 0
M  V30 1131 H 100.142 3.12781 0.797992 0
M  V30 1132 H 99.1938 3.45101 -1.60029 0
M  V30 1133 H 100.506 4.61307 -1.89731 0
M  V30 1134 H 99.6598 6.06684 -0.0436871 0
M  V30 1135 H 98.3988 4.86443 0.349864 0
M  V30 1136 H 97.4038 5.14517 -1.93784 0
M  V30 1137 H 98.6288 6.38114 -2.32352 0
M  V30 1138 H 96.5748 6.55943 -0.086595 0
M  V30 1139 H 96.4918 7.38723 -1.607 0
M  V30 1140 H 97.7598 7.77993 -0.484543 0
M  V30 1141 N 101.989 0.842826 1.3317 0
M  V30 1142 C 103.405 0.531128 1.50503 0
M  V30 1143 C 103.605 -0.940734 1.78192 0
M  V30 1144 O 102.661 -1.72436 1.84451 0
M  V30 1145 C 103.974 1.40789 2.65705 0
M  V30 1146 C 105.522 1.40708 2.79589 0
M  V30 1147 C 105.997 2.26878 3.97857 0
M  V30 1148 N 107.488 2.24609 4.05099 0
M  V30 1149 C 108.223 2.88019 4.95815 0
M  V30 1150 N 107.719 3.60496 5.9162 0
M  V30 1151 N 109.512 2.77469 4.88843 0
M  V30 1152 H 101.663 1.79557 1.1346 0
M  V30 1153 H 103.926 0.766267 0.558156 0
M  V30 1154 H 103.632 2.454 2.51936 0
M  V30 1155 H 103.506 1.08677 3.61205 0
M  V30 1156 H 105.893 0.368668 2.92788 0
M  V30 1157 H 105.974 1.76829 1.84838 0
M  V30 1158 H 105.618 3.3078 3.85418 0
M  V30 1159 H 105.548 1.88096 4.91861 0
M  V30 1160 H 108.039 1.71906 3.36536 0
M  V30 1161 H 108.352 4.06076 6.57512 0
M  V30 1162 H 106.697 3.64604 5.91683 0
M  V30 1163 H 109.888 2.20406 4.12963 0
M  V30 1164 H 110.061 3.2717 5.59342 0
M  V30 1165 N 103.467 -1.45747 0.599634 0
M  V30 1166 C 104.43 -2.28917 -0.113835 0
M  V30 1167 C 105.43 -1.3933 -0.802729 0
M  V30 1168 O 106.62 -1.61534 -0.652103 0
M  V30 1169 C 103.752 -3.20152 -1.17114 0
M  V30 1170 H 104.945 -2.93478 0.617289 0
M  V30 1171 H 102.498 -1.52137 0.358327 0
M  V30 1172 H 103.233 -2.60374 -1.93329 0
M  V30 1173 H 103.018 -3.86133 -0.681468 0
M  V30 1174 H 104.508 -3.82708 -1.67105 0
M  V30 1175 N 104.945 -0.338344 -1.53925 0
M  V30 1176 C 106.185 0.260168 -2.02737 0
M  V30 1177 C 106.549 1.48181 -1.22092 0
M  V30 1178 O 107.75 2.15416 -1.60777 0
M  V30 1179 C 106.021 0.571627 -3.52799 0
M  V30 1180 S 107.58 1.14769 -4.23525 0
M  V30 1181 H 104.398 0.077791 -0.706732 0
M  V30 1182 H 107 -0.474899 -1.89644 0
M  V30 1183 H 105.704 -0.325392 -4.09108 0
M  V30 1184 H 105.235 1.3365 -3.70002 0
M  V30 1185 H 107.25 2.43372 -4.32417 0
M  V30 1186 N 106.423 1.57458 -0.0668435 0
M  V30 1187 C 107.355 2.09413 0.931601 0
M  V30 1188 C 108.368 1.02522 1.26464 0
M  V30 1189 O 109.557 1.30049 1.22269 0
M  V30 1190 C 106.657 2.53537 2.24882 0
M  V30 1191 C 105.83 3.83944 2.09537 0
M  V30 1192 C 104.889 4.14214 3.2452 0
M  V30 1193 O 103.915 4.83891 2.9973 0
M  V30 1194 N 105.117 3.67367 4.49469 0
M  V30 1195 H 107.882 2.95699 0.488048 0
M  V30 1196 H 105.443 1.61462 0.119009 0
M  V30 1197 H 107.435 2.70853 3.00701 0
M  V30 1198 H 106.005 1.72415 2.60753 0
M  V30 1199 H 105.225 3.76057 1.18215 0
M  V30 1200 H 106.513 4.69312 1.96529 0
M  V30 1201 H 105.911 3.11068 4.72497 0
M  V30 1202 H 104.468 3.89891 5.2233 0
M  V30 1203 N 107.901 -0.206675 1.56239 0
M  V30 1204 C 109.178 -0.954051 1.70755 0
M  V30 1205 C 109.558 -2.01841 0.618353 0
M  V30 1206 O 108.906 -2.25444 -0.372434 0
M  V30 1207 C 109.116 -1.551 3.12642 0
M  V30 1208 C 110.464 -2.03757 3.72516 0
M  V30 1209 O 111.488 -1.64965 3.15698 0
M  V30 1210 O 110.347 -2.75103 4.72208 0
M  V30 1211 H 107.441 -0.446636 0.696021 0
M  V30 1212 H 109.987 -0.197283 1.68549 0
M  V30 1213 H 108.759 -0.783212 3.83382 0
M  V30 1214 H 108.382 -2.37291 3.19028 0
M  V30 1215 N 109.379 -1.50304 -0.473955 0
M  V30 1216 C 110.625 -1.61389 -1.22806 0
M  V30 1217 C 110.958 -0.311955 -1.91678 0
M  V30 1218 O 110.233 0.686384 -1.81986 0
M  V30 1219 C 110.516 -2.79219 -2.27396 0
M  V30 1220 C 110.369 -4.19286 -1.62848 0
M  V30 1221 C 111.688 -2.92614 -3.28732 0
M  V30 1222 H 108.807 -0.587399 -0.445119 0
M  V30 1223 H 111.449 -1.82681 -0.522265 0
M  V30 1224 H 109.599 -2.61195 -2.87592 0
M  V30 1225 H 111.271 -4.48892 -1.06271 0
M  V30 1226 H 109.514 -4.23677 -0.931693 0
M  V30 1227 H 110.185 -4.97655 -2.38838 0
M  V30 1228 H 112.661 -3.09105 -2.78556 0
M  V30 1229 H 111.537 -3.76688 -3.99246 0
M  V30 1230 H 111.798 -2.03107 -3.92683 0
M  V30 1231 N 110.857 0.726932 -1.39834 0
M  V30 1232 C 112.082 1.52121 -1.40976 0
M  V30 1233 C 112.507 1.88098 -0.00826029 0
M  V30 1234 O 111.865 1.52479 0.980807 0
M  V30 1235 C 111.913 2.78021 -2.29644 0
M  V30 1236 O 111.017 3.74272 -1.73188 0
M  V30 1237 H 110.358 0.45908 -0.479731 0
M  V30 1238 H 112.888 0.896207 -1.83927 0
M  V30 1239 H 112.898 3.26671 -2.44438 0
M  V30 1240 H 111.573 2.51169 -3.31492 0
M  V30 1241 H 110.15 3.33073 -1.6768 0
M  V30 1242 N 112.336 1.25143 0.95797 0
M  V30 1243 C 113.582 1.09855 1.70469 0
M  V30 1244 C 113.915 -0.360187 1.90831 0
M  V30 1245 O 113.19 -1.26568 1.47685 0
M  V30 1246 C 113.473 1.8497 3.08963 0
M  V30 1247 C 113.326 3.38652 2.96032 0
M  V30 1248 C 114.645 1.63016 4.08795 0
M  V30 1249 H 111.764 0.400465 0.618706 0
M  V30 1250 H 114.406 1.53933 1.11376 0
M  V30 1251 H 112.556 1.47505 3.59409 0
M  V30 1252 H 114.228 3.85772 2.52938 0
M  V30 1253 H 112.471 3.66534 2.32025 0
M  V30 1254 H 113.142 3.8642 3.94187 0
M  V30 1255 H 115.618 1.95625 3.67247 0
M  V30 1256 H 114.494 2.18015 5.03747 0
M  V30 1257 H 114.755 0.570692 4.38401 0
M  V30 1258 N 113.814 -1.1601 1.06675 0
M  V30 1259 C 115.06 -1.86909 0.786945 0
M  V30 1260 C 115.393 -1.81717 -0.685018 0
M  V30 1261 O 114.668 -1.23551 -1.50218 0
M  V30 1262 C 114.951 -3.36313 1.28707 0
M  V30 1263 C 114.804 -3.50175 2.82308 0
M  V30 1264 C 116.123 -4.3084 0.898071 0
M  V30 1265 H 113.242 -0.678677 0.287343 0
M  V30 1266 H 115.884 -1.36336 1.32334 0
M  V30 1267 H 114.034 -3.79513 0.830768 0
M  V30 1268 H 115.706 -3.15886 3.36175 0
M  V30 1269 H 113.949 -2.91959 3.20847 0
M  V30 1270 H 114.62 -4.55116 3.12368 0
M  V30 1271 H 117.096 -3.95561 1.29114 0
M  V30 1272 H 115.972 -5.33876 1.27543 0
M  V30 1273 H 116.233 -4.41662 -0.196651 0
M  V30 1274 N 115.292 -0.849877 -1.32721 0
M  V30 1275 C 116.541 -0.447175 -1.96681 0
M  V30 1276 C 116.854 1.00135 -1.68025 0
M  V30 1277 O 118.06 1.50926 -2.25685 0
M  V30 1278 C 116.516 -0.7487 -3.52026 0
M  V30 1279 C 116.124 -2.21264 -3.89546 0
M  V30 1280 C 117.868 -0.413487 -4.22481 0
M  V30 1281 C 115.775 -2.45763 -5.37917 0
M  V30 1282 H 114.705 -0.163486 -0.736063 0
M  V30 1283 H 117.356 -1.03999 -1.51183 0
M  V30 1284 H 115.738 -0.0853727 -3.95908 0
M  V30 1285 H 116.912 -2.91736 -3.56689 0
M  V30 1286 H 115.227 -2.5119 -3.32103 0
M  V30 1287 H 117.824 -0.574017 -5.3161 0
M  V30 1288 H 118.167 0.644492 -4.11281 0
M  V30 1289 H 118.7 -1.03251 -3.84167 0
M  V30 1290 H 115.439 -3.50168 -5.54132 0
M  V30 1291 H 114.959 -1.79864 -5.72197 0
M  V30 1292 H 116.638 -2.29471 -6.0494 0
M  V30 1293 N 116.77 1.45427 -0.607355 0
M  V30 1294 C 117.72 2.27612 0.133038 0
M  V30 1295 C 118.704 1.37307 0.838785 0
M  V30 1296 O 119.896 1.61299 0.728813 0
M  V30 1297 C 117.025 3.24173 1.12991 0
M  V30 1298 C 116.111 4.21965 0.425011 0
M  V30 1299 N 116.502 5.02982 -0.533217 0
M  V30 1300 C 114.8 4.40899 0.672593 0
M  V30 1301 C 115.501 5.73931 -0.947518 0
M  V30 1302 N 114.477 5.42819 -0.291321 0
M  V30 1303 H 118.279 2.87649 -0.602935 0
M  V30 1304 H 115.793 1.56576 -0.431006 0
M  V30 1305 H 117.79 3.81783 1.67473 0
M  V30 1306 H 116.45 2.65696 1.86644 0
M  V30 1307 H 117.461 5.09843 -0.90995 0
M  V30 1308 H 114.138 3.93547 1.39382 0
M  V30 1309 H 115.528 6.49037 -1.73782 0
M  V30 1310 N 118.248 0.346503 1.53744 0
M  V30 1311 C 119.476 -0.25041 2.05379 0
M  V30 1312 C 119.891 -1.43979 1.22129 0
M  V30 1313 O 119.248 -1.80677 0.257321 0
M  V30 1314 C 119.299 -0.662575 3.55376 0
M  V30 1315 O 119.02 0.479515 4.35468 0
M  V30 1316 C 120.521 -1.31989 4.23195 0
M  V30 1317 H 117.741 -0.0478198 0.669294 0
M  V30 1318 H 120.285 0.499346 1.9831 0
M  V30 1319 H 118.44 -1.36227 3.62658 0
M  V30 1320 H 118.854 0.15037 5.24284 0
M  V30 1321 H 120.328 -1.55902 5.29527 0
M  V30 1322 H 120.805 -2.27436 3.75725 0
M  V30 1323 H 121.411 -0.662154 4.20114 0
M  V30 1324 N 119.726 -1.57421 0.075193 0
M  V30 1325 C 120.689 -2.11791 -0.876203 0
M  V30 1326 C 121.689 -1.04268 -1.22412 0
M  V30 1327 O 122.879 -1.30242 -1.15684 0
M  V30 1328 C 120.011 -2.62207 -2.17854 0
M  V30 1329 H 121.204 -2.9716 -0.40444 0
M  V30 1330 H 118.757 -1.55333 -0.173557 0
M  V30 1331 H 119.492 -1.803 -2.6956 0
M  V30 1332 H 119.277 -3.40802 -1.93897 0
M  V30 1333 H 120.767 -3.04335 -2.85955 0
M  V30 1334 N 121.204 0.198386 -1.56346 0
M  V30 1335 C 122.444 0.92609 -1.82217 0
M  V30 1336 C 122.808 1.80584 -0.652195 0
M  V30 1337 O 124.009 2.56907 -0.790716 0
M  V30 1338 C 122.28 1.72354 -3.13096 0
M  V30 1339 S 123.839 2.50371 -3.6036 0
M  V30 1340 H 120.657 0.310677 -0.639532 0
M  V30 1341 H 123.259 0.189755 -1.94577 0
M  V30 1342 H 121.963 1.0678 -3.96265 0
M  V30 1343 H 121.494 2.50175 -3.03605 0
M  V30 1344 H 123.509 3.74488 -3.25535 0
M  V30 1345 N 122.682 1.50554 0.465978 0
M  V30 1346 C 123.931 1.61038 1.21448 0
M  V30 1347 C 124.244 0.31865 1.92987 0
M  V30 1348 O 125.45 0.302469 2.6981 0
M  V30 1349 C 123.906 2.84283 2.20706 0
M  V30 1350 C 123.514 4.20352 1.54946 0
M  V30 1351 C 125.258 3.04115 2.96166 0
M  V30 1352 C 123.165 5.34778 2.5252 0
M  V30 1353 H 122.095 0.599718 0.457005 0
M  V30 1354 H 124.746 1.7699 0.484424 0
M  V30 1355 H 123.128 2.61901 2.97025 0
M  V30 1356 H 124.302 4.53008 0.843811 0
M  V30 1357 H 122.617 4.06167 0.917475 0
M  V30 1358 H 125.214 3.86774 3.69202 0
M  V30 1359 H 125.557 2.16045 3.55852 0
M  V30 1360 H 126.09 3.26702 2.26959 0
M  V30 1361 H 122.829 6.25018 1.97566 0
M  V30 1362 H 122.349 5.06534 3.21222 0
M  V30 1363 H 124.028 5.65561 3.14245 0
M  V30 1364 N 124.16 -0.719506 1.40217 0
M  V30 1365 C 125.409 -1.47486 1.37589 0
M  V30 1366 C 125.722 -1.9559 -0.0201568 0
M  V30 1367 O 126.928 -2.70973 -0.169049 0
M  V30 1368 C 125.384 -2.66575 2.41796 0
M  V30 1369 C 124.992 -2.25358 3.87192 0
M  V30 1370 C 126.736 -3.4433 2.48269 0
M  V30 1371 C 124.643 -3.41262 4.83005 0
M  V30 1372 H 123.573 -0.553901 0.511576 0
M  V30 1373 H 126.224 -0.783427 1.65936 0
M  V30 1374 H 124.606 -3.3787 2.06543 0
M  V30 1375 H 125.78 -1.61509 4.31569 0
M  V30 1376 H 124.095 -1.60657 3.84159 0
M  V30 1377 H 126.692 -4.30569 3.17041 0
M  V30 1378 H 127.035 -3.87872 1.51198 0
M  V30 1379 H 127.568 -2.80076 2.82493 0
M  V30 1380 H 124.307 -3.02755 5.81394 0
M  V30 1381 H 123.827 -4.0404 4.43297 0
M  V30 1382 H 125.506 -4.07383 5.02641 0
M  V30 1383 N 125.638 -1.25649 -0.95132 0
M  V30 1384 C 126.915 -1.01361 -1.67288 0
M  V30 1385 C 127.295 0.459135 -2.06046 0
M  V30 1386 O 126.643 1.43723 -1.7764 0
M  V30 1387 C 126.853 -1.95256 -2.89268 0
M  V30 1388 C 128.201 -2.23289 -3.61147 0
M  V30 1389 O 129.225 -1.93041 -2.99355 0
M  V30 1390 O 128.084 -2.74741 -4.72419 0
M  V30 1391 H 125.178 -0.38464 -0.732107 0
M  V30 1392 H 127.724 -1.36817 -1.00395 0
M  V30 1393 H 126.496 -2.94685 -2.57442 0
M  V30 1394 H 126.119 -1.60218 -3.6389 0
M  V30 1395 N 127.117 1.15442 -1.07289 0
M  V30 1396 C 128.363 1.86489 -0.796846 0
M  V30 1397 C 128.696 1.82078 0.675371 0
M  V30 1398 O 127.971 1.24346 1.4956 0
M  V30 1399 C 128.254 3.35626 -1.30489 0
M  V30 1400 C 128.107 3.48673 -2.84161 0
M  V30 1401 C 129.426 4.30357 -0.920907 0
M  V30 1402 H 126.545 0.677144 -0.290939 0
M  V30 1403 H 129.187 1.35633 -1.33056 0
M  V30 1404 H 127.337 3.79068 -0.850883 0
M  V30 1405 H 129.009 3.14099 -3.37846 0
M  V30 1406 H 127.252 2.90253 -3.22391 0
M  V30 1407 H 127.923 4.53453 -3.14777 0
M  V30 1408 H 130.399 3.94871 -1.3121 0
M  V30 1409 H 129.275 5.33193 -1.30372 0
M  V30 1410 H 129.536 4.4176 0.173226 0
M  V30 1411 N 128.595 0.856903 1.32268 0
M  V30 1412 C 129.842 0.461386 1.97174 0
M  V30 1413 C 130.17 -0.983491 1.67803 0
M  V30 1414 O 129.425 -1.70541 0.959903 0
M  V30 1415 C 129.724 0.649919 3.51441 0
M  V30 1416 C 129.39 2.0656 4.00804 0
M  V30 1417 C 128.052 2.45279 4.13995 0
M  V30 1418 C 130.404 2.98947 4.26943 0
M  V30 1419 C 127.732 3.75653 4.50668 0
M  V30 1420 C 130.084 4.28822 4.65075 0
M  V30 1421 C 128.748 4.67472 4.76472 0
M  V30 1422 H 128.018 0.168833 0.72151 0
M  V30 1423 H 130.665 1.08739 1.57633 0
M  V30 1424 H 128.97 -0.0593018 3.91755 0
M  V30 1425 H 130.667 0.32391 3.9969 0
M  V30 1426 H 127.257 1.75495 3.91024 0
M  V30 1427 H 131.441 2.70265 4.16258 0
M  V30 1428 H 126.697 4.05379 4.57688 0
M  V30 1429 H 130.871 5.0047 4.84255 0
M  V30 1430 H 128.498 5.68539 5.04646 0
M  V30 1431 N 130.073 -1.45103 0.615059 0
M  V30 1432 C 131.321 -2.01784 0.112955 0
M  V30 1433 C 131.642 -1.48504 -1.26378 0
M  V30 1434 O 130.912 -0.682245 -1.83636 0
M  V30 1435 H 129.492 -0.745993 0.0387668 0
M  V30 1436 H 132.154 -1.77808 0.798141 0
M  V30 1437 H 131.25 -3.12025 0.0684069 0
M  V30 1438 N 131.551 -0.354651 -1.53558 0
M  V30 1439 C 132.797 0.238797 -2.01389 0
M  V30 1440 C 133.13 1.49309 -1.2418 0
M  V30 1441 O 132.405 1.91638 -0.332457 0
M  V30 1442 C 132.688 0.541771 -3.56001 0
M  V30 1443 C 132.541 -0.725388 -4.43912 0
M  V30 1444 C 133.86 1.34685 -4.18984 0
M  V30 1445 H 130.979 0.0853177 -0.732045 0
M  V30 1446 H 133.621 -0.477384 -1.83905 0
M  V30 1447 H 131.771 1.15189 -3.71031 0
M  V30 1448 H 133.443 -1.36313 -4.407 0
M  V30 1449 H 131.686 -1.34801 -4.12324 0
M  V30 1450 H 132.357 -0.468505 -5.50008 0
M  V30 1451 H 134.833 0.830837 -4.07721 0
M  V30 1452 H 133.709 1.52759 -5.27215 0
M  V30 1453 H 133.97 2.35221 -3.74331 0
M  V30 1454 N 133.029 1.57378 -0.0835403 0
M  V30 1455 C 134.257 1.98263 0.59157 0
M  V30 1456 C 134.672 0.962302 1.62435 0
M  V30 1457 O 134.029 -0.049581 1.82433 0
M  V30 1458 C 134.08 3.39214 1.24965 0
M  V30 1459 O 133.801 4.37339 0.258186 0
M  V30 1460 C 135.302 3.95038 2.01147 0
M  V30 1461 H 132.522 0.651773 0.159477 0
M  V30 1462 H 135.066 2.03878 -0.159415 0
M  V30 1463 H 133.221 3.34649 1.95164 0
M  V30 1464 H 133.635 5.19371 0.731734 0
M  V30 1465 H 135.109 4.95848 2.42567 0
M  V30 1466 H 135.586 3.32222 2.87272 0
M  V30 1467 H 136.192 4.0304 1.35789 0
M  V30 1468 N 134.507 -0.190092 1.56449 0
M  V30 1469 C 135.457 -1.23977 1.91347 0
M  V30 1470 C 136.441 -1.40747 0.779693 0
M  V30 1471 O 137.633 -1.43033 1.04262 0
M  V30 1472 C 134.762 -2.58347 2.26079 0
M  V30 1473 C 133.848 -2.4535 3.45925 0
M  V30 1474 N 134.239 -2.02039 4.63696 0
M  V30 1475 C 132.537 -2.76229 3.50162 0
M  V30 1476 C 133.238 -2.01053 5.4585 0
M  V30 1477 N 132.214 -2.42747 4.8639 0
M  V30 1478 H 136.016 -0.896318 2.79899 0
M  V30 1479 H 133.53 -0.398496 1.57435 0
M  V30 1480 H 135.527 -3.34173 2.49267 0
M  V30 1481 H 134.187 -2.93512 1.38856 0
M  V30 1482 H 135.198 -1.7267 4.88268 0
M  V30 1483 H 131.875 -3.15556 2.73369 0
M  V30 1484 H 133.265 -1.69426 6.50188 0
M  V30 1485 N 135.985 -1.50799 -0.457987 0
M  V30 1486 C 137.401 -1.38515 -0.792819 0
M  V30 1487 C 137.601 -0.451409 -1.96379 0
M  V30 1488 O 136.657 0.10112 -2.52297 0
M  V30 1489 C 137.97 -2.80149 -1.09258 0
M  V30 1490 C 139.518 -2.89156 -1.19825 0
M  V30 1491 C 139.993 -4.31651 -1.53106 0
M  V30 1492 N 141.484 -4.34662 -1.60072 0
M  V30 1493 C 142.219 -5.41928 -1.87354 0
M  V30 1494 N 141.715 -6.59384 -2.12568 0
M  V30 1495 N 143.508 -5.29385 -1.88965 0
M  V30 1496 H 135.659 -2.10073 0.313511 0
M  V30 1497 H 137.922 -0.944803 0.0777862 0
M  V30 1498 H 137.628 -3.50374 -0.305084 0
M  V30 1499 H 137.502 -3.18204 -2.02549 0
M  V30 1500 H 139.889 -2.19141 -1.97639 0
M  V30 1501 H 139.97 -2.54626 -0.244821 0
M  V30 1502 H 139.614 -5.02208 -0.758266 0
M  V30 1503 H 139.544 -4.63678 -2.49621 0
M  V30 1504 H 142.035 -3.49973 -1.42573 0
M  V30 1505 H 142.348 -7.36934 -2.32696 0
M  V30 1506 H 140.693 -6.62535 -2.09933 0
M  V30 1507 H 143.884 -4.36616 -1.68772 0
M  V30 1508 H 144.057 -6.13066 -2.09891 0
M  V30 1509 N 137.463 0.71206 -1.40597 0
M  V30 1510 C 138.373 1.8562 -1.43466 0
M  V30 1511 C 139.389 1.70902 -0.326902 0
M  V30 1512 O 140.565 1.93105 -0.572043 0
M  V30 1513 C 137.63 3.21451 -1.29884 0
M  V30 1514 C 136.691 3.48398 -2.50833 0
M  V30 1515 C 135.924 4.77749 -2.3789 0
M  V30 1516 O 136.147 5.53089 -1.39459 0
M  V30 1517 O 135.081 5.05111 -3.27333 0
M  V30 1518 H 138.907 1.86155 -2.39958 0
M  V30 1519 H 136.492 0.86295 -1.21957 0
M  V30 1520 H 138.374 4.02579 -1.24531 0
M  V30 1521 H 137.049 3.21636 -0.364997 0
M  V30 1522 H 135.956 2.67265 -2.61763 0
M  V30 1523 H 137.289 3.53014 -3.4299 0
M  V30 1524 N 138.941 1.26152 0.944643 0
M  V30 1525 C 140.166 1.14363 1.7302 0
M  V30 1526 C 140.591 -0.29772 1.85729 0
M  V30 1527 O 139.949 -1.2157 1.34501 0
M  V30 1528 C 139.997 1.81378 3.11664 0
M  V30 1529 O 139.101 1.10022 3.97453 0
M  V30 1530 H 138.442 0.398694 0.53098 0
M  V30 1531 H 140.972 1.66906 1.18337 0
M  V30 1532 H 140.982 1.88064 3.62072 0
M  V30 1533 H 139.657 2.86237 3.0173 0
M  V30 1534 H 138.234 1.11287 3.55907 0
M  V30 1535 N 140.419 -1.14872 1.07899 0
M  V30 1536 C 141.668 -1.85135 0.800499 0
M  V30 1537 C 141.981 -1.83547 -0.676014 0
M  V30 1538 O 143.187 -2.49548 -1.06948 0
M  V30 1539 C 141.643 -3.3231 1.38197 0
M  V30 1540 C 141.251 -3.42329 2.8899 0
M  V30 1541 C 142.995 -4.0772 1.18174 0
M  V30 1542 C 140.902 -4.83684 3.403 0
M  V30 1543 H 139.832 -0.693563 0.29578 0
M  V30 1544 H 142.483 -1.29532 1.29976 0
M  V30 1545 H 140.865 -3.87618 0.810431 0
M  V30 1546 H 142.039 -2.97097 3.52236 0
M  V30 1547 H 140.354 -2.80369 3.07867 0
M  V30 1548 H 142.951 -5.12049 1.5398 0
M  V30 1549 H 143.294 -4.16124 0.12117 0
M  V30 1550 H 143.827 -3.58696 1.71994 0
M  V30 1551 H 140.566 -4.80465 4.45907 0
M  V30 1552 H 140.086 -5.29474 2.81811 0
M  V30 1553 H 141.765 -5.52558 3.36584 0
M  V30 1554 N 141.898 -0.863906 -1.31812 0
M  V30 1555 C 142.831 -0.259963 -2.26714 0
M  V30 1556 C 143.809 0.607392 -1.50829 0
M  V30 1557 O 144.993 0.562155 -1.79922 0
M  V30 1558 C 142.12 0.632456 -3.32743 0
M  V30 1559 C 141.166 -0.162743 -4.26189 0
M  V30 1560 S 141.999 -1.53726 -5.12961 0
M  V30 1561 C 143.155 -0.650803 -6.22507 0
M  V30 1562 H 143.388 -1.06445 -2.77591 0
M  V30 1563 H 140.921 -0.662071 -1.39485 0
M  V30 1564 H 142.879 1.14167 -3.94305 0
M  V30 1565 H 141.54 1.41083 -2.80632 0
M  V30 1566 H 140.733 0.517366 -5.01338 0
M  V30 1567 H 140.335 -0.60385 -3.69093 0
M  V30 1568 H 142.627 0.141134 -6.77353 0
M  V30 1569 H 143.57 -1.37322 -6.94657 0
M  V30 1570 H 143.978 -0.221041 -5.64067 0
M  V30 1571 N 143.376 1.44774 -0.622745 0
M  V30 1572 C 144.324 2.32387 0.0994683 0
M  V30 1573 C 145.318 1.46859 0.844326 0
M  V30 1574 O 146.524 1.63254 0.758174 0
M  V30 1575 H 142.899 0.750273 0.0509291 0
M  V30 1576 H 144.87 2.91062 -0.65767 0
M  V30 1577 C 143.619 3.30723 1.07319 0
M  V30 1578 H 142.942 3.96541 0.509462 0
M  V30 1579 H 144.382 3.94725 1.54817 0
M  V30 1580 C 142.841 2.59021 2.15429 0
M  V30 1581 O 143.371 2.38286 3.23393 0
M  V30 1582 N 141.577 2.189 1.91131 0
M  V30 1583 H 141.124 2.35964 1.03337 0
M  V30 1584 H 141.082 1.71251 2.63668 0
M  V30 1585 N 144.854 0.36279 1.53368 0
M  V30 1586 C 146.1 -0.228113 2.01513 0
M  V30 1587 C 146.433 -1.48648 1.2497 0
M  V30 1588 O 145.708 -1.91459 0.342616 0
M  V30 1589 C 145.991 -0.522884 3.56284 0
M  V30 1590 C 145.844 0.74892 4.43521 0
M  V30 1591 C 147.163 -1.32461 4.19693 0
M  V30 1592 H 144.282 -0.0814343 0.732487 0
M  V30 1593 H 146.924 0.48713 1.83649 0
M  V30 1594 H 145.074 -1.1322 3.71636 0
M  V30 1595 H 146.746 1.38648 4.39971 0
M  V30 1596 H 144.989 1.36986 4.11603 0
M  V30 1597 H 145.66 0.497667 5.49752 0
M  V30 1598 H 148.136 -0.809203 4.08156 0
M  V30 1599 H 147.012 -1.49961 5.28018 0
M  V30 1600 H 147.273 -2.33232 3.75573 0
M  V30 1601 N 146.332 -1.57332 0.0918853 0
M  V30 1602 C 147.28 -2.15075 -0.885747 0
M  V30 1603 C 148.274 -1.09277 -1.29441 0
M  V30 1604 O 149.48 -1.27627 -1.26931 0
M  V30 1605 H 145.855 -0.687966 -0.303656 0
M  V30 1606 H 147.826 -2.96047 -0.373995 0
M  V30 1607 C 146.575 -2.74325 -2.13638 0
M  V30 1608 H 145.898 -3.55418 -1.8308 0
M  V30 1609 H 147.338 -3.183 -2.80109 0
M  V30 1610 C 145.797 -1.70062 -2.90827 0
M  V30 1611 O 146.327 -1.13763 -3.85254 0
M  V30 1612 N 144.533 -1.40628 -2.54307 0
M  V30 1613 H 144.08 -1.866 -1.7759 0
M  V30 1614 H 144.038 -0.711043 -3.06254 0
M  V30 1615 N 147.81 0.181792 -1.56548 0
M  V30 1616 C 149.056 0.901431 -1.81665 0
M  V30 1617 C 149.389 1.82347 -0.668075 0
M  V30 1618 O 148.664 1.91669 0.330615 0
M  V30 1619 C 148.947 1.70618 -3.17115 0
M  V30 1620 C 148.8 0.807964 -4.42484 0
M  V30 1621 C 150.119 2.67605 -3.49393 0
M  V30 1622 H 147.238 0.32627 -0.660846 0
M  V30 1623 H 149.88 0.168134 -1.89255 0
M  V30 1624 H 148.03 2.33133 -3.10775 0
M  V30 1625 H 149.702 0.19649 -4.60881 0
M  V30 1626 H 147.945 0.115411 -4.33646 0
M  V30 1627 H 148.616 1.40632 -5.33785 0
M  V30 1628 H 151.092 2.15218 -3.56118 0
M  V30 1629 H 149.968 3.20985 -4.45264 0
M  V30 1630 H 150.229 3.47298 -2.73563 0
M  V30 1631 N 149.288 1.51039 0.449983 0
M  V30 1632 C 150.235 1.71439 1.54523 0
M  V30 1633 C 151.205 0.555871 1.56522 0
M  V30 1634 O 152.39 0.788871 1.73728 0
M  V30 1635 C 149.53 1.83384 2.92343 0
M  V30 1636 C 148.643 3.10873 2.9997 0
M  V30 1637 C 147.778 3.13488 4.28834 0
M  V30 1638 C 146.817 4.35343 4.30282 0
M  V30 1639 N 145.954 4.35579 5.5065 0
M  V30 1640 H 150.794 2.64934 1.36433 0
M  V30 1641 H 148.331 1.31312 0.662982 0
M  V30 1642 H 150.289 1.88291 3.72293 0
M  V30 1643 H 148.919 0.933086 3.0902 0
M  V30 1644 H 147.971 3.15336 2.12761 0
M  V30 1645 H 149.283 4.00814 2.96901 0
M  V30 1646 H 148.437 3.17241 5.17149 0
M  V30 1647 H 147.176 2.21414 4.34543 0
M  V30 1648 H 146.181 4.3178 3.40362 0
M  V30 1649 H 147.406 5.28668 4.26248 0
M  V30 1650 H 145.352 3.46369 5.57104 0
M  V30 1651 H 145.269 5.19313 5.49409 0
M  V30 1652 H 146.537 4.43507 6.41032 0
M  V30 1653 N 150.766 -0.704594 1.40972 0
M  V30 1654 C 152.014 -1.46169 1.39568 0
M  V30 1655 C 152.335 -1.95 0.00253745 0
M  V30 1656 O 151.605 -1.71095 -0.954114 0
M  V30 1657 H 150.185 -0.542326 0.513704 0
M  V30 1658 H 152.847 -0.834553 1.76128 0
M  V30 1659 H 151.943 -2.32922 2.07735 0
M  V30 1660 N 152.244 -1.26651 -0.937939 0
M  V30 1661 C 153.472 -1.15173 -1.7188 0
M  V30 1662 C 153.887 0.292668 -1.86518 0
M  V30 1663 O 153.244 1.20014 -1.37488 0
M  V30 1664 C 153.295 -1.81925 -3.12387 0
M  V30 1665 O 153.016 -3.2072 -2.98446 0
M  V30 1666 C 154.517 -1.76442 -4.06673 0
M  V30 1667 H 151.737 -0.400911 -0.538063 0
M  V30 1668 H 154.281 -1.67332 -1.1756 0
M  V30 1669 H 152.436 -1.33696 -3.63599 0
M  V30 1670 H 152.85 -3.53802 -3.872 0
M  V30 1671 H 154.324 -2.27781 -5.02812 0
M  V30 1672 H 154.801 -0.731608 -4.33064 0
M  V30 1673 H 155.407 -2.24238 -3.61382 0
M  V30 1674 N 153.722 1.14298 -1.08507 0
M  V30 1675 C 154.654 2.1907 -0.673859 0
M  V30 1676 C 155.667 1.60381 0.279577 0
M  V30 1677 O 156.856 1.78374 0.0670754 0
M  V30 1678 C 153.956 3.38888 0.0290979 0
M  V30 1679 C 153.129 4.27103 -0.943494 0
M  V30 1680 C 152.188 5.25477 -0.275676 0
M  V30 1681 O 151.214 5.61709 -0.920401 0
M  V30 1682 N 152.416 5.7227 0.974013 0
M  V30 1683 H 155.181 2.54965 -1.57521 0
M  V30 1684 H 152.742 1.29528 -0.971287 0
M  V30 1685 H 154.734 4.01761 0.48683 0
M  V30 1686 H 153.304 3.01309 0.832555 0
M  V30 1687 H 152.524 3.61149 -1.58004 0
M  V30 1688 H 153.812 4.82905 -1.60251 0
M  V30 1689 H 153.21 5.44965 1.51755 0
M  V30 1690 H 151.767 6.37127 1.37522 0
M  V30 1691 N 155.201 0.870884 1.31352 0
M  V30 1692 C 156.131 0.343096 2.30966 0
M  V30 1693 C 157.112 -0.566507 1.60389 0
M  V30 1694 O 158.297 -0.483336 1.88089 0
M  V30 1695 C 155.427 -0.455487 3.443 0
M  V30 1696 C 154.381 0.361103 4.26474 0
M  V30 1697 C 153.707 -0.563221 5.31725 0
M  V30 1698 C 155.007 1.59566 4.97329 0
M  V30 1699 H 156.701 1.17548 2.75359 0
M  V30 1700 H 154.247 0.566686 1.32381 0
M  V30 1701 H 156.2 -0.83525 4.13039 0
M  V30 1702 H 154.924 -1.32139 2.98675 0
M  V30 1703 H 153.583 0.722825 3.59403 0
M  V30 1704 H 153.231 -1.42643 4.82351 0
M  V30 1705 H 152.931 -0.0207409 5.87596 0
M  V30 1706 H 154.455 -0.939808 6.03324 0
M  V30 1707 H 155.869 1.28728 5.58661 0
M  V30 1708 H 154.266 2.07728 5.63 0
M  V30 1709 H 155.336 2.34798 4.24262 0
M  V30 1710 N 156.679 -1.44442 0.630414 0
M  V30 1711 C 157.609 -2.33418 -0.0618083 0
M  V30 1712 C 158.59 -1.48165 -0.835541 0
M  V30 1713 O 159.775 -1.76886 -0.801564 0
M  V30 1714 C 156.905 -3.31222 -1.04449 0
M  V30 1715 C 155.859 -4.26288 -0.382436 0
M  V30 1716 C 155.185 -5.13954 -1.47497 0
M  V30 1717 C 156.485 -5.1744 0.710865 0
M  V30 1718 H 158.179 -2.91548 0.681184 0
M  V30 1719 H 155.725 -1.40191 0.329026 0
M  V30 1720 H 157.678 -3.92351 -1.53748 0
M  V30 1721 H 156.402 -2.71299 -1.81836 0
M  V30 1722 H 155.061 -3.6649 0.0899054 0
M  V30 1723 H 154.709 -4.50385 -2.2397 0
M  V30 1724 H 154.409 -5.7837 -1.03737 0
M  V30 1725 H 155.933 -5.77955 -1.96979 0
M  V30 1726 H 157.347 -5.72509 0.300996 0
M  V30 1727 H 155.744 -5.90455 1.07156 0
M  V30 1728 H 156.814 -4.58496 1.57829 0
M  V30 1729 N 158.157 -0.370918 -1.53173 0
M  V30 1730 C 159.087 0.464847 -2.28826 0
M  V30 1731 C 160.068 1.07936 -1.31468 0
M  V30 1732 O 161.253 1.0956 -1.60344 0
M  V30 1733 C 158.383 1.60196 -3.08147 0
M  V30 1734 C 157.337 1.11443 -4.13237 0
M  V30 1735 C 156.663 2.3422 -4.80672 0
M  V30 1736 C 157.963 0.195384 -5.21934 0
M  V30 1737 H 159.657 -0.166329 -2.98938 0
M  V30 1738 H 157.203 -0.0814359 -1.4377 0
M  V30 1739 H 159.156 2.19332 -3.59822 0
M  V30 1740 H 157.88 2.26045 -2.35735 0
M  V30 1741 H 156.539 0.545727 -3.62515 0
M  V30 1742 H 156.187 2.98537 -4.04827 0
M  V30 1743 H 155.887 2.02269 -5.51689 0
M  V30 1744 H 157.411 2.94032 -5.35143 0
M  V30 1745 H 158.825 0.694375 -5.69079 0
M  V30 1746 H 157.222 -0.0335027 -6.00091 0
M  V30 1747 H 158.292 -0.760961 -4.78892 0
M  V30 1748 N 159.635 1.57281 -0.100228 0
M  V30 1749 C 160.545 2.17833 0.870965 0
M  V30 1750 C 161.561 1.14921 1.30649 0
M  V30 1751 O 162.737 1.47313 1.37335 0
M  V30 1752 C 159.802 2.75085 2.1102 0
M  V30 1753 C 158.863 3.9297 1.72838 0
M  V30 1754 C 158.096 4.47482 2.90854 0
M  V30 1755 O 158.319 4.00922 4.05731 0
M  V30 1756 O 157.253 5.38433 2.69023 0
M  V30 1757 H 161.079 3.0124 0.38575 0
M  V30 1758 H 158.664 1.48881 0.124397 0
M  V30 1759 H 160.546 3.11656 2.83634 0
M  V30 1760 H 159.221 1.94721 2.58584 0
M  V30 1761 H 158.128 3.61201 0.973883 0
M  V30 1762 H 159.461 4.74713 1.30033 0
M  V30 1763 N 161.113 -0.173488 1.56642 0
M  V30 1764 C 162.076 -1.19859 1.95362 0
M  V30 1765 C 163.076 -1.37296 0.83704 0
M  V30 1766 O 164.266 -1.34739 1.10413 0
M  V30 1767 C 161.398 -2.56405 2.24654 0
M  V30 1768 H 162.591 -0.867062 2.87092 0
M  V30 1769 H 160.144 -0.415853 1.50666 0
M  V30 1770 H 160.879 -2.94576 1.35631 0
M  V30 1771 H 160.664 -2.45115 3.06041 0
M  V30 1772 H 162.154 -3.30287 2.5554 0
M  V30 1773 N 162.591 -1.51276 -0.441967 0
M  V30 1774 C 163.831 -1.65372 -1.20132 0
M  V30 1775 C 164.195 -0.359871 -1.88597 0
M  V30 1776 O 165.396 -0.376551 -2.66149 0
M  V30 1777 C 163.667 -2.8207 -2.1948 0
M  V30 1778 S 165.226 -3.16467 -3.03964 0
M  V30 1779 H 162.044 -0.582669 -0.407453 0
M  V30 1780 H 164.646 -1.89166 -0.493609 0
M  V30 1781 H 163.35 -3.74523 -1.67812 0
M  V30 1782 H 162.881 -2.6045 -2.94838 0
M  V30 1783 H 164.896 -2.62543 -4.21053 0
M  V30 1784 N 164.069 0.697108 -1.41344 0
M  V30 1785 C 165.315 1.4593 -1.40827 0
M  V30 1786 C 165.648 1.94193 -0.0167098 0
M  V30 1787 O 164.923 1.69425 0.955263 0
M  V30 1788 C 165.206 2.67229 -2.41373 0
M  V30 1789 C 165.059 2.24741 -3.8963 0
M  V30 1790 C 166.378 3.69423 -2.39196 0
M  V30 1791 H 163.497 0.529303 -0.512842 0
M  V30 1792 H 166.139 0.794112 -1.72609 0
M  V30 1793 H 164.289 3.23982 -2.14401 0
M  V30 1794 H 165.961 1.73327 -4.27499 0
M  V30 1795 H 164.204 1.56542 -4.0457 0
M  V30 1796 H 164.875 3.1177 -4.55525 0
M  V30 1797 H 167.351 3.2234 -2.63128 0
M  V30 1798 H 166.227 4.51907 -3.11563 0
M  V30 1799 H 166.488 4.19012 -1.41001 0
M  V30 1800 N 165.547 1.27147 0.931209 0
M  V30 1801 C 166.479 1.05364 2.03546 0
M  V30 1802 C 167.492 0.0108438 1.62796 0
M  V30 1803 O 168.681 0.25202 1.76712 0
M  V30 1804 C 165.781 0.575566 3.33977 0
M  V30 1805 C 164.954 1.68985 4.03439 0
M  V30 1806 C 164.013 1.20813 5.12143 0
M  V30 1807 O 163.039 1.90712 5.363 0
M  V30 1808 N 164.241 0.0618851 5.80467 0
M  V30 1809 H 167.006 2.00454 2.22796 0
M  V30 1810 H 164.567 1.18666 1.10136 0
M  V30 1811 H 166.559 0.237264 4.04004 0
M  V30 1812 H 165.129 -0.282016 3.11325 0
M  V30 1813 H 164.349 2.19861 3.27192 0
M  V30 1814 H 165.637 2.4378 4.46597 0
M  V30 1815 H 165.035 -0.521621 5.6329 0
M  V30 1816 H 163.592 -0.217264 6.51438 0
M  V30 1817 N 167.025 -1.13721 1.09112 0
M  V30 1818 C 167.988 -2.17222 0.731241 0
M  V30 1819 C 168.988 -1.59035 -0.237566 0
M  V30 1820 O 170.178 -1.74192 -0.0161704 0
M  V30 1821 C 167.31 -3.40804 0.0808443 0
M  V30 1822 H 168.503 -2.50573 1.64783 0
M  V30 1823 H 166.056 -1.28493 0.889897 0
M  V30 1824 H 166.791 -3.1304 -0.847127 0
M  V30 1825 H 166.576 -3.84306 0.777896 0
M  V30 1826 H 168.066 -4.1731 -0.155657 0
M  V30 1827 N 168.503 -0.877838 -1.30888 0
M  V30 1828 C 169.728 -0.506629 -2.01117 0
M  V30 1829 C 170.153 0.895564 -1.65412 0
M  V30 1830 O 169.511 1.5923 -0.866922 0
M  V30 1831 C 169.559 -0.680223 -3.54126 0
M  V30 1832 O 168.663 0.277033 -4.11468 0
M  V30 1833 H 168.004 -0.200518 -0.633 0
M  V30 1834 H 170.534 -1.18342 -1.66902 0
M  V30 1835 H 170.544 -0.5765 -4.03907 0
M  V30 1836 H 169.219 -1.70261 -3.79452 0
M  V30 1837 H 167.796 0.127606 -3.72682 0
M  V30 1838 N 169.982 1.44106 -0.638065 0
M  V30 1839 C 171.228 2.02277 -0.145546 0
M  V30 1840 C 171.561 1.50125 1.23191 0
M  V30 1841 O 170.836 0.688133 1.8192 0
M  V30 1842 C 171.119 3.59829 -0.139791 0
M  V30 1843 C 170.972 4.22247 -1.55008 0
M  V30 1844 C 172.291 4.36873 0.531966 0
M  V30 1845 H 169.41 0.734992 -0.0543632 0
M  V30 1846 H 172.052 1.71592 -0.815863 0
M  V30 1847 H 170.202 3.86102 0.431007 0
M  V30 1848 H 171.874 4.07057 -2.1703 0
M  V30 1849 H 170.117 3.79476 -2.10191 0
M  V30 1850 H 170.788 5.31284 -1.49804 0
M  V30 1851 H 173.264 4.16074 0.0464781 0
M  V30 1852 H 172.14 5.4657 0.505206 0
M  V30 1853 H 172.401 4.11995 1.60352 0
M  V30 1854 N 171.46 0.379036 1.52974 0
M  V30 1855 C 172.871 -0.0972525 1.86447 0
M  V30 1856 C 173.222 -1.47027 1.29914 0
M  V30 1857 O 172.347 -2.07135 0.626433 0
M  V30 1858 C 172.942 -0.183248 3.38304 0
M  V30 1859 C 171.501 -0.603812 3.71525 0
M  V30 1860 C 170.648 0.240632 2.76254 0
M  V30 1861 H 173.599 0.597316 1.4703 0
M  V30 1862 H 173.62 -1.00432 3.67006 0
M  V30 1863 H 173.132 0.816191 3.79421 0
M  V30 1864 H 171.233 -1.61099 3.35973 0
M  V30 1865 H 171.346 -0.369086 4.77676 0
M  V30 1866 H 169.71 -0.292548 2.53014 0
M  V30 1867 H 170.493 1.23786 3.20206 0
M  V30 1868 N 172.938 -1.57226 0.108567 0
M  V30 1869 C 174.184 -1.95121 -0.552761 0
M  V30 1870 C 174.517 -0.991345 -1.66991 0
M  V30 1871 O 173.792 -0.0267211 -1.94482 0
M  V30 1872 C 174.075 -3.43039 -1.09528 0
M  V30 1873 C 173.928 -4.49797 0.0177332 0
M  V30 1874 C 175.247 -3.92567 -1.98945 0
M  V30 1875 H 172.366 -0.709496 -0.199461 0
M  V30 1876 H 175.008 -1.89126 0.182011 0
M  V30 1877 H 173.158 -3.48279 -1.72146 0
M  V30 1878 H 174.83 -4.56661 0.652584 0
M  V30 1879 H 173.073 -4.284 0.682309 0
M  V30 1880 H 173.744 -5.50528 -0.402919 0
M  V30 1881 H 176.22 -3.89565 -1.46214 0
M  V30 1882 H 175.096 -4.96605 -2.33827 0
M  V30 1883 H 175.357 -3.32648 -2.91201 0
M  V30 1884 N 174.416 0.165178 -1.56732 0
M  V30 1885 C 175.663 0.880807 -1.8234 0
M  V30 1886 C 175.991 1.81977 -0.686621 0
M  V30 1887 O 175.246 1.92971 0.325697 0
M  V30 1888 C 175.545 1.70405 -3.1416 0
M  V30 1889 C 175.211 0.913475 -4.4155 0
M  V30 1890 C 173.873 0.695303 -4.7615 0
M  V30 1891 C 176.225 0.359349 -5.1996 0
M  V30 1892 C 173.553 -0.0879947 -5.86634 0
M  V30 1893 C 175.905 -0.410893 -6.31264 0
M  V30 1894 C 174.569 -0.639808 -6.64427 0
M  V30 1895 H 173.839 0.32231 -0.667231 0
M  V30 1896 H 176.486 0.145402 -1.90947 0
M  V30 1897 H 174.791 2.50903 -3.00923 0
M  V30 1898 H 176.488 2.26091 -3.31186 0
M  V30 1899 H 173.078 1.09357 -4.14414 0
M  V30 1900 H 177.262 0.515228 -4.93618 0
M  V30 1901 H 172.518 -0.27503 -6.10781 0
M  V30 1902 H 176.692 -0.847494 -6.91224 0
M  V30 1903 H 174.319 -1.24864 -7.49875 0
M  V30 1904 N 175.894 1.51508 0.433938 0
M  V30 1905 C 177.143 1.63578 1.18005 0
M  V30 1906 C 177.456 0.359514 1.92268 0
M  V30 1907 O 178.662 0.359632 2.69108 0
M  V30 1908 C 177.118 2.88901 2.14626 0
M  V30 1909 C 176.726 4.23544 1.45995 0
M  V30 1910 C 178.47 3.10328 2.89649 0
M  V30 1911 C 176.377 5.40014 2.4112 0
M  V30 1912 H 175.307 0.609277 0.444182 0
M  V30 1913 H 177.958 1.77978 0.446773 0
M  V30 1914 H 176.34 2.68142 2.91403 0
M  V30 1915 H 177.514 4.54696 0.747532 0
M  V30 1916 H 175.829 4.08021 0.831115 0
M  V30 1917 H 178.426 3.94518 3.60915 0
M  V30 1918 H 178.769 2.23544 3.51189 0
M  V30 1919 H 179.302 3.31443 2.19978 0
M  V30 1920 H 176.041 6.29068 1.84264 0
M  V30 1921 H 175.561 5.13233 3.10406 0
M  V30 1922 H 177.24 5.72099 3.02177 0
M  V30 1923 N 177.372 -0.689602 1.41712 0
M  V30 1924 C 178.602 -1.47613 1.44548 0
M  V30 1925 C 179.01 -1.89132 0.0509034 0
M  V30 1926 O 178.353 -1.57741 -0.94146 0
M  V30 1927 C 178.415 -2.76596 2.2964 0
M  V30 1928 C 178.079 -2.57245 3.77722 0
M  V30 1929 C 179.076 -2.22804 4.69739 0
M  V30 1930 C 176.761 -2.727 4.2183 0
M  V30 1931 C 178.755 -2.04064 6.03851 0
M  V30 1932 C 176.442 -2.53576 5.56006 0
M  V30 1933 C 177.44 -2.1931 6.46832 0
M  V30 1934 O 177.128 -2.00359 7.78532 0
M  V30 1935 H 176.86 -0.461227 0.494212 0
M  V30 1936 H 179.414 -0.856045 1.86711 0
M  V30 1937 H 177.644 -3.41033 1.82301 0
M  V30 1938 H 179.333 -3.38424 2.24107 0
M  V30 1939 H 180.099 -2.10473 4.36951 0
M  V30 1940 H 175.978 -2.98353 3.51435 0
M  V30 1941 H 179.522 -1.77241 6.74708 0
M  V30 1942 H 175.419 -2.65499 5.88371 0
M  V30 1943 H 176.187 -2.15075 7.89737 0
M  V30 1944 N 178.85 -1.27639 -0.924453 0
M  V30 1945 C 180.078 -1.16989 -1.70649 0
M  V30 1946 C 180.493 0.272869 -1.86818 0
M  V30 1947 O 179.85 1.18549 -1.38753 0
M  V30 1948 C 179.901 -1.85229 -3.10439 0
M  V30 1949 O 179.622 -3.23868 -2.95028 0
M  V30 1950 C 181.123 -1.80746 -4.04779 0
M  V30 1951 H 178.343 -0.406595 -0.53378 0
M  V30 1952 H 180.887 -1.68569 -1.15778 0
M  V30 1953 H 179.042 -1.37545 -3.6216 0
M  V30 1954 H 179.456 -3.57889 -3.83426 0
M  V30 1955 H 180.93 -2.33101 -5.00368 0
M  V30 1956 H 181.407 -0.777499 -4.32263 0
M  V30 1957 H 182.013 -2.28059 -3.58984 0
M  V30 1958 N 180.328 1.1314 -1.09713 0
M  V30 1959 C 181.553 1.88862 -0.857081 0
M  V30 1960 C 181.978 1.78729 0.586304 0
M  V30 1961 O 181.336 1.13692 1.41222 0
M  V30 1962 C 181.384 3.36325 -1.30069 0
M  V30 1963 O 180.488 4.09815 -0.461007 0
M  V30 1964 H 179.829 0.587108 -0.310162 0
M  V30 1965 H 182.359 1.43129 -1.46203 0
M  V30 1966 H 182.369 3.87157 -1.28738 0
M  V30 1967 H 181.044 3.43017 -2.35185 0
M  V30 1968 H 179.621 3.68986 -0.538888 0
M  V30 1969 N 181.806 0.884767 1.30421 0
M  V30 1970 C 183.031 0.517288 2.00845 0
M  V30 1971 C 183.456 -0.886779 1.65885 0
M  V30 1972 O 182.814 -1.58768 0.875354 0
M  V30 1973 C 182.862 0.698994 3.5376 0
M  V30 1974 O 181.966 -0.255208 4.1161 0
M  V30 1975 H 181.307 0.203872 0.631927 0
M  V30 1976 H 183.837 1.19225 1.66272 0
M  V30 1977 H 183.847 0.597912 4.03595 0
M  V30 1978 H 182.522 1.72271 3.78544 0
M  V30 1979 H 181.099 -0.10784 3.72744 0
M  V30 1980 N 183.284 -1.43765 0.645699 0
M  V30 1981 C 184.533 -2.01116 0.153412 0
M  V30 1982 C 184.846 -1.51493 -1.23731 0
M  V30 1983 O 186.052 -2.01067 -1.8244 0
M  V30 1984 C 184.508 -3.59206 0.223473 0
M  V30 1985 C 184.116 -4.17823 1.61642 0
M  V30 1986 C 185.86 -4.23972 -0.211597 0
M  V30 1987 C 183.767 -5.68183 1.64081 0
M  V30 1988 H 182.697 -0.752093 0.0535891 0
M  V30 1989 H 185.348 -1.6482 0.806633 0
M  V30 1990 H 183.73 -3.92867 -0.497118 0
M  V30 1991 H 184.904 -3.95674 2.36176 0
M  V30 1992 H 183.219 -3.65399 1.99681 0
M  V30 1993 H 185.816 -5.34275 -0.213112 0
M  V30 1994 H 186.159 -3.97352 -1.24165 0
M  V30 1995 H 186.692 -3.95166 0.456988 0
M  V30 1996 H 183.431 -5.99559 2.64971 0
M  V30 1997 H 182.951 -5.9241 0.938611 0
M  V30 1998 H 184.63 -6.32085 1.3812 0
M  V30 1999 N 184.763 -0.387143 -1.52771 0
M  V30 2000 C 185.673 0.456442 -2.30117 0
M  V30 2001 C 186.689 1.07342 -1.36944 0
M  V30 2002 O 187.865 1.07971 -1.70013 0
M  V30 2003 C 184.93 1.56957 -3.09136 0
M  V30 2004 C 183.991 0.977916 -4.18014 0
M  V30 2005 C 183.224 2.038 -4.93256 0
M  V30 2006 O 183.447 3.25271 -4.68567 0
M  V30 2007 O 182.381 1.6565 -5.78657 0
M  V30 2008 H 186.207 -0.17359 -3.03203 0
M  V30 2009 H 183.792 -0.150919 -1.48636 0
M  V30 2010 H 185.674 2.21628 -3.58412 0
M  V30 2011 H 184.349 2.18461 -2.38865 0
M  V30 2012 H 183.256 0.294525 -3.72939 0
M  V30 2013 H 184.589 0.407128 -4.90513 0
M  V30 2014 N 186.241 1.57166 -0.116904 0
M  V30 2015 C 187.487 1.95412 0.542405 0
M  V30 2016 C 187.82 1.00019 1.66463 0
M  V30 2017 O 187.095 0.0370346 1.94465 0
M  V30 2018 C 187.378 3.43615 1.07708 0
M  V30 2019 C 187.231 4.49781 -0.0415868 0
M  V30 2020 C 188.55 3.93616 1.96861 0
M  V30 2021 H 185.669 0.710543 0.195696 0
M  V30 2022 H 188.311 1.89027 -0.192038 0
M  V30 2023 H 186.461 3.49187 1.70296 0
M  V30 2024 H 188.133 4.56308 -0.676793 0
M  V30 2025 H 186.376 4.28033 -0.705019 0
M  V30 2026 H 187.047 5.50733 0.373717 0
M  V30 2027 H 189.523 3.90335 1.44146 0
M  V30 2028 H 188.399 4.97838 2.3119 0
M  V30 2029 H 188.66 3.34188 2.89432 0
M  V30 2030 N 187.719 -0.156864 1.56817 0
M  V30 2031 C 188.682 -1.17781 1.96622 0
M  V30 2032 C 189.682 -1.36401 0.851555 0
M  V30 2033 O 190.872 -1.33561 1.11836 0
M  V30 2034 C 188.004 -2.54008 2.27361 0
M  V30 2035 H 189.197 -0.836564 2.87996 0
M  V30 2036 H 186.75 -0.39985 1.51099 0
M  V30 2037 H 187.485 -2.9312 1.38748 0
M  V30 2038 H 187.27 -2.41856 3.08623 0
M  V30 2039 H 188.76 -3.27558 2.59029 0
M  V30 2040 N 189.197 -1.51736 -0.425897 0
M  V30 2041 C 190.445 -1.64644 -1.17204 0
M  V30 2042 C 190.766 -0.370486 -1.91448 0
M  V30 2043 O 190.036 0.614088 -1.86026 0
M  V30 2044 H 188.616 -0.606819 -0.435638 0
M  V30 2045 H 191.278 -1.88713 -0.487177 0
M  V30 2046 H 190.374 -2.47958 -1.89534 0
M  V30 2047 N 190.675 0.682077 -1.42076 0
M  V30 2048 C 192.086 1.26246 -1.37546 0
M  V30 2049 C 192.437 1.96092 -0.0651481 0
M  V30 2050 O 191.562 1.99587 0.836297 0
M  V30 2051 C 192.157 2.29594 -2.49143 0
M  V30 2052 C 190.716 2.83175 -2.47969 0
M  V30 2053 C 189.863 1.57395 -2.28303 0
M  V30 2054 H 192.814 0.475937 -1.51395 0
M  V30 2055 H 192.835 3.11175 -2.18976 0
M  V30 2056 H 192.347 1.78729 -3.44496 0
M  V30 2057 H 190.448 3.3818 -1.56413 0
M  V30 2058 H 190.561 3.32687 -3.44755 0
M  V30 2059 H 188.925 1.83699 -1.76428 0
M  V30 2060 H 189.708 1.08507 -3.25701 0
M  V30 2061 N 192.153 1.28127 0.917671 0
M  V30 2062 C 193.101 1.11569 2.04096 0
M  V30 2063 C 194.095 0.0360242 1.69362 0
M  V30 2064 O 195.301 0.194501 1.78946 0
M  V30 2065 H 191.676 0.344097 0.668656 0
M  V30 2066 H 193.647 2.06711 2.15205 0
M  V30 2067 C 192.396 0.790197 3.38602 0
M  V30 2068 H 191.719 1.61293 3.6582 0
M  V30 2069 H 193.159 0.714271 4.1794 0
M  V30 2070 C 191.618 -0.505897 3.3308 0
M  V30 2071 O 192.148 -1.53736 3.71117 0
M  V30 2072 N 190.354 -0.505193 2.86175 0
M  V30 2073 H 189.901 0.334621 2.55417 0
M  V30 2074 H 189.859 -1.37243 2.82863 0
M  V30 2075 N 193.631 -1.12557 1.10312 0
M  V30 2076 C 194.856 -1.88405 0.867085 0
M  V30 2077 C 195.281 -1.79038 -0.576817 0
M  V30 2078 O 194.639 -1.14439 -1.40618 0
M  V30 2079 C 194.687 -3.3563 1.31851 0
M  V30 2080 O 193.791 -4.09565 0.482734 0
M  V30 2081 H 193.132 -0.585455 0.313271 0
M  V30 2082 H 195.662 -1.42352 1.4696 0
M  V30 2083 H 195.672 -3.86469 1.3079 0
M  V30 2084 H 194.347 -3.41765 2.37001 0
M  V30 2085 H 192.924 -3.68695 0.558448 0
M  V30 2086 N 195.109 -0.891671 -1.2995 0
M  V30 2087 C 196.339 -0.527893 -1.99742 0
M  V30 2088 C 196.747 0.88979 -1.66971 0
M  V30 2089 O 196.09 1.59766 -0.906667 0
M  V30 2090 C 196.152 -0.630804 -3.53922 0
M  V30 2091 C 195.816 -2.01401 -4.10228 0
M  V30 2092 C 196.813 -2.98422 -4.25724 0
M  V30 2093 C 194.498 -2.32121 -4.45449 0
M  V30 2094 C 196.492 -4.24293 -4.75662 0
M  V30 2095 C 194.179 -3.58237 -4.95086 0
M  V30 2096 C 195.177 -4.54137 -5.10146 0
M  V30 2097 O 194.865 -5.78014 -5.58708 0
M  V30 2098 H 194.597 -0.201953 -0.645129 0
M  V30 2099 H 197.151 -1.20076 -1.66646 0
M  V30 2100 H 195.381 0.0990616 -3.86573 0
M  V30 2101 H 197.07 -0.277338 -4.04951 0
M  V30 2102 H 197.836 -2.76001 -3.98809 0
M  V30 2103 H 193.715 -1.5824 -4.32991 0
M  V30 2104 H 197.259 -4.99153 -4.87332 0
M  V30 2105 H 193.156 -3.80491 -5.21437 0
M  V30 2106 H 193.924 -5.8049 -5.77039 0
M  V30 2107 N 196.587 1.43421 -0.653314 0
M  V30 2108 C 197.534 2.30768 0.0382271 0
M  V30 2109 C 198.504 1.44755 0.814576 0
M  V30 2110 O 199.689 1.73624 0.791162 0
M  V30 2111 C 196.829 3.30336 0.998599 0
M  V30 2112 C 195.942 4.31448 0.218342 0
M  V30 2113 C 195.077 5.18098 1.17252 0
M  V30 2114 C 194.116 6.10902 0.382702 0
M  V30 2115 N 193.253 6.90176 1.28848 0
M  V30 2116 H 198.093 2.89357 -0.712511 0
M  V30 2117 H 195.63 1.42548 -0.363128 0
M  V30 2118 H 197.588 3.86572 1.56901 0
M  V30 2119 H 196.218 2.73397 1.71621 0
M  V30 2120 H 195.27 3.77506 -0.46836 0
M  V30 2121 H 196.582 4.97227 -0.395812 0
M  V30 2122 H 195.736 5.7896 1.81356 0
M  V30 2123 H 194.475 4.52444 1.82058 0
M  V30 2124 H 193.48 5.49128 -0.27169 0
M  V30 2125 H 194.705 6.78598 -0.260957 0
M  V30 2126 H 192.651 6.27171 1.92334 0
M  V30 2127 H 192.568 7.52478 0.728887 0
M  V30 2128 H 193.836 7.55543 1.91766 0
M  V30 2129 N 198.065 0.39524 1.52563 0
M  V30 2130 C 198.975 -0.444232 2.30356 0
M  V30 2131 C 199.991 -1.06615 1.37511 0
M  V30 2132 O 201.167 -1.07067 1.70583 0
M  V30 2133 C 198.232 -1.55315 3.09964 0
M  V30 2134 C 197.293 -0.955734 4.18526 0
M  V30 2135 C 196.526 -2.01181 4.9433 0
M  V30 2136 O 196.749 -3.22781 4.70285 0
M  V30 2137 O 195.683 -1.62579 5.79527 0
M  V30 2138 H 199.509 0.189667 3.03107 0
M  V30 2139 H 197.094 0.1588 1.48554 0
M  V30 2140 H 198.976 -2.19724 3.59582 0
M  V30 2141 H 197.651 -2.17191 2.4002 0
M  V30 2142 H 196.558 -0.274743 3.7309 0
M  V30 2143 H 197.891 -0.381109 4.90722 0
M  V30 2144 N 199.544 -1.57102 0.125237 0
M  V30 2145 C 200.793 -1.94582 -0.531095 0
M  V30 2146 C 201.106 -1.01126 -1.6743 0
M  V30 2147 O 202.312 -1.28097 -2.39381 0
M  V30 2148 C 200.768 -3.45839 -0.996164 0
M  V30 2149 C 200.376 -4.47842 0.118926 0
M  V30 2150 C 202.12 -3.92227 -1.62352 0
M  V30 2151 C 200.027 -5.90284 -0.363192 0
M  V30 2152 H 198.957 -0.726391 -0.20217 0
M  V30 2153 H 201.608 -1.82339 0.206092 0
M  V30 2154 H 199.99 -3.53338 -1.78796 0
M  V30 2155 H 201.164 -4.52018 0.895358 0
M  V30 2156 H 199.479 -4.11243 0.653324 0
M  V30 2157 H 202.076 -4.96069 -1.99548 0
M  V30 2158 H 202.419 -3.32552 -2.50429 0
M  V30 2159 H 202.952 -3.87554 -0.897019 0
M  V30 2160 H 199.691 -6.53728 0.481679 0
M  V30 2161 H 199.211 -5.89515 -1.10597 0
M  V30 2162 H 200.89 -6.41752 -0.822377 0
M  V30 2163 N 201.022 0.148545 -1.56898 0
M  V30 2164 C 202.271 0.85984 -1.82454 0
M  V30 2165 C 202.584 1.82406 -0.706229 0
M  V30 2166 O 203.79 2.57938 -0.847349 0
M  V30 2167 C 202.246 1.57967 -3.2338 0
M  V30 2168 C 201.854 0.65794 -4.43142 0
M  V30 2169 C 203.598 2.27784 -3.58211 0
M  V30 2170 C 201.505 1.3793 -5.75091 0
M  V30 2171 H 200.435 0.324834 -0.68044 0
M  V30 2172 H 203.086 0.112588 -1.83154 0
M  V30 2173 H 201.468 2.37249 -3.17063 0
M  V30 2174 H 202.642 -0.0995497 -4.60692 0
M  V30 2175 H 200.957 0.0682643 -4.16344 0
M  V30 2176 H 203.554 2.8239 -4.54048 0
M  V30 2177 H 203.897 3.04204 -2.84193 0
M  V30 2178 H 204.43 1.55421 -3.66182 0
M  V30 2179 H 201.169 0.656982 -6.52199 0
M  V30 2180 H 200.689 2.10954 -5.61479 0
M  V30 2181 H 202.368 1.92063 -6.17835 0
M  V30 2182 N 202.5 1.5196 0.417844 0
M  V30 2183 C 203.432 1.70895 1.52733 0
M  V30 2184 C 204.445 0.589405 1.51756 0
M  V30 2185 O 205.634 0.864312 1.56179 0
M  V30 2186 C 202.734 1.72627 2.91639 0
M  V30 2187 C 201.907 3.01479 3.16905 0
M  V30 2188 C 200.966 2.95139 4.35637 0
M  V30 2189 O 199.992 3.69059 4.3334 0
M  V30 2190 N 201.194 2.12328 5.40275 0
M  V30 2191 H 203.959 2.66612 1.36888 0
M  V30 2192 H 201.52 1.50089 0.607037 0
M  V30 2193 H 203.512 1.65928 3.6912 0
M  V30 2194 H 202.082 0.844216 3.00985 0
M  V30 2195 H 201.302 3.21895 2.27546 0
M  V30 2196 H 202.59 3.86736 3.30625 0
M  V30 2197 H 201.988 1.51685 5.44985 0
M  V30 2198 H 200.545 2.11494 6.16534 0
M  V30 2199 N 203.978 -0.674533 1.42435 0
M  V30 2200 C 204.926 -1.80934 1.46169 0
M  V30 2201 C 205.92 -1.66006 0.3374 0
M  V30 2202 O 207.126 -1.72611 0.510425 0
M  V30 2203 H 203.501 -0.596594 0.457798 0
M  V30 2204 H 205.472 -1.74903 2.41767 0
M  V30 2205 C 204.221 -3.19088 1.38123 0
M  V30 2206 H 203.544 -3.31203 2.23931 0
M  V30 2207 H 204.984 -3.9851 1.44797 0
M  V30 2208 C 203.443 -3.36763 0.0960517 0
M  V30 2209 O 203.973 -3.92581 -0.851073 0
M  V30 2210 N 202.179 -2.90597 0.0131186 0
M  V30 2211 H 201.726 -2.45359 0.784639 0
M  V30 2212 H 201.684 -3.028 -0.846133 0
M  V30 2213 N 205.456 -1.28612 -0.910864 0
M  V30 2214 C 206.704 -1.15705 -1.65701 0
M  V30 2215 C 207.025 0.29416 -1.92769 0
M  V30 2216 O 206.295 1.20331 -1.54588 0
M  V30 2217 H 204.875 -0.425216 -0.614167 0
M  V30 2218 H 207.537 -1.61381 -1.0928 0
M  V30 2219 H 206.633 -1.6988 -2.61815 0
M  V30 2220 N 206.934 1.1197 -1.10907 0
M  V30 2221 C 207.884 2.15946 -0.731538 0
M  V30 2222 C 208.868 1.58758 0.261699 0
M  V30 2223 O 210.06 1.76863 0.0696722 0
M  V30 2224 C 207.189 3.42877 -0.170299 0
M  V30 2225 C 206.275 4.07037 -1.19087 0
M  V30 2226 N 206.666 4.46135 -2.38322 0
M  V30 2227 C 204.964 4.33884 -1.03252 0
M  V30 2228 C 205.665 4.96331 -3.03366 0
M  V30 2229 N 204.641 4.9214 -2.30865 0
M  V30 2230 H 208.443 2.43947 -1.63912 0
M  V30 2231 H 205.957 1.28927 -0.987505 0
M  V30 2232 H 207.954 4.16732 0.118271 0
M  V30 2233 H 206.614 3.16343 0.731935 0
M  V30 2234 H 207.625 4.38345 -2.75815 0
M  V30 2235 H 204.302 4.17084 -0.186256 0
M  V30 2236 H 205.692 5.36257 -4.04818 0
M  V30 2237 N 208.412 0.89855 1.29475 0
M  V30 2238 C 209.322 0.379974 2.31502 0
M  V30 2239 C 210.338 -0.524695 1.659 0
M  V30 2240 O 211.514 -0.414551 1.97087 0
M  V30 2241 C 208.579 -0.385138 3.44554 0
M  V30 2242 C 207.64 0.550914 4.2575 0
M  V30 2243 C 206.873 -0.177778 5.33404 0
M  V30 2244 O 207.096 -1.40189 5.52904 0
M  V30 2245 O 206.03 0.479106 5.9999 0
M  V30 2246 H 209.856 1.22639 2.77837 0
M  V30 2247 H 207.441 0.662834 1.33891 0
M  V30 2248 H 209.323 -0.817841 4.13388 0
M  V30 2249 H 207.998 -1.20763 3.0033 0
M  V30 2250 H 206.905 1.03271 3.59564 0
M  V30 2251 H 208.238 1.33979 4.73614 0
M  V30 2252 N 209.89 -1.43072 0.660911 0
M  V30 2253 C 210.8 -2.34585 -0.0264163 0
M  V30 2254 C 211.816 -1.54316 -0.803898 0
M  V30 2255 O 212.992 -1.86939 -0.749391 0
M  V30 2256 C 210.057 -3.32689 -0.975639 0
M  V30 2257 C 209.118 -4.2886 -0.194236 0
M  V30 2258 C 208.351 -5.22278 -1.09825 0
M  V30 2259 O 208.574 -5.20299 -2.33763 0
M  V30 2260 O 207.508 -5.99228 -0.566513 0
M  V30 2261 H 211.334 -2.94869 0.727034 0
M  V30 2262 H 208.919 -1.43342 0.42111 0
M  V30 2263 H 210.801 -3.92995 -1.52094 0
M  V30 2264 H 209.476 -2.74898 -1.70918 0
M  V30 2265 H 208.383 -3.72011 0.394835 0
M  V30 2266 H 209.716 -4.89655 0.499899 0
M  V30 2267 N 211.368 -0.403325 -1.52352 0
M  V30 2268 C 212.278 0.432009 -2.30588 0
M  V30 2269 C 213.294 1.05884 -1.38075 0
M  V30 2270 O 214.47 1.06161 -1.71148 0
M  V30 2271 C 211.535 1.53669 -3.10784 0
M  V30 2272 C 210.596 0.933525 -4.19027 0
M  V30 2273 C 209.829 1.98557 -4.9539 0
M  V30 2274 O 210.052 3.20283 -4.71991 0
M  V30 2275 O 208.986 1.59504 -5.80381 0
M  V30 2276 H 212.812 -0.205739 -3.03002 0
M  V30 2277 H 210.397 -0.166675 -1.48467 0
M  V30 2278 H 212.279 2.17814 -3.60742 0
M  V30 2279 H 210.954 2.15915 -2.41169 0
M  V30 2280 H 209.861 0.254954 -3.7323 0
M  V30 2281 H 211.194 0.35508 -4.90918 0
M  V30 2282 N 212.846 1.57033 -0.133567 0
M  V30 2283 C 214.257 1.82593 0.389464 0
M  V30 2284 C 214.608 1.05156 1.6564 0
M  V30 2285 O 213.733 0.292644 2.14412 0
M  V30 2286 C 214.328 3.31204 0.713377 0
M  V30 2287 C 212.887 3.57393 1.18098 0
M  V30 2288 C 212.034 2.76598 0.197126 0
M  V30 2289 H 214.985 1.54598 -0.358481 0
M  V30 2290 H 215.006 3.46627 1.56939 0
M  V30 2291 H 214.518 3.87537 -0.2089 0
M  V30 2292 H 212.619 3.06433 2.11966 0
M  V30 2293 H 212.732 4.65915 1.11624 0
M  V30 2294 H 211.096 2.45257 0.687088 0
M  V30 2295 H 211.879 3.35697 -0.718504 0
M  V30 2296 N 214.325 -0.140222 1.56975 0
M  V30 2297 C 215.255 -1.17456 2.01808 0
M  V30 2298 C 216.236 -1.44415 0.898794 0
M  V30 2299 O 217.421 -1.5522 1.16707 0
M  V30 2300 C 214.551 -2.50607 2.40444 0
M  V30 2301 C 213.505 -2.38155 3.55621 0
M  V30 2302 C 212.831 -3.76078 3.80091 0
M  V30 2303 C 214.131 -1.85991 4.88062 0
M  V30 2304 H 215.825 -0.801743 2.88466 0
M  V30 2305 H 213.371 -0.38422 1.38779 0
M  V30 2306 H 215.324 -3.23197 2.7041 0
M  V30 2307 H 214.048 -2.89737 1.50732 0
M  V30 2308 H 212.707 -1.68016 3.25832 0
M  V30 2309 H 212.355 -4.12656 2.87618 0
M  V30 2310 H 212.055 -3.68606 4.57606 0
M  V30 2311 H 213.579 -4.50206 4.12488 0
M  V30 2312 H 214.993 -2.4838 5.16701 0
M  V30 2313 H 213.39 -1.89393 5.6943 0
M  V30 2314 H 214.46 -0.816023 4.77984 0
M  V30 2315 N 215.803 -1.52179 -0.40978 0
M  V30 2316 C 216.713 -1.78364 -1.52392 0
M  V30 2317 C 217.729 -0.669183 -1.60617 0
M  V30 2318 O 218.905 -0.954518 -1.77344 0
M  V30 2319 C 215.97 -1.92822 -2.88133 0
M  V30 2320 C 215.031 -3.16725 -2.898 0
M  V30 2321 C 214.264 -3.30483 -4.19067 0
M  V30 2322 O 214.487 -2.49522 -5.12928 0
M  V30 2323 O 213.421 -4.2363 -4.27576 0
M  V30 2324 H 217.247 -2.72931 -1.33201 0
M  V30 2325 H 214.832 -1.37016 -0.59557 0
M  V30 2326 H 216.714 -2.04157 -3.68643 0
M  V30 2327 H 215.389 -1.01444 -3.07393 0
M  V30 2328 H 214.296 -3.10848 -2.08146 0
M  V30 2329 H 215.629 -4.07881 -2.75489 0
M  V30 2330 N 217.281 0.66697 -1.42791 0
M  V30 2331 C 218.229 1.80157 -1.47127 0
M  V30 2332 C 219.223 1.65825 -0.346199 0
M  V30 2333 O 220.429 1.72338 -0.519572 0
M  V30 2334 H 216.804 0.594158 -0.460956 0
M  V30 2335 H 218.775 1.73619 -2.42692 0
M  V30 2336 C 217.524 3.18351 -1.39813 0
M  V30 2337 H 216.847 3.3001 -2.25684 0
M  V30 2338 H 218.287 3.97736 -1.46908 0
M  V30 2339 C 216.746 3.36707 -0.11391 0
M  V30 2340 O 217.276 3.93027 0.830241 0
M  V30 2341 N 215.482 2.90586 -0.0285295 0
M  V30 2342 H 215.029 2.4494 -0.79764 0
M  V30 2343 H 214.987 3.03245 0.830063 0
M  V30 2344 N 218.759 1.29093 0.90403 0
M  V30 2345 C 219.987 1.19689 1.68766 0
M  V30 2346 C 220.402 -0.243113 1.87228 0
M  V30 2347 O 219.759 -1.16326 1.40621 0
M  V30 2348 C 219.81 1.90144 3.07453 0
M  V30 2349 O 219.531 3.2852 2.89838 0
M  V30 2350 C 221.032 1.87162 4.01852 0
M  V30 2351 H 218.252 0.415035 0.527244 0
M  V30 2352 H 220.796 1.7039 1.13082 0
M  V30 2353 H 218.951 1.43289 3.59926 0
M  V30 2354 H 219.365 3.63944 3.77684 0
M  V30 2355 H 220.839 2.41032 4.96596 0
M  V30 2356 H 221.316 0.84617 4.30972 0
M  V30 2357 H 221.922 2.33741 3.5531 0
M  V30 2358 N 220.237 -1.11381 1.11499 0
M  V30 2359 C 221.483 -1.83597 0.875423 0
M  V30 2360 C 221.838 -1.83048 -0.592555 0
M  V30 2361 O 221.131 -1.27304 -1.43193 0
M  V30 2362 C 221.325 -3.30026 1.37177 0
M  V30 2363 C 221.154 -3.44837 2.88647 0
M  V30 2364 C 219.924 -3.57825 3.56776 0
M  V30 2365 C 222.122 -3.3907 3.86699 0
M  V30 2366 N 220.104 -3.61113 4.96458 0
M  V30 2367 C 221.475 -3.48986 5.12454 0
M  V30 2368 C 223.53 -3.22605 3.7925 0
M  V30 2369 C 222.233 -3.44135 6.31636 0
M  V30 2370 C 224.259 -3.19072 4.97943 0
M  V30 2371 C 223.621 -3.29559 6.22551 0
M  V30 2372 H 219.72 -0.687044 0.37349 0
M  V30 2373 H 222.304 -1.33265 1.41946 0
M  V30 2374 H 220.475 -3.78874 0.854919 0
M  V30 2375 H 222.207 -3.90153 1.07529 0
M  V30 2376 H 218.962 -3.60414 3.07244 0
M  V30 2377 H 219.386 -3.66394 5.69284 0
M  V30 2378 H 224.028 -3.13382 2.83816 0
M  V30 2379 H 221.746 -3.52126 7.27347 0
M  V30 2380 H 225.332 -3.07498 4.93899 0
M  V30 2381 H 224.212 -3.26815 7.12855 0
M  V30 2382 N 221.715 -0.905404 -1.28997 0
M  V30 2383 C 223.126 -0.581953 -1.77398 0
M  V30 2384 C 223.477 0.902552 -1.74208 0
M  V30 2385 O 222.602 1.70584 -1.33154 0
M  V30 2386 C 223.197 -1.04961 -3.22131 0
M  V30 2387 C 221.756 -0.777229 -3.68288 0
M  V30 2388 C 220.903 -1.22109 -2.48967 0
M  V30 2389 H 223.854 -1.08754 -1.15578 0
M  V30 2390 H 223.875 -0.387387 -3.78523 0
M  V30 2391 H 223.387 -2.13008 -3.24421 0
M  V30 2392 H 221.488 0.290383 -3.71467 0
M  V30 2393 H 221.601 -1.37911 -4.58822 0
M  V30 2394 H 219.965 -0.639971 -2.46529 0
M  V30 2395 H 220.748 -2.30972 -2.53982 0
M  V30 2396 N 223.193 1.4272 -0.668489 0
M  V30 2397 C 224.421 2.05966 -0.196348 0
M  V30 2398 C 224.836 1.50191 1.14403 0
M  V30 2399 O 224.193 0.639208 1.7094 0
M  V30 2400 C 224.244 3.61314 -0.115815 0
M  V30 2401 O 223.965 4.1502 -1.40322 0
M  V30 2402 C 225.466 4.41663 0.380579 0
M  V30 2403 H 222.686 0.663954 -0.0969829 0
M  V30 2404 H 225.23 1.82966 -0.913446 0
M  V30 2405 H 223.385 3.83448 0.551931 0
M  V30 2406 H 223.799 5.08832 -1.27243 0
M  V30 2407 H 225.273 5.5065 0.385848 0
M  V30 2408 H 225.75 4.15792 1.41471 0
M  V30 2409 H 226.356 4.24534 -0.255209 0
M  V30 2410 N 224.671 0.411399 1.52136 0
M  V30 2411 C 226.082 -0.0576826 1.86611 0
M  V30 2412 C 226.433 -1.44238 1.33003 0
M  V30 2413 O 225.558 -2.05759 0.670228 0
M  V30 2414 C 226.153 -0.111448 3.38617 0
M  V30 2415 C 224.712 -0.52487 3.72723 0
M  V30 2416 C 223.859 0.299176 2.75681 0
M  V30 2417 H 226.81 0.628368 1.4573 0
M  V30 2418 H 226.831 -0.926252 3.69054 0
M  V30 2419 H 226.343 0.896488 3.77604 0
M  V30 2420 H 224.444 -1.53936 3.39315 0
M  V30 2421 H 224.557 -0.267681 4.78352 0
M  V30 2422 H 222.921 -0.238814 2.53578 0
M  V30 2423 H 223.704 1.3055 3.17508 0
M  V30 2424 N 226.149 -1.5696 0.141893 0
M  V30 2425 C 227.379 -2.00031 -0.516828 0
M  V30 2426 C 227.787 -1.02091 -1.59293 0
M  V30 2427 O 227.13 -0.00909657 -1.83698 0
M  V30 2428 C 227.192 -3.39534 -1.1814 0
M  V30 2429 C 226.856 -4.56313 -0.250513 0
M  V30 2430 C 227.853 -5.17295 0.519839 0
M  V30 2431 C 225.538 -5.02061 -0.154907 0
M  V30 2432 C 227.532 -6.2243 1.3733 0
M  V30 2433 C 225.219 -6.07053 0.702161 0
M  V30 2434 C 226.217 -6.67106 1.46487 0
M  V30 2435 O 225.905 -7.70066 2.30767 0
M  V30 2436 H 225.637 -0.661451 -0.139493 0
M  V30 2437 H 228.191 -2.04086 0.231926 0
M  V30 2438 H 226.421 -3.32302 -1.97769 0
M  V30 2439 H 228.11 -3.66745 -1.73933 0
M  V30 2440 H 228.876 -4.82852 0.45598 0
M  V30 2441 H 224.755 -4.5505 -0.7383 0
M  V30 2442 H 228.299 -6.69233 1.96909 0
M  V30 2443 H 224.196 -6.40923 0.76733 0
M  V30 2444 H 224.964 -7.87264 2.23959 0
M  V30 2445 N 227.627 0.131896 -1.57047 0
M  V30 2446 C 229.038 0.690407 -1.73465 0
M  V30 2447 C 229.389 1.8094 -0.758629 0
M  V30 2448 O 228.514 2.16282 0.0713813 0
M  V30 2449 C 229.109 1.25916 -3.14532 0
M  V30 2450 C 227.668 1.76409 -3.32501 0
M  V30 2451 C 226.815 0.658579 -2.69366 0
M  V30 2452 H 229.766 -0.0939144 -1.58422 0
M  V30 2453 H 229.787 2.12892 -3.15369 0
M  V30 2454 H 229.299 0.444515 -3.85546 0
M  V30 2455 H 227.4 2.60391 -2.66509 0
M  V30 2456 H 227.513 1.88241 -4.4057 0
M  V30 2457 H 225.877 1.08899 -2.30246 0
M  V30 2458 H 226.66 -0.14487 -3.42994 0
M  V30 2459 N 229.106 1.52395 0.401703 0
M  V30 2460 C 230.336 1.70429 1.1678 0
M  V30 2461 C 230.744 0.416702 1.84554 0
M  V30 2462 O 230.087 -0.617697 1.73003 0
M  V30 2463 C 230.149 2.78919 2.26814 0
M  V30 2464 C 229.813 4.20437 1.79113 0
M  V30 2465 C 230.81 5.04028 1.27482 0
M  V30 2466 C 228.495 4.66704 1.85722 0
M  V30 2467 C 230.489 6.31961 0.830913 0
M  V30 2468 C 228.176 5.94625 1.40942 0
M  V30 2469 C 229.174 6.77082 0.897128 0
M  V30 2470 O 228.862 8.02607 0.455822 0
M  V30 2471 H 228.594 0.574272 0.356634 0
M  V30 2472 H 231.148 1.99767 0.477724 0
M  V30 2473 H 229.378 2.44973 2.99207 0
M  V30 2474 H 231.067 2.8548 2.88541 0
M  V30 2475 H 231.833 4.69471 1.21744 0
M  V30 2476 H 227.712 4.0262 2.24539 0
M  V30 2477 H 231.256 6.96271 0.430368 0
M  V30 2478 H 227.153 6.28688 1.46362 0
M  V30 2479 H 227.921 8.16453 0.578457 0
M  V30 2480 N 230.584 -0.659388 1.43143 0
M  V30 2481 C 231.809 -1.45221 1.48073 0
M  V30 2482 C 232.234 -1.87845 0.097995 0
M  V30 2483 O 231.592 -1.56985 -0.90694 0
M  V30 2484 C 231.64 -2.66748 2.42647 0
M  V30 2485 O 230.744 -3.65583 1.90848 0
M  V30 2486 H 230.085 -0.435669 0.501088 0
M  V30 2487 H 232.615 -0.807432 1.87994 0
M  V30 2488 H 232.625 -3.14637 2.59745 0
M  V30 2489 H 231.3 -2.35067 3.43098 0
M  V30 2490 H 229.877 -3.24693 1.83381 0
M  V30 2491 N 232.062 -1.29571 -0.897171 0
M  V30 2492 C 233.009 -1.14916 -2.00158 0
M  V30 2493 C 233.979 -0.0418149 -1.66047 0
M  V30 2494 O 235.164 -0.209793 -1.89643 0
M  V30 2495 C 232.304 -0.834307 -3.34863 0
M  V30 2496 C 231.417 -2.02234 -3.8174 0
M  V30 2497 C 230.552 -1.64664 -5.05034 0
M  V30 2498 C 229.591 -2.80033 -5.44286 0
M  V30 2499 N 228.728 -2.42843 -6.58765 0
M  V30 2500 H 233.568 -2.09403 -2.12025 0
M  V30 2501 H 231.105 -1.042 -1.0383 0
M  V30 2502 H 233.063 -0.632436 -4.12379 0
M  V30 2503 H 231.693 0.0736656 -3.22716 0
M  V30 2504 H 230.745 -2.33583 -3.00238 0
M  V30 2505 H 232.057 -2.88673 -4.06779 0
M  V30 2506 H 231.211 -1.4078 -5.9014 0
M  V30 2507 H 229.95 -0.753766 -4.8184 0
M  V30 2508 H 228.955 -3.04596 -4.57713 0
M  V30 2509 H 230.18 -3.69989 -5.6946 0
M  V30 2510 H 228.126 -1.56046 -6.3717 0
M  V30 2511 H 228.043 -3.22815 -6.83613 0
M  V30 2512 H 229.311 -2.22285 -7.47134 0
M  V30 2513 N 233.54 1.10788 -1.12088 0
M  V30 2514 C 234.487 2.17025 -0.785407 0
M  V30 2515 C 235.457 1.64265 0.246191 0
M  V30 2516 O 236.642 1.90412 0.121584 0
M  V30 2517 C 233.782 3.44249 -0.242177 0
M  V30 2518 C 232.895 4.1098 -1.33115 0
M  V30 2519 C 232.03 5.25911 -0.747741 0
M  V30 2520 C 231.069 5.84538 -1.81609 0
M  V30 2521 N 230.206 6.90853 -1.25167 0
M  V30 2522 H 235.046 2.45066 -1.69548 0
M  V30 2523 H 232.583 1.20297 -0.846582 0
M  V30 2524 H 234.541 4.17101 0.0908026 0
M  V30 2525 H 233.171 3.16571 0.631072 0
M  V30 2526 H 232.223 3.36133 -1.78097 0
M  V30 2527 H 233.535 4.50601 -2.13917 0
M  V30 2528 H 232.689 6.056 -0.365216 0
M  V30 2529 H 231.428 4.87614 0.0915188 0
M  V30 2530 H 230.433 5.03522 -2.20785 0
M  V30 2531 H 231.658 6.249 -2.6585 0
M  V30 2532 H 229.604 6.54562 -0.434174 0
M  V30 2533 H 229.521 7.29166 -1.99633 0
M  V30 2534 H 230.789 7.7433 -0.896259 0
M  V30 2535 N 235.018 0.912232 1.28515 0
M  V30 2536 C 235.948 0.416403 2.29757 0
M  V30 2537 C 236.929 -0.515194 1.6211 0
M  V30 2538 O 238.114 -0.423253 1.89532 0
M  V30 2539 C 235.244 -0.34572 3.45575 0
M  V30 2540 C 234.198 0.496599 4.25109 0
M  V30 2541 C 233.524 -0.393771 5.33248 0
M  V30 2542 C 234.824 1.75307 4.92001 0
M  V30 2543 H 236.518 1.26249 2.7148 0
M  V30 2544 H 234.064 0.608515 1.30511 0
M  V30 2545 H 236.017 -0.703422 4.15488 0
M  V30 2546 H 234.741 -1.2257 3.02728 0
M  V30 2547 H 233.4 0.8368 3.56922 0
M  V30 2548 H 233.048 -1.27225 4.86644 0
M  V30 2549 H 232.748 0.166209 5.87365 0
M  V30 2550 H 234.272 -0.747389 6.06009 0
M  V30 2551 H 235.686 1.46437 5.54283 0
M  V30 2552 H 234.083 2.25534 5.56106 0
M  V30 2553 H 235.153 2.48176 4.16577 0
M  V30 2554 N 236.496 -1.42363 0.676048 0
M  V30 2555 C 237.459 -2.29199 0.00766941 0
M  V30 2556 C 238.459 -1.43389 -0.727745 0
M  V30 2557 O 239.649 -1.64764 -0.56556 0
M  V30 2558 C 236.781 -3.2591 -0.999785 0
M  V30 2559 H 237.974 -2.89794 0.771988 0
M  V30 2560 H 235.527 -1.50024 0.438468 0
M  V30 2561 H 236.262 -2.70256 -1.79255 0
M  V30 2562 H 236.047 -3.89202 -0.475829 0
M  V30 2563 H 237.537 -3.91028 -1.46583 0
M  V30 2564 N 237.974 -0.419461 -1.51915 0
M  V30 2565 C 238.884 0.407528 -2.31033 0
M  V30 2566 C 239.9 1.04413 -1.3919 0
M  V30 2567 O 241.076 1.0434 -1.72265 0
M  V30 2568 C 238.141 1.50365 -3.12396 0
M  V30 2569 C 237.202 0.889029 -4.19994 0
M  V30 2570 C 236.435 1.93291 -4.97468 0
M  V30 2571 O 236.658 3.15259 -4.75361 0
M  V30 2572 O 235.592 1.53339 -5.8204 0
M  V30 2573 H 239.418 -0.237865 -3.02767 0
M  V30 2574 H 237.003 -0.182413 -1.48282 0
M  V30 2575 H 238.885 2.13975 -3.63032 0
M  V30 2576 H 237.56 2.13345 -2.43445 0
M  V30 2577 H 236.467 0.215353 -3.7348 0
M  V30 2578 H 237.8 0.302991 -4.91267 0
M  V30 2579 N 239.452 1.56882 -0.150215 0
M  V30 2580 C 240.399 2.16922 0.788244 0
M  V30 2581 C 241.369 1.10303 1.24187 0
M  V30 2582 O 242.554 1.38359 1.31383 0
M  V30 2583 C 239.694 2.79754 2.02068 0
M  V30 2584 C 238.807 4.00775 1.61257 0
M  V30 2585 C 237.942 4.51595 2.79705 0
M  V30 2586 C 236.981 5.65074 2.35282 0
M  V30 2587 N 236.118 6.10499 3.4675 0
M  V30 2588 H 240.958 2.96779 0.269444 0
M  V30 2589 H 238.495 1.46599 0.12128 0
M  V30 2590 H 240.453 3.14329 2.74323 0
M  V30 2591 H 239.083 2.02536 2.51354 0
M  V30 2592 H 238.135 3.72158 0.787553 0
M  V30 2593 H 239.447 4.82978 1.24633 0
M  V30 2594 H 238.601 4.88242 3.60145 0
M  V30 2595 H 237.34 3.68406 3.19576 0
M  V30 2596 H 236.345 5.28 1.53283 0
M  V30 2597 H 237.57 6.50052 1.96493 0
M  V30 2598 H 235.516 5.30243 3.86236 0
M  V30 2599 H 235.433 6.87637 3.14152 0
M  V30 2600 H 236.701 6.51791 4.27537 0
M  V30 2601 N 240.93 -0.123565 1.57115 0
M  V30 2602 C 241.893 -1.13583 1.99076 0
M  V30 2603 C 242.893 -1.34564 0.880296 0
M  V30 2604 O 244.083 -1.31158 1.14644 0
M  V30 2605 C 241.215 -2.49128 2.32698 0
M  V30 2606 H 242.408 -0.775287 2.89706 0
M  V30 2607 H 239.961 -0.36771 1.51913 0
M  V30 2608 H 240.696 -2.90111 1.44934 0
M  V30 2609 H 240.481 -2.35255 3.13684 0
M  V30 2610 H 241.971 -3.2199 2.65918 0
M  V30 2611 N 242.408 -1.52605 -0.393616 0
M  V30 2612 C 243.654 -1.67672 -1.14079 0
M  V30 2613 C 243.987 -0.413121 -1.89755 0
M  V30 2614 O 243.262 0.588952 -1.85369 0
M  V30 2615 C 243.545 -2.9088 -2.12276 0
M  V30 2616 C 243.398 -4.27329 -1.40394 0
M  V30 2617 C 244.717 -3.09628 -3.12759 0
M  V30 2618 H 241.836 -0.610168 -0.413356 0
M  V30 2619 H 244.478 -1.85193 -0.424696 0
M  V30 2620 H 242.628 -2.76073 -2.73342 0
M  V30 2621 H 244.3 -4.53894 -0.82327 0
M  V30 2622 H 242.543 -4.2802 -0.705801 0
M  V30 2623 H 243.214 -5.09615 -2.12123 0
M  V30 2624 H 245.69 -3.23436 -2.61779 0
M  V30 2625 H 244.566 -3.97322 -3.78717 0
M  V30 2626 H 244.827 -2.23637 -3.81365 0
M  V30 2627 N 243.887 0.651787 -1.4349 0
M  V30 2628 C 244.817 1.77621 -1.51569 0
M  V30 2629 C 245.798 1.66022 -0.370253 0
M  V30 2630 O 246.983 1.85095 -0.587658 0
M  V30 2631 C 244.113 3.16056 -1.43966 0
M  V30 2632 C 243.067 3.4242 -2.56774 0
M  V30 2633 C 242.393 4.8067 -2.34223 0
M  V30 2634 C 243.693 3.37023 -3.99015 0
M  V30 2635 H 245.387 1.71117 -2.45681 0
M  V30 2636 H 242.933 0.821825 -1.18246 0
M  V30 2637 H 244.886 3.94472 -1.48221 0
M  V30 2638 H 243.61 3.23293 -0.463586 0
M  V30 2639 H 242.269 2.66375 -2.51873 0
M  V30 2640 H 241.917 4.84585 -1.34856 0
M  V30 2641 H 241.617 4.9927 -3.09844 0
M  V30 2642 H 243.141 5.61342 -2.40265 0
M  V30 2643 H 244.555 4.05374 -4.05395 0
M  V30 2644 H 242.952 3.67159 -4.74673 0
M  V30 2645 H 244.022 2.3518 -4.2405 0
M  V30 2646 N 245.365 1.30045 0.890287 0
M  V30 2647 C 246.328 1.15963 1.977 0
M  V30 2648 C 247.328 0.0923777 1.60534 0
M  V30 2649 O 248.518 0.340071 1.70848 0
M  V30 2650 C 245.65 0.775451 3.31963 0
M  V30 2651 H 246.843 2.12502 2.11619 0
M  V30 2652 H 244.396 1.13366 1.07601 0
M  V30 2653 H 245.131 -0.189671 3.23745 0
M  V30 2654 H 244.916 1.54668 3.60306 0
M  V30 2655 H 246.406 0.700251 4.11687 0
M  V30 2656 N 246.843 -1.10192 1.12674 0
M  V30 2657 C 247.806 -2.14786 0.799979 0
M  V30 2658 C 248.806 -1.59711 -0.18685 0
M  V30 2659 O 249.996 -1.74156 0.0392558 0
M  V30 2660 C 247.128 -3.40374 0.189228 0
M  V30 2661 H 248.321 -2.45203 1.72671 0
M  V30 2662 H 245.874 -1.25597 0.930326 0
M  V30 2663 H 246.609 -3.15577 -0.747107 0
M  V30 2664 H 246.394 -3.81637 0.899766 0
M  V30 2665 H 247.884 -4.17594 -0.0228143 0
M  V30 2666 N 248.321 -0.919034 -1.28029 0
M  V30 2667 C 249.269 -0.401753 -2.29104 0
M  V30 2668 C 250.263 0.509354 -1.61561 0
M  V30 2669 O 251.469 0.390014 -1.75724 0
M  V30 2670 H 247.844 -0.111331 -0.743713 0
M  V30 2671 H 249.815 -1.2672 -2.70156 0
M  V30 2672 C 248.564 0.338148 -3.46052 0
M  V30 2673 H 247.887 -0.353732 -3.98232 0
M  V30 2674 H 249.327 0.664653 -4.18758 0
M  V30 2675 C 247.786 1.54798 -2.99231 0
M  V30 2676 O 248.316 2.64696 -3.02157 0
M  V30 2677 N 246.522 1.3968 -2.54829 0
M  V30 2678 H 246.069 0.502698 -2.52647 0
M  V30 2679 H 246.027 2.20755 -2.23863 0
M  V30 2680 N 249.799 1.42003 -0.683588 0
M  V30 2681 C 251.047 2.01015 -0.209101 0
M  V30 2682 C 251.368 1.54365 1.19149 0
M  V30 2683 O 250.638 0.769083 1.80172 0
M  V30 2684 H 249.218 0.743294 -0.074315 0
M  V30 2685 H 251.88 1.73798 -0.882066 0
M  V30 2686 H 250.976 3.11343 -0.2172 0
M  V30 2687 N 251.277 0.427512 1.51691 0
M  V30 2688 C 252.523 -0.134744 2.02953 0
M  V30 2689 C 252.878 -1.41235 1.30654 0
M  V30 2690 O 252.171 -1.87168 0.409713 0
M  V30 2691 C 252.365 -0.418249 3.54944 0
M  V30 2692 C 252.194 0.830327 4.41968 0
M  V30 2693 C 250.964 1.36097 4.86627 0
M  V30 2694 C 253.162 1.7137 4.84909 0
M  V30 2695 N 251.144 2.56311 5.57833 0
M  V30 2696 C 252.515 2.76195 5.55082 0
M  V30 2697 C 254.57 1.72928 4.66905 0
M  V30 2698 C 253.273 3.82512 6.09161 0
M  V30 2699 C 255.299 2.78175 5.21894 0
M  V30 2700 C 254.661 3.8172 5.92004 0
M  V30 2701 H 250.76 -0.0103958 0.781931 0
M  V30 2702 H 253.344 0.585981 1.85673 0
M  V30 2703 H 251.515 -1.10801 3.7226 0
M  V30 2704 H 253.247 -0.970999 3.92879 0
M  V30 2705 H 250.002 0.916311 4.64651 0
M  V30 2706 H 250.426 3.17242 5.98069 0
M  V30 2707 H 255.068 0.942081 4.12171 0
M  V30 2708 H 252.786 4.62077 6.62956 0
M  V30 2709 H 256.372 2.8031 5.09821 0
M  V30 2710 H 255.252 4.61821 6.33791 0
M  V30 2711 N 252.755 -1.56801 0.158532 0
M  V30 2712 C 253.703 -2.18638 -0.793729 0
M  V30 2713 C 254.697 -1.14669 -1.24689 0
M  V30 2714 O 255.903 -1.32895 -1.21403 0
M  V30 2715 H 252.278 -0.700226 -0.274204 0
M  V30 2716 H 254.249 -2.97367 -0.248095 0
M  V30 2717 C 252.998 -2.83139 -2.0181 0
M  V30 2718 H 252.321 -3.62863 -1.67841 0
M  V30 2719 H 253.761 -3.29894 -2.66357 0
M  V30 2720 C 252.22 -1.82244 -2.83353 0
M  V30 2721 O 252.75 -1.3 -3.80083 0
M  V30 2722 N 250.956 -1.51288 -2.48114 0
M  V30 2723 H 250.503 -1.93964 -1.69516 0
M  V30 2724 H 250.461 -0.840296 -3.02963 0
M  V30 2725 N 254.233 0.115231 -1.57178 0
M  V30 2726 C 255.163 1.1423 -2.03651 0
M  V30 2727 C 256.144 1.42967 -0.921655 0
M  V30 2728 O 257.329 1.53343 -1.19162 0
M  V30 2729 C 254.459 2.4675 -2.44401 0
M  V30 2730 C 253.413 2.32467 -3.59365 0
M  V30 2731 C 252.739 3.69984 -3.86026 0
M  V30 2732 C 254.039 1.78203 -4.90959 0
M  V30 2733 H 255.733 0.755749 -2.89705 0
M  V30 2734 H 253.279 0.362093 -1.39373 0
M  V30 2735 H 255.232 3.18854 -2.75517 0
M  V30 2736 H 253.956 2.87302 -1.55322 0
M  V30 2737 H 252.615 1.62811 -3.28463 0
M  V30 2738 H 252.263 4.08028 -2.94147 0
M  V30 2739 H 251.963 3.61279 -4.63412 0
M  V30 2740 H 253.487 4.43587 -4.19599 0
M  V30 2741 H 254.901 2.40128 -5.20587 0
M  V30 2742 H 253.298 1.8031 -5.72371 0
M  V30 2743 H 254.368 0.739876 -4.79222 0
M  V30 2744 N 255.711 1.52812 0.385517 0
M  V30 2745 C 256.658 1.77838 1.47113 0
M  V30 2746 C 257.628 0.621757 1.54024 0
M  V30 2747 O 258.813 0.861846 1.70226 0
M  V30 2748 C 255.953 1.95618 2.84302 0
M  V30 2749 C 255.066 3.23316 2.86515 0
M  V30 2750 C 254.201 3.31394 4.15152 0
M  V30 2751 C 253.24 4.53201 4.1143 0
M  V30 2752 N 252.377 4.58542 5.3168 0
M  V30 2753 H 257.217 2.70482 1.25073 0
M  V30 2754 H 254.754 1.34006 0.606692 0
M  V30 2755 H 256.712 2.03912 3.63972 0
M  V30 2756 H 255.342 1.06331 3.04784 0
M  V30 2757 H 254.394 3.24076 1.99195 0
M  V30 2758 H 255.706 4.13045 2.79634 0
M  V30 2759 H 254.86 3.3889 5.03228 0
M  V30 2760 H 253.599 2.39645 4.24761 0
M  V30 2761 H 252.604 4.45827 3.21742 0
M  V30 2762 H 253.829 5.46271 4.03442 0
M  V30 2763 H 251.775 3.69686 5.41912 0
M  V30 2764 H 251.692 5.42148 5.26889 0
M  V30 2765 H 252.96 4.70296 6.21644 0
M  V30 2766 N 257.189 -0.644168 1.43834 0
M  V30 2767 C 258.137 -1.77793 1.49974 0
M  V30 2768 C 259.131 -1.65253 0.372536 0
M  V30 2769 O 260.337 -1.7149 0.546924 0
M  V30 2770 H 256.712 -0.58675 0.47035 0
M  V30 2771 H 258.683 -1.69736 2.45423 0
M  V30 2772 C 257.432 -3.16087 1.4486 0
M  V30 2773 H 256.755 -3.26378 2.30905 0
M  V30 2774 H 258.195 -3.95349 1.53217 0
M  V30 2775 C 256.654 -3.36484 0.167463 0
M  V30 2776 O 257.184 -3.94298 -0.767609 0
M  V30 2777 N 255.39 -2.90504 0.0747556 0
M  V30 2778 H 254.937 -2.4364 0.836507 0
M  V30 2779 H 254.895 -3.04527 -0.781714 0
M  V30 2780 N 258.668 -1.30515 -0.883378 0
M  V30 2781 C 259.916 -1.19194 -1.63209 0
M  V30 2782 C 260.237 0.253205 -1.93349 0
M  V30 2783 O 259.507 1.17025 -1.57105 0
M  V30 2784 H 258.087 -0.438148 -0.605009 0
M  V30 2785 H 260.749 -1.63663 -1.05832 0
M  V30 2786 H 259.845 -1.75396 -2.58153 0
M  V30 2787 N 260.146 1.09593 -1.13257 0
M  V30 2788 C 261.423 1.78293 -0.804432 0
M  V30 2789 C 261.803 1.99004 0.70431 0
M  V30 2790 O 261.151 1.59007 1.641 0
M  V30 2791 C 261.361 3.10707 -1.5894 0
M  V30 2792 C 262.709 3.85443 -1.78099 0
M  V30 2793 O 263.733 3.20454 -1.55525 0
M  V30 2794 O 262.592 5.02108 -2.15753 0
M  V30 2795 H 259.686 0.773156 -0.293528 0
M  V30 2796 H 262.232 1.16164 -1.23709 0
M  V30 2797 H 261.004 2.91106 -2.61482 0
M  V30 2798 H 260.627 3.80558 -1.15157 0
M  V30 2799 N 261.624 0.925811 1.2754 0
M  V30 2800 C 262.852 0.581509 1.9856 0
M  V30 2801 C 263.267 -0.840041 1.69082 0
M  V30 2802 O 262.624 -1.55805 0.950312 0
M  V30 2803 C 262.675 0.795589 3.52637 0
M  V30 2804 O 262.396 2.16121 3.81082 0
M  V30 2805 C 263.897 0.459744 4.4091 0
M  V30 2806 H 261.117 0.220538 0.633722 0
M  V30 2807 H 263.661 1.24232 1.6244 0
M  V30 2808 H 261.816 0.18161 3.86974 0
M  V30 2809 H 262.23 2.2098 4.75676 0
M  V30 2810 H 263.704 0.660244 5.48037 0
M  V30 2811 H 264.181 -0.604625 4.35018 0
M  V30 2812 H 264.787 1.05178 4.12089 0
M  V30 2813 N 263.102 -1.41638 0.69111 0
M  V30 2814 C 264.032 -2.3347 0.037248 0
M  V30 2815 C 265.013 -1.51575 -0.771947 0
M  V30 2816 O 266.198 -1.80126 -0.72582 0
M  V30 2817 C 263.328 -3.35354 -0.903064 0
M  V30 2818 C 262.282 -4.27526 -0.201288 0
M  V30 2819 C 261.608 -5.19747 -1.25565 0
M  V30 2820 C 262.908 -5.13959 0.929689 0
M  V30 2821 H 264.602 -2.88397 0.804227 0
M  V30 2822 H 262.148 -1.38669 0.388189 0
M  V30 2823 H 264.101 -3.98519 -1.36969 0
M  V30 2824 H 262.825 -2.78767 -1.70166 0
M  V30 2825 H 261.484 -3.65779 0.245265 0
M  V30 2826 H 261.132 -4.59479 -2.04666 0
M  V30 2827 H 260.832 -5.8225 -0.791128 0
M  V30 2828 H 262.356 -5.85789 -1.72288 0
M  V30 2829 H 263.77 -5.70718 0.543546 0
M  V30 2830 H 262.167 -5.85379 1.32103 0
M  V30 2831 H 263.237 -4.51389 1.77133 0
M  V30 2832 N 264.58 -0.43555 -1.51462 0
M  V30 2833 C 265.81 0.130053 -2.0619 0
M  V30 2834 C 266.218 1.37164 -1.30317 0
M  V30 2835 O 265.561 1.80225 -0.355598 0
M  V30 2836 C 265.623 0.519418 -3.55728 0
M  V30 2837 C 265.287 -0.615119 -4.52841 0
M  V30 2838 C 266.284 -1.48671 -4.9819 0
M  V30 2839 C 263.969 -0.795341 -4.95963 0
M  V30 2840 C 265.963 -2.52324 -5.8533 0
M  V30 2841 C 263.65 -1.83514 -5.82894 0
M  V30 2842 C 264.648 -2.69748 -6.27475 0
M  V30 2843 O 264.336 -3.71944 -7.1268 0
M  V30 2844 H 264.068 0.0121612 -0.675891 0
M  V30 2845 H 266.622 -0.6129 -1.96043 0
M  V30 2846 H 264.852 1.31505 -3.63653 0
M  V30 2847 H 266.541 1.01597 -3.92979 0
M  V30 2848 H 267.307 -1.359 -4.65571 0
M  V30 2849 H 263.186 -0.133713 -4.60806 0
M  V30 2850 H 266.73 -3.19665 -6.20048 0
M  V30 2851 H 262.627 -1.96306 -6.14926 0
M  V30 2852 H 263.395 -3.68503 -7.30854 0
M  V30 2853 N 266.058 1.56714 -0.166846 0
M  V30 2854 C 267.286 2.0112 0.485644 0
M  V30 2855 C 267.701 1.04705 1.57106 0
M  V30 2856 O 267.058 0.0471923 1.82439 0
M  V30 2857 C 267.109 3.45361 1.06808 0
M  V30 2858 O 266.83 4.38092 0.0259995 0
M  V30 2859 C 268.331 4.05145 1.79924 0
M  V30 2860 H 265.551 0.65931 0.124704 0
M  V30 2861 H 268.095 2.02746 -0.267262 0
M  V30 2862 H 266.25 3.44524 1.7715 0
M  V30 2863 H 266.664 5.22519 0.455398 0
M  V30 2864 H 268.138 5.08009 2.15942 0
M  V30 2865 H 268.615 3.46982 2.69258 0
M  V30 2866 H 269.221 4.09672 1.14234 0
M  V30 2867 N 267.536 -0.106894 1.57237 0
M  V30 2868 C 268.776 -0.818277 1.87306 0
M  V30 2869 C 269.14 -1.76474 0.756371 0
M  V30 2870 O 270.341 -2.5186 0.939155 0
M  V30 2871 C 268.612 -1.53806 3.22612 0
M  V30 2872 S 270.171 -2.28935 3.74345 0
M  V30 2873 H 266.989 -0.272862 0.656557 0
M  V30 2874 H 269.591 -0.075988 1.95352 0
M  V30 2875 H 268.295 -0.834951 4.01817 0
M  V30 2876 H 267.826 -2.32049 3.17674 0
M  V30 2877 H 269.841 -3.54871 3.46815 0
M  V30 2878 N 269.014 -1.53014 -0.377408 0
M  V30 2879 C 269.977 -1.77957 -1.44444 0
M  V30 2880 C 270.977 -0.649763 -1.47087 0
M  V30 2881 O 272.167 -0.917897 -1.48055 0
M  V30 2882 C 269.299 -1.89089 -2.83651 0
M  V30 2883 H 270.492 -2.73243 -1.23606 0
M  V30 2884 H 268.045 -1.43912 -0.609844 0
M  V30 2885 H 268.78 -0.958293 -3.09818 0
M  V30 2886 H 268.565 -2.71254 -2.83132 0
M  V30 2887 H 270.055 -2.1002 -3.60945 0
M  V30 2888 N 270.492 0.636531 -1.44174 0
M  V30 2889 C 271.422 1.76003 -1.53444 0
M  V30 2890 C 272.403 1.65619 -0.387841 0
M  V30 2891 O 273.588 1.84461 -0.607257 0
M  V30 2892 C 270.718 3.14511 -1.4731 0
M  V30 2893 C 269.672 3.39677 -2.60391 0
M  V30 2894 C 268.998 4.78159 -2.39308 0
M  V30 2895 C 270.298 3.32772 -4.02567 0
M  V30 2896 H 271.992 1.68501 -2.47483 0
M  V30 2897 H 269.538 0.809237 -1.19111 0
M  V30 2898 H 271.491 3.92878 -1.52397 0
M  V30 2899 H 270.215 3.22783 -0.49785 0
M  V30 2900 H 268.874 2.63688 -2.54684 0
M  V30 2901 H 268.522 4.83128 -1.39988 0
M  V30 2902 H 268.222 4.95956 -3.15122 0
M  V30 2903 H 269.746 5.58762 -2.46205 0
M  V30 2904 H 271.16 4.01051 -4.09672 0
M  V30 2905 H 269.557 3.62104 -4.7854 0
M  V30 2906 H 270.627 2.30669 -4.2652 0
M  V30 2907 N 271.97 1.30982 0.876444 0
M  V30 2908 C 273.386 1.09498 1.16113 0
M  V30 2909 C 273.586 -0.13875 2.01022 0
M  V30 2910 O 272.642 -0.829935 2.38471 0
M  V30 2911 C 273.955 2.36308 1.85954 0
M  V30 2912 C 275.503 2.41856 1.98683 0
M  V30 2913 C 275.978 3.6853 2.71937 0
M  V30 2914 N 277.469 3.69387 2.79477 0
M  V30 2915 C 278.204 4.64096 3.36753 0
M  V30 2916 N 277.7 5.69155 3.95012 0
M  V30 2917 N 279.493 4.51626 3.3465 0
M  V30 2918 H 271.644 2.10118 0.310494 0
M  V30 2919 H 273.907 0.926634 0.200131 0
M  V30 2920 H 273.613 3.26388 1.31011 0
M  V30 2921 H 273.487 2.4561 2.86278 0
M  V30 2922 H 275.874 1.52249 2.52793 0
M  V30 2923 H 275.955 2.36523 0.9742 0
M  V30 2924 H 275.599 4.58499 2.18496 0
M  V30 2925 H 275.529 3.71127 3.73593 0
M  V30 2926 H 278.02 2.93438 2.38123 0
M  V30 2927 H 278.333 6.3751 4.36808 0
M  V30 2928 H 276.678 5.72937 3.93406 0
M  V30 2929 H 279.869 3.68728 2.8837 0
M  V30 2930 H 280.042 5.25614 3.7899 0
M  V30 2931 N 273.449 -1.08991 1.13837 0
M  V30 2932 C 274.86 -1.62746 0.914917 0
M  V30 2933 C 275.211 -1.88403 -0.547594 0
M  V30 2934 O 274.336 -1.63706 -1.41525 0
M  V30 2935 C 274.931 -2.95662 1.65437 0
M  V30 2936 C 273.49 -3.46225 1.47666 0
M  V30 2937 C 272.637 -2.20562 1.6807 0
M  V30 2938 H 275.588 -0.922946 1.29102 0
M  V30 2939 H 275.609 -3.63825 1.11407 0
M  V30 2940 H 275.121 -2.76956 2.71877 0
M  V30 2941 H 273.222 -3.70046 0.435478 0
M  V30 2942 H 273.335 -4.23368 2.24268 0
M  V30 2943 H 271.699 -2.29439 1.10589 0
M  V30 2944 H 272.482 -2.0437 2.7584 0
M  V30 2945 N 274.927 -0.932562 -1.27047 0
M  V30 2946 C 276.155 -0.592031 -1.98249 0
M  V30 2947 C 276.57 0.831062 -1.69525 0
M  V30 2948 O 275.927 1.55299 -0.958561 0
M  V30 2949 C 275.978 -0.814279 -3.5221 0
M  V30 2950 O 275.699 -2.18139 -3.7993 0
M  V30 2951 C 277.2 -0.483121 -4.4066 0
M  V30 2952 H 274.42 -0.223896 -0.632544 0
M  V30 2953 H 276.964 -1.25091 -1.61779 0
M  V30 2954 H 275.119 -0.20213 -3.86872 0
M  V30 2955 H 275.533 -2.235 -4.74498 0
M  V30 2956 H 277.007 -0.689298 -5.47679 0
M  V30 2957 H 277.484 0.581546 -4.35333 0
M  V30 2958 H 278.09 -1.07362 -4.11526 0
M  V30 2959 N 276.405 1.4127 -0.698611 0
M  V30 2960 C 277.635 2.05205 -0.239644 0
M  V30 2961 C 278.043 1.52684 1.11733 0
M  V30 2962 O 277.386 0.671222 1.70998 0
M  V30 2963 C 277.448 3.59289 -0.123126 0
M  V30 2964 C 277.112 4.34619 -1.41263 0
M  V30 2965 C 278.109 4.63701 -2.35111 0
M  V30 2966 C 275.794 4.73837 -1.66684 0
M  V30 2967 C 277.788 5.30966 -3.52639 0
M  V30 2968 C 275.475 5.40837 -2.84498 0
M  V30 2969 C 276.473 5.69329 -3.77298 0
M  V30 2970 O 276.161 6.34949 -4.93047 0
M  V30 2971 H 275.893 0.66723 -0.108537 0
M  V30 2972 H 278.447 1.81974 -0.952602 0
M  V30 2973 H 276.677 3.81272 0.645628 0
M  V30 2974 H 278.366 4.04797 0.299056 0
M  V30 2975 H 279.132 4.33882 -2.16729 0
M  V30 2976 H 275.011 4.51039 -0.953135 0
M  V30 2977 H 278.555 5.53121 -4.25091 0
M  V30 2978 H 274.452 5.70075 -3.02795 0
M  V30 2979 H 275.22 6.53445 -4.92902 0
M  V30 2980 N 277.883 0.443576 1.51229 0
M  V30 2981 C 279.132 -0.122332 2.01329 0
M  V30 2982 C 279.445 -1.43237 1.33201 0
M  V30 2983 O 280.651 -2.0816 1.74304 0
M  V30 2984 C 279.107 -0.268551 3.58897 0
M  V30 2985 C 278.715 1.03142 4.35965 0
M  V30 2986 C 280.459 -0.787894 4.17124 0
M  V30 2987 C 278.366 0.850504 5.85252 0
M  V30 2988 H 277.296 -0.0494929 0.752374 0
M  V30 2989 H 279.947 0.574289 1.74282 0
M  V30 2990 H 278.329 -1.02832 3.82415 0
M  V30 2991 H 279.503 1.80001 4.24189 0
M  V30 2992 H 277.818 1.47977 3.89219 0
M  V30 2993 H 280.415 -0.939841 5.26375 0
M  V30 2994 H 280.758 -1.77201 3.76703 0
M  V30 2995 H 281.291 -0.0862669 3.97706 0
M  V30 2996 H 278.03 1.80718 6.30096 0
M  V30 2997 H 277.55 0.121825 5.99676 0
M  V30 2998 H 279.229 0.506163 6.45017 0
M  V30 2999 N 279.361 -1.56624 0.175154 0
M  V30 3000 C 280.591 -2.01082 -0.474283 0
M  V30 3001 C 280.999 -1.05447 -1.57091 0
M  V30 3002 O 280.342 -0.0480595 -1.83637 0
M  V30 3003 C 280.404 -3.41963 -1.10911 0
M  V30 3004 C 280.068 -4.56742 -0.153666 0
M  V30 3005 C 281.065 -5.16076 0.629448 0
M  V30 3006 C 278.75 -5.02277 -0.0483776 0
M  V30 3007 C 280.744 -6.19377 1.50501 0
M  V30 3008 C 278.431 -6.05427 0.830768 0
M  V30 3009 C 279.429 -6.63849 1.60605 0
M  V30 3010 O 279.117 -7.64998 2.47049 0
M  V30 3011 H 278.849 -0.664261 -0.125432 0
M  V30 3012 H 281.403 -2.03549 0.275163 0
M  V30 3013 H 279.633 -3.36422 -1.90676 0
M  V30 3014 H 281.322 -3.70352 -1.66114 0
M  V30 3015 H 282.088 -4.81776 0.558297 0
M  V30 3016 H 277.967 -4.56513 -0.641611 0
M  V30 3017 H 281.511 -6.64906 2.1106 0
M  V30 3018 H 277.408 -6.39151 0.903107 0
M  V30 3019 H 278.176 -7.82336 2.40607 0
M  V30 3020 N 280.839 0.0985539 -1.57292 0
M  V30 3021 C 282.087 0.801092 -1.85545 0
M  V30 3022 C 282.408 1.79438 -0.763353 0
M  V30 3023 O 281.678 1.94763 0.21073 0
M  V30 3024 H 280.258 0.29884 -0.684619 0
M  V30 3025 H 282.92 0.0810064 -1.94732 0
M  V30 3026 H 282.016 1.3338 -2.82163 0
M  V30 3027 N 282.317 1.53212 0.369288 0
M  V30 3028 C 283.227 1.82342 1.47609 0
M  V30 3029 C 284.243 0.711532 1.58787 0
M  V30 3030 O 285.419 1.0012 1.74751 0
M  V30 3031 C 282.484 2.00393 2.8292 0
M  V30 3032 C 281.545 3.24297 2.81301 0
M  V30 3033 C 280.778 3.41478 4.10157 0
M  V30 3034 O 281.001 2.63033 5.06132 0
M  V30 3035 O 279.935 4.34817 4.16194 0
M  V30 3036 H 283.761 2.76366 1.25918 0
M  V30 3037 H 281.346 1.38547 0.559034 0
M  V30 3038 H 283.228 2.13859 3.63101 0
M  V30 3039 H 281.903 1.09559 3.04596 0
M  V30 3040 H 280.81 3.16257 1.99831 0
M  V30 3041 H 282.143 4.15041 2.64578 0
M  V30 3042 N 283.795 -0.628877 1.44509 0
M  V30 3043 C 285.043 -1.38565 1.4712 0
M  V30 3044 C 285.364 -1.94712 0.105899 0
M  V30 3045 O 284.634 -1.75912 -0.862079 0
M  V30 3046 H 283.214 -0.514333 0.541729 0
M  V30 3047 H 285.876 -0.740018 1.80305 0
M  V30 3048 H 284.972 -2.21583 2.19789 0
M  V30 3049 N 285.273 -1.31445 -0.869486 0
M  V30 3050 C 286.521 -1.20918 -1.61936 0
M  V30 3051 C 286.842 0.232683 -1.93607 0
M  V30 3052 O 286.112 1.15352 -1.58338 0
M  V30 3053 H 284.692 -0.44454 -0.600328 0
M  V30 3054 H 287.354 -1.64776 -1.0409 0
M  V30 3055 H 286.45 -1.78124 -2.56278 0
M  V30 3056 N 286.751 1.08385 -1.14413 0
M  V30 3057 C 288.162 1.62258 -0.923535 0
M  V30 3058 C 288.513 1.88691 0.537595 0
M  V30 3059 O 287.638 1.64454 1.40655 0
M  V30 3060 C 288.233 2.94781 -1.67002 0
M  V30 3061 C 286.792 3.45437 -1.495 0
M  V30 3062 C 285.939 2.19668 -1.69238 0
M  V30 3063 H 288.89 0.916086 -1.2959 0
M  V30 3064 H 288.911 3.63229 -1.13334 0
M  V30 3065 H 288.423 2.7551 -2.73342 0
M  V30 3066 H 286.524 3.6981 -0.455097 0
M  V30 3067 H 286.637 4.22173 -2.2651 0
M  V30 3068 H 285.001 2.28849 -1.11804 0
M  V30 3069 H 285.784 2.02905 -2.7692 0
M  V30 3070 N 288.23 0.939286 1.26551 0
M  V30 3071 C 289.477 0.585847 1.9384 0
M  V30 3072 C 289.805 -0.874784 1.73718 0
M  V30 3073 O 289.06 -1.64092 1.06642 0
M  V30 3074 C 289.359 0.872106 3.46596 0
M  V30 3075 C 289.025 2.31632 3.86856 0
M  V30 3076 C 287.687 2.71111 3.97558 0
M  V30 3077 C 290.039 3.25494 4.07066 0
M  V30 3078 C 287.367 4.03553 4.25866 0
M  V30 3079 C 289.719 4.57531 4.36862 0
M  V30 3080 C 288.383 4.96828 4.45778 0
M  V30 3081 H 287.653 0.214377 0.709312 0
M  V30 3082 H 290.3 1.18544 1.50398 0
M  V30 3083 H 288.605 0.18996 3.91339 0
M  V30 3084 H 290.302 0.577442 3.96821 0
M  V30 3085 H 286.892 2.00008 3.79071 0
M  V30 3086 H 291.076 2.9619 3.98227 0
M  V30 3087 H 286.332 4.33665 4.30981 0
M  V30 3088 H 290.506 5.30254 4.51446 0
M  V30 3089 H 288.133 5.99482 4.67468 0
M  V30 3090 N 289.708 -1.40897 0.706093 0
M  V30 3091 C 290.638 -2.33418 0.0620085 0
M  V30 3092 C 291.619 -1.52385 -0.755827 0
M  V30 3093 O 292.804 -1.80886 -0.706674 0
M  V30 3094 C 289.934 -3.36293 -0.867445 0
M  V30 3095 C 288.888 -4.27716 -0.155932 0
M  V30 3096 C 288.214 -5.2105 -1.20046 0
M  V30 3097 C 289.514 -5.12944 0.984149 0
M  V30 3098 H 291.208 -2.87527 0.83477 0
M  V30 3099 H 288.754 -1.38249 0.402875 0
M  V30 3100 H 290.707 -3.99949 -1.32735 0
M  V30 3101 H 289.431 -2.80556 -1.67199 0
M  V30 3102 H 288.09 -3.65498 0.284047 0
M  V30 3103 H 287.738 -4.61624 -1.99781 0
M  V30 3104 H 287.438 -5.83056 -0.729328 0
M  V30 3105 H 288.962 -5.87584 -1.66066 0
M  V30 3106 H 290.376 -5.70109 0.604048 0
M  V30 3107 H 288.773 -5.83945 1.38304 0
M  V30 3108 H 289.843 -4.49485 1.81911 0
M  V30 3109 N 291.186 -0.45159 -1.50991 0
M  V30 3110 C 292.411 0.110667 -2.07105 0
M  V30 3111 C 292.836 1.3446 -1.31538 0
M  V30 3112 O 292.194 1.77743 -0.357365 0
M  V30 3113 C 292.242 0.397238 -3.58405 0
M  V30 3114 O 291.346 1.48124 -3.84881 0
M  V30 3115 H 290.687 -0.00439271 -0.663985 0
M  V30 3116 H 293.217 -0.637026 -1.9443 0
M  V30 3117 H 293.227 0.64351 -4.02893 0
M  V30 3118 H 291.902 -0.504553 -4.12828 0
M  V30 3119 H 290.479 1.22381 -3.52246 0
M  V30 3120 N 292.664 1.56529 -0.183458 0
M  V30 3121 C 293.627 2.17324 0.728223 0
M  V30 3122 C 294.627 1.12453 1.14939 0
M  V30 3123 O 295.817 1.37902 1.06437 0
M  V30 3124 C 292.949 2.76591 1.99274 0
M  V30 3125 H 294.142 2.99241 0.198772 0
M  V30 3126 H 291.695 1.5616 0.0661391 0
M  V30 3127 H 292.43 1.98441 2.56499 0
M  V30 3128 H 292.215 3.5335 1.69959 0
M  V30 3129 H 293.705 3.23311 2.6431 0
M  V30 3130 N 294.142 -0.090211 1.57342 0
M  V30 3131 C 295.367 -0.810082 1.90925 0
M  V30 3132 C 295.792 -1.71248 0.778187 0
M  V30 3133 O 295.15 -1.79278 -0.269991 0
M  V30 3134 C 295.198 -1.59529 3.23393 0
M  V30 3135 O 294.302 -2.70461 3.11327 0
M  V30 3136 H 293.643 -0.222231 0.625707 0
M  V30 3137 H 296.173 -0.0639716 2.045 0
M  V30 3138 H 296.183 -1.97847 3.5682 0
M  V30 3139 H 294.858 -0.933055 4.05299 0
M  V30 3140 H 293.435 -2.35135 2.89423 0
M  V30 3141 N 295.62 -1.53406 -0.361157 0
M  V30 3142 C 296.869 -1.69022 -1.10066 0
M  V30 3143 C 297.182 -0.450838 -1.90333 0
M  V30 3144 O 298.388 -0.487617 -2.67085 0
M  V30 3145 C 296.844 -2.98812 -2.00598 0
M  V30 3146 C 296.452 -4.30027 -1.25621 0
M  V30 3147 C 298.196 -3.23795 -2.74513 0
M  V30 3148 C 296.103 -5.50903 -2.1508 0
M  V30 3149 H 295.033 -0.629776 -0.414606 0
M  V30 3150 H 297.684 -1.79907 -0.361348 0
M  V30 3151 H 296.066 -2.8174 -2.78278 0
M  V30 3152 H 297.24 -4.57745 -0.529739 0
M  V30 3153 H 295.555 -4.11522 -0.635496 0
M  V30 3154 H 298.152 -4.11289 -3.41681 0
M  V30 3155 H 298.495 -2.40045 -3.40123 0
M  V30 3156 H 299.028 -3.41561 -2.03914 0
M  V30 3157 H 295.767 -6.37143 -1.54041 0
M  V30 3158 H 295.287 -5.27459 -2.85565 0
M  V30 3159 H 296.966 -5.85865 -2.74538 0
M  V30 3160 N 297.098 0.621204 -1.44841 0
M  V30 3161 C 298.046 1.75385 -1.52784 0
M  V30 3162 C 299.04 1.64639 -0.398779 0
M  V30 3163 O 300.246 1.70598 -0.574137 0
M  V30 3164 H 296.621 0.579193 -0.479625 0
M  V30 3165 H 298.592 1.6581 -2.48092 0
M  V30 3166 C 297.341 3.13742 -1.4987 0
M  V30 3167 H 296.664 3.22663 -2.36069 0
M  V30 3168 H 298.104 3.92861 -1.59487 0
M  V30 3169 C 296.563 3.36175 -0.220973 0
M  V30 3170 O 297.093 3.95469 0.704782 0
M  V30 3171 N 295.299 2.90348 -0.120963 0
M  V30 3172 H 294.846 2.42278 -0.875162 0
M  V30 3173 H 294.804 3.05732 0.733168 0
M  V30 3174 N 298.576 1.31904 0.862503 0
M  V30 3175 C 299.486 1.22161 2.00285 0
M  V30 3176 C 300.502 0.136785 1.73462 0
M  V30 3177 O 301.678 0.355994 1.98229 0
M  V30 3178 C 298.743 0.937093 3.33796 0
M  V30 3179 C 297.804 2.10957 3.73893 0
M  V30 3180 C 297.037 1.83853 5.01033 0
M  V30 3181 O 297.26 0.777274 5.65079 0
M  V30 3182 O 296.194 2.69741 5.38074 0
M  V30 3183 H 300.02 2.18008 2.11439 0
M  V30 3184 H 297.605 1.11716 0.991957 0
M  V30 3185 H 299.487 0.794583 4.13841 0
M  V30 3186 H 298.162 0.00871894 3.23699 0
M  V30 3187 H 297.069 2.30752 2.94456 0
M  V30 3188 H 298.402 3.02046 3.88625 0
M  V30 3189 N 300.054 -1.07777 1.14986 0
M  V30 3190 C 301.017 -2.13041 0.845358 0
M  V30 3191 C 302.017 -1.60071 -0.152931 0
M  V30 3192 O 303.207 -1.74033 0.0761879 0
M  V30 3193 C 300.339 -3.39896 0.261383 0
M  V30 3194 H 301.532 -2.41485 1.77834 0
M  V30 3195 H 299.085 -1.23595 0.956757 0
M  V30 3196 H 299.82 -3.17091 -0.68 0
M  V30 3197 H 299.605 -3.79642 0.980514 0
M  V30 3198 H 301.095 -4.17548 0.0657687 0
M  V30 3199 N 301.532 -0.945985 -1.26051 0
M  V30 3200 C 302.462 -0.477172 -2.28572 0
M  V30 3201 C 303.443 0.472032 -1.63419 0
M  V30 3202 O 304.628 0.372853 -1.90587 0
M  V30 3203 C 301.758 0.253975 -3.4637 0
M  V30 3204 C 300.712 -0.609135 -4.23643 0
M  V30 3205 C 300.038 0.252252 -5.34105 0
M  V30 3206 C 301.338 -1.8829 -4.8718 0
M  V30 3207 H 303.032 -1.33402 -2.68038 0
M  V30 3208 H 300.578 -0.642904 -1.28852 0
M  V30 3209 H 302.531 0.593016 -4.17207 0
M  V30 3210 H 301.255 1.145 -3.05871 0
M  V30 3211 H 299.914 -0.931138 -3.54578 0
M  V30 3212 H 299.562 1.14278 -4.89846 0
M  V30 3213 H 299.262 -0.32188 -5.86718 0
M  V30 3214 H 300.786 0.586454 -6.07777 0
M  V30 3215 H 302.2 -1.61081 -5.50205 0
M  V30 3216 H 300.597 -2.40199 -5.49931 0
M  V30 3217 H 301.667 -2.59134 -4.09851 0
M  V30 3218 N 303.011 1.40521 -0.713556 0
M  V30 3219 C 303.959 2.32549 -0.0485227 0
M  V30 3220 C 304.953 1.51931 0.74922 0
M  V30 3221 O 306.159 1.67745 0.652816 0
M  V30 3222 H 302.534 0.751994 0.00311138 0
M  V30 3223 H 304.505 2.86291 -0.841443 0
M  V30 3224 C 303.254 3.36879 0.860687 0
M  V30 3225 H 302.577 3.98978 0.256246 0
M  V30 3226 H 304.017 4.03772 1.294 0
M  V30 3227 C 302.476 2.72197 1.9852 0
M  V30 3228 O 303.006 2.5837 3.07584 0
M  V30 3229 N 301.212 2.30612 1.76823 0
M  V30 3230 H 300.759 2.42059 0.881217 0
M  V30 3231 H 300.717 1.87672 2.52243 0
M  V30 3232 N 304.489 0.459591 1.5075 0
M  V30 3233 C 305.437 -0.354678 2.2988 0
M  V30 3234 C 306.431 -1.00086 1.36672 0
M  V30 3235 O 307.637 -0.933277 1.53915 0
M  V30 3236 H 304.012 -0.13321 0.740107 0
M  V30 3237 H 305.983 0.333269 2.96533 0
M  V30 3238 C 304.732 -1.43073 3.169 0
M  V30 3239 H 304.055 -0.942882 3.88523 0
M  V30 3240 H 305.495 -1.97328 3.75284 0
M  V30 3241 C 303.954 -2.42633 2.33732 0
M  V30 3242 O 304.484 -3.47658 2.01238 0
M  V30 3243 N 302.69 -2.14066 1.9653 0
M  V30 3244 H 302.237 -1.28685 2.23155 0
M  V30 3245 H 302.195 -2.80917 1.41185 0
M  V30 3246 N 305.967 -1.56429 0.191757 0
M  V30 3247 C 306.915 -2.20273 -0.747174 0
M  V30 3248 C 307.909 -1.17288 -1.22229 0
M  V30 3249 O 309.115 -1.35441 -1.18557 0
M  V30 3250 H 305.49 -0.705885 -0.259289 0
M  V30 3251 H 307.461 -2.97826 -0.184963 0
M  V30 3252 C 306.21 -2.87356 -1.95759 0
M  V30 3253 H 305.533 -3.66341 -1.60106 0
M  V30 3254 H 306.973 -3.3547 -2.59299 0
M  V30 3255 C 305.432 -1.88213 -2.79423 0
M  V30 3256 O 305.962 -1.38033 -3.7724 0
M  V30 3257 N 304.168 -1.56516 -2.44849 0
M  V30 3258 H 303.715 -1.97516 -1.65364 0
M  V30 3259 H 303.673 -0.904369 -3.01112 0
M  V30 3260 N 307.445 0.0818655 -1.57387 0
M  V30 3261 C 308.693 0.781368 -1.86384 0
M  V30 3262 C 309.014 1.78618 -0.782342 0
M  V30 3263 O 308.284 1.94976 0.190061 0
M  V30 3264 H 306.864 0.291562 -0.687751 0
M  V30 3265 H 309.526 0.060348 -1.94807 0
M  V30 3266 H 308.622 1.3038 -2.83562 0
M  V30 3267 N 308.923 1.53595 0.353017 0
M  V30 3268 C 310.172 1.69603 1.09168 0
M  V30 3269 C 310.485 0.460925 1.90092 0
M  V30 3270 O 311.691 0.501774 2.66823 0
M  V30 3271 C 310.147 2.99872 1.9901 0
M  V30 3272 C 309.755 4.30687 1.23339 0
M  V30 3273 C 311.499 3.25246 2.72792 0
M  V30 3274 C 309.406 5.52036 2.12156 0
M  V30 3275 H 308.336 0.631966 0.411261 0
M  V30 3276 H 310.987 1.80096 0.351802 0
M  V30 3277 H 309.369 2.83212 2.7678 0
M  V30 3278 H 310.543 4.58019 0.505456 0
M  V30 3279 H 308.858 4.11853 0.613663 0
M  V30 3280 H 311.455 4.13095 3.39495 0
M  V30 3281 H 311.798 2.41846 3.38846 0
M  V30 3282 H 312.331 3.42638 2.021 0
M  V30 3283 H 309.07 6.37951 1.50659 0
M  V30 3284 H 308.59 5.28966 2.82764 0
M  V30 3285 H 310.269 5.87313 2.71427 0
M  V30 3286 N 310.401 -0.613514 1.45168 0
M  V30 3287 C 311.331 -1.7354 1.56225 0
M  V30 3288 C 312.312 -1.64981 0.41414 0
M  V30 3289 O 313.497 -1.83472 0.636526 0
M  V30 3290 C 310.627 -3.12128 1.52295 0
M  V30 3291 C 309.581 -3.35491 2.65762 0
M  V30 3292 C 308.907 -4.74291 2.46885 0
M  V30 3293 C 310.207 -3.26325 4.0781 0
M  V30 3294 H 311.901 -1.64543 2.50132 0
M  V30 3295 H 309.447 -0.790185 1.20383 0
M  V30 3296 H 311.4 -3.90404 1.58628 0
M  V30 3297 H 310.124 -3.2195 0.549139 0
M  V30 3298 H 308.783 -2.59603 2.58847 0
M  V30 3299 H 308.431 -4.80839 1.47657 0
M  V30 3300 H 308.131 -4.9088 3.22972 0
M  V30 3301 H 309.655 -5.54775 2.55063 0
M  V30 3302 H 311.069 -3.94483 4.16 0
M  V30 3303 H 309.466 -3.54445 4.8424 0
M  V30 3304 H 310.536 -2.23855 4.30136 0
M  V30 3305 N 311.879 -1.3236 -0.855495 0
M  V30 3306 C 313.104 -1.2601 -1.64731 0
M  V30 3307 C 313.529 0.169068 -1.87339 0
M  V30 3308 O 312.887 1.12016 -1.42556 0
M  V30 3309 C 312.935 -2.02417 -2.98429 0
M  V30 3310 O 312.039 -1.3714 -3.8893 0
M  V30 3311 H 311.38 -0.434325 -0.502253 0
M  V30 3312 H 313.91 -1.74661 -1.06558 0
M  V30 3313 H 313.92 -2.12559 -3.48257 0
M  V30 3314 H 312.595 -3.06343 -2.81295 0
M  V30 3315 H 311.172 -1.3554 -3.47395 0
M  V30 3316 N 313.357 1.07166 -1.15556 0
M  V30 3317 C 314.582 1.84053 -0.955988 0
M  V30 3318 C 315.007 1.81586 0.490739 0
M  V30 3319 O 314.365 1.21018 1.34997 0
M  V30 3320 C 314.413 3.28957 -1.47714 0
M  V30 3321 O 313.517 4.06795 -0.677593 0
M  V30 3322 H 312.858 0.569842 -0.340847 0
M  V30 3323 H 315.388 1.35178 -1.53584 0
M  V30 3324 H 315.398 3.79788 -1.4908 0
M  V30 3325 H 314.073 3.30068 -2.53037 0
M  V30 3326 H 312.65 3.6561 -0.733721 0
M  V30 3327 N 314.835 0.952656 1.25548 0
M  V30 3328 C 316.081 0.607272 1.93494 0
M  V30 3329 C 316.414 -0.853245 1.74452 0
M  V30 3330 O 315.689 -1.61194 1.08843 0
M  V30 3331 C 315.972 0.96435 3.46947 0
M  V30 3332 C 315.825 2.48045 3.75225 0
M  V30 3333 C 317.144 0.487987 4.37386 0
M  V30 3334 H 314.263 0.222096 0.702739 0
M  V30 3335 H 316.905 1.18895 1.48203 0
M  V30 3336 H 315.055 0.469361 3.85654 0
M  V30 3337 H 316.727 3.04905 3.46166 0
M  V30 3338 H 314.97 2.919 3.209 0
M  V30 3339 H 315.641 2.6808 4.82532 0
M  V30 3340 H 318.117 0.912558 4.0597 0
M  V30 3341 H 316.993 0.766547 5.43521 0
M  V30 3342 H 317.254 -0.612063 4.37843 0
M  V30 3343 N 316.313 -1.40141 0.720998 0
M  V30 3344 C 317.561 -2.0039 0.262323 0
M  V30 3345 C 317.882 -1.57469 -1.15015 0
M  V30 3346 O 317.152 -0.816582 -1.78069 0
M  V30 3347 H 315.732 -0.741063 0.093996 0
M  V30 3348 H 318.394 -1.71398 0.927835 0
M  V30 3349 H 317.49 -3.10658 0.299671 0
M  V30 3350 N 317.792 -0.46758 -1.50504 0
M  V30 3351 C 318.739 0.328413 -2.28452 0
M  V30 3352 C 319.709 0.990313 -1.33349 0
M  V30 3353 O 320.894 1.00343 -1.62284 0
M  V30 3354 C 318.034 1.40648 -3.15138 0
M  V30 3355 C 317.147 0.759709 -4.25267 0
M  V30 3356 C 316.282 1.81537 -4.99217 0
M  V30 3357 C 315.321 1.14866 -6.01226 0
M  V30 3358 N 314.458 2.14702 -6.68467 0
M  V30 3359 H 319.298 -0.342603 -2.96024 0
M  V30 3360 H 316.835 -0.180801 -1.45985 0
M  V30 3361 H 318.793 2.04315 -3.63746 0
M  V30 3362 H 317.423 2.04671 -2.49619 0
M  V30 3363 H 316.475 0.0105671 -3.80399 0
M  V30 3364 H 317.787 0.233243 -4.98254 0
M  V30 3365 H 316.941 2.52793 -5.51526 0
M  V30 3366 H 315.68 2.37564 -4.25928 0
M  V30 3367 H 314.685 0.42171 -5.4818 0
M  V30 3368 H 315.91 0.595334 -6.76485 0
M  V30 3369 H 313.856 2.69752 -5.97972 0
M  V30 3370 H 313.773 1.6703 -7.37317 0
M  V30 3371 H 315.041 2.85348 -7.25394 0
M  V30 3372 N 319.27 1.56325 -0.20005 0
M  V30 3373 C 320.517 1.97719 0.437411 0
M  V30 3374 C 320.845 1.08709 1.61284 0
M  V30 3375 O 320.1 0.127261 1.95286 0
M  V30 3376 C 320.399 3.4495 0.935103 0
M  V30 3377 C 320.065 4.5072 -0.12749 0
M  V30 3378 C 318.727 4.79368 -0.419451 0
M  V30 3379 C 321.079 5.14268 -0.847231 0
M  V30 3380 C 318.407 5.68854 -1.43604 0
M  V30 3381 C 320.759 6.04852 -1.85301 0
M  V30 3382 C 319.423 6.31855 -2.15211 0
M  V30 3383 H 318.693 0.723507 0.16006 0
M  V30 3384 H 321.34 1.89166 -0.298056 0
M  V30 3385 H 319.645 3.50599 1.74894 0
M  V30 3386 H 321.342 3.74337 1.43781 0
M  V30 3387 H 317.932 4.28458 0.11023 0
M  V30 3388 H 322.116 4.92222 -0.634901 0
M  V30 3389 H 317.372 5.88047 -1.67364 0
M  V30 3390 H 321.546 6.53152 -2.41591 0
M  V30 3391 H 319.173 7.00994 -2.94129 0
M  V30 3392 N 320.748 -0.0735177 1.57428 0
M  V30 3393 C 321.973 -0.789787 1.91774 0
M  V30 3394 C 322.398 -1.70413 0.796306 0
M  V30 3395 O 321.756 -1.79555 -0.250961 0
M  V30 3396 C 321.804 -1.5609 3.25067 0
M  V30 3397 O 320.908 -2.67144 3.14178 0
M  V30 3398 H 320.249 -0.215582 0.628029 0
M  V30 3399 H 322.779 -0.0422781 2.04556 0
M  V30 3400 H 322.789 -1.94052 3.58898 0
M  V30 3401 H 321.464 -0.890015 4.06265 0
M  V30 3402 H 320.041 -2.32052 2.91901 0
M  V30 3403 N 322.226 -1.5378 -0.344866 0
M  V30 3404 C 323.454 -1.74899 -1.10534 0
M  V30 3405 C 323.869 -0.487534 -1.82397 0
M  V30 3406 O 323.226 0.540741 -1.74305 0
M  V30 3407 C 323.277 -2.92822 -2.11984 0
M  V30 3408 O 322.998 -4.14089 -1.43044 0
M  V30 3409 C 324.499 -3.25982 -3.00417 0
M  V30 3410 H 321.719 -0.584426 -0.329678 0
M  V30 3411 H 324.263 -2.006 -0.397474 0
M  V30 3412 H 322.418 -2.69457 -2.78338 0
M  V30 3413 H 322.832 -4.80272 -2.10805 0
M  V30 3414 H 324.306 -4.11848 -3.67539 0
M  V30 3415 H 324.783 -2.42228 -3.66363 0
M  V30 3416 H 325.389 -3.51349 -2.39654 0
M  V30 3417 N 323.704 0.605807 -1.45491 0
M  V30 3418 C 324.95 1.36679 -1.49823 0
M  V30 3419 C 325.283 1.93693 -0.140175 0
M  V30 3420 O 324.558 1.75158 0.845581 0
M  V30 3421 C 324.841 2.51337 -2.57879 0
M  V30 3422 C 324.694 1.99508 -4.03134 0
M  V30 3423 C 326.013 3.53463 -2.62205 0
M  V30 3424 H 323.132 0.495617 -0.545466 0
M  V30 3425 H 325.774 0.682732 -1.7731 0
M  V30 3426 H 323.924 3.09691 -2.34571 0
M  V30 3427 H 325.596 1.45789 -4.37656 0
M  V30 3428 H 323.839 1.30496 -4.13707 0
M  V30 3429 H 324.51 2.82169 -4.74431 0
M  V30 3430 H 326.986 3.04953 -2.83095 0
M  V30 3431 H 325.862 4.31178 -3.39672 0
M  V30 3432 H 326.123 4.09197 -1.67363 0
M  V30 3433 N 325.182 1.32811 0.848464 0
M  V30 3434 C 326.13 1.22231 1.97895 0
M  V30 3435 C 327.124 0.125749 1.68933 0
M  V30 3436 O 328.33 0.289083 1.77663 0
M  V30 3437 H 324.705 0.379058 0.649476 0
M  V30 3438 H 326.676 2.17828 2.03945 0
M  V30 3439 C 325.425 0.968572 3.33937 0
M  V30 3440 H 324.748 1.80458 3.56756 0
M  V30 3441 H 326.188 0.934808 4.13567 0
M  V30 3442 C 324.647 -0.328628 3.35293 0
M  V30 3443 O 325.177 -1.33848 3.78745 0
M  V30 3444 N 323.383 -0.352788 2.88451 0
M  V30 3445 H 322.93 0.469541 2.53285 0
M  V30 3446 H 322.888 -1.22057 2.89741 0
M  V30 3447 N 326.66 -1.06551 1.16123 0
M  V30 3448 C 328.071 -1.60768 0.949232 0
M  V30 3449 C 328.422 -1.89523 -0.507508 0
M  V30 3450 O 327.547 -1.66671 -1.38021 0
M  V30 3451 C 328.142 -2.92086 1.71671 0
M  V30 3452 C 326.701 -3.43015 1.54977 0
M  V30 3453 C 325.848 -2.16947 1.72711 0
M  V30 3454 H 328.799 -0.895354 1.31031 0
M  V30 3455 H 328.82 -3.6138 1.19099 0
M  V30 3456 H 328.332 -2.71127 2.7769 0
M  V30 3457 H 326.433 -3.69039 0.513873 0
M  V30 3458 H 326.546 -4.18516 2.33198 0
M  V30 3459 H 324.91 -2.27041 1.15431 0
M  V30 3460 H 325.693 -1.98473 2.80113 0
M  V30 3461 N 328.138 -0.959301 -1.25041 0
M  V30 3462 C 329.384 -0.617525 -1.9317 0
M  V30 3463 C 329.717 0.843981 -1.74902 0
M  V30 3464 O 328.992 1.60615 -1.09696 0
M  V30 3465 C 329.275 -0.982736 -3.46431 0
M  V30 3466 C 329.128 -2.50032 -3.73904 0
M  V30 3467 C 330.447 -0.511176 -4.37121 0
M  V30 3468 H 327.566 -0.22582 -0.701552 0
M  V30 3469 H 330.208 -1.19679 -1.4757 0
M  V30 3470 H 328.358 -0.489806 -3.854 0
M  V30 3471 H 330.03 -3.06737 -3.44544 0
M  V30 3472 H 328.273 -2.93598 -3.19348 0
M  V30 3473 H 328.944 -2.70635 -4.81103 0
M  V30 3474 H 331.42 -0.934075 -4.0548 0
M  V30 3475 H 330.296 -0.795361 -5.43107 0
M  V30 3476 H 330.557 0.588834 -4.38161 0
M  V30 3477 N 329.616 1.39756 -0.72842 0
M  V30 3478 C 330.846 2.04651 -0.283117 0
M  V30 3479 C 331.254 1.5502 1.08469 0
M  V30 3480 O 330.597 0.707343 1.69536 0
M  V30 3481 C 330.659 3.58947 -0.199309 0
M  V30 3482 C 330.323 4.31525 -1.5045 0
M  V30 3483 C 331.32 4.5861 -2.44894 0
M  V30 3484 C 329.005 4.70195 -1.76698 0
M  V30 3485 C 330.999 5.23366 -3.63822 0
M  V30 3486 C 328.686 5.3468 -2.95906 0
M  V30 3487 C 329.684 5.61198 -3.89289 0
M  V30 3488 O 329.372 6.24347 -5.06404 0
M  V30 3489 H 329.104 0.664777 -0.122666 0
M  V30 3490 H 331.658 1.79913 -0.990987 0
M  V30 3491 H 329.888 3.82556 0.56461 0
M  V30 3492 H 331.577 4.0534 0.213125 0
M  V30 3493 H 332.343 4.29187 -2.25883 0
M  V30 3494 H 328.222 4.48916 -1.04859 0
M  V30 3495 H 331.766 5.4398 -4.36728 0
M  V30 3496 H 327.663 5.63524 -3.14819 0
M  V30 3497 H 328.431 6.42842 -5.06652 0
M  V30 3498 N 331.094 0.475555 1.50254 0
M  V30 3499 C 332.34 -0.0780073 2.0265 0
M  V30 3500 C 332.673 -1.38968 1.35652 0
M  V30 3501 O 331.948 -1.8839 0.483691 0
M  V30 3502 C 332.231 -0.257161 3.59181 0
M  V30 3503 C 332.084 1.07585 4.36744 0
M  V30 3504 C 333.403 -1.00965 4.28362 0
M  V30 3505 H 330.522 -0.0268758 0.73651 0
M  V30 3506 H 333.164 0.622015 1.7953 0
M  V30 3507 H 331.314 -0.853412 3.79011 0
M  V30 3508 H 332.986 1.70902 4.28474 0
M  V30 3509 H 331.229 1.6714 4.00308 0
M  V30 3510 H 331.9 0.904088 5.44546 0
M  V30 3511 H 334.376 -0.504214 4.13034 0
M  V30 3512 H 333.252 -1.10381 5.37687 0
M  V30 3513 H 333.513 -2.04731 3.91839 0
M  V30 3514 N 332.573 -1.56217 0.208337 0
M  V30 3515 C 333.821 -1.97558 -0.426076 0
M  V30 3516 C 334.142 -1.09683 -1.61229 0
M  V30 3517 O 333.412 -0.170956 -1.95153 0
M  V30 3518 H 331.992 -0.729575 -0.160405 0
M  V30 3519 H 334.654 -1.92606 0.298155 0
M  V30 3520 H 333.75 -3.02672 -0.761312 0
M  V30 3521 N 334.051 0.0651679 -1.57465 0
M  V30 3522 C 334.999 1.09542 -2.05191 0
M  V30 3523 C 335.993 1.39675 -0.958509 0
M  V30 3524 O 337.199 1.39003 -1.14359 0
M  V30 3525 H 333.574 0.370623 -0.654326 0
M  V30 3526 H 335.545 0.666802 -2.90854 0
M  V30 3527 C 334.294 2.39881 -2.51699 0
M  V30 3528 H 333.617 2.17547 -3.3543 0
M  V30 3529 H 335.057 3.104 -2.88839 0
M  V30 3530 C 333.516 3.0631 -1.40271 0
M  V30 3531 O 334.046 3.94664 -0.748523 0
M  V30 3532 N 332.252 2.67041 -1.14618 0
M  V30 3533 H 331.799 1.95281 -1.67997 0
M  V30 3534 H 331.757 3.1181 -0.402688 0
M  V30 3535 N 335.529 1.53961 0.336706 0
M  V30 3536 C 336.775 1.7179 1.07777 0
M  V30 3537 C 337.108 0.483263 1.88091 0
M  V30 3538 O 336.383 -0.519747 1.87427 0
M  V30 3539 C 336.666 2.98558 2.01334 0
M  V30 3540 C 336.519 4.32245 1.24437 0
M  V30 3541 C 337.838 3.21023 3.01052 0
M  V30 3542 H 334.957 0.625089 0.390426 0
M  V30 3543 H 337.599 1.86641 0.35567 0
M  V30 3544 H 335.749 2.86028 2.62908 0
M  V30 3545 H 337.421 4.56637 0.654243 0
M  V30 3546 H 335.664 4.30344 0.546458 0
M  V30 3547 H 336.335 5.17137 1.93063 0
M  V30 3548 H 338.811 3.32929 2.49595 0
M  V30 3549 H 337.687 4.11104 3.6371 0
M  V30 3550 H 337.948 2.37637 3.72802 0
M  V30 3551 N 337.007 -0.598083 1.45811 0
M  V30 3552 C 337.97 -1.69018 1.54808 0
M  V30 3553 C 338.97 -1.55037 0.426652 0
M  V30 3554 O 340.16 -1.59932 0.690456 0
M  V30 3555 C 337.292 -3.0835 1.45371 0
M  V30 3556 H 338.485 -1.62403 2.52121 0
M  V30 3557 H 336.038 -0.814626 1.33392 0
M  V30 3558 H 336.773 -3.20534 0.492793 0
M  V30 3559 H 336.558 -3.19907 2.26721 0
M  V30 3560 H 338.048 -3.8788 1.54721 0
M  V30 3561 N 338.485 -1.33259 -0.841409 0
M  V30 3562 C 339.731 -1.25766 -1.59857 0
M  V30 3563 C 340.086 0.175602 -1.91597 0
M  V30 3564 O 339.379 1.117 -1.55672 0
M  V30 3565 C 339.573 -2.06381 -2.9179 0
M  V30 3566 C 339.402 -3.57401 -2.72937 0
M  V30 3567 C 338.172 -4.26718 -2.70628 0
M  V30 3568 C 340.37 -4.51786 -2.45753 0
M  V30 3569 N 338.352 -5.63705 -2.43125 0
M  V30 3570 C 339.723 -5.76643 -2.27777 0
M  V30 3571 C 341.778 -4.40898 -2.31329 0
M  V30 3572 C 340.481 -6.91842 -1.96841 0
M  V30 3573 C 342.507 -5.55911 -2.01786 0
M  V30 3574 C 341.869 -6.79776 -1.8462 0
M  V30 3575 H 337.968 -0.515406 -0.588117 0
M  V30 3576 H 340.552 -1.67772 -0.987955 0
M  V30 3577 H 338.723 -1.667 -3.50807 0
M  V30 3578 H 340.455 -1.90678 -3.56965 0
M  V30 3579 H 337.21 -3.78968 -2.84043 0
M  V30 3580 H 337.634 -6.35911 -2.32265 0
M  V30 3581 H 342.276 -3.45772 -2.43314 0
M  V30 3582 H 339.994 -7.86968 -1.83594 0
M  V30 3583 H 343.58 -5.49421 -1.91384 0
M  V30 3584 H 342.46 -7.67266 -1.62088 0
M  V30 3585 N 339.963 1.05934 -1.16686 0
M  V30 3586 C 340.926 2.11669 -0.879144 0
M  V30 3587 C 341.926 1.60294 0.127445 0
M  V30 3588 O 343.116 1.7389 -0.103865 0
M  V30 3589 C 340.248 3.39438 -0.315425 0
M  V30 3590 H 341.441 2.38626 -1.81653 0
M  V30 3591 H 338.994 1.22058 -0.976299 0
M  V30 3592 H 339.729 3.18132 0.629468 0
M  V30 3593 H 339.514 3.78034 -1.04079 0
M  V30 3594 H 341.004 4.17391 -0.132189 0
M  V30 3595 N 341.441 0.965919 1.2453 0
M  V30 3596 C 342.391 0.465731 2.23193 0
M  V30 3597 C 343.375 -0.451277 1.54442 0
M  V30 3598 O 344.567 -0.282489 1.74731 0
M  V30 3599 C 341.696 -0.244511 3.42428 0
M  V30 3600 C 340.782 0.691222 4.18429 0
M  V30 3601 N 341.173 1.82771 4.71623 0
M  V30 3602 C 339.471 0.501649 4.4317 0
M  V30 3603 C 340.172 2.41285 5.29298 0
M  V30 3604 N 339.148 1.69819 5.16394 0
M  V30 3605 H 342.95 1.33291 2.61937 0
M  V30 3606 H 340.464 0.824789 1.39896 0
M  V30 3607 H 342.461 -0.620056 4.12263 0
M  V30 3608 H 341.121 -1.10815 3.05205 0
M  V30 3609 H 342.132 2.20929 4.68413 0
M  V30 3610 H 338.809 -0.318177 4.16286 0
M  V30 3611 H 340.199 3.37181 5.8117 0
M  V30 3612 N 342.919 -1.39368 0.735821 0
M  V30 3613 C 344.168 -1.99733 0.281004 0
M  V30 3614 C 344.481 -1.59055 -1.13846 0
M  V30 3615 O 345.687 -2.12262 -1.69284 0
M  V30 3616 C 344.143 -3.57057 0.451462 0
M  V30 3617 C 343.751 -4.06697 1.87886 0
M  V30 3618 C 345.495 -4.2446 0.0584616 0
M  V30 3619 C 343.402 -5.56598 1.99883 0
M  V30 3620 H 342.332 -0.747163 0.101311 0
M  V30 3621 H 344.983 -1.59357 0.909819 0
M  V30 3622 H 343.365 -3.95234 -0.246263 0
M  V30 3623 H 344.539 -3.79853 2.60861 0
M  V30 3624 H 342.854 -3.5196 2.22515 0
M  V30 3625 H 345.451 -5.34549 0.127099 0
M  V30 3626 H 345.794 -4.04444 -0.986433 0
M  V30 3627 H 346.327 -3.9146 0.707374 0
M  V30 3628 H 343.066 -5.81494 3.02564 0
M  V30 3629 H 342.586 -5.85242 1.31346 0
M  V30 3630 H 344.265 -6.22022 1.78039 0
M  V30 3631 N 344.397 -0.483516 -1.5 0
M  V30 3632 C 345.327 0.293829 -2.31644 0
M  V30 3633 C 346.308 0.978864 -1.39112 0
M  V30 3634 O 347.493 0.973644 -1.68029 0
M  V30 3635 C 344.623 1.36897 -3.19181 0
M  V30 3636 C 343.577 0.804833 -4.20365 0
M  V30 3637 C 342.903 1.9792 -4.96721 0
M  V30 3638 C 344.203 -0.192313 -5.21946 0
M  V30 3639 H 345.897 -0.387616 -2.9688 0
M  V30 3640 H 343.443 -0.187856 -1.42769 0
M  V30 3641 H 345.396 1.92037 -3.751 0
M  V30 3642 H 344.12 2.07936 -2.51853 0
M  V30 3643 H 342.779 0.275319 -3.65565 0
M  V30 3644 H 342.427 2.67686 -4.25856 0
M  V30 3645 H 342.127 1.60789 -5.65173 0
M  V30 3646 H 343.651 2.53526 -5.55479 0
M  V30 3647 H 345.065 0.270333 -5.72662 0
M  V30 3648 H 343.462 -0.478543 -5.98189 0
M  V30 3649 H 344.532 -1.11409 -4.71928 0
M  V30 3650 N 345.875 1.56104 -0.216619 0
M  V30 3651 C 346.838 2.18819 0.681962 0
M  V30 3652 C 347.838 1.14866 1.12528 0
M  V30 3653 O 349.028 1.40128 1.03488 0
M  V30 3654 C 346.16 2.80756 1.93362 0
M  V30 3655 H 347.353 2.99595 0.135254 0
M  V30 3656 H 344.906 1.56265 0.0330003 0
M  V30 3657 H 345.641 2.03837 2.52232 0
M  V30 3658 H 345.426 3.56876 1.62426 0
M  V30 3659 H 346.916 3.28844 2.57393 0
M  V30 3660 N 347.353 -0.0568162 1.57498 0
M  V30 3661 C 348.283 -1.06593 2.0775 0
M  V30 3662 C 349.264 -1.39448 0.974082 0
M  V30 3663 O 350.449 -1.48815 1.24771 0
M  V30 3664 C 347.579 -2.37509 2.5339 0
M  V30 3665 C 346.533 -2.1897 3.67745 0
M  V30 3666 C 345.859 -3.55402 3.99492 0
M  V30 3667 C 347.159 -1.59859 4.97235 0
M  V30 3668 H 348.853 -0.647706 2.9231 0
M  V30 3669 H 346.399 -0.310116 1.40621 0
M  V30 3670 H 348.352 -3.08409 2.87162 0
M  V30 3671 H 347.076 -2.8134 1.65878 0
M  V30 3672 H 345.735 -1.50508 3.3428 0
M  V30 3673 H 345.383 -3.9683 3.09088 0
M  V30 3674 H 345.083 -3.43831 4.76502 0
M  V30 3675 H 346.607 -4.27708 4.35773 0
M  V30 3676 H 348.021 -2.20642 5.29141 0
M  V30 3677 H 346.418 -1.58942 5.78669 0
M  V30 3678 H 347.488 -0.561506 4.81638 0
M  V30 3679 N 348.832 -1.54138 -0.328536 0
M  V30 3680 C 350.248 -1.44736 -0.672574 0
M  V30 3681 C 350.448 -0.616217 -1.91846 0
M  V30 3682 O 349.504 -0.113067 -2.52247 0
M  V30 3683 C 350.817 -2.884 -0.851217 0
M  V30 3684 C 352.365 -2.98271 -0.948877 0
M  V30 3685 C 352.84 -4.43074 -1.15973 0
M  V30 3686 N 354.331 -4.46665 -1.22658 0
M  V30 3687 C 355.066 -5.55857 -1.40751 0
M  V30 3688 N 354.562 -6.75026 -1.5592 0
M  V30 3689 N 356.355 -5.43495 -1.4342 0
M  V30 3690 H 348.506 -2.06661 0.490421 0
M  V30 3691 H 350.769 -0.934812 0.157579 0
M  V30 3692 H 350.475 -3.51699 -0.00704236 0
M  V30 3693 H 350.349 -3.34225 -1.74853 0
M  V30 3694 H 352.736 -2.35102 -1.78356 0
M  V30 3695 H 352.817 -2.55785 -0.0281435 0
M  V30 3696 H 352.461 -5.06827 -0.329915 0
M  V30 3697 H 352.391 -4.83165 -2.09426 0
M  V30 3698 H 354.882 -3.60797 -1.124 0
M  V30 3699 H 355.195 -7.54004 -1.69404 0
M  V30 3700 H 353.54 -6.77944 -1.53027 0
M  V30 3701 H 356.731 -4.49349 -1.31162 0
M  V30 3702 H 356.904 -6.28649 -1.57178 0
M  V30 3703 N 350.31 0.590341 -1.46126 0
M  V30 3704 C 351.273 1.68194 -1.55703 0
M  V30 3705 C 352.273 1.54808 -0.434868 0
M  V30 3706 O 353.463 1.59564 -0.698928 0
M  V30 3707 C 350.595 3.07575 -1.47005 0
M  V30 3708 H 351.788 1.61064 -2.52979 0
M  V30 3709 H 349.341 0.807541 -1.33823 0
M  V30 3710 H 350.076 3.20268 -0.509785 0
M  V30 3711 H 349.861 3.187 -2.28414 0
M  V30 3712 H 351.351 3.87055 -1.56776 0
M  V30 3713 N 351.788 1.33704 0.83433 0
M  V30 3714 C 352.718 1.26967 1.95963 0
M  V30 3715 C 353.699 0.149337 1.69443 0
M  V30 3716 O 354.884 0.339852 1.91203 0
M  V30 3717 C 352.014 1.01275 3.32206 0
M  V30 3718 C 350.968 2.09652 3.73136 0
M  V30 3719 C 350.294 1.69166 5.07235 0
M  V30 3720 C 351.594 3.51372 3.86439 0
M  V30 3721 H 353.288 2.2112 2.01857 0
M  V30 3722 H 350.834 1.06447 0.969793 0
M  V30 3723 H 352.787 0.952106 4.10503 0
M  V30 3724 H 351.511 0.0356203 3.26581 0
M  V30 3725 H 350.17 2.14766 2.97104 0
M  V30 3726 H 349.818 0.701437 4.98085 0
M  V30 3727 H 349.518 2.41694 5.35591 0
M  V30 3728 H 351.042 1.64576 5.88003 0
M  V30 3729 H 352.456 3.48734 4.55036 0
M  V30 3730 H 350.853 4.22425 4.26236 0
M  V30 3731 H 351.923 3.89546 2.88759 0
M  V30 3732 N 353.266 -1.05314 1.17247 0
M  V30 3733 C 354.682 -1.30452 0.919473 0
M  V30 3734 C 354.882 -1.9703 -0.42209 0
M  V30 3735 O 353.938 -2.24311 -1.15935 0
M  V30 3736 C 355.251 -2.17551 2.07586 0
M  V30 3737 C 356.799 -2.30937 2.11275 0
M  V30 3738 C 357.274 -3.21396 3.26296 0
M  V30 3739 N 358.765 -3.28981 3.26076 0
M  V30 3740 C 359.5 -3.99095 4.11716 0
M  V30 3741 N 358.996 -4.71648 5.07465 0
M  V30 3742 N 360.789 -3.95247 3.9967 0
M  V30 3743 H 352.94 -0.604988 2.03602 0
M  V30 3744 H 355.203 -0.329368 0.888944 0
M  V30 3745 H 354.909 -1.75921 3.0454 0
M  V30 3746 H 354.783 -3.18182 2.02584 0
M  V30 3747 H 357.17 -2.71809 1.14907 0
M  V30 3748 H 357.251 -1.2994 2.20339 0
M  V30 3749 H 356.895 -2.81238 4.22927 0
M  V30 3750 H 356.825 -4.22395 3.14467 0
M  V30 3751 H 359.316 -2.77286 2.5675 0
M  V30 3752 H 359.629 -5.22705 5.6921 0
M  V30 3753 H 357.974 -4.70594 5.11435 0
M  V30 3754 H 361.165 -3.37691 3.24164 0
M  V30 3755 H 361.338 -4.4962 4.66632 0
M  V30 3756 N 354.744 -0.972509 -1.24016 0
M  V30 3757 C 356.021 -0.553733 -1.87598 0
M  V30 3758 C 356.401 0.969158 -1.87538 0
M  V30 3759 O 355.749 1.84255 -1.35139 0
M  V30 3760 C 355.959 -1.15076 -3.29482 0
M  V30 3761 C 357.307 -1.23862 -4.06132 0
M  V30 3762 O 358.331 -1.10363 -3.38672 0
M  V30 3763 O 357.19 -1.45252 -5.26844 0
M  V30 3764 H 354.284 -0.185331 -0.805966 0
M  V30 3765 H 356.83 -1.06709 -1.31952 0
M  V30 3766 H 355.602 -2.19333 -3.2405 0
M  V30 3767 H 355.225 -0.621746 -3.92709 0
M  V30 3768 N 356.222 1.38976 -0.743202 0
M  V30 3769 C 357.633 1.83123 -0.363732 0
M  V30 3770 C 357.984 1.6205 1.10609 0
M  V30 3771 O 357.109 1.11606 1.854 0
M  V30 3772 C 357.704 3.32439 -0.653408 0
M  V30 3773 C 356.263 3.74974 -0.327338 0
M  V30 3774 C 355.41 2.61878 -0.911875 0
M  V30 3775 H 358.361 1.27852 -0.940191 0
M  V30 3776 H 358.382 3.80432 0.0720031 0
M  V30 3777 H 357.894 3.47745 -1.72323 0
M  V30 3778 H 355.995 3.65252 0.736314 0
M  V30 3779 H 356.108 4.72106 -0.815631 0
M  V30 3780 H 354.472 2.52448 -0.337944 0
M  V30 3781 H 355.255 2.79987 -1.98651 0
M  V30 3782 N 357.7 0.491464 1.49741 0
M  V30 3783 C 358.647 -0.292027 2.28945 0
M  V30 3784 C 359.617 -0.968973 1.34908 0
M  V30 3785 O 360.802 -0.97748 1.6386 0
M  V30 3786 C 357.942 -1.35617 3.17336 0
M  V30 3787 C 357.055 -0.691957 4.26422 0
M  V30 3788 C 356.19 -1.73572 5.02042 0
M  V30 3789 C 355.229 -1.05286 6.02977 0
M  V30 3790 N 354.366 -2.0404 6.71798 0
M  V30 3791 H 359.206 0.389654 2.95442 0
M  V30 3792 H 356.743 0.204003 1.45679 0
M  V30 3793 H 358.701 -1.98502 3.66951 0
M  V30 3794 H 357.331 -2.00674 2.52844 0
M  V30 3795 H 356.383 0.0499523 3.80367 0
M  V30 3796 H 357.695 -0.153946 4.98562 0
M  V30 3797 H 356.849 -2.43987 5.55478 0
M  V30 3798 H 355.588 -2.30757 4.29654 0
M  V30 3799 H 354.593 -0.334446 5.48782 0
M  V30 3800 H 355.818 -0.487636 6.77347 0
M  V30 3801 H 353.764 -2.60205 6.02187 0
M  V30 3802 H 353.681 -1.55279 7.39881 0
M  V30 3803 H 354.949 -2.73772 7.29842 0
M  V30 3804 N 359.178 -1.55987 0.224894 0
M  V30 3805 C 360.125 -2.20436 -0.68385 0
M  V30 3806 C 361.095 -1.16102 -1.18783 0
M  V30 3807 O 362.28 -1.4447 -1.24632 0
M  V30 3808 C 359.42 -2.89076 -1.88491 0
M  V30 3809 C 358.533 -4.08012 -1.41951 0
M  V30 3810 C 357.668 -4.64426 -2.5784 0
M  V30 3811 C 356.707 -5.75656 -2.08053 0
M  V30 3812 N 355.844 -6.26347 -3.17227 0
M  V30 3813 H 360.684 -2.97727 -0.12754 0
M  V30 3814 H 358.221 -1.47011 -0.0511978 0
M  V30 3815 H 360.179 -3.27059 -2.59014 0
M  V30 3816 H 358.809 -2.14298 -2.41405 0
M  V30 3817 H 357.861 -3.75492 -0.609095 0
M  V30 3818 H 359.173 -4.88375 -1.01447 0
M  V30 3819 H 358.327 -5.04869 -3.3644 0
M  V30 3820 H 357.066 -3.83233 -3.01635 0
M  V30 3821 H 356.071 -5.34712 -1.27916 0
M  V30 3822 H 357.296 -6.58686 -1.65255 0
M  V30 3823 H 355.242 -5.48067 -3.60497 0
M  V30 3824 H 355.159 -7.01843 -2.80986 0
M  V30 3825 H 356.427 -6.71447 -3.95953 0
M  V30 3826 N 360.656 0.0484629 -1.57525 0
M  V30 3827 C 361.619 1.03956 -2.04269 0
M  V30 3828 C 362.619 1.30211 -0.943496 0
M  V30 3829 O 363.809 1.25539 -1.20771 0
M  V30 3830 C 360.941 2.37742 -2.44319 0
M  V30 3831 H 362.134 0.636182 -2.93075 0
M  V30 3832 H 359.687 0.294811 -1.53494 0
M  V30 3833 H 360.422 2.82866 -1.5861 0
M  V30 3834 H 360.207 2.20021 -3.24551 0
M  V30 3835 H 361.697 3.08936 -2.80978 0
M  V30 3836 N 362.134 1.5431 0.320358 0
M  V30 3837 C 363.545 1.63872 0.894594 0
M  V30 3838 C 363.896 0.534847 1.88769 0
M  V30 3839 O 363.021 -0.331732 2.13842 0
M  V30 3840 C 363.616 2.97049 1.62934 0
M  V30 3841 C 362.175 3.08796 2.15226 0
M  V30 3842 C 361.322 2.59456 0.978671 0
M  V30 3843 H 364.273 1.58398 0.0978544 0
M  V30 3844 H 364.294 2.87388 2.49376 0
M  V30 3845 H 363.806 3.7737 0.906302 0
M  V30 3846 H 361.907 2.33156 2.90636 0
M  V30 3847 H 362.02 4.14649 2.40006 0
M  V30 3848 H 360.384 2.1543 1.35875 0
M  V30 3849 H 361.167 3.42237 0.269895 0
M  V30 3850 N 363.613 -0.582584 1.46437 0
M  V30 3851 C 364.838 -1.37168 1.55563 0
M  V30 3852 C 365.263 -1.87061 0.19743 0
M  V30 3853 O 364.621 -1.61572 -0.822451 0
M  V30 3854 C 364.669 -2.53511 2.56446 0
M  V30 3855 O 363.773 -3.54953 2.09958 0
M  V30 3856 H 363.114 -0.408494 0.523477 0
M  V30 3857 H 365.644 -0.706646 1.9201 0
M  V30 3858 H 365.654 -3.00426 2.76058 0
M  V30 3859 H 364.329 -2.16549 3.55076 0
M  V30 3860 H 362.906 -3.14516 2.00334 0
M  V30 3861 N 365.091 -1.34144 -0.827227 0
M  V30 3862 C 366.337 -1.26446 -1.58554 0
M  V30 3863 C 366.67 0.1664 -1.93486 0
M  V30 3864 O 365.945 1.1107 -1.59667 0
M  V30 3865 C 366.228 -2.15111 -2.8879 0
M  V30 3866 C 366.081 -3.66712 -2.60465 0
M  V30 3867 C 367.4 -2.03311 -3.90324 0
M  V30 3868 H 364.519 -0.46067 -0.575284 0
M  V30 3869 H 367.161 -1.64356 -0.953269 0
M  V30 3870 H 365.311 -1.8291 -3.42748 0
M  V30 3871 H 366.983 -4.09259 -2.1285 0
M  V30 3872 H 365.226 -3.88014 -1.93978 0
M  V30 3873 H 365.897 -4.24112 -3.53317 0
M  V30 3874 H 368.373 -2.31574 -3.45706 0
M  V30 3875 H 367.249 -2.67582 -4.79261 0
M  V30 3876 H 367.51 -1.00879 -4.30437 0
M  V30 3877 N 366.569 1.04691 -1.17803 0
M  V30 3878 C 367.985 1.29963 -0.926379 0
M  V30 3879 C 368.185 1.97251 0.411635 0
M  V30 3880 O 367.241 2.24922 1.14744 0
M  V30 3881 C 368.554 2.16447 -2.08737 0
M  V30 3882 C 370.102 2.29814 -2.12496 0
M  V30 3883 C 370.577 3.19661 -3.27995 0
M  V30 3884 N 372.068 3.27247 -3.27816 0
M  V30 3885 C 372.803 3.96906 -4.13827 0
M  V30 3886 N 372.299 4.6895 -5.09959 0
M  V30 3887 N 374.092 3.93122 -4.01761 0
M  V30 3888 H 366.243 0.594182 -2.0392 0
M  V30 3889 H 368.506 0.324649 -0.890678 0
M  V30 3890 H 368.212 1.74304 -3.05469 0
M  V30 3891 H 368.086 3.17103 -2.04268 0
M  V30 3892 H 370.473 2.71196 -1.16347 0
M  V30 3893 H 370.554 1.2877 -2.21025 0
M  V30 3894 H 370.198 2.78991 -4.24413 0
M  V30 3895 H 370.128 4.20722 -3.16703 0
M  V30 3896 H 372.619 2.75921 -2.58217 0
M  V30 3897 H 372.932 5.19679 -5.71974 0
M  V30 3898 H 371.277 4.67875 -5.13924 0
M  V30 3899 H 374.468 3.35967 -3.2595 0
M  V30 3900 H 374.641 4.47139 -4.6901 0
M  V30 3901 N 368.047 0.979072 1.23499 0
M  V30 3902 C 369.295 0.645941 1.91499 0
M  V30 3903 C 369.616 -0.822948 1.76784 0
M  V30 3904 O 368.886 -1.58854 1.14639 0
M  V30 3905 H 367.466 0.235919 0.708767 0
M  V30 3906 H 370.128 1.2426 1.50152 0
M  V30 3907 H 369.224 0.896411 2.9895 0
M  V30 3908 N 369.525 -1.3858 0.750561 0
M  V30 3909 C 370.457 -2.29057 0.0810714 0
M  V30 3910 C 371.47 -1.47596 -0.686973 0
M  V30 3911 O 372.659 -1.70495 -0.528563 0
M  V30 3912 C 369.759 -3.26475 -0.909247 0
M  V30 3913 C 368.932 -4.36945 -0.199478 0
M  V30 3914 C 367.991 -5.14572 -1.10011 0
M  V30 3915 O 367.017 -5.66321 -0.57177 0
M  V30 3916 N 368.219 -5.27262 -2.42849 0
M  V30 3917 H 370.984 -2.87153 0.858087 0
M  V30 3918 H 368.545 -1.50328 0.60109 0
M  V30 3919 H 370.537 -3.75285 -1.51471 0
M  V30 3920 H 369.107 -2.69298 -1.58736 0
M  V30 3921 H 368.327 -3.8981 0.586664 0
M  V30 3922 H 369.615 -5.07963 0.291783 0
M  V30 3923 H 369.013 -4.86763 -2.88233 0
M  V30 3924 H 367.57 -5.79456 -2.98453 0
M  V30 3925 N 371.003 -0.499398 -1.49478 0
M  V30 3926 C 372.25 0.0456899 -2.02448 0
M  V30 3927 C 372.578 1.37142 -1.37921 0
M  V30 3928 O 371.833 1.89111 -0.503544 0
M  V30 3929 C 372.132 0.248424 -3.56536 0
M  V30 3930 C 371.798 -0.999107 -4.39692 0
M  V30 3931 C 370.46 -1.34108 -4.62135 0
M  V30 3932 C 372.812 -1.82842 -4.88076 0
M  V30 3933 C 370.14 -2.51191 -5.30208 0
M  V30 3934 C 372.492 -2.99076 -5.57437 0
M  V30 3935 C 371.156 -3.33655 -5.78127 0
M  V30 3936 H 370.426 0.0167191 -0.740811 0
M  V30 3937 H 373.073 -0.65923 -1.79795 0
M  V30 3938 H 371.378 1.03586 -3.77859 0
M  V30 3939 H 373.075 0.684605 -3.95113 0
M  V30 3940 H 369.665 -0.722729 -4.22463 0
M  V30 3941 H 373.849 -1.57737 -4.70566 0
M  V30 3942 H 369.105 -2.78221 -5.44429 0
M  V30 3943 H 373.279 -3.63664 -5.93904 0
M  V30 3944 H 370.906 -4.24483 -6.30649 0
M  V30 3945 N 372.481 1.55866 -0.233164 0
M  V30 3946 C 373.711 2.02704 0.399325 0
M  V30 3947 C 374.119 1.11204 1.53069 0
M  V30 3948 O 373.462 0.116182 1.83332 0
M  V30 3949 C 373.524 3.45844 0.981429 0
M  V30 3950 C 373.188 4.56997 -0.0159561 0
M  V30 3951 C 374.185 5.13384 -0.820552 0
M  V30 3952 C 371.87 5.0211 -0.138072 0
M  V30 3953 C 373.864 6.13365 -1.73386 0
M  V30 3954 C 371.551 6.01926 -1.0549 0
M  V30 3955 C 372.549 6.57431 -1.85132 0
M  V30 3956 O 372.237 7.55302 -2.75272 0
M  V30 3957 H 371.969 0.668459 0.100692 0
M  V30 3958 H 374.523 2.02387 -0.35052 0
M  V30 3959 H 372.753 3.43267 1.78058 0
M  V30 3960 H 374.442 3.76262 1.52255 0
M  V30 3961 H 375.208 4.79372 -0.736721 0
M  V30 3962 H 371.087 4.5858 0.471737 0
M  V30 3963 H 374.631 6.56614 -2.35592 0
M  V30 3964 H 370.528 6.35359 -1.1397 0
M  V30 3965 H 371.296 7.72867 -2.69477 0
M  V30 3966 N 373.959 -0.0401083 1.57549 0
M  V30 3967 C 375.189 -0.744115 1.92734 0
M  V30 3968 C 375.597 -1.70005 0.830348 0
M  V30 3969 O 374.94 -1.82576 -0.20286 0
M  V30 3970 C 375.002 -1.56516 3.2364 0
M  V30 3971 C 374.666 -0.7752 4.50377 0
M  V30 3972 C 375.663 -0.0803326 5.19838 0
M  V30 3973 C 373.348 -0.733002 4.96923 0
M  V30 3974 C 375.342 0.646154 6.34116 0
M  V30 3975 C 373.029 -0.00276321 6.111 0
M  V30 3976 C 374.027 0.685585 6.7955 0
M  V30 3977 O 373.715 1.40399 7.91545 0
M  V30 3978 H 373.447 -0.214861 0.640945 0
M  V30 3979 H 376.001 -0.00503675 2.05399 0
M  V30 3980 H 374.231 -2.3478 3.07271 0
M  V30 3981 H 375.92 -2.15076 3.44234 0
M  V30 3982 H 376.686 -0.104035 4.84888 0
M  V30 3983 H 372.565 -1.25827 4.43496 0
M  V30 3984 H 376.109 1.18398 6.87479 0
M  V30 3985 H 372.006 0.0229012 6.45496 0
M  V30 3986 H 372.774 1.31653 8.07843 0
M  V30 3987 N 375.437 -1.54477 -0.31217 0
M  V30 3988 C 376.686 -1.72438 -1.04633 0
M  V30 3989 C 376.999 -0.511163 -1.88803 0
M  V30 3990 O 378.205 -0.572341 -2.65399 0
M  V30 3991 C 376.661 -3.05043 -1.9099 0
M  V30 3992 C 376.269 -4.33806 -1.11877 0
M  V30 3993 C 378.013 -3.32364 -2.64073 0
M  V30 3994 C 375.92 -5.57467 -1.97445 0
M  V30 3995 H 374.85 -0.642647 -0.394361 0
M  V30 3996 H 377.501 -1.80966 -0.303929 0
M  V30 3997 H 375.883 -2.90451 -2.69173 0
M  V30 3998 H 377.057 -4.59199 -0.383843 0
M  V30 3999 H 375.372 -4.13336 -0.504252 0
M  V30 4000 H 377.969 -4.21951 -3.28423 0
M  V30 4001 H 378.312 -2.50745 -3.32314 0
M  V30 4002 H 378.845 -3.47875 -1.92944 0
M  V30 4003 H 375.584 -6.41722 -1.33692 0
M  V30 4004 H 375.104 -5.36277 -2.6864 0
M  V30 4005 H 376.783 -5.94303 -2.5576 0
M  V30 4006 N 376.915 0.57481 -1.46744 0
M  V30 4007 C 378.14 1.36341 -1.56288 0
M  V30 4008 C 378.565 1.86954 -0.207347 0
M  V30 4009 O 377.923 1.62006 0.813871 0
M  V30 4010 C 377.971 2.52147 -2.57787 0
M  V30 4011 O 377.075 3.53834 -2.11838 0
M  V30 4012 H 376.416 0.405713 -0.525636 0
M  V30 4013 H 378.946 0.696453 -1.92382 0
M  V30 4014 H 378.956 2.98958 -2.77648 0
M  V30 4015 H 377.631 2.14663 -3.5622 0
M  V30 4016 H 376.208 3.1345 -2.01999 0
M  V30 4017 N 378.394 1.34581 0.820102 0
M  V30 4018 C 379.671 1.17675 1.56244 0
M  V30 4019 C 380.051 -0.249541 2.0962 0
M  V30 4020 O 379.399 -1.25125 1.91196 0
M  V30 4021 C 379.609 2.23364 2.6816 0
M  V30 4022 C 380.957 2.58485 3.36854 0
M  V30 4023 O 381.981 2.22175 2.78418 0
M  V30 4024 O 380.84 3.20868 4.42386 0
M  V30 4025 H 377.934 0.456333 0.689702 0
M  V30 4026 H 380.48 1.46222 0.861231 0
M  V30 4027 H 379.252 3.19087 2.26493 0
M  V30 4028 H 378.875 1.96009 3.45928 0
M  V30 4029 N 379.872 -1.04064 1.18357 0
M  V30 4030 C 381.149 -1.74252 0.888581 0
M  V30 4031 C 381.529 -2.02138 -0.60856 0
M  V30 4032 O 380.877 -1.66656 -1.56327 0
M  V30 4033 C 381.087 -3.0277 1.73584 0
M  V30 4034 C 382.435 -3.76506 1.96286 0
M  V30 4035 O 383.459 -3.12668 1.70637 0
M  V30 4036 O 382.318 -4.91243 2.39464 0
M  V30 4037 H 379.412 -0.758271 0.330082 0
M  V30 4038 H 381.958 -1.1013 1.2911 0
M  V30 4039 H 380.73 -2.78299 2.75073 0
M  V30 4040 H 380.353 -3.74631 1.33183 0
M  V30 4041 N 381.35 -0.985608 -1.22978 0
M  V30 4042 C 382.578 -0.675582 -1.95559 0
M  V30 4043 C 382.993 0.758413 -1.72897 0
M  V30 4044 O 382.35 1.51094 -1.02357 0
M  V30 4045 C 382.401 -0.96293 -3.48439 0
M  V30 4046 O 382.122 -2.34057 -3.70336 0
M  V30 4047 C 383.623 -0.669585 -4.38214 0
M  V30 4048 H 380.843 -0.250523 -0.622478 0
M  V30 4049 H 383.387 -1.3184 -1.56328 0
M  V30 4050 H 381.542 -0.366033 -3.85667 0
M  V30 4051 H 381.956 -2.43424 -4.64591 0
M  V30 4052 H 383.43 -0.920967 -5.44263 0
M  V30 4053 H 383.907 0.396383 -4.37408 0
M  V30 4054 H 384.513 -1.2472 -4.06602 0
M  V30 4055 N 382.828 1.3818 -0.7579 0
M  V30 4056 C 384.239 1.82726 -0.383134 0
M  V30 4057 C 384.59 1.63214 1.08884 0
M  V30 4058 O 383.715 1.13566 1.84205 0
M  V30 4059 C 384.31 3.31728 -0.688631 0
M  V30 4060 C 382.869 3.74606 -0.367091 0
M  V30 4061 C 382.016 2.60896 -0.939599 0
M  V30 4062 H 384.967 1.26847 -0.953699 0
M  V30 4063 H 384.988 3.80487 0.0316492 0
M  V30 4064 H 384.5 3.45898 -1.76001 0
M  V30 4065 H 382.601 3.66013 0.697532 0
M  V30 4066 H 382.714 4.71215 -0.865658 0
M  V30 4067 H 381.078 2.52075 -0.3647 0
M  V30 4068 H 381.861 2.77864 -2.0161 0
M  V30 4069 N 384.306 0.507319 1.49211 0
M  V30 4070 C 385.256 -0.287112 2.26185 0
M  V30 4071 C 386.24 -0.929983 1.31302 0
M  V30 4072 O 387.432 -0.836538 1.55984 0
M  V30 4073 C 384.561 -1.34718 3.15763 0
M  V30 4074 C 383.647 -0.710235 4.18111 0
M  V30 4075 N 384.038 0.190836 5.0544 0
M  V30 4076 C 382.336 -0.97009 4.35322 0
M  V30 4077 C 383.037 0.55606 5.79036 0
M  V30 4078 N 382.013 -0.0775232 5.43545 0
M  V30 4079 H 385.815 0.406445 2.91076 0
M  V30 4080 H 383.329 0.323814 1.59139 0
M  V30 4081 H 385.326 -1.92982 3.69545 0
M  V30 4082 H 383.986 -2.04235 2.52424 0
M  V30 4083 H 384.997 0.562047 5.14841 0
M  V30 4084 H 381.674 -1.65753 3.83187 0
M  V30 4085 H 383.064 1.2936 6.5933 0
M  V30 4086 N 385.784 -1.5574 0.241426 0
M  V30 4087 C 386.716 -2.18469 -0.693091 0
M  V30 4088 C 387.729 -1.15942 -1.14286 0
M  V30 4089 O 388.918 -1.42832 -1.07058 0
M  V30 4090 C 386.018 -2.7696 -1.95311 0
M  V30 4091 C 385.191 -4.04853 -1.65568 0
M  V30 4092 C 384.25 -4.47715 -2.76474 0
M  V30 4093 O 383.276 -5.14205 -2.44094 0
M  V30 4094 N 384.478 -4.15044 -4.05855 0
M  V30 4095 H 387.243 -2.99292 -0.156388 0
M  V30 4096 H 384.804 -1.61784 0.0611752 0
M  V30 4097 H 386.796 -3.02594 -2.68736 0
M  V30 4098 H 385.366 -2.00326 -2.39975 0
M  V30 4099 H 384.586 -3.86865 -0.756886 0
M  V30 4100 H 385.874 -4.88246 -1.43153 0
M  V30 4101 H 385.272 -3.61654 -4.34998 0
M  V30 4102 H 383.829 -4.45526 -4.75762 0
M  V30 4103 N 387.262 0.0317525 -1.57568 0
M  V30 4104 C 388.487 0.738664 -1.938 0
M  V30 4105 C 388.912 1.68242 -0.841208 0
M  V30 4106 O 388.27 1.80157 0.203267 0
M  V30 4107 C 388.318 1.47417 -3.29091 0
M  V30 4108 O 387.422 2.5872 -3.2115 0
M  V30 4109 H 386.763 0.198856 -0.633524 0
M  V30 4110 H 389.293 -0.0119713 -2.04596 0
M  V30 4111 H 389.303 1.84468 -3.63917 0
M  V30 4112 H 387.978 0.781988 -4.08482 0
M  V30 4113 H 386.555 2.24231 -2.97951 0
M  V30 4114 N 388.74 1.54641 0.303973 0
M  V30 4115 C 389.97 1.77511 1.05705 0
M  V30 4116 C 390.378 0.533228 1.81531 0
M  V30 4117 O 389.721 -0.506423 1.76582 0
M  V30 4118 C 389.783 2.92779 2.08617 0
M  V30 4119 C 389.447 4.30977 1.52013 0
M  V30 4120 C 390.444 5.11115 0.9517 0
M  V30 4121 C 388.129 4.77571 1.55665 0
M  V30 4122 C 390.123 6.35966 0.427327 0
M  V30 4123 C 387.81 6.02384 1.02841 0
M  V30 4124 C 388.808 6.81417 0.464713 0
M  V30 4125 O 388.496 8.03881 -0.0555283 0
M  V30 4126 H 388.228 0.59579 0.319391 0
M  V30 4127 H 390.782 2.02401 0.349712 0
M  V30 4128 H 389.012 2.63506 2.83022 0
M  V30 4129 H 390.701 3.03252 2.69802 0
M  V30 4130 H 391.467 4.76264 0.916407 0
M  V30 4131 H 387.346 4.16085 1.9848 0
M  V30 4132 H 390.89 6.97599 -0.0133062 0
M  V30 4133 H 386.787 6.36723 1.06084 0
M  V30 4134 H 387.555 8.18479 0.0580522 0
M  V30 4135 N 390.218 -0.567019 1.47046 0
M  V30 4136 C 391.495 -1.3276 1.43646 0
M  V30 4137 C 391.875 -2.1071 0.128186 0
M  V30 4138 O 391.223 -2.10441 -0.890326 0
M  V30 4139 C 391.433 -2.2404 2.67595 0
M  V30 4140 C 392.781 -2.85372 3.14401 0
M  V30 4141 O 393.805 -2.34346 2.68254 0
M  V30 4142 O 392.664 -3.78091 3.946 0
M  V30 4143 H 389.758 -0.597293 0.571988 0
M  V30 4144 H 392.304 -0.586735 1.59234 0
M  V30 4145 H 391.076 -1.65975 3.54356 0
M  V30 4146 H 390.699 -3.05439 2.54544 0
M  V30 4147 N 391.696 -1.35014 -0.812953 0
M  V30 4148 C 392.644 -1.27435 -1.94585 0
M  V30 4149 C 393.638 -0.170494 -1.6854 0
M  V30 4150 O 394.844 -0.336085 -1.76835 0
M  V30 4151 H 391.219 -0.396144 -0.639198 0
M  V30 4152 H 393.19 -2.23158 -1.98098 0
M  V30 4153 C 391.939 -1.05677 -3.31252 0
M  V30 4154 H 391.262 -1.89853 -3.51846 0
M  V30 4155 H 392.702 -1.04413 -4.10943 0
M  V30 4156 C 391.161 0.239615 -3.36047 0
M  V30 4157 O 391.691 1.23759 -3.8216 0
M  V30 4158 N 389.897 0.276186 -2.89285 0
M  V30 4159 H 389.444 -0.53653 -2.51951 0
M  V30 4160 H 389.402 1.14332 -2.92875 0
M  V30 4161 N 393.175 1.03435 -1.18907 0
M  V30 4162 C 394.105 2.13503 -0.945448 0
M  V30 4163 C 395.086 1.69682 0.119189 0
M  V30 4164 O 396.271 1.94169 -0.034707 0
M  V30 4165 C 393.401 3.44004 -0.477316 0
M  V30 4166 C 392.355 4.0148 -1.48316 0
M  V30 4167 C 391.681 5.27537 -0.872311 0
M  V30 4168 C 392.981 4.36921 -2.86177 0
M  V30 4169 H 394.675 2.34141 -1.86597 0
M  V30 4170 H 392.221 1.12523 -0.898584 0
M  V30 4171 H 394.174 4.20372 -0.294204 0
M  V30 4172 H 392.898 3.23072 0.478786 0
M  V30 4173 H 391.557 3.27201 -1.65332 0
M  V30 4174 H 391.205 5.02917 0.0911752 0
M  V30 4175 H 390.905 5.66954 -1.54393 0
M  V30 4176 H 392.429 6.06576 -0.699871 0
M  V30 4177 H 393.843 5.04248 -2.72776 0
M  V30 4178 H 392.24 4.87405 -3.50081 0
M  V30 4179 H 393.31 3.46466 -3.39248 0
M  V30 4180 N 394.653 0.992116 1.22453 0
M  V30 4181 C 395.601 0.534644 2.26372 0
M  V30 4182 C 396.595 -0.414293 1.64256 0
M  V30 4183 O 397.801 -0.286899 1.77699 0
M  V30 4184 H 394.176 0.154502 0.735957 0
M  V30 4185 H 396.147 1.42256 2.62309 0
M  V30 4186 C 394.896 -0.135815 3.47435 0
M  V30 4187 H 394.219 0.585311 3.95492 0
M  V30 4188 H 395.659 -0.419374 4.21921 0
M  V30 4189 C 394.118 -1.37089 3.07747 0
M  V30 4190 O 394.648 -2.46629 3.17076 0
M  V30 4191 N 392.854 -1.24585 2.62539 0
M  V30 4192 H 392.401 -0.354542 2.55149 0
M  V30 4193 H 392.359 -2.07327 2.36353 0
M  V30 4194 N 396.131 -1.37776 0.765217 0
M  V30 4195 C 397.361 -2.03828 0.337277 0
M  V30 4196 C 397.769 -1.57841 -1.04321 0
M  V30 4197 O 397.112 -0.752043 -1.67601 0
M  V30 4198 C 397.174 -3.58292 0.294407 0
M  V30 4199 C 396.838 -4.27384 1.61838 0
M  V30 4200 C 397.835 -4.51956 2.56967 0
M  V30 4201 C 395.52 -4.65345 1.89102 0
M  V30 4202 C 397.514 -5.13536 3.77571 0
M  V30 4203 C 395.201 -5.26647 3.09978 0
M  V30 4204 C 396.199 -5.50679 4.04032 0
M  V30 4205 O 395.887 -6.10702 5.2278 0
M  V30 4206 H 395.619 -0.661292 0.140248 0
M  V30 4207 H 398.173 -1.77222 1.03834 0
M  V30 4208 H 396.403 -3.83918 -0.462983 0
M  V30 4209 H 398.092 -4.05763 -0.105581 0
M  V30 4210 H 398.858 -4.23048 2.37183 0
M  V30 4211 H 394.737 -4.45978 1.16725 0
M  V30 4212 H 398.281 -5.3221 4.50997 0
M  V30 4213 H 394.178 -5.54979 3.29649 0
M  V30 4214 H 394.946 -6.29183 5.23517 0
M  V30 4215 N 397.609 -0.515225 -1.4894 0
M  V30 4216 C 398.858 0.0261361 -2.01683 0
M  V30 4217 C 399.171 1.36719 -1.39883 0
M  V30 4218 O 400.377 1.99606 -1.84037 0
M  V30 4219 C 398.833 0.0970111 -3.59769 0
M  V30 4220 C 398.441 -1.23825 -4.30548 0
M  V30 4221 C 400.185 0.587981 -4.20408 0
M  V30 4222 C 398.092 -1.12877 -5.80528 0
M  V30 4223 H 397.022 0.0135398 -0.753878 0
M  V30 4224 H 399.673 -0.656787 -1.71343 0
M  V30 4225 H 398.055 0.844694 -3.86886 0
M  V30 4226 H 399.229 -2.00034 -4.15118 0
M  V30 4227 H 397.544 -1.66379 -3.81716 0
M  V30 4228 H 400.141 0.68763 -5.3026 0
M  V30 4229 H 400.484 1.59026 -3.84729 0
M  V30 4230 H 401.017 -0.103582 -3.97665 0
M  V30 4231 H 397.756 -2.10575 -6.20756 0
M  V30 4232 H 397.276 -0.407799 -5.98412 0
M  V30 4233 H 398.955 -0.813332 -6.41868 0
M  V30 4234 N 399.087 1.5561 -0.249682 0
M  V30 4235 C 400.017 2.24477 0.642826 0
M  V30 4236 C 400.998 1.22601 1.17911 0
M  V30 4237 O 402.183 1.5126 1.21795 0
M  V30 4238 C 399.313 2.94638 1.83863 0
M  V30 4239 C 398.267 4.03227 1.435 0
M  V30 4240 C 397.593 4.60828 2.71186 0
M  V30 4241 C 398.893 5.18796 0.604002 0
M  V30 4242 H 400.587 2.99321 0.0685625 0
M  V30 4243 H 398.133 1.43965 0.0315363 0
M  V30 4244 H 400.086 3.41517 2.46868 0
M  V30 4245 H 398.81 2.17287 2.43832 0
M  V30 4246 H 397.469 3.57121 0.828275 0
M  V30 4247 H 397.117 3.80174 3.29358 0
M  V30 4248 H 396.817 5.34132 2.44901 0
M  V30 4249 H 398.341 5.10442 3.35084 0
M  V30 4250 H 399.755 5.61883 1.13842 0
M  V30 4251 H 398.152 5.98506 0.437097 0
M  V30 4252 H 399.222 4.83384 -0.383147 0
M  V30 4253 N 400.565 -0.0233959 1.57583 0
M  V30 4254 C 401.79 -0.728376 1.94189 0
M  V30 4255 C 402.215 -1.67793 0.850119 0
M  V30 4256 O 401.573 -1.80262 -0.19371 0
M  V30 4257 C 401.621 -1.45669 3.29868 0
M  V30 4258 O 400.725 -2.57013 3.22518 0
M  V30 4259 H 400.066 -0.195493 0.63457 0
M  V30 4260 H 402.596 0.0228214 2.04587 0
M  V30 4261 H 402.606 -1.82535 3.6489 0
M  V30 4262 H 401.281 -0.760314 4.08891 0
M  V30 4263 H 399.858 -2.22648 2.99136 0
M  V30 4264 N 402.043 -1.548 -0.295768 0
M  V30 4265 C 402.99 -1.86113 -1.36494 0
M  V30 4266 C 403.96 -0.7105 -1.50137 0
M  V30 4267 O 405.145 -0.959626 -1.64912 0
M  V30 4268 C 402.285 -2.11861 -2.72413 0
M  V30 4269 C 401.398 -3.39471 -2.67177 0
M  V30 4270 C 400.533 -3.55035 -3.95125 0
M  V30 4271 C 399.572 -4.76418 -3.84308 0
M  V30 4272 N 398.709 -4.8876 -5.04042 0
M  V30 4273 H 403.549 -2.77314 -1.09091 0
M  V30 4274 H 401.086 -1.37315 -0.52753 0
M  V30 4275 H 403.044 -2.24786 -3.51464 0
M  V30 4276 H 401.674 -1.2392 -2.98066 0
M  V30 4277 H 400.726 -3.35139 -1.79962 0
M  V30 4278 H 402.038 -4.28646 -2.55076 0
M  V30 4279 H 401.192 -3.67653 -4.82614 0
M  V30 4280 H 399.931 -2.64002 -4.10066 0
M  V30 4281 H 398.936 -4.63827 -2.95202 0
M  V30 4282 H 400.161 -5.68863 -3.70906 0
M  V30 4283 H 398.107 -4.00652 -5.19436 0
M  V30 4284 H 398.024 -5.71945 -4.94384 0
M  V30 4285 H 399.292 -5.0574 -5.93167 0
M  V30 4286 N 403.521 0.559213 -1.47345 0
M  V30 4287 C 404.431 1.69388 -1.62311 0
M  V30 4288 C 405.447 1.6648 -0.505993 0
M  V30 4289 O 406.623 1.85964 -0.773262 0
M  V30 4290 C 403.688 3.05894 -1.63185 0
M  V30 4291 C 402.749 3.19885 -2.86307 0
M  V30 4292 C 401.982 4.49879 -2.87131 0
M  V30 4293 O 402.205 5.35217 -1.97229 0
M  V30 4294 O 401.139 4.67618 -3.78968 0
M  V30 4295 H 404.965 1.59706 -2.58317 0
M  V30 4296 H 402.55 0.728989 -1.30407 0
M  V30 4297 H 404.432 3.87133 -1.66451 0
M  V30 4298 H 403.107 3.15964 -0.70345 0
M  V30 4299 H 402.014 2.38052 -2.88587 0
M  V30 4300 H 403.347 3.14718 -3.78435 0
M  V30 4301 N 404.999 1.35443 0.805782 0
M  V30 4302 C 406.246 1.28761 1.56291 0
M  V30 4303 C 406.574 -0.137747 1.94012 0
M  V30 4304 O 405.829 -1.1032 1.61642 0
M  V30 4305 C 406.128 2.14045 2.86216 0
M  V30 4306 C 405.794 3.62826 2.67709 0
M  V30 4307 C 404.456 4.0338 2.6237 0
M  V30 4308 C 406.808 4.57227 2.50186 0
M  V30 4309 C 404.136 5.36501 2.37451 0
M  V30 4310 C 406.488 5.90547 2.26797 0
M  V30 4311 C 405.152 6.30245 2.1988 0
M  V30 4312 H 404.422 0.471171 0.571908 0
M  V30 4313 H 407.069 1.67347 0.930974 0
M  V30 4314 H 405.374 1.68342 3.53791 0
M  V30 4315 H 407.071 2.0621 3.43917 0
M  V30 4316 H 403.661 3.30644 2.72713 0
M  V30 4317 H 407.845 4.2678 2.53323 0
M  V30 4318 H 403.101 5.66259 2.30567 0
M  V30 4319 H 407.275 6.63274 2.12228 0
M  V30 4320 H 404.902 7.33328 2.00333 0
M  V30 4321 N 406.477 -1.02803 1.19454 0
M  V30 4322 C 407.725 -1.75869 0.995722 0
M  V30 4323 C 408.046 -1.89138 -0.474543 0
M  V30 4324 O 407.316 -1.42558 -1.34366 0
M  V30 4325 H 405.896 -0.651511 0.365435 0
M  V30 4326 H 408.558 -1.24004 1.50363 0
M  V30 4327 H 407.654 -2.76661 1.44447 0
M  V30 4328 N 407.956 -0.998596 -1.21925 0
M  V30 4329 C 408.886 -0.573688 -2.26343 0
M  V30 4330 C 409.867 0.402296 -1.65274 0
M  V30 4331 O 411.052 0.291683 -1.91997 0
M  V30 4332 C 408.182 0.106839 -3.47136 0
M  V30 4333 C 407.136 -0.788269 -4.20678 0
M  V30 4334 C 406.462 0.0254927 -5.34694 0
M  V30 4335 C 407.762 -2.08784 -4.78755 0
M  V30 4336 H 409.456 -1.44651 -2.62138 0
M  V30 4337 H 407.002 -0.696975 -1.26009 0
M  V30 4338 H 408.955 0.415531 -4.19346 0
M  V30 4339 H 407.679 1.01424 -3.10452 0
M  V30 4340 H 406.338 -1.08069 -3.50309 0
M  V30 4341 H 405.986 0.933989 -4.94253 0
M  V30 4342 H 405.686 -0.570437 -5.84825 0
M  V30 4343 H 407.21 0.328147 -6.09718 0
M  V30 4344 H 408.624 -1.84272 -5.42878 0
M  V30 4345 H 407.021 -2.63307 -5.39249 0
M  V30 4346 H 408.091 -2.76284 -3.98491 0
M  V30 4347 N 409.434 1.37368 -0.772513 0
M  V30 4348 C 410.85 1.53059 -0.452231 0
M  V30 4349 C 411.05 1.73065 1.03203 0
M  V30 4350 O 410.106 1.75245 1.81784 0
M  V30 4351 C 411.419 2.72659 -1.26797 0
M  V30 4352 C 412.967 2.86521 -1.25995 0
M  V30 4353 C 413.442 4.09105 -2.05905 0
M  V30 4354 N 414.933 4.16219 -2.03263 0
M  V30 4355 C 415.668 5.10107 -2.61875 0
M  V30 4356 N 415.164 6.09547 -3.29278 0
M  V30 4357 N 416.957 5.02596 -2.51701 0
M  V30 4358 H 409.108 1.22634 -1.7342 0
M  V30 4359 H 411.371 0.597206 -0.736239 0
M  V30 4360 H 411.077 2.64343 -2.31982 0
M  V30 4361 H 410.951 3.66363 -0.897672 0
M  V30 4362 H 413.338 2.94308 -0.216081 0
M  V30 4363 H 413.419 1.93774 -1.66989 0
M  V30 4364 H 413.063 4.0208 -3.10313 0
M  V30 4365 H 412.993 5.00968 -1.62292 0
M  V30 4366 H 415.484 3.45012 -1.54192 0
M  V30 4367 H 415.797 6.77718 -3.71374 0
M  V30 4368 H 414.142 6.09824 -3.33377 0
M  V30 4369 H 417.333 4.23855 -1.98657 0
M  V30 4370 H 417.506 5.75582 -2.97673 0
M  V30 4371 N 410.912 0.523116 1.48665 0
M  V30 4372 C 411.842 -0.23231 2.32342 0
M  V30 4373 C 412.823 -0.941637 1.41659 0
M  V30 4374 O 414.008 -0.928751 1.70552 0
M  V30 4375 C 411.138 -1.28387 3.22698 0
M  V30 4376 C 410.092 -0.693098 4.22351 0
M  V30 4377 C 409.418 -1.8468 5.01794 0
M  V30 4378 C 410.718 0.33063 5.21252 0
M  V30 4379 H 412.412 0.466192 2.95748 0
M  V30 4380 H 409.958 0.225643 1.42221 0
M  V30 4381 H 411.911 -1.82024 3.80059 0
M  V30 4382 H 410.635 -2.01186 2.57278 0
M  V30 4383 H 409.294 -0.178299 3.66166 0
M  V30 4384 H 408.942 -2.56301 4.32804 0
M  V30 4385 H 408.642 -1.45747 5.69238 0
M  V30 4386 H 410.166 -2.38709 5.62006 0
M  V30 4387 H 411.58 -0.118407 5.73178 0
M  V30 4388 H 409.977 0.636974 5.9671 0
M  V30 4389 H 411.047 1.23883 4.68808 0
M  V30 4390 N 412.39 -1.55475 0.257931 0
M  V30 4391 C 413.667 -1.91155 -0.414629 0
M  V30 4392 C 414.047 -1.18008 -1.75035 0
M  V30 4393 O 413.395 -0.301193 -2.26506 0
M  V30 4394 C 413.605 -3.44283 -0.571859 0
M  V30 4395 C 414.953 -4.15744 -0.862678 0
M  V30 4396 O 415.977 -3.50083 -0.657314 0
M  V30 4397 O 414.836 -5.31909 -1.2544 0
M  V30 4398 H 411.93 -0.796016 -0.22425 0
M  V30 4399 H 414.476 -1.66976 0.302814 0
M  V30 4400 H 413.248 -3.89558 0.368844 0
M  V30 4401 H 412.871 -3.7436 -1.33943 0
M  V30 4402 N 413.868 0.0150385 -1.57593 0
M  V30 4403 C 415.093 0.718067 -1.94573 0
M  V30 4404 C 415.518 1.6734 -0.859005 0
M  V30 4405 O 414.876 1.80362 0.184147 0
M  V30 4406 C 414.924 1.43918 -3.30636 0
M  V30 4407 O 414.028 2.55299 -3.23876 0
M  V30 4408 H 413.369 0.192125 -0.635597 0
M  V30 4409 H 415.899 -0.0336708 -2.04572 0
M  V30 4410 H 415.909 1.80598 -3.65853 0
M  V30 4411 H 414.584 0.738619 -4.09289 0
M  V30 4412 H 413.161 2.21058 -3.00312 0
M  V30 4413 N 415.346 1.54954 0.287554 0
M  V30 4414 C 416.762 1.46469 0.633964 0
M  V30 4415 C 416.962 0.666865 1.90145 0
M  V30 4416 O 416.018 0.179906 2.51858 0
M  V30 4417 C 417.331 2.90556 0.774454 0
M  V30 4418 C 418.879 3.00681 0.869462 0
M  V30 4419 C 419.354 4.45993 1.04184 0
M  V30 4420 N 420.845 4.4976 1.10772 0
M  V30 4421 C 421.58 5.59393 1.25964 0
M  V30 4422 N 421.076 6.78923 1.37968 0
M  V30 4423 N 422.869 5.47107 1.28959 0
M  V30 4424 H 415.02 2.05288 -0.545041 0
M  V30 4425 H 417.283 0.930305 -0.182308 0
M  V30 4426 H 416.989 3.51594 -0.086207 0
M  V30 4427 H 416.863 3.38743 1.6593 0
M  V30 4428 H 419.25 2.39749 1.7206 0
M  V30 4429 H 419.331 2.55769 -0.0396831 0
M  V30 4430 H 418.975 5.07524 0.195422 0
M  V30 4431 H 418.905 4.88548 1.96542 0
M  V30 4432 H 421.396 3.63651 1.02794 0
M  V30 4433 H 421.709 7.58231 1.49353 0
M  V30 4434 H 420.054 6.81763 1.34999 0
M  V30 4435 H 423.245 4.52668 1.19202 0
M  V30 4436 H 423.418 6.32595 1.40455 0
M  V30 4437 N 416.824 -0.551391 1.4764 0
M  V30 4438 C 418.07 -1.30789 1.55774 0
M  V30 4439 C 418.425 -1.91143 0.219562 0
M  V30 4440 O 417.718 -1.7521 -0.775375 0
M  V30 4441 C 417.912 -2.43469 2.61644 0
M  V30 4442 C 417.741 -1.94157 4.05627 0
M  V30 4443 C 416.511 -1.77734 4.7301 0
M  V30 4444 C 418.709 -1.48262 4.92466 0
M  V30 4445 N 416.691 -1.22823 6.01488 0
M  V30 4446 C 418.062 -1.05156 6.11017 0
M  V30 4447 C 420.117 -1.36367 4.78862 0
M  V30 4448 C 418.82 -0.513357 7.17466 0
M  V30 4449 C 420.846 -0.839484 5.85411 0
M  V30 4450 C 420.208 -0.418377 7.03156 0
M  V30 4451 H 416.307 -0.470406 0.624694 0
M  V30 4452 H 418.891 -0.624331 1.84419 0
M  V30 4453 H 417.062 -3.09348 2.34859 0
M  V30 4454 H 418.794 -3.10477 2.59589 0
M  V30 4455 H 415.549 -2.00623 4.29007 0
M  V30 4456 H 415.973 -0.974393 6.69951 0
M  V30 4457 H 420.615 -1.67535 3.88191 0
M  V30 4458 H 418.333 -0.189318 8.07878 0
M  V30 4459 H 421.919 -0.750921 5.76934 0
M  V30 4460 H 420.799 -0.0190538 7.84198 0
M  V30 4461 N 418.302 -1.35869 -0.798587 0
M  V30 4462 C 419.527 -1.32883 -1.59238 0
M  V30 4463 C 419.952 0.0894587 -1.87887 0
M  V30 4464 O 419.31 1.05869 -1.47178 0
M  V30 4465 C 419.358 -2.14892 -2.89575 0
M  V30 4466 O 418.462 -1.53512 -3.82763 0
M  V30 4467 H 417.803 -0.455236 -0.48338 0
M  V30 4468 H 420.333 -1.79024 -0.990539 0
M  V30 4469 H 420.343 -2.27139 -3.38928 0
M  V30 4470 H 419.018 -3.17998 -2.68049 0
M  V30 4471 H 417.595 -1.50153 -3.41334 0
M  V30 4472 N 419.78 1.02168 -1.19998 0
M  V30 4473 C 420.71 2.12488 -0.96804 0
M  V30 4474 C 421.691 1.69799 0.101185 0
M  V30 4475 O 422.876 1.94121 -0.0552993 0
M  V30 4476 C 420.006 3.43479 -0.513776 0
M  V30 4477 C 418.96 3.99884 -1.52566 0
M  V30 4478 C 418.286 5.26582 -0.928214 0
M  V30 4479 C 419.586 4.33861 -2.90795 0
M  V30 4480 H 421.28 2.32149 -1.89069 0
M  V30 4481 H 418.826 1.11564 -0.910468 0
M  V30 4482 H 420.779 4.20036 -0.338774 0
M  V30 4483 H 419.503 3.23561 0.444493 0
M  V30 4484 H 418.162 3.25429 -1.68794 0
M  V30 4485 H 417.81 5.02986 0.0378289 0
M  V30 4486 H 417.51 5.65284 -1.60397 0
M  V30 4487 H 419.034 6.05799 -0.764167 0
M  V30 4488 H 420.448 5.01327 -2.78109 0
M  V30 4489 H 418.845 4.83664 -3.55231 0
M  V30 4490 H 419.915 3.42848 -3.42904 0
M  V30 4491 N 421.258 1.00505 1.21394 0
M  V30 4492 C 422.669 0.721082 1.72213 0
M  V30 4493 C 423.02 -0.761263 1.80829 0
M  V30 4494 O 422.145 -1.59464 1.46288 0
M  V30 4495 C 422.74 1.30228 3.12772 0
M  V30 4496 C 421.299 1.06743 3.60947 0
M  V30 4497 C 420.446 1.41507 2.38477 0
M  V30 4498 H 423.397 1.17594 1.06571 0
M  V30 4499 H 423.418 0.686955 3.74247 0
M  V30 4500 H 422.93 2.38115 3.06468 0
M  V30 4501 H 421.031 0.00572162 3.726 0
M  V30 4502 H 421.144 1.73936 4.46411 0
M  V30 4503 H 419.508 0.833852 2.40664 0
M  V30 4504 H 420.291 2.50424 2.34824 0
M  V30 4505 N 422.737 -1.36956 0.779787 0
M  V30 4506 C 423.667 -2.32761 0.185651 0
M  V30 4507 C 424.648 -1.56177 -0.673989 0
M  V30 4508 O 425.833 -1.84378 -0.609797 0
M  V30 4509 C 422.963 -3.40418 -0.687964 0
M  V30 4510 C 421.917 -4.27941 0.0710102 0
M  V30 4511 C 421.243 -5.26681 -0.922573 0
M  V30 4512 C 422.543 -5.07006 1.25467 0
M  V30 4513 H 424.237 -2.82698 0.986008 0
M  V30 4514 H 421.783 -1.3592 0.475592 0
M  V30 4515 H 423.736 -4.06423 -1.11348 0
M  V30 4516 H 422.46 -2.89025 -1.52093 0
M  V30 4517 H 421.119 -3.63478 0.47739 0
M  V30 4518 H 420.767 -4.71565 -1.7503 0
M  V30 4519 H 420.467 -5.86103 -0.419237 0
M  V30 4520 H 421.991 -5.9556 -1.34686 0
M  V30 4521 H 423.405 -5.66105 0.905401 0
M  V30 4522 H 421.802 -5.75793 1.69063 0
M  V30 4523 H 422.872 -4.3921 2.05481 0
M  V30 4524 N 424.215 -0.530993 -1.48385 0
M  V30 4525 C 425.443 -0.00134122 -2.069 0
M  V30 4526 C 425.858 1.2805 -1.3874 0
M  V30 4527 O 425.215 1.76204 -0.475244 0
M  V30 4528 C 425.266 0.225256 -3.60798 0
M  V30 4529 O 424.987 -1.0058 -4.26398 0
M  V30 4530 C 426.488 0.795172 -4.3611 0
M  V30 4531 H 423.708 -0.0339704 -0.67014 0
M  V30 4532 H 426.252 -0.736926 -1.90761 0
M  V30 4533 H 424.407 0.910891 -3.76539 0
M  V30 4534 H 424.821 -0.787165 -5.1856 0
M  V30 4535 H 426.295 0.903143 -5.44562 0
M  V30 4536 H 426.772 1.80031 -4.00606 0
M  V30 4537 H 427.378 0.146069 -4.25049 0
M  V30 4538 N 425.693 1.55336 -0.266172 0
M  V30 4539 C 426.623 2.25146 0.618981 0
M  V30 4540 C 427.604 1.23845 1.16604 0
M  V30 4541 O 428.789 1.52544 1.20183 0
M  V30 4542 C 425.919 2.96572 1.80728 0
M  V30 4543 C 424.873 4.04726 1.39215 0
M  V30 4544 C 424.199 4.63678 2.66283 0
M  V30 4545 C 425.499 5.19407 0.548942 0
M  V30 4546 H 427.193 2.99377 0.0368116 0
M  V30 4547 H 424.739 1.43991 0.0162651 0
M  V30 4548 H 426.692 3.44116 2.43232 0
M  V30 4549 H 425.416 2.19861 2.41514 0
M  V30 4550 H 424.075 3.57979 0.790351 0
M  V30 4551 H 423.723 3.83646 3.25308 0
M  V30 4552 H 423.423 5.367 2.39222 0
M  V30 4553 H 424.947 5.13967 3.29651 0
M  V30 4554 H 426.361 5.63059 1.07876 0
M  V30 4555 H 424.758 5.98936 0.373593 0
M  V30 4556 H 425.828 4.8295 -0.434394 0
M  V30 4557 N 427.171 -0.0066808 1.57599 0
M  V30 4558 C 428.104 -1.03397 2.03431 0
M  V30 4559 C 429.082 -1.33872 0.922877 0
M  V30 4560 O 430.266 -1.4615 1.19048 0
M  V30 4561 C 427.393 -2.36325 2.42628 0
M  V30 4562 C 426.439 -2.21557 3.64438 0
M  V30 4563 S 427.272 -1.54789 5.12641 0
M  V30 4564 C 428.428 -2.8916 5.55101 0
M  V30 4565 H 428.661 -0.643687 2.90248 0
M  V30 4566 H 426.194 -0.217349 1.52863 0
M  V30 4567 H 428.152 -3.12759 2.65879 0
M  V30 4568 H 426.813 -2.72495 1.56222 0
M  V30 4569 H 426.006 -3.1974 3.89592 0
M  V30 4570 H 425.608 -1.53267 3.41153 0
M  V30 4571 H 427.9 -3.8547 5.57153 0
M  V30 4572 H 428.843 -2.68713 6.55133 0
M  V30 4573 H 429.251 -2.92762 4.82649 0
M  V30 4574 N 428.649 -1.55105 -0.279332 0
M  V30 4575 C 429.879 -1.7917 -1.02867 0
M  V30 4576 C 430.287 -0.56204 -1.80659 0
M  V30 4577 O 429.63 0.478266 -1.77365 0
M  V30 4578 C 429.692 -2.96061 -2.03932 0
M  V30 4579 C 429.356 -4.33341 -1.45137 0
M  V30 4580 C 430.353 -5.12565 -0.870266 0
M  V30 4581 C 428.038 -4.79987 -1.48048 0
M  V30 4582 C 430.032 -6.36565 -0.326097 0
M  V30 4583 C 427.719 -6.03944 -0.932443 0
M  V30 4584 C 428.717 -6.8207 -0.356247 0
M  V30 4585 O 428.405 -8.03691 0.183412 0
M  V30 4586 H 428.137 -0.600796 -0.309872 0
M  V30 4587 H 430.691 -2.02932 -0.317468 0
M  V30 4588 H 428.921 -2.67975 -2.78794 0
M  V30 4589 H 430.61 -3.07506 -2.64943 0
M  V30 4590 H 431.376 -4.77661 -0.840521 0
M  V30 4591 H 427.255 -4.1919 -1.91835 0
M  V30 4592 H 430.799 -6.97489 0.124286 0
M  V30 4593 H 426.696 -6.3833 -0.959407 0
M  V30 4594 H 427.464 -8.18468 0.0721681 0
M  V30 4595 N 430.127 0.543554 -1.4793 0
M  V30 4596 C 431.373 1.29961 -1.56466 0
M  V30 4597 C 431.728 1.91024 -0.229696 0
M  V30 4598 O 431.021 1.75619 0.766072 0
M  V30 4599 C 431.215 2.42078 -2.62932 0
M  V30 4600 C 431.044 1.92003 -4.06651 0
M  V30 4601 C 429.814 1.75223 -4.73946 0
M  V30 4602 C 432.012 1.45648 -4.93245 0
M  V30 4603 N 429.994 1.19632 -6.02131 0
M  V30 4604 C 431.365 1.01914 -6.11566 0
M  V30 4605 C 433.42 1.33826 -4.79578 0
M  V30 4606 C 432.123 0.475301 -7.17728 0
M  V30 4607 C 434.149 0.808427 -5.85848 0
M  V30 4608 C 433.511 0.381081 -7.03368 0
M  V30 4609 H 429.61 0.467086 -0.62718 0
M  V30 4610 H 432.194 0.614543 -1.84747 0
M  V30 4611 H 430.365 3.08098 -2.36496 0
M  V30 4612 H 432.097 3.09096 -2.61231 0
M  V30 4613 H 428.852 1.98345 -4.30065 0
M  V30 4614 H 429.276 0.93885 -6.70458 0
M  V30 4615 H 433.918 1.65474 -3.89074 0
M  V30 4616 H 431.636 0.146472 -8.07967 0
M  V30 4617 H 435.222 0.720315 -5.77324 0
M  V30 4618 H 434.102 -0.0225344 -7.84197 0
M  V30 4619 N 431.605 1.3629 0.791371 0
M  V30 4620 C 432.854 1.29742 1.54434 0
M  V30 4621 C 433.167 -0.121729 1.95221 0
M  V30 4622 O 434.373 -0.309579 2.69729 0
M  V30 4623 C 432.829 2.27623 2.78776 0
M  V30 4624 C 432.437 3.74963 2.45166 0
M  V30 4625 C 434.181 2.30047 3.56761 0
M  V30 4626 C 432.088 4.64626 3.65891 0
M  V30 4627 H 431.018 0.482113 0.579727 0
M  V30 4628 H 433.669 1.61642 0.868565 0
M  V30 4629 H 432.051 1.88714 3.48142 0
M  V30 4630 H 433.225 4.22596 1.83709 0
M  V30 4631 H 431.54 3.75295 1.80396 0
M  V30 4632 H 434.137 2.94247 4.46456 0
M  V30 4633 H 434.48 1.30846 3.95203 0
M  V30 4634 H 435.013 2.67563 2.94372 0
M  V30 4635 H 431.752 5.64883 3.32547 0
M  V30 4636 H 431.272 4.2171 4.26521 0
M  V30 4637 H 432.951 4.80801 4.32943 0
M  V30 4638 N 433.083 -1.0153 1.20538 0
M  V30 4639 C 434.331 -1.74803 1.01432 0
M  V30 4640 C 434.652 -1.8963 -0.454456 0
M  V30 4641 O 433.922 -1.43975 -1.32846 0
M  V30 4642 H 432.502 -0.647598 0.372324 0
M  V30 4643 H 435.164 -1.22402 1.5167 0
M  V30 4644 H 434.26 -2.75114 1.47373 0
M  V30 4645 N 434.561 -1.01147 -1.20859 0
M  V30 4646 C 435.808 -0.697865 -1.90095 0
M  V30 4647 C 436.136 0.772014 -1.78522 0
M  V30 4648 O 435.391 1.57595 -1.16027 0
M  V30 4649 C 435.69 -1.0727 -3.40922 0
M  V30 4650 C 435.356 -2.53792 -3.72693 0
M  V30 4651 C 434.018 -2.93829 -3.81075 0
M  V30 4652 C 436.37 -3.48674 -3.87397 0
M  V30 4653 C 433.698 -4.27696 -4.01613 0
M  V30 4654 C 436.05 -4.82223 -4.09444 0
M  V30 4655 C 434.714 -5.21973 -4.16054 0
M  V30 4656 H 433.984 -0.255367 -0.695607 0
M  V30 4657 H 436.631 -1.27111 -1.43231 0
M  V30 4658 H 434.936 -0.417799 -3.89566 0
M  V30 4659 H 436.633 -0.807818 -3.92779 0
M  V30 4660 H 433.223 -2.21768 -3.66765 0
M  V30 4661 H 437.407 -3.18904 -3.80281 0
M  V30 4662 H 432.663 -4.58055 -4.04964 0
M  V30 4663 H 436.837 -5.55672 -4.19763 0
M  V30 4664 H 434.464 -6.25717 -4.31721 0
M  V30 4665 N 436.039 1.36541 -0.78704 0
M  V30 4666 C 436.969 2.32659 -0.197992 0
M  V30 4667 C 437.95 1.56533 0.665697 0
M  V30 4668 O 439.135 1.84698 0.60001 0
M  V30 4669 C 436.265 3.40778 0.669901 0
M  V30 4670 C 435.219 4.27897 -0.0937039 0
M  V30 4671 C 434.545 5.27163 0.894629 0
M  V30 4672 C 435.845 5.06334 -1.28154 0
M  V30 4673 H 437.539 2.82171 -1.00099 0
M  V30 4674 H 435.085 1.35665 -0.482793 0
M  V30 4675 H 437.038 4.07008 1.09191 0
M  V30 4676 H 435.762 2.89827 1.50558 0
M  V30 4677 H 434.421 3.6322 -0.49666 0
M  V30 4678 H 434.069 4.72486 1.72527 0
M  V30 4679 H 433.769 5.86317 0.388149 0
M  V30 4680 H 435.293 5.96266 1.31525 0
M  V30 4681 H 436.707 5.65617 -0.93541 0
M  V30 4682 H 435.104 5.74888 -1.72115 0
M  V30 4683 H 436.174 4.38114 -2.07807 0
M  V30 4684 N 437.518 0.538854 1.48102 0
M  V30 4685 C 438.448 -0.207654 2.32575 0
M  V30 4686 C 439.429 -0.926559 1.4265 0
M  V30 4687 O 440.614 -0.91061 1.71527 0
M  V30 4688 C 437.744 -1.24957 3.24042 0
M  V30 4689 C 436.698 -0.648263 4.23062 0
M  V30 4690 C 436.024 -1.79348 5.03725 0
M  V30 4691 C 437.324 0.385897 5.20872 0
M  V30 4692 H 439.018 0.497534 2.95237 0
M  V30 4693 H 436.564 0.240715 1.41974 0
M  V30 4694 H 438.517 -1.77983 3.81969 0
M  V30 4695 H 437.241 -1.98446 2.59397 0
M  V30 4696 H 435.9 -0.139452 3.66335 0
M  V30 4697 H 435.548 -2.51696 4.35498 0
M  V30 4698 H 435.248 -1.39702 5.70751 0
M  V30 4699 H 436.772 -2.32735 5.64506 0
M  V30 4700 H 438.186 -0.057607 5.73271 0
M  V30 4701 H 436.583 0.700227 5.96001 0
M  V30 4702 H 437.653 1.28848 4.67468 0
M  V30 4703 N 438.996 -1.55193 0.274407 0
M  V30 4704 C 439.906 -2.26164 -0.623473 0
M  V30 4705 C 440.922 -1.28729 -1.17068 0
M  V30 4706 O 442.098 -1.61663 -1.20112 0
M  V30 4707 C 439.163 -2.96833 -1.7914 0
M  V30 4708 C 438.224 -4.09745 -1.28093 0
M  V30 4709 C 437.457 -4.77034 -2.3932 0
M  V30 4710 O 437.68 -4.4353 -3.5866 0
M  V30 4711 O 436.614 -5.64996 -2.07516 0
M  V30 4712 H 440.44 -3.03661 -0.0485661 0
M  V30 4713 H 438.025 -1.49341 0.0418382 0
M  V30 4714 H 439.907 -3.41248 -2.4724 0
M  V30 4715 H 438.582 -2.22253 -2.35341 0
M  V30 4716 H 437.489 -3.69787 -0.566416 0
M  V30 4717 H 438.822 -4.86224 -0.764683 0
M  V30 4718 N 440.474 -0.00167713 -1.576 0
M  V30 4719 C 441.72 0.683832 -1.90923 0
M  V30 4720 C 442.053 1.7333 -0.875799 0
M  V30 4721 O 441.328 1.94215 0.10525 0
M  V30 4722 C 441.611 1.32543 -3.3482 0
M  V30 4723 C 441.464 0.287387 -4.48881 0
M  V30 4724 C 442.783 2.25114 -3.78169 0
M  V30 4725 H 439.902 0.247125 -0.694333 0
M  V30 4726 H 442.544 -0.0533149 -1.89925 0
M  V30 4727 H 440.694 1.95372 -3.35801 0
M  V30 4728 H 442.366 -0.341346 -4.60035 0
M  V30 4729 H 440.609 -0.39017 -4.32042 0
M  V30 4730 H 441.28 0.775393 -5.46527 0
M  V30 4731 H 443.756 1.723 -3.7875 0
M  V30 4732 H 442.632 2.66971 -4.79602 0
M  V30 4733 H 442.893 3.13092 -3.12131 0
M  V30 4734 N 441.952 1.55251 0.271103 0
M  V30 4735 C 443.198 1.76207 1.00394 0
M  V30 4736 C 443.531 0.562604 1.85872 0
M  V30 4737 O 442.806 -0.439785 1.89463 0
M  V30 4738 C 443.089 3.06828 1.8849 0
M  V30 4739 C 442.942 4.37134 1.05992 0
M  V30 4740 C 444.261 3.33503 2.87165 0
M  V30 4741 H 441.38 0.641086 0.363562 0
M  V30 4742 H 444.022 1.87982 0.276189 0
M  V30 4743 H 442.172 2.96921 2.5054 0
M  V30 4744 H 443.844 4.59001 0.459978 0
M  V30 4745 H 442.087 4.32275 0.363443 0
M  V30 4746 H 442.758 5.2486 1.70955 0
M  V30 4747 H 445.234 3.43215 2.3525 0
M  V30 4748 H 444.11 4.2616 3.45946 0
M  V30 4749 H 444.371 2.53235 3.62387 0
M  V30 4750 N 443.43 -0.535701 1.48216 0
M  V30 4751 C 444.655 -1.32149 1.59848 0
M  V30 4752 C 445.08 -1.86338 0.256842 0
M  V30 4753 O 444.438 -1.64107 -0.770632 0
M  V30 4754 C 444.486 -2.45224 2.64381 0
M  V30 4755 O 443.59 -3.48093 2.21144 0
M  V30 4756 H 442.931 -0.391634 0.536208 0
M  V30 4757 H 445.461 -0.645202 1.94161 0
M  V30 4758 H 445.471 -2.91491 2.85476 0
M  V30 4759 H 444.146 -2.05143 3.61786 0
M  V30 4760 H 442.723 -3.07984 2.10239 0
M  V30 4761 N 444.908 -1.36708 -0.784132 0
M  V30 4762 C 446.155 -1.31231 -1.54222 0
M  V30 4763 C 446.483 0.106864 -1.94206 0
M  V30 4764 O 445.738 1.07734 -1.63376 0
M  V30 4765 C 446.037 -2.18571 -2.82774 0
M  V30 4766 C 445.703 -3.67039 -2.61903 0
M  V30 4767 C 444.365 -4.07503 -2.55919 0
M  V30 4768 C 446.717 -4.61149 -2.4288 0
M  V30 4769 C 444.045 -5.40211 -2.28886 0
M  V30 4770 C 446.397 -5.94081 -2.17373 0
M  V30 4771 C 445.061 -6.33664 -2.09825 0
M  V30 4772 H 444.331 -0.48021 -0.56434 0
M  V30 4773 H 446.978 -1.68807 -0.904233 0
M  V30 4774 H 445.283 -1.73949 -3.51068 0
M  V30 4775 H 446.98 -2.11655 -3.40592 0
M  V30 4776 H 443.57 -3.34941 -2.67418 0
M  V30 4777 H 447.754 -4.30756 -2.46501 0
M  V30 4778 H 443.01 -5.69855 -2.21529 0
M  V30 4779 H 447.184 -6.66566 -2.01649 0
M  V30 4780 H 444.811 -7.36423 -1.88641 0
M  V30 4781 N 446.386 1.0089 -1.21074 0
M  V30 4782 C 447.316 2.1145 -0.990523 0
M  V30 4783 C 448.297 1.69897 0.0831699 0
M  V30 4784 O 449.482 1.94052 -0.0758853 0
M  V30 4785 C 446.612 3.42914 -0.550177 0
M  V30 4786 C 445.566 3.98244 -1.56799 0
M  V30 4787 C 444.892 5.25568 -0.984013 0
M  V30 4788 C 446.192 4.30752 -2.95381 0
M  V30 4789 H 447.886 2.3013 -1.91521 0
M  V30 4790 H 445.432 1.10592 -0.92225 0
M  V30 4791 H 447.385 4.19653 -0.383305 0
M  V30 4792 H 446.109 3.24014 0.41015 0
M  V30 4793 H 444.768 3.23621 -1.72236 0
M  V30 4794 H 444.416 5.02998 -0.0155216 0
M  V30 4795 H 444.116 5.63551 -1.66384 0
M  V30 4796 H 445.64 6.04955 -0.828378 0
M  V30 4797 H 447.054 4.98349 -2.8341 0
M  V30 4798 H 445.451 4.79869 -3.60341 0
M  V30 4799 H 446.521 3.39192 -3.46521 0
M  V30 4800 N 447.864 1.01787 1.20321 0
M  V30 4801 C 448.794 0.609625 2.25401 0
M  V30 4802 C 449.775 -0.375951 1.65893 0
M  V30 4803 O 450.96 -0.261101 1.92437 0
M  V30 4804 C 448.09 -0.0515995 3.47262 0
M  V30 4805 C 447.044 0.855095 4.19371 0
M  V30 4806 C 446.37 0.0595757 5.34667 0
M  V30 4807 C 447.67 2.16374 4.75373 0
M  V30 4808 H 449.364 1.48803 2.59804 0
M  V30 4809 H 446.91 0.716934 1.24884 0
M  V30 4810 H 448.863 -0.348764 4.19954 0
M  V30 4811 H 447.587 -0.964726 3.12027 0
M  V30 4812 H 446.246 1.13628 3.48546 0
M  V30 4813 H 445.894 -0.85524 4.95676 0
M  V30 4814 H 445.594 0.663406 5.83843 0
M  V30 4815 H 447.118 -0.231105 6.10162 0
M  V30 4816 H 448.532 1.92885 5.39878 0
M  V30 4817 H 446.929 2.71853 5.34991 0
M  V30 4818 H 447.999 2.82589 3.94045 0
M  V30 4819 N 449.342 -1.36122 0.79427 0
M  V30 4820 C 450.567 -2.03891 0.379871 0
M  V30 4821 C 450.992 -1.59488 -0.997251 0
M  V30 4822 O 450.35 -0.765652 -1.64339 0
M  V30 4823 C 450.398 -3.57687 0.457442 0
M  V30 4824 O 449.502 -4.08931 -0.5338 0
M  V30 4825 H 448.843 -0.6443 0.160541 0
M  V30 4826 H 451.373 -1.73976 1.07673 0
M  V30 4827 H 451.383 -4.06721 0.322792 0
M  V30 4828 H 450.058 -3.89357 1.46199 0
M  V30 4829 H 448.635 -3.71154 -0.360409 0
M  V30 4830 N 450.82 -0.546701 -1.47814 0
M  V30 4831 C 452.231 -0.110564 -1.86372 0
M  V30 4832 C 452.582 1.31678 -1.45449 0
M  V30 4833 O 451.707 1.98889 -0.852758 0
M  V30 4834 C 452.302 -0.193873 -3.38245 0
M  V30 4835 C 450.861 0.187164 -3.75934 0
M  V30 4836 C 450.008 -0.546166 -2.71868 0
M  V30 4837 H 452.959 -0.757022 -1.39481 0
M  V30 4838 H 452.98 0.590218 -3.75895 0
M  V30 4839 H 452.492 -1.23282 -3.67999 0
M  V30 4840 H 450.593 1.22762 -3.51796 0
M  V30 4841 H 450.706 -0.164083 -4.78819 0
M  V30 4842 H 449.07 0.00953904 -2.54698 0
M  V30 4843 H 449.853 -1.58606 -3.04465 0
M  V30 4844 N 452.299 1.55045 -0.282633 0
M  V30 4845 C 453.548 1.98938 0.332667 0
M  V30 4846 C 453.861 1.17455 1.56409 0
M  V30 4847 O 455.067 1.51527 2.25282 0
M  V30 4848 C 453.523 3.54105 0.643226 0
M  V30 4849 C 453.131 4.44374 -0.568814 0
M  V30 4850 C 454.875 4.06569 1.22074 0
M  V30 4851 C 452.782 5.90943 -0.232426 0
M  V30 4852 H 451.712 0.743043 0.128075 0
M  V30 4853 H 454.363 1.79341 -0.388464 0
M  V30 4854 H 452.745 3.69532 1.42346 0
M  V30 4855 H 453.919 4.40718 -1.34551 0
M  V30 4856 H 452.234 4.02585 -1.06369 0
M  V30 4857 H 454.831 5.13626 1.48635 0
M  V30 4858 H 455.174 3.56057 2.15707 0
M  V30 4859 H 455.707 3.94612 0.502621 0
M  V30 4860 H 452.446 6.45567 -1.13683 0
M  V30 4861 H 451.966 5.9765 0.507357 0
M  V30 4862 H 453.645 6.4677 0.172657 0
M  V30 4863 N 453.777 0.010035 1.57597 0
M  V30 4864 C 455.007 -0.682422 1.95004 0
M  V30 4865 C 455.415 -1.67278 0.884014 0
M  V30 4866 O 454.758 -1.83129 -0.144672 0
M  V30 4867 C 454.82 -1.46141 3.28456 0
M  V30 4868 C 454.484 -0.631523 4.52615 0
M  V30 4869 C 455.481 0.0850905 5.1983 0
M  V30 4870 C 453.166 -0.574539 4.99003 0
M  V30 4871 C 455.16 0.847566 6.3174 0
M  V30 4872 C 452.847 0.191655 6.10799 0
M  V30 4873 C 453.845 0.901432 6.77025 0
M  V30 4874 O 453.533 1.65511 7.86677 0
M  V30 4875 H 453.265 -0.194361 0.647456 0
M  V30 4876 H 455.819 0.060312 2.05311 0
M  V30 4877 H 454.049 -2.24885 3.14585 0
M  V30 4878 H 455.738 -2.04016 3.50902 0
M  V30 4879 H 456.504 0.0502812 4.84974 0
M  V30 4880 H 452.383 -1.11654 4.47274 0
M  V30 4881 H 455.927 1.4021 6.83364 0
M  V30 4882 H 451.824 0.228249 6.45096 0
M  V30 4883 H 452.592 1.57287 8.03245 0
M  V30 4884 N 455.255 -1.55392 -0.262866 0
M  V30 4885 C 456.48 -1.80847 -1.01533 0
M  V30 4886 C 456.905 -0.584946 -1.78774 0
M  V30 4887 O 456.263 0.465701 -1.75217 0
M  V30 4888 C 456.311 -3.03866 -1.94159 0
M  V30 4889 O 455.415 -2.79662 -3.03089 0
M  V30 4890 H 454.756 -0.597441 -0.289759 0
M  V30 4891 H 457.286 -2.02553 -0.288698 0
M  V30 4892 H 457.296 -3.32872 -2.35924 0
M  V30 4893 H 455.971 -3.92564 -1.37354 0
M  V30 4894 H 454.548 -2.61781 -2.65566 0
M  V30 4895 N 456.733 0.527833 -1.48498 0
M  V30 4896 C 457.963 1.30633 -1.60058 0
M  V30 4897 C 458.371 1.87394 -0.260786 0
M  V30 4898 O 457.714 1.67227 0.760317 0
M  V30 4899 C 457.776 2.49361 -2.58958 0
M  V30 4900 C 457.44 2.13671 -4.03972 0
M  V30 4901 C 458.437 1.69217 -4.91591 0
M  V30 4902 C 456.122 2.24129 -4.49524 0
M  V30 4903 C 458.116 1.35689 -6.2279 0
M  V30 4904 C 455.803 1.90212 -5.80743 0
M  V30 4905 C 456.801 1.46063 -6.67199 0
M  V30 4906 O 456.489 1.12593 -7.95976 0
M  V30 4907 H 456.221 0.403444 -0.54241 0
M  V30 4908 H 458.775 0.643233 -1.95068 0
M  V30 4909 H 457.005 3.18659 -2.19073 0
M  V30 4910 H 458.694 3.11421 -2.6033 0
M  V30 4911 H 459.46 1.60607 -4.57636 0
M  V30 4912 H 455.339 2.57447 -3.82416 0
M  V30 4913 H 458.883 1.01157 -6.90227 0
M  V30 4914 H 454.78 1.98464 -6.14233 0
M  V30 4915 H 455.548 1.25972 -8.08748 0
M  V30 4916 N 458.211 1.37122 0.776871 0
M  V30 4917 C 459.143 1.28342 1.89897 0
M  V30 4918 C 460.156 0.200277 1.61563 0
M  V30 4919 O 461.345 0.456012 1.72577 0
M  V30 4920 C 458.445 0.960427 3.25006 0
M  V30 4921 C 457.618 2.148 3.81025 0
M  V30 4922 C 456.677 1.79608 4.94598 0
M  V30 4923 O 455.703 2.51845 5.10454 0
M  V30 4924 N 456.905 0.737171 5.758 0
M  V30 4925 H 459.67 2.25027 1.97947 0
M  V30 4926 H 457.231 1.3068 0.955739 0
M  V30 4927 H 459.223 0.705942 3.98495 0
M  V30 4928 H 457.793 0.0823066 3.12492 0
M  V30 4929 H 457.013 2.56454 2.99374 0
M  V30 4930 H 458.301 2.9411 4.15183 0
M  V30 4931 H 457.699 0.137637 5.65533 0
M  V30 4932 H 456.256 0.542534 6.49538 0
M  V30 4933 N 459.689 -1.00246 1.21608 0
M  V30 4934 C 461.1 -1.55511 1.03312 0
M  V30 4935 C 461.451 -1.91946 -0.406332 0
M  V30 4936 O 460.576 -1.73753 -1.28992 0
M  V30 4937 C 461.171 -2.82576 1.86913 0
M  V30 4938 C 459.73 -3.34318 1.72941 0
M  V30 4939 C 458.877 -2.07487 1.83968 0
M  V30 4940 H 461.828 -0.824638 1.35593 0
M  V30 4941 H 461.849 -3.54559 1.38087 0
M  V30 4942 H 461.361 -2.56026 2.91672 0
M  V30 4943 H 459.462 -3.65797 0.70877 0
M  V30 4944 H 459.575 -4.05566 2.55055 0
M  V30 4945 H 457.939 -2.20603 1.27304 0
M  V30 4946 H 458.722 -1.83346 2.9024 0
M  V30 4947 N 461.167 -1.02423 -1.1978 0
M  V30 4948 C 462.578 -0.748389 -1.71044 0
M  V30 4949 C 462.929 0.732398 -1.82017 0
M  V30 4950 O 462.054 1.57116 -1.48807 0
M  V30 4951 C 462.649 -1.35187 -3.1066 0
M  V30 4952 C 461.208 -1.12472 -3.59203 0
M  V30 4953 C 460.355 -1.45283 -2.36195 0
M  V30 4954 H 463.306 -1.19275 -1.04686 0
M  V30 4955 H 463.327 -0.746408 -3.73107 0
M  V30 4956 H 462.839 -2.4296 -3.02642 0
M  V30 4957 H 460.94 -0.0649983 -3.72543 0
M  V30 4958 H 461.053 -1.81016 -4.43588 0
M  V30 4959 H 459.417 -0.872034 -2.39307 0
M  V30 4960 H 460.2 -2.54129 -2.30811 0
M  V30 4961 N 462.645 1.35699 -0.801477 0
M  V30 4962 C 463.892 1.98913 -0.379459 0
M  V30 4963 C 464.22 1.63592 1.05204 0
M  V30 4964 O 463.475 0.888563 1.74365 0
M  V30 4965 C 463.774 3.53828 -0.504041 0
M  V30 4966 C 463.44 4.09002 -1.8981 0
M  V30 4967 C 462.102 4.23783 -2.27951 0
M  V30 4968 C 464.454 4.38939 -2.81038 0
M  V30 4969 C 461.782 4.65816 -3.56696 0
M  V30 4970 C 464.134 4.82409 -4.09224 0
M  V30 4971 C 462.798 4.95395 -4.4737 0
M  V30 4972 H 462.068 0.727874 -0.138854 0
M  V30 4973 H 464.715 1.61994 -1.02128 0
M  V30 4974 H 463.02 3.91175 0.221242 0
M  V30 4975 H 464.717 4.00687 -0.158361 0
M  V30 4976 H 461.307 3.97946 -1.59176 0
M  V30 4977 H 465.491 4.27077 -2.52821 0
M  V30 4978 H 460.747 4.74059 -3.86106 0
M  V30 4979 H 464.921 5.04535 -4.80018 0
M  V30 4980 H 462.548 5.27724 -5.47185 0
M  V30 4981 N 464.123 0.554532 1.47522 0
M  V30 4982 C 465.071 -0.207765 2.3167 0
M  V30 4983 C 466.065 -0.911914 1.4276 0
M  V30 4984 O 467.271 -0.833504 1.59539 0
M  V30 4985 H 463.646 -0.0858726 0.747081 0
M  V30 4986 H 465.617 0.521178 2.93813 0
M  V30 4987 C 464.366 -1.2263 3.25357 0
M  V30 4988 H 463.689 -0.693887 3.93732 0
M  V30 4989 H 465.129 -1.73062 3.87073 0
M  V30 4990 C 463.588 -2.27278 2.4869 0
M  V30 4991 O 464.118 -3.34156 2.22941 0
M  V30 4992 N 462.324 -2.01134 2.09746 0
M  V30 4993 H 461.871 -1.14232 2.30887 0
M  V30 4994 H 461.829 -2.71369 1.58765 0
M  V30 4995 N 465.601 -1.54893 0.290851 0
M  V30 4996 C 467.017 -1.59476 -0.0628432 0
M  V30 4997 C 467.217 -1.30795 -1.5328 0
M  V30 4998 O 466.273 -1.07644 -2.28406 0
M  V30 4999 C 467.586 -2.98928 0.325962 0
M  V30 5000 C 469.134 -3.11799 0.273882 0
M  V30 5001 C 469.609 -4.53544 0.637359 0
M  V30 5002 N 471.1 -4.59433 0.589507 0
M  V30 5003 C 471.835 -5.67164 0.84335 0
M  V30 5004 N 471.331 -6.82975 1.16263 0
M  V30 5005 N 473.124 -5.56786 0.771091 0
M  V30 5006 H 465.275 -1.71798 1.24896 0
M  V30 5007 H 467.538 -0.801879 0.505663 0
M  V30 5008 H 467.244 -3.24805 1.34887 0
M  V30 5009 H 467.118 -3.75793 -0.325441 0
M  V30 5010 H 469.505 -2.85677 -0.739765 0
M  V30 5011 H 469.586 -2.37112 0.959766 0
M  V30 5012 H 469.23 -4.80394 1.64877 0
M  V30 5013 H 469.16 -5.26553 -0.0704866 0
M  V30 5014 H 471.651 -3.76245 0.353252 0
M  V30 5015 H 471.964 -7.61048 1.34257 0
M  V30 5016 H 470.309 -6.84552 1.20057 0
M  V30 5017 H 473.5 -4.65187 0.521383 0
M  V30 5018 H 473.673 -6.40664 0.972295 0
M  V30 5019 N 467.08 -0.0183926 -1.57589 0
M  V30 5020 C 468.03 0.975944 -2.06057 0
M  V30 5021 C 469.014 1.29204 -0.958908 0
M  V30 5022 O 470.206 1.27995 -1.22255 0
M  V30 5023 C 467.335 2.26194 -2.58247 0
M  V30 5024 C 466.421 1.97467 -3.75323 0
M  V30 5025 N 466.812 1.38968 -4.86335 0
M  V30 5026 C 465.11 2.27515 -3.83605 0
M  V30 5027 C 465.811 1.27131 -5.67638 0
M  V30 5028 N 464.787 1.76319 -5.14211 0
M  V30 5029 H 468.589 0.518444 -2.89291 0
M  V30 5030 H 466.103 0.18688 -1.61321 0
M  V30 5031 H 468.1 2.98289 -2.91255 0
M  V30 5032 H 466.76 2.7258 -1.76438 0
M  V30 5033 H 467.771 1.06608 -5.06809 0
M  V30 5034 H 464.448 2.76649 -3.12684 0
M  V30 5035 H 465.838 0.819882 -6.66879 0
M  V30 5036 N 468.558 1.5553 0.254621 0
M  V30 5037 C 469.786 1.81046 1.00149 0
M  V30 5038 C 470.201 0.593047 1.79244 0
M  V30 5039 O 469.558 -0.438196 1.77161 0
M  V30 5040 C 469.609 3.04684 1.94551 0
M  V30 5041 O 469.33 4.21725 1.18658 0
M  V30 5042 C 470.831 3.42943 2.80901 0
M  V30 5043 H 468.051 0.602653 0.295044 0
M  V30 5044 H 470.595 2.02576 0.279842 0
M  V30 5045 H 468.75 2.85226 2.62154 0
M  V30 5046 H 469.164 4.91746 1.82445 0
M  V30 5047 H 470.638 4.32576 3.42902 0
M  V30 5048 H 471.115 2.63176 3.51617 0
M  V30 5049 H 471.721 3.64724 2.18762 0
M  V30 5050 N 470.036 -0.519951 1.48776 0
M  V30 5051 C 471.282 -1.27711 1.57536 0
M  V30 5052 C 471.615 -1.92547 0.252866 0
M  V30 5053 O 470.89 -1.7979 -0.742021 0
M  V30 5054 C 471.173 -2.35875 2.72094 0
M  V30 5055 C 471.026 -1.75664 4.1408 0
M  V30 5056 C 472.345 -3.37575 2.82367 0
M  V30 5057 H 469.464 -0.462971 0.573434 0
M  V30 5058 H 472.106 -0.578194 1.80989 0
M  V30 5059 H 470.256 -2.95488 2.52228 0
M  V30 5060 H 471.928 -1.20025 4.45412 0
M  V30 5061 H 470.171 -1.06154 4.20611 0
M  V30 5062 H 470.842 -2.54029 4.90075 0
M  V30 5063 H 473.318 -2.87929 3.00393 0
M  V30 5064 H 472.194 -4.1064 3.64233 0
M  V30 5065 H 472.455 -3.98743 1.90936 0
M  V30 5066 N 471.514 -1.37532 -0.769588 0
M  V30 5067 C 472.742 -1.36059 -1.55871 0
M  V30 5068 C 473.157 0.053544 -1.88724 0
M  V30 5069 O 472.514 1.01591 -1.5161 0
M  V30 5070 C 472.565 -2.20107 -2.86767 0
M  V30 5071 O 472.286 -3.56009 -2.55321 0
M  V30 5072 C 473.787 -2.26636 -3.80987 0
M  V30 5073 H 471.007 -0.465967 -0.482821 0
M  V30 5074 H 473.551 -1.80901 -0.953686 0
M  V30 5075 H 471.706 -1.78768 -3.43687 0
M  V30 5076 H 472.12 -4.0009 -3.39158 0
M  V30 5077 H 473.594 -2.89763 -4.69831 0
M  V30 5078 H 474.071 -1.2754 -4.20274 0
M  V30 5079 H 474.677 -2.68296 -3.29996 0
M  V30 5080 N 472.992 0.995999 -1.22138 0
M  V30 5081 C 473.922 2.10387 -1.01289 0
M  V30 5082 C 474.903 1.69975 0.0651454 0
M  V30 5083 O 476.088 1.9396 -0.0964628 0
M  V30 5084 C 473.218 3.42312 -0.586517 0
M  V30 5085 C 472.172 3.96558 -1.61014 0
M  V30 5086 C 471.498 5.24494 -1.0397 0
M  V30 5087 C 472.798 4.27595 -2.99933 0
M  V30 5088 H 474.492 2.28086 -1.93951 0
M  V30 5089 H 472.038 1.09607 -0.933928 0
M  V30 5090 H 473.991 4.19223 -0.427793 0
M  V30 5091 H 472.715 3.24431 0.375761 0
M  V30 5092 H 471.374 3.21776 -1.75658 0
M  V30 5093 H 471.022 5.02953 -0.0688703 0
M  V30 5094 H 470.722 5.61755 -1.72352 0
M  V30 5095 H 472.246 6.04042 -0.892494 0
M  V30 5096 H 473.66 4.95315 -2.8868 0
M  V30 5097 H 472.057 4.76021 -3.6541 0
M  V30 5098 H 473.127 3.35498 -3.50099 0
M  V30 5099 N 474.47 1.03057 1.19235 0
M  V30 5100 C 475.695 0.74757 1.93458 0
M  V30 5101 C 476.12 -0.687648 1.7508 0
M  V30 5102 O 475.478 -1.47499 1.05422 0
M  V30 5103 C 475.526 1.10604 3.43219 0
M  V30 5104 O 474.63 0.225671 4.11782 0
M  V30 5105 H 473.971 0.276047 0.603899 0
M  V30 5106 H 476.501 1.3777 1.51263 0
M  V30 5107 H 476.511 1.06366 3.93891 0
M  V30 5108 H 475.186 2.15165 3.55917 0
M  V30 5109 H 473.763 0.326795 3.71465 0
M  V30 5110 N 475.948 -1.35272 0.808662 0
M  V30 5111 C 476.896 -2.31663 0.208606 0
M  V30 5112 C 477.89 -1.56731 -0.642778 0
M  V30 5113 O 479.096 -1.71843 -0.53571 0
M  V30 5114 H 475.471 -0.750421 0.0486993 0
M  V30 5115 H 477.442 -2.79814 1.03666 0
M  V30 5116 C 476.191 -3.42008 -0.626573 0
M  V30 5117 H 475.514 -3.99795 0.0192103 0
M  V30 5118 H 476.954 -4.11727 -1.01278 0
M  V30 5119 C 475.413 -2.85226 -1.79298 0
M  V30 5120 O 475.943 -2.78945 -2.89055 0
M  V30 5121 N 474.149 -2.42245 -1.60516 0
M  V30 5122 H 473.696 -2.47554 -0.712375 0
M  V30 5123 H 473.654 -2.04603 -2.38715 0
M  V30 5124 N 477.426 -0.562348 -1.47226 0
M  V30 5125 C 478.651 -0.0432632 -2.07355 0
M  V30 5126 C 479.076 1.24332 -1.41149 0
M  V30 5127 O 478.434 1.74603 -0.488226 0
M  V30 5128 C 478.482 0.130288 -3.60365 0
M  V30 5129 O 477.586 1.19166 -3.94808 0
M  V30 5130 H 476.927 -0.0536334 -0.66183 0
M  V30 5131 H 479.457 -0.779495 -1.89169 0
M  V30 5132 H 479.467 0.342881 -4.06557 0
M  V30 5133 H 478.142 -0.809389 -4.07948 0
M  V30 5134 H 476.719 0.959153 -3.60354 0
M  V30 5135 N 478.904 1.54736 -0.299062 0
M  V30 5136 C 480.15 2.00397 0.311244 0
M  V30 5137 C 480.483 1.18716 1.53688 0
M  V30 5138 O 479.758 0.263154 1.92712 0
M  V30 5139 C 480.041 3.53817 0.669761 0
M  V30 5140 C 479.894 4.46239 -0.564882 0
M  V30 5141 C 481.213 4.13856 1.49702 0
M  V30 5142 H 478.332 0.728493 0.111653 0
M  V30 5143 H 480.974 1.85506 -0.410774 0
M  V30 5144 H 479.124 3.66637 1.28491 0
M  V30 5145 H 480.796 4.45328 -1.20337 0
M  V30 5146 H 479.039 4.16916 -1.19849 0
M  V30 5147 H 479.71 5.5134 -0.269918 0
M  V30 5148 H 482.186 4.04461 0.977284 0
M  V30 5149 H 481.062 5.21365 1.71666 0
M  V30 5150 H 481.323 3.65608 2.48563 0
M  V30 5151 N 480.382 0.0267497 1.57577 0
M  V30 5152 C 481.629 -0.652404 1.91703 0
M  V30 5153 C 481.957 -1.72271 0.902936 0
M  V30 5154 O 481.212 -1.955 -0.0884843 0
M  V30 5155 C 481.511 -1.30914 3.3256 0
M  V30 5156 C 481.177 -0.369441 4.49384 0
M  V30 5157 C 479.839 -0.110791 4.81072 0
M  V30 5158 C 482.191 0.275971 5.20469 0
M  V30 5159 C 479.519 0.801116 5.81205 0
M  V30 5160 C 481.871 1.17592 6.21575 0
M  V30 5161 C 480.535 1.44348 6.51705 0
M  V30 5162 H 479.805 -0.238732 0.70149 0
M  V30 5163 H 482.452 0.0880091 1.91298 0
M  V30 5164 H 480.757 -2.12425 3.29216 0
M  V30 5165 H 482.454 -1.84115 3.56234 0
M  V30 5166 H 479.044 -0.581211 4.24641 0
M  V30 5167 H 483.228 0.0892 4.9622 0
M  V30 5168 H 478.484 1.01614 6.02897 0
M  V30 5169 H 482.658 1.68223 6.75777 0
M  V30 5170 H 480.285 2.15176 7.29111 0
M  V30 5171 N 481.861 -1.55662 -0.24637 0
M  V30 5172 C 483.089 -1.81575 -0.991876 0
M  V30 5173 C 483.504 -0.602545 -1.78927 0
M  V30 5174 O 482.861 0.428795 -1.77391 0
M  V30 5175 C 482.912 -3.05711 -1.92933 0
M  V30 5176 O 482.633 -4.22348 -1.1642 0
M  V30 5177 C 484.134 -3.44428 -2.79078 0
M  V30 5178 H 481.354 -0.604209 -0.291844 0
M  V30 5179 H 483.898 -2.02722 -0.269095 0
M  V30 5180 H 482.053 -2.86612 -2.60638 0
M  V30 5181 H 482.467 -4.92706 -1.79835 0
M  V30 5182 H 483.941 -4.34388 -3.40603 0
M  V30 5183 H 484.418 -2.65037 -3.50217 0
M  V30 5184 H 485.024 -3.65879 -2.16824 0
M  V30 5185 N 483.339 0.512053 -1.4905 0
M  V30 5186 C 484.586 1.26686 -1.57978 0
M  V30 5187 C 484.914 1.92733 -0.261553 0
M  V30 5188 O 484.169 1.80772 0.749667 0
M  V30 5189 C 484.468 2.36446 -2.68008 0
M  V30 5190 C 484.134 1.87932 -4.09869 0
M  V30 5191 C 482.796 1.74419 -4.48477 0
M  V30 5192 C 485.148 1.5149 -4.98698 0
M  V30 5193 C 482.476 1.22827 -5.73699 0
M  V30 5194 C 484.828 1.01355 -6.24428 0
M  V30 5195 C 483.492 0.864735 -6.61875 0
M  V30 5196 H 482.762 0.463577 -0.578081 0
M  V30 5197 H 485.409 0.569421 -1.82838 0
M  V30 5198 H 483.714 3.11933 -2.37076 0
M  V30 5199 H 485.411 2.9453 -2.72127 0
M  V30 5200 H 482.001 1.99405 -3.79389 0
M  V30 5201 H 486.185 1.60782 -4.69535 0
M  V30 5202 H 481.441 1.10008 -6.01422 0
M  V30 5203 H 485.615 0.722351 -6.92644 0
M  V30 5204 H 483.242 0.462777 -7.5879 0
M  V30 5205 N 484.817 1.37938 0.762283 0
M  V30 5206 C 486.042 1.37059 1.55659 0
M  V30 5207 C 486.467 -0.0396123 1.88058 0
M  V30 5208 O 485.825 -1.01929 1.49934 0
M  V30 5209 C 485.873 2.22494 2.83776 0
M  V30 5210 O 484.977 1.63607 3.78559 0
M  V30 5211 H 484.318 0.467892 0.47114 0
M  V30 5212 H 486.848 1.81587 0.942725 0
M  V30 5213 H 486.858 2.36045 3.32786 0
M  V30 5214 H 485.533 3.24993 2.59524 0
M  V30 5215 H 484.11 1.5915 3.37233 0
M  V30 5216 N 486.295 -0.989507 1.22664 0
M  V30 5217 C 487.525 -1.7624 1.0781 0
M  V30 5218 C 487.933 -1.85466 -0.374036 0
M  V30 5219 O 487.276 -1.32645 -1.27087 0
M  V30 5220 C 487.338 -3.21007 1.61849 0
M  V30 5221 C 487.002 -3.35316 3.10503 0
M  V30 5222 C 487.999 -3.22362 4.07896 0
M  V30 5223 C 485.684 -3.60258 3.50028 0
M  V30 5224 C 487.678 -3.34139 5.42798 0
M  V30 5225 C 485.365 -3.71676 4.85078 0
M  V30 5226 C 486.363 -3.58625 5.81272 0
M  V30 5227 O 486.051 -3.69655 7.1387 0
M  V30 5228 H 485.783 -0.560209 0.378341 0
M  V30 5229 H 488.337 -1.25252 1.62792 0
M  V30 5230 H 486.567 -3.73202 1.01279 0
M  V30 5231 H 488.256 -3.80024 1.42606 0
M  V30 5232 H 489.022 -3.03 3.78703 0
M  V30 5233 H 484.901 -3.69492 2.75675 0
M  V30 5234 H 488.445 -3.23869 6.17863 0
M  V30 5235 H 484.342 -3.90545 5.1395 0
M  V30 5236 H 485.11 -3.86507 7.21495 0
M  V30 5237 N 487.773 -1.03688 -1.18687 0
M  V30 5238 C 488.72 -0.624624 -2.22187 0
M  V30 5239 C 489.69 0.365636 -1.62026 0
M  V30 5240 O 490.875 0.260481 -1.89014 0
M  V30 5241 C 488.015 0.0101738 -3.45099 0
M  V30 5242 C 487.128 -1.02709 -4.19613 0
M  V30 5243 C 486.263 -0.361213 -5.2997 0
M  V30 5244 C 485.302 -1.38384 -5.96252 0
M  V30 5245 N 484.439 -0.743196 -6.98155 0
M  V30 5246 H 489.279 -1.51176 -2.56807 0
M  V30 5247 H 486.816 -0.75636 -1.26165 0
M  V30 5248 H 488.774 0.395528 -4.15321 0
M  V30 5249 H 487.404 0.860848 -3.1111 0
M  V30 5250 H 486.456 -1.53043 -3.48256 0
M  V30 5251 H 487.768 -1.80398 -4.65036 0
M  V30 5252 H 486.922 0.0785537 -6.06649 0
M  V30 5253 H 485.661 0.447799 -4.8564 0
M  V30 5254 H 484.666 -1.83378 -5.18317 0
M  V30 5255 H 485.891 -2.19448 -6.42666 0
M  V30 5256 H 483.837 0.0455789 -6.55984 0
M  V30 5257 H 483.754 -1.45784 -7.41811 0
M  V30 5258 H 485.022 -0.327698 -7.78811 0
M  V30 5259 N 489.251 1.34841 -0.815825 0
M  V30 5260 C 490.198 2.29644 -0.230664 0
M  V30 5261 C 491.168 1.53253 0.640533 0
M  V30 5262 O 492.353 1.81653 0.583672 0
M  V30 5263 C 489.493 3.39715 0.607275 0
M  V30 5264 C 488.606 4.31056 -0.28538 0
M  V30 5265 C 487.741 5.28225 0.561446 0
M  V30 5266 C 486.78 6.11204 -0.331035 0
M  V30 5267 N 485.917 7.00483 0.476302 0
M  V30 5268 H 490.757 2.79095 -1.0445 0
M  V30 5269 H 488.294 1.37351 -0.526595 0
M  V30 5270 H 490.252 4.02208 1.10835 0
M  V30 5271 H 488.882 2.91517 1.38629 0
M  V30 5272 H 487.934 3.69487 -0.904621 0
M  V30 5273 H 489.246 4.89239 -0.97193 0
M  V30 5274 H 488.4 5.96135 1.12728 0
M  V30 5275 H 487.139 4.70562 1.28153 0
M  V30 5276 H 486.144 5.42232 -0.909069 0
M  V30 5277 H 487.369 6.70947 -1.04912 0
M  V30 5278 H 485.315 6.45296 1.18019 0
M  V30 5279 H 485.232 7.55847 -0.152008 0
M  V30 5280 H 486.5 7.7273 1.02512 0
M  V30 5281 N 490.729 0.570148 1.46925 0
M  V30 5282 C 491.692 -0.159933 2.28641 0
M  V30 5283 C 492.692 -0.830638 1.37685 0
M  V30 5284 O 493.882 -0.684516 1.60187 0
M  V30 5285 C 491.014 -1.2354 3.17727 0
M  V30 5286 H 492.207 0.558035 2.94662 0
M  V30 5287 H 489.76 0.327603 1.52828 0
M  V30 5288 H 490.495 -1.98535 2.56426 0
M  V30 5289 H 490.28 -0.759125 3.84681 0
M  V30 5290 H 491.77 -1.74782 3.79264 0
M  V30 5291 N 492.207 -1.54576 0.307264 0
M  V30 5292 C 493.139 -2.21212 -0.599807 0
M  V30 5293 C 494.152 -1.20685 -1.09266 0
M  V30 5294 O 495.341 -1.47244 -1.00903 0
M  V30 5295 C 492.441 -2.84994 -1.83389 0
M  V30 5296 C 491.614 -4.11511 -1.48248 0
M  V30 5297 C 490.673 -4.59038 -2.57237 0
M  V30 5298 O 489.699 -5.24095 -2.22065 0
M  V30 5299 N 490.901 -4.31884 -3.87887 0
M  V30 5300 H 493.666 -2.99686 -0.0293075 0
M  V30 5301 H 491.227 -1.61379 0.129738 0
M  V30 5302 H 493.219 -3.1372 -2.5566 0
M  V30 5303 H 491.789 -2.10324 -2.31263 0
M  V30 5304 H 491.009 -3.89728 -0.592122 0
M  V30 5305 H 492.297 -4.93879 -1.22316 0
M  V30 5306 H 491.695 -3.79778 -4.19268 0
M  V30 5307 H 490.252 -4.65304 -4.56438 0
M  V30 5308 N 493.685 -0.035106 -1.57561 0
M  V30 5309 C 495.101 0.321334 -1.56332 0
M  V30 5310 C 495.301 1.72509 -1.04129 0
M  V30 5311 O 494.357 2.4287 -0.690694 0
M  V30 5312 C 495.67 0.164469 -3.0025 0
M  V30 5313 C 497.218 0.236786 -3.12103 0
M  V30 5314 C 497.693 0.10864 -4.57871 0
M  V30 5315 N 499.184 0.165433 -4.62904 0
M  V30 5316 C 499.919 0.0901506 -5.73329 0
M  V30 5317 N 499.415 -0.0365606 -6.9279 0
M  V30 5318 N 501.208 0.144572 -5.61914 0
M  V30 5319 H 493.359 -0.952976 -1.89821 0
M  V30 5320 H 495.622 -0.368537 -0.873432 0
M  V30 5321 H 495.328 -0.802746 -3.42416 0
M  V30 5322 H 495.202 0.932194 -3.655 0
M  V30 5323 H 497.589 1.19446 -2.69845 0
M  V30 5324 H 497.67 -0.561419 -2.49563 0
M  V30 5325 H 497.314 -0.845644 -5.00811 0
M  V30 5326 H 497.244 0.925786 -5.18398 0
M  V30 5327 H 499.735 0.263269 -3.76982 0
M  V30 5328 H 500.048 -0.0871487 -7.72751 0
M  V30 5329 H 498.393 -0.0714256 -6.94963 0
M  V30 5330 H 501.584 0.242006 -4.67474 0
M  V30 5331 H 501.757 0.0824413 -6.47948 0
M  V30 5332 N 495.163 1.55791 0.238111 0
M  V30 5333 C 496.44 1.68798 0.98826 0
M  V30 5334 C 496.82 0.577562 2.03045 0
M  V30 5335 O 496.168 -0.41778 2.24648 0
M  V30 5336 C 496.378 3.09454 1.61367 0
M  V30 5337 C 497.726 3.68335 2.11221 0
M  V30 5338 O 498.75 3.1231 1.71292 0
M  V30 5339 O 497.609 4.6657 2.84561 0
M  V30 5340 H 494.703 0.686881 0.460568 0
M  V30 5341 H 497.249 1.68118 0.231202 0
M  V30 5342 H 496.021 3.81726 0.860295 0
M  V30 5343 H 495.644 3.14182 2.4367 0
M  V30 5344 N 496.642 -0.504142 1.49319 0
M  V30 5345 C 497.572 -1.61473 1.68667 0
M  V30 5346 C 498.553 -1.61455 0.535378 0
M  V30 5347 O 499.738 -1.78245 0.770868 0
M  V30 5348 C 496.868 -2.99971 1.75028 0
M  V30 5349 C 495.822 -3.14854 2.89916 0
M  V30 5350 C 495.148 -4.54671 2.81387 0
M  V30 5351 C 496.448 -2.95176 4.30893 0
M  V30 5352 H 498.142 -1.45535 2.61648 0
M  V30 5353 H 495.688 -0.698711 1.25913 0
M  V30 5354 H 497.641 -3.77562 1.8715 0
M  V30 5355 H 496.365 -3.1699 0.786441 0
M  V30 5356 H 495.024 -2.39687 2.77391 0
M  V30 5357 H 494.672 -4.68562 1.82917 0
M  V30 5358 H 494.372 -4.6557 3.58494 0
M  V30 5359 H 495.896 -5.34327 2.95512 0
M  V30 5360 H 497.31 -3.62538 4.44116 0
M  V30 5361 H 495.707 -3.17549 5.09198 0
M  V30 5362 H 496.777 -1.91332 4.45556 0
M  V30 5363 N 498.12 -1.38341 -0.754957 0
M  V30 5364 C 499.083 -1.35262 -1.85032 0
M  V30 5365 C 500.083 -0.253393 -1.58791 0
M  V30 5366 O 501.273 -0.510205 -1.66561 0
M  V30 5367 C 498.405 -1.10544 -3.22479 0
M  V30 5368 H 499.598 -2.32712 -1.8917 0
M  V30 5369 H 497.151 -1.23614 -0.956515 0
M  V30 5370 H 497.886 -0.136952 -3.24011 0
M  V30 5371 H 497.671 -1.90127 -3.4292 0
M  V30 5372 H 499.161 -1.11082 -4.02555 0
M  V30 5373 N 499.598 0.982988 -1.23187 0
M  V30 5374 C 500.828 1.75666 -1.08743 0
M  V30 5375 C 501.236 1.85662 0.364195 0
M  V30 5376 O 500.579 1.33317 1.26382 0
M  V30 5377 C 500.641 3.20144 -1.63549 0
M  V30 5378 C 500.305 3.33665 -3.12277 0
M  V30 5379 C 501.302 3.20194 -4.096 0
M  V30 5380 C 498.987 3.58397 -3.51933 0
M  V30 5381 C 500.981 3.31256 -5.44563 0
M  V30 5382 C 498.668 3.69098 -4.87042 0
M  V30 5383 C 499.666 3.55537 -5.83166 0
M  V30 5384 O 499.354 3.65864 -7.1582 0
M  V30 5385 H 499.086 0.558194 -0.381307 0
M  V30 5386 H 501.64 1.24387 -1.63454 0
M  V30 5387 H 499.87 3.72659 -1.03256 0
M  V30 5388 H 501.559 3.79262 -1.4462 0
M  V30 5389 H 502.325 3.00987 -3.80305 0
M  V30 5390 H 498.204 3.68025 -2.77631 0
M  V30 5391 H 501.748 3.20588 -6.19572 0
M  V30 5392 H 497.645 3.87814 -5.16014 0
M  V30 5393 H 498.413 3.82675 -7.23534 0
M  V30 5394 N 501.076 1.04316 1.18135 0
M  V30 5395 C 502.023 0.636398 2.21853 0
M  V30 5396 C 502.993 -0.357039 1.62217 0
M  V30 5397 O 504.178 -0.250453 1.89149 0
M  V30 5398 C 501.318 0.00812779 3.45099 0
M  V30 5399 C 500.431 1.04933 4.19062 0
M  V30 5400 C 499.566 0.389313 5.29771 0
M  V30 5401 C 498.605 1.41544 5.9551 0
M  V30 5402 N 497.742 0.78021 6.97751 0
M  V30 5403 H 502.582 1.52536 2.56002 0
M  V30 5404 H 500.119 0.76304 1.25762 0
M  V30 5405 H 502.077 -0.373497 4.15525 0
M  V30 5406 H 500.707 -0.844336 3.11562 0
M  V30 5407 H 499.759 1.54888 3.47439 0
M  V30 5408 H 501.071 1.82862 4.64072 0
M  V30 5409 H 500.225 -0.0463805 6.06682 0
M  V30 5410 H 498.964 -0.422038 4.8587 0
M  V30 5411 H 497.969 1.86124 5.17337 0
M  V30 5412 H 499.194 2.22854 6.41493 0
M  V30 5413 H 497.14 -0.0107899 6.55999 0
M  V30 5414 H 497.057 1.49716 7.41027 0
M  V30 5415 H 498.325 0.368996 7.78626 0
M  V30 5416 N 502.554 -1.34406 0.822964 0
M  V30 5417 C 503.965 -1.8069 0.469879 0
M  V30 5418 C 504.316 -1.68223 -1.00972 0
M  V30 5419 O 503.441 -1.22226 -1.78577 0
M  V30 5420 C 504.036 -3.28064 0.846118 0
M  V30 5421 C 502.595 -3.72428 0.545402 0
M  V30 5422 C 501.742 -2.56116 1.06301 0
M  V30 5423 H 504.693 -1.22153 1.01313 0
M  V30 5424 H 504.714 -3.80205 0.149922 0
M  V30 5425 H 504.226 -3.37107 1.92304 0
M  V30 5426 H 502.327 -3.68924 -0.522109 0
M  V30 5427 H 502.44 -4.66548 1.0895 0
M  V30 5428 H 500.804 -2.50048 0.484554 0
M  V30 5429 H 501.587 -2.67928 2.14638 0
M  V30 5430 N 504.032 -0.577932 -1.46621 0
M  V30 5431 C 504.962 0.145917 -2.33044 0
M  V30 5432 C 505.943 0.888412 -1.45056 0
M  V30 5433 O 507.128 0.864812 -1.73881 0
M  V30 5434 C 504.258 1.16322 -3.27241 0
M  V30 5435 C 503.212 0.535868 -4.24632 0
M  V30 5436 C 502.538 1.65929 -5.08303 0
M  V30 5437 C 503.838 -0.523861 -5.19666 0
M  V30 5438 H 505.532 -0.575636 -2.93814 0
M  V30 5439 H 503.078 -0.278272 -1.41286 0
M  V30 5440 H 505.031 1.67793 -3.86553 0
M  V30 5441 H 503.755 1.91498 -2.64567 0
M  V30 5442 H 502.414 0.0422759 -3.66576 0
M  V30 5443 H 502.062 2.40061 -4.42018 0
M  V30 5444 H 501.762 1.2452 -5.74255 0
M  V30 5445 H 503.286 2.17686 -5.70478 0
M  V30 5446 H 504.7 -0.0944059 -5.73222 0
M  V30 5447 H 503.097 -0.858 -5.93935 0
M  V30 5448 H 504.167 -1.41197 -4.63887 0
M  V30 5449 N 505.51 1.54411 -0.315457 0
M  V30 5450 C 506.74 2.04536 0.291315 0
M  V30 5451 C 507.148 1.19162 1.4696 0
M  V30 5452 O 506.491 0.213199 1.82459 0
M  V30 5453 C 506.553 3.5056 0.796725 0
M  V30 5454 C 506.217 4.5627 -0.258178 0
M  V30 5455 C 507.214 5.08312 -1.09153 0
M  V30 5456 C 504.899 5.00672 -0.404036 0
M  V30 5457 C 506.893 6.03312 -2.05655 0
M  V30 5458 C 504.58 5.95488 -1.37248 0
M  V30 5459 C 505.578 6.46693 -2.19721 0
M  V30 5460 O 505.266 7.39648 -3.14921 0
M  V30 5461 H 504.998 0.672856 0.0651165 0
M  V30 5462 H 507.552 2.00244 -0.457308 0
M  V30 5463 H 505.782 3.52223 1.59612 0
M  V30 5464 H 507.471 3.83804 1.32096 0
M  V30 5465 H 508.237 4.74793 -0.98979 0
M  V30 5466 H 504.116 4.60436 0.22799 0
M  V30 5467 H 507.66 6.43203 -2.70067 0
M  V30 5468 H 503.557 6.28424 -1.47489 0
M  V30 5469 H 504.325 7.57496 -3.10067 0
M  V30 5470 N 506.988 0.0434614 1.5754 0
M  V30 5471 C 508.213 -0.645358 1.97104 0
M  V30 5472 C 508.638 -1.64037 0.920521 0
M  V30 5473 O 507.996 -1.80922 -0.11708 0
M  V30 5474 C 508.044 -1.31547 3.35749 0
M  V30 5475 O 507.148 -2.43103 3.33129 0
M  V30 5476 H 506.489 -0.168403 0.64229 0
M  V30 5477 H 509.019 0.109573 2.04306 0
M  V30 5478 H 509.029 -1.66895 3.72304 0
M  V30 5479 H 507.704 -0.586205 4.11748 0
M  V30 5480 H 506.281 -2.0976 3.0831 0
M  V30 5481 N 508.466 -1.55915 -0.229846 0
M  V30 5482 C 509.712 -1.79718 -0.952517 0
M  V30 5483 C 510.067 -0.61514 -1.82301 0
M  V30 5484 O 509.36 0.391098 -1.87566 0
M  V30 5485 C 509.554 -3.06845 -1.8325 0
M  V30 5486 C 509.383 -4.37302 -1.04868 0
M  V30 5487 C 508.153 -4.99749 -0.746932 0
M  V30 5488 C 510.351 -5.12599 -0.417989 0
M  V30 5489 N 508.333 -6.13871 0.0591596 0
M  V30 5490 C 509.704 -6.19488 0.251879 0
M  V30 5491 C 511.759 -4.96804 -0.33018 0
M  V30 5492 C 510.462 -7.12299 1.00115 0
M  V30 5493 C 512.488 -5.90007 0.4056 0
M  V30 5494 C 511.85 -6.96317 1.06404 0
M  V30 5495 H 507.949 -0.709382 -0.329091 0
M  V30 5496 H 510.533 -1.93406 -0.224114 0
M  V30 5497 H 508.704 -2.94456 -2.53279 0
M  V30 5498 H 510.436 -3.18874 -2.49202 0
M  V30 5499 H 507.191 -4.61518 -1.06292 0
M  V30 5500 H 507.615 -6.75497 0.450798 0
M  V30 5501 H 512.257 -4.14675 -0.824898 0
M  V30 5502 H 509.975 -7.93916 1.50741 0
M  V30 5503 H 513.561 -5.79862 0.474436 0
M  V30 5504 H 512.441 -7.67194 1.62429 0
M  V30 5505 N 509.944 0.496216 -1.49584 0
M  V30 5506 C 510.854 1.62352 -1.69349 0
M  V30 5507 C 511.87 1.64184 -0.576147 0
M  V30 5508 O 513.046 1.82517 -0.85144 0
M  V30 5509 C 510.111 2.98698 -1.76013 0
M  V30 5510 C 509.172 3.07454 -2.99617 0
M  V30 5511 C 508.405 4.37296 -3.05953 0
M  V30 5512 O 508.628 5.2637 -2.19752 0
M  V30 5513 O 507.562 4.51124 -3.9846 0
M  V30 5514 H 511.388 1.48606 -2.64859 0
M  V30 5515 H 508.973 0.673022 -1.33382 0
M  V30 5516 H 510.855 3.79725 -1.82721 0
M  V30 5517 H 509.53 3.12696 -0.836828 0
M  V30 5518 H 508.437 2.25597 -2.98424 0
M  V30 5519 H 509.77 2.98385 -3.91443 0
M  V30 5520 N 511.423 1.38739 0.74761 0
M  V30 5521 C 512.333 1.38696 1.89211 0
M  V30 5522 C 513.349 0.283303 1.71678 0
M  V30 5523 O 514.525 0.522713 1.94498 0
M  V30 5524 C 511.59 1.21662 3.24653 0
M  V30 5525 C 510.651 2.41886 3.54669 0
M  V30 5526 C 509.884 2.25655 4.83648 0
M  V30 5527 O 510.107 1.25339 5.56459 0
M  V30 5528 O 509.041 3.14372 5.13277 0
M  V30 5529 H 512.867 2.35143 1.92202 0
M  V30 5530 H 510.452 1.19721 0.893708 0
M  V30 5531 H 512.334 1.14246 4.05618 0
M  V30 5532 H 511.009 0.283024 3.2246 0
M  V30 5533 H 509.916 2.54877 2.73841 0
M  V30 5534 H 511.249 3.33895 3.61628 0
M  V30 5535 N 512.901 -0.976442 1.23707 0
M  V30 5536 C 513.864 -2.0511 1.02287 0
M  V30 5537 C 514.864 -1.60791 -0.0167195 0
M  V30 5538 O 516.054 -1.72761 0.223408 0
M  V30 5539 C 513.186 -3.36458 0.548507 0
M  V30 5540 H 514.379 -2.25545 1.9766 0
M  V30 5541 H 511.932 -1.15042 1.05806 0
M  V30 5542 H 512.667 -3.21713 -0.408818 0
M  V30 5543 H 512.452 -3.69967 1.29874 0
M  V30 5544 H 513.942 -4.15489 0.419406 0
M  V30 5545 N 514.379 -1.04941 -1.1758 0
M  V30 5546 C 515.326 -0.648155 -2.21512 0
M  V30 5547 C 516.296 0.348431 -1.62404 0
M  V30 5548 O 517.481 0.240419 -1.89279 0
M  V30 5549 C 514.621 -0.0264291 -3.4509 0
M  V30 5550 C 513.734 -1.07154 -4.185 0
M  V30 5551 C 512.869 -0.417403 -5.29558 0
M  V30 5552 C 511.908 -1.447 -5.94751 0
M  V30 5553 N 511.045 -0.817203 -6.97328 0
M  V30 5554 H 515.885 -1.53891 -2.55189 0
M  V30 5555 H 513.422 -0.769699 -1.25356 0
M  V30 5556 H 515.38 0.351456 -4.15717 0
M  V30 5557 H 514.01 0.827802 -3.12005 0
M  V30 5558 H 513.062 -1.56728 -3.46613 0
M  V30 5559 H 514.374 -1.8532 -4.63096 0
M  V30 5560 H 513.528 0.0142061 -6.06698 0
M  V30 5561 H 512.267 0.396265 -4.86087 0
M  V30 5562 H 511.272 -1.88865 -5.16343 0
M  V30 5563 H 512.497 -2.26252 -6.40302 0
M  V30 5564 H 510.443 -0.0239995 -6.55996 0
M  V30 5565 H 510.36 -1.53644 -7.40223 0
M  V30 5566 H 511.628 -0.410283 -7.7842 0
M  V30 5567 N 515.857 1.33968 -0.830081 0
M  V30 5568 C 516.789 2.28194 -0.21448 0
M  V30 5569 C 517.802 1.5135 0.599752 0
M  V30 5570 O 518.991 1.73286 0.42826 0
M  V30 5571 C 516.091 3.31221 0.717356 0
M  V30 5572 C 515.264 4.37365 -0.055613 0
M  V30 5573 C 514.323 5.2011 0.798231 0
M  V30 5574 O 513.349 5.68691 0.240616 0
M  V30 5575 N 514.551 5.40523 2.11695 0
M  V30 5576 H 517.316 2.81662 -1.02405 0
M  V30 5577 H 514.877 1.46568 -0.687713 0
M  V30 5578 H 516.869 3.83477 1.29334 0
M  V30 5579 H 515.439 2.78095 1.42765 0
M  V30 5580 H 514.659 3.85727 -0.812936 0
M  V30 5581 H 515.947 5.05397 -0.587444 0
M  V30 5582 H 515.345 5.0274 2.59363 0
M  V30 5583 H 513.902 5.95871 2.64162 0
M  V30 5584 N 517.335 0.585699 1.46312 0
M  V30 5585 C 518.282 -0.145835 2.30339 0
M  V30 5586 C 519.252 -0.881215 1.40797 0
M  V30 5587 O 520.437 -0.871293 1.69744 0
M  V30 5588 C 517.577 -1.15161 3.25318 0
M  V30 5589 C 516.69 -0.419367 4.2996 0
M  V30 5590 C 515.825 -1.41293 5.12064 0
M  V30 5591 C 514.864 -0.667261 6.08452 0
M  V30 5592 N 514.001 -1.60903 6.83414 0
M  V30 5593 H 518.841 0.576755 2.92365 0
M  V30 5594 H 516.378 0.296237 1.44086 0
M  V30 5595 H 518.336 -1.74763 3.78832 0
M  V30 5596 H 516.966 -1.84188 2.65094 0
M  V30 5597 H 516.018 0.291751 3.7928 0
M  V30 5598 H 517.33 0.163433 4.98532 0
M  V30 5599 H 516.484 -2.08167 5.6987 0
M  V30 5600 H 515.223 -2.02966 4.43459 0
M  V30 5601 H 514.228 0.0152356 5.49798 0
M  V30 5602 H 515.453 -0.0558817 6.79077 0
M  V30 5603 H 513.399 -2.21381 6.17516 0
M  V30 5604 H 513.316 -1.07911 7.48259 0
M  V30 5605 H 514.584 -2.26802 7.45775 0
M  V30 5606 N 518.813 -1.54241 0.323641 0
M  V30 5607 C 520.041 -2.04985 -0.280871 0
M  V30 5608 C 520.456 -1.19978 -1.45777 0
M  V30 5609 O 519.813 -0.230471 -1.81039 0
M  V30 5610 C 519.864 -3.54353 -0.715258 0
M  V30 5611 O 519.585 -4.36132 0.414817 0
M  V30 5612 C 521.086 -4.21189 -1.38257 0
M  V30 5613 H 518.306 -0.66851 -0.0577502 0
M  V30 5614 H 520.85 -1.99029 0.469852 0
M  V30 5615 H 519.005 -3.60596 -1.41596 0
M  V30 5616 H 519.419 -5.2445 0.0725227 0
M  V30 5617 H 520.893 -5.27154 -1.63745 0
M  V30 5618 H 521.37 -3.72307 -2.32989 0
M  V30 5619 H 521.976 -4.19085 -0.724447 0
M  V30 5620 N 520.291 -0.0518155 -1.57515 0
M  V30 5621 C 521.537 0.622745 -1.93002 0
M  V30 5622 C 521.87 1.70456 -0.930499 0
M  V30 5623 O 521.145 1.94452 0.0434086 0
M  V30 5624 C 521.428 1.21824 -3.38867 0
M  V30 5625 C 521.281 0.144434 -4.49568 0
M  V30 5626 C 522.6 2.12968 -3.8514 0
M  V30 5627 H 519.719 0.22491 -0.701844 0
M  V30 5628 H 522.361 -0.113711 -1.89659 0
M  V30 5629 H 520.511 1.8459 -3.41846 0
M  V30 5630 H 522.183 -0.48753 -4.58717 0
M  V30 5631 H 520.426 -0.527424 -4.30582 0
M  V30 5632 H 521.097 0.601127 -5.48717 0
M  V30 5633 H 523.573 1.60163 -3.8404 0
M  V30 5634 H 522.449 2.51578 -4.87852 0
M  V30 5635 H 522.71 3.03004 -3.21934 0
M  V30 5636 N 521.769 1.56035 0.221574 0
M  V30 5637 C 522.679 1.95581 1.29558 0
M  V30 5638 C 523.695 0.859639 1.51282 0
M  V30 5639 O 524.871 1.16321 1.64413 0
M  V30 5640 C 521.936 2.26447 2.62531 0
M  V30 5641 C 520.997 3.49632 2.4911 0
M  V30 5642 C 520.23 3.79017 3.75742 0
M  V30 5643 O 520.453 3.10077 4.78757 0
M  V30 5644 O 519.387 4.72507 3.72855 0
M  V30 5645 H 523.213 2.8711 0.990035 0
M  V30 5646 H 520.798 1.43244 0.424434 0
M  V30 5647 H 522.68 2.47494 3.41064 0
M  V30 5648 H 521.355 1.38092 2.92766 0
M  V30 5649 H 520.262 3.33864 1.68777 0
M  V30 5650 H 521.595 4.3837 2.23814 0
M  V30 5651 N 523.247 -0.488276 1.49845 0
M  V30 5652 C 524.493 -1.24065 1.61182 0
M  V30 5653 C 524.848 -1.9004 0.300435 0
M  V30 5654 O 524.141 -1.78341 -0.700365 0
M  V30 5655 C 524.335 -2.32152 2.71735 0
M  V30 5656 C 524.164 -1.76778 4.13497 0
M  V30 5657 C 522.934 -1.57513 4.80123 0
M  V30 5658 C 525.132 -1.27242 4.98311 0
M  V30 5659 N 523.114 -0.972015 6.06156 0
M  V30 5660 C 524.485 -0.791457 6.14928 0
M  V30 5661 C 526.54 -1.15934 4.84214 0
M  V30 5662 C 525.243 -0.208593 7.18997 0
M  V30 5663 C 527.269 -0.590436 5.88445 0
M  V30 5664 C 526.631 -0.119767 7.04298 0
M  V30 5665 H 522.73 -0.443487 0.644083 0
M  V30 5666 H 525.314 -0.545551 1.86901 0
M  V30 5667 H 523.485 -2.99108 2.47768 0
M  V30 5668 H 525.217 -2.99187 2.72523 0
M  V30 5669 H 521.972 -1.82247 4.37131 0
M  V30 5670 H 522.396 -0.689367 6.73481 0
M  V30 5671 H 527.038 -1.5092 3.94947 0
M  V30 5672 H 524.756 0.153501 8.07954 0
M  V30 5673 H 528.342 -0.505548 5.79599 0
M  V30 5674 H 527.222 0.313568 7.83573 0
M  V30 5675 N 524.725 -1.39134 -0.740242 0
M  V30 5676 C 525.971 -1.36273 -1.50192 0
M  V30 5677 C 526.304 0.0430136 -1.94152 0
M  V30 5678 O 525.579 1.00691 -1.66408 0
M  V30 5679 C 525.862 -2.33041 -2.74525 0
M  V30 5680 C 525.715 -3.82535 -2.36617 0
M  V30 5681 C 527.034 -2.27723 -3.76604 0
M  V30 5682 H 524.153 -0.496323 -0.544823 0
M  V30 5683 H 526.795 -1.70085 -0.846815 0
M  V30 5684 H 524.945 -2.04337 -3.30422 0
M  V30 5685 H 526.617 -4.21967 -1.86391 0
M  V30 5686 H 524.86 -3.99565 -1.68909 0
M  V30 5687 H 525.531 -4.45723 -3.2563 0
M  V30 5688 H 528.007 -2.53091 -3.30279 0
M  V30 5689 H 526.883 -2.97519 -4.61274 0
M  V30 5690 H 527.144 -1.28049 -4.2315 0
M  V30 5691 N 526.204 0.969867 -1.24223 0
M  V30 5692 C 527.452 1.70918 -1.0785 0
M  V30 5693 C 527.773 1.91186 0.383763 0
M  V30 5694 O 527.043 1.48806 1.27411 0
M  V30 5695 H 525.623 0.633334 -0.396103 0
M  V30 5696 H 528.285 1.16689 -1.56108 0
M  V30 5697 H 527.381 2.69455 -1.57482 0
M  V30 5698 N 527.682 1.05563 1.17022 0
M  V30 5699 C 528.907 0.788437 1.91829 0
M  V30 5700 C 529.332 -0.650356 1.76499 0
M  V30 5701 O 528.69 -1.45229 1.08527 0
M  V30 5702 C 528.738 1.1786 3.40795 0
M  V30 5703 O 527.842 0.312965 4.11211 0
M  V30 5704 H 527.183 0.288794 0.597908 0
M  V30 5705 H 529.713 1.40948 1.48307 0
M  V30 5706 H 529.723 1.14697 3.91546 0
M  V30 5707 H 528.398 2.22666 3.51273 0
M  V30 5708 H 526.975 0.405515 3.70689 0
M  V30 5709 N 529.16 -1.33526 0.837174 0
M  V30 5710 C 530.09 -2.31764 0.284206 0
M  V30 5711 C 531.071 -1.58896 -0.607142 0
M  V30 5712 O 532.256 -1.86798 -0.531047 0
M  V30 5713 C 529.386 -3.43029 -0.542962 0
M  V30 5714 C 528.34 -4.27255 0.252451 0
M  V30 5715 C 527.666 -5.3012 -0.69836 0
M  V30 5716 C 528.966 -5.01229 1.46858 0
M  V30 5717 H 530.66 -2.78262 1.10502 0
M  V30 5718 H 528.206 -1.3378 0.532812 0
M  V30 5719 H 530.159 -4.1078 -0.940096 0
M  V30 5720 H 528.883 -2.95216 -1.39697 0
M  V30 5721 H 527.542 -3.61127 0.631124 0
M  V30 5722 H 527.19 -4.78564 -1.54872 0
M  V30 5723 H 526.89 -5.87353 -0.170274 0
M  V30 5724 H 528.414 -6.00737 -1.09305 0
M  V30 5725 H 529.828 -5.61756 1.14469 0
M  V30 5726 H 528.225 -5.68104 1.93333 0
M  V30 5727 H 529.295 -4.301 2.23924 0
M  V30 5728 N 530.638 -0.59345 -1.46 0
M  V30 5729 C 531.884 -0.0832754 -2.02629 0
M  V30 5730 C 532.217 1.27749 -1.46266 0
M  V30 5731 O 531.492 1.8395 -0.631866 0
M  V30 5732 C 531.775 -0.0290756 -3.60088 0
M  V30 5733 C 531.628 -1.41951 -4.26814 0
M  V30 5734 C 532.947 0.666055 -4.35031 0
M  V30 5735 H 530.066 -0.031736 -0.736316 0
M  V30 5736 H 532.708 -0.762711 -1.74019 0
M  V30 5737 H 530.858 0.549532 -3.84594 0
M  V30 5738 H 532.53 -2.04411 -4.13538 0
M  V30 5739 H 530.773 -1.98422 -3.8576 0
M  V30 5740 H 531.444 -1.33395 -5.3564 0
M  V30 5741 H 533.92 0.174401 -4.15734 0
M  V30 5742 H 532.796 0.673041 -5.44758 0
M  V30 5743 H 533.057 1.72946 -4.06869 0
M  V30 5744 N 532.116 1.54067 -0.331816 0
M  V30 5745 C 533.393 1.92915 0.322955 0
M  V30 5746 C 533.773 1.26225 1.69205 0
M  V30 5747 O 533.121 0.408919 2.24811 0
M  V30 5748 C 533.331 3.46619 0.406946 0
M  V30 5749 C 534.679 4.19386 0.663339 0
M  V30 5750 O 535.703 3.5282 0.489536 0
M  V30 5751 O 534.562 5.37288 0.999193 0
M  V30 5752 H 531.656 0.805808 0.186016 0
M  V30 5753 H 534.202 1.65342 -0.382135 0
M  V30 5754 H 532.974 3.87354 -0.554287 0
M  V30 5755 H 532.597 3.80324 1.15929 0
M  V30 5756 N 533.594 0.0601682 1.57485 0
M  V30 5757 C 535.01 -0.296422 1.56823 0
M  V30 5758 C 535.21 -1.70831 1.0686 0
M  V30 5759 O 534.266 -2.4174 0.729245 0
M  V30 5760 C 535.579 -0.116681 3.00474 0
M  V30 5761 C 537.127 -0.187103 3.1244 0
M  V30 5762 C 537.602 -0.035783 4.57986 0
M  V30 5763 N 539.093 -0.0917676 4.63109 0
M  V30 5764 C 539.828 0.00107251 5.734 0
M  V30 5765 N 539.324 0.146773 6.92645 0
M  V30 5766 N 541.117 -0.0551577 5.62073 0
M  V30 5767 H 533.268 0.983055 1.88281 0
M  V30 5768 H 535.531 0.382386 0.867459 0
M  V30 5769 H 535.237 0.85712 3.41096 0
M  V30 5770 H 535.111 -0.873929 3.66936 0
M  V30 5771 H 537.498 -1.15138 2.71712 0
M  V30 5772 H 537.579 0.601052 2.48638 0
M  V30 5773 H 537.223 0.925212 4.99402 0
M  V30 5774 H 537.153 -0.843196 5.19806 0
M  V30 5775 H 539.644 -0.203261 3.77353 0
M  V30 5776 H 539.957 0.210076 7.72514 0
M  V30 5777 H 538.302 0.181979 6.94762 0
M  V30 5778 H 541.493 -0.167605 4.678 0
M  V30 5779 H 541.666 0.020652 6.47997 0
M  V30 5780 N 535.072 -1.5615 -0.213296 0
M  V30 5781 C 536.022 -1.89485 -1.26804 0
M  V30 5782 C 537.006 -0.758713 -1.41889 0
M  V30 5783 O 538.198 -1.02127 -1.44565 0
M  V30 5784 C 535.327 -2.22219 -2.61675 0
M  V30 5785 C 534.413 -3.42245 -2.50458 0
M  V30 5786 N 534.804 -4.60645 -2.089 0
M  V30 5787 C 533.102 -3.46023 -2.81397 0
M  V30 5788 C 533.803 -5.42805 -2.09135 0
M  V30 5789 N 532.779 -4.82732 -2.49941 0
M  V30 5790 H 536.581 -2.78537 -0.937771 0
M  V30 5791 H 534.095 -1.56826 -0.421824 0
M  V30 5792 H 536.092 -2.44278 -3.37837 0
M  V30 5793 H 534.752 -1.34484 -2.95541 0
M  V30 5794 H 535.763 -4.85651 -1.79899 0
M  V30 5795 H 532.44 -2.68654 -3.1958 0
M  V30 5796 H 533.83 -6.47601 -1.79059 0
M  V30 5797 N 536.55 0.480323 -1.50102 0
M  V30 5798 C 537.497 1.57946 -1.6829 0
M  V30 5799 C 538.467 1.57611 -0.524223 0
M  V30 5800 O 539.652 1.75282 -0.753709 0
M  V30 5801 C 536.792 2.95978 -1.77457 0
M  V30 5802 C 535.905 3.06173 -3.04766 0
M  V30 5803 C 535.04 4.35063 -3.04784 0
M  V30 5804 C 534.079 4.38966 -4.26586 0
M  V30 5805 N 533.216 5.59314 -4.24396 0
M  V30 5806 H 538.056 1.41743 -2.62131 0
M  V30 5807 H 535.593 0.689304 -1.2995 0
M  V30 5808 H 537.551 3.76011 -1.80752 0
M  V30 5809 H 536.181 3.10837 -0.870637 0
M  V30 5810 H 535.233 2.19071 -3.10986 0
M  V30 5811 H 536.545 3.04916 -3.9475 0
M  V30 5812 H 535.699 5.23436 -3.06757 0
M  V30 5813 H 534.438 4.38915 -2.12614 0
M  V30 5814 H 533.443 3.48992 -4.24835 0
M  V30 5815 H 534.668 4.36813 -5.19972 0
M  V30 5816 H 532.614 5.63969 -3.35074 0
M  V30 5817 H 532.531 5.5976 -5.08138 0
M  V30 5818 H 533.799 6.49837 -4.30502 0
M  V30 5819 N 538.028 1.39524 0.732853 0
M  V30 5820 C 538.938 1.40695 1.87729 0
M  V30 5821 C 539.954 0.301496 1.71368 0
M  V30 5822 O 541.13 0.543313 1.93933 0
M  V30 5823 C 538.195 1.25098 3.23344 0
M  V30 5824 C 537.256 2.45634 3.52083 0
M  V30 5825 C 536.489 2.30772 4.81228 0
M  V30 5826 O 536.712 1.31233 5.55098 0
M  V30 5827 O 535.646 3.19799 5.09914 0
M  V30 5828 H 539.472 2.37168 1.89697 0
M  V30 5829 H 537.057 1.20663 0.880959 0
M  V30 5830 H 538.939 1.18541 4.04383 0
M  V30 5831 H 537.614 0.317209 3.22142 0
M  V30 5832 H 536.521 2.57767 2.71122 0
M  V30 5833 H 537.854 3.37712 3.58066 0
M  V30 5834 N 539.506 -0.963266 1.24736 0
M  V30 5835 C 540.734 -1.74166 1.11686 0
M  V30 5836 C 541.149 -1.8589 -0.330187 0
M  V30 5837 O 540.506 -1.35042 -1.2276 0
M  V30 5838 C 540.557 -3.15989 1.75595 0
M  V30 5839 O 540.278 -3.04847 3.14642 0
M  V30 5840 C 541.779 -4.10145 1.68213 0
M  V30 5841 H 538.999 -0.546031 0.389989 0
M  V30 5842 H 541.543 -1.20907 1.64929 0
M  V30 5843 H 539.698 -3.66219 1.26343 0
M  V30 5844 H 540.112 -3.9425 3.4593 0
M  V30 5845 H 541.586 -5.07299 2.17604 0
M  V30 5846 H 542.063 -4.3445 0.644208 0
M  V30 5847 H 542.669 -3.65827 2.16912 0
M  V30 5848 N 540.985 -1.06182 -1.16461 0
M  V30 5849 C 541.915 -0.692861 -2.22984 0
M  V30 5850 C 542.896 0.314122 -1.67174 0
M  V30 5851 O 544.081 0.189499 -1.93273 0
M  V30 5852 C 541.211 -0.07732 -3.47214 0
M  V30 5853 C 540.165 -1.01015 -4.15909 0
M  V30 5854 C 539.491 -0.257973 -5.34077 0
M  V30 5855 C 540.791 -2.33868 -4.67015 0
M  V30 5856 H 542.485 -1.58343 -2.54102 0
M  V30 5857 H 540.031 -0.76279 -1.22137 0
M  V30 5858 H 541.984 0.19266 -4.20959 0
M  V30 5859 H 540.708 0.848254 -3.15392 0
M  V30 5860 H 539.367 -1.26486 -3.44088 0
M  V30 5861 H 539.015 0.670684 -4.98509 0
M  V30 5862 H 538.715 -0.879638 -5.80979 0
M  V30 5863 H 540.239 0.00448788 -6.106 0
M  V30 5864 H 541.653 -2.1279 -5.32347 0
M  V30 5865 H 540.05 -2.91522 -5.24533 0
M  V30 5866 H 541.12 -2.97019 -3.83286 0
M  V30 5867 N 542.463 1.3308 -0.844243 0
M  V30 5868 C 543.41 2.29104 -0.279323 0
M  V30 5869 C 544.38 1.54577 0.607882 0
M  V30 5870 O 545.565 1.8285 0.545009 0
M  V30 5871 C 542.705 3.40927 0.53508 0
M  V30 5872 C 541.818 4.30354 -0.376749 0
M  V30 5873 C 540.953 5.29297 0.449276 0
M  V30 5874 C 539.992 6.10365 -0.460606 0
M  V30 5875 N 539.129 7.01335 0.327612 0
M  V30 5876 H 543.969 2.76817 -1.10346 0
M  V30 5877 H 541.506 1.36203 -0.555611 0
M  V30 5878 H 543.464 4.04469 1.02278 0
M  V30 5879 H 542.094 2.94391 1.32414 0
M  V30 5880 H 541.146 3.67485 -0.982791 0
M  V30 5881 H 542.458 4.87067 -1.07549 0
M  V30 5882 H 541.612 5.98392 1.00058 0
M  V30 5883 H 540.351 4.73174 1.18143 0
M  V30 5884 H 539.356 5.40182 -1.02388 0
M  V30 5885 H 540.581 6.68571 -1.1912 0
M  V30 5886 H 538.527 6.47655 1.04305 0
M  V30 5887 H 538.444 7.55355 -0.3123 0
M  V30 5888 H 539.712 7.74731 0.86098 0
M  V30 5889 N 543.941 0.601185 1.45683 0
M  V30 5890 C 545.166 0.0982245 2.07167 0
M  V30 5891 C 545.591 -1.20546 1.44396 0
M  V30 5892 O 544.949 -1.73247 0.534347 0
M  V30 5893 C 544.997 -0.0346976 3.60583 0
M  V30 5894 O 544.101 -1.08657 3.97828 0
M  V30 5895 H 543.442 0.0711618 0.660176 0
M  V30 5896 H 545.972 0.829376 1.87036 0
M  V30 5897 H 545.982 -0.234969 4.07323 0
M  V30 5898 H 544.657 0.917265 4.05659 0
M  V30 5899 H 543.234 -0.863275 3.6277 0
M  V30 5900 N 545.419 -1.53889 0.339982 0
M  V30 5901 C 546.366 -2.24902 -0.518452 0
M  V30 5902 C 547.336 -1.24593 -1.09844 0
M  V30 5903 O 548.521 -1.53317 -1.13572 0
M  V30 5904 C 545.661 -3.02262 -1.66529 0
M  V30 5905 C 544.774 -4.17418 -1.11295 0
M  V30 5906 C 543.909 -4.82273 -2.2268 0
M  V30 5907 C 542.948 -5.89503 -1.6478 0
M  V30 5908 N 542.085 -6.48153 -2.69893 0
M  V30 5909 H 546.925 -2.97853 0.0936579 0
M  V30 5910 H 544.462 -1.46986 0.0579924 0
M  V30 5911 H 546.42 -3.45371 -2.3404 0
M  V30 5912 H 545.05 -2.31614 -2.24844 0
M  V30 5913 H 544.102 -3.78976 -0.328886 0
M  V30 5914 H 545.414 -4.94554 -0.649414 0
M  V30 5915 H 544.568 -5.28435 -2.98063 0
M  V30 5916 H 543.307 -4.04552 -2.72376 0
M  V30 5917 H 542.312 -5.42728 -0.879004 0
M  V30 5918 H 543.537 -6.6913 -1.1594 0
M  V30 5919 H 541.483 -5.73298 -3.1885 0
M  V30 5920 H 541.4 -7.20752 -2.28151 0
M  V30 5921 H 542.668 -6.98968 -3.45056 0
M  V30 5922 N 546.897 -0.0685191 -1.57451 0
M  V30 5923 C 548.125 0.610462 -1.97689 0
M  V30 5924 C 548.54 1.63346 -0.946758 0
M  V30 5925 O 547.897 1.82377 0.0669868 0
M  V30 5926 C 547.948 1.28196 -3.38006 0
M  V30 5927 O 547.669 0.299906 -4.37072 0
M  V30 5928 C 549.17 2.04907 -3.931 0
M  V30 5929 H 546.39 0.165689 -0.650222 0
M  V30 5930 H 548.934 -0.139953 -2.04021 0
M  V30 5931 H 547.089 1.98348 -3.32771 0
M  V30 5932 H 547.503 0.78126 -5.18649 0
M  V30 5933 H 548.977 2.47287 -4.93511 0
M  V30 5934 H 549.454 2.9043 -3.29465 0
M  V30 5935 H 550.06 1.39629 -4.01726 0
M  V30 5936 N 548.375 1.56261 0.205012 0
M  V30 5937 C 549.307 1.90266 1.27795 0
M  V30 5938 C 550.32 0.792397 1.42214 0
M  V30 5939 O 551.509 1.07077 1.42817 0
M  V30 5940 C 548.609 2.11074 2.65143 0
M  V30 5941 C 547.782 3.42176 2.7246 0
M  V30 5942 C 546.841 3.52216 3.90936 0
M  V30 5943 O 545.867 4.25119 3.78501 0
M  V30 5944 N 547.069 2.84573 5.05963 0
M  V30 5945 H 549.834 2.82896 0.989434 0
M  V30 5946 H 547.395 1.57008 0.394981 0
M  V30 5947 H 549.387 2.15089 3.4281 0
M  V30 5948 H 547.957 1.2499 2.86524 0
M  V30 5949 H 547.177 3.50116 1.81142 0
M  V30 5950 H 548.465 4.28509 2.74331 0
M  V30 5951 H 547.863 2.25152 5.18963 0
M  V30 5952 H 546.42 2.94228 5.81613 0
M  V30 5953 O 549.892 -0.350324 1.57655 0
M  V30 5954 H 550.583 -1.00029 1.65873 0
M  V30 END ATOM
M  V30 BEGIN BOND
M  V30 END BOND
M  V30 END CTAB
M  END
$$$$
