drugbank_target|Q75Y35 Penicillin-binding protein 3 (DB00319; DB00415; DB00438; DB00447; DB00456; DB00485; DB00567; DB00607; DB00713; DB00739; DB00833; DB00948; DB01000; DB01140; DB01163; DB01330; DB01331; DB01603; DB03313; DB08795)
 OpenBabel12092120573D

  0  0  0     0  0            999 V3000
M  V30 BEGIN CTAB
M  V30 COUNTS 6364 6418 0 0 0
M  V30 BEGIN ATOM
M  V30 1 H -0.908 1.98254 -0.117106 0
M  V30 2 N 0 1.576 0 0
M  V30 3 C 0.933 2.03868 1.02534 0
M  V30 4 C 1.911 0.928543 1.3348 0
M  V30 5 O 3.095 1.19667 1.45644 0
M  V30 6 C 0.222 2.43627 2.35294 0
M  V30 7 C -0.732 3.65373 2.2001 0
M  V30 8 S 0.101 5.13292 1.52614 0
M  V30 9 C 1.257 5.56322 2.86805 0
M  V30 10 H 1.49 2.90518 0.631377 0
M  V30 11 H -0.977 1.52953 0.210867 0
M  V30 12 H 0.981 2.67203 3.11629 0
M  V30 13 H -0.358 1.57376 2.7183 0
M  V30 14 H -1.165 3.90944 3.18086 0
M  V30 15 H -1.563 3.418 1.51819 0
M  V30 16 H 0.729 5.58782 3.83104 0
M  V30 17 H 1.672 6.56266 2.65933 0
M  V30 18 H 2.08 4.83886 2.90714 0
M  V30 19 N 1.4781 -0.272755 1.55222 0
M  V30 20 C 2.4251 -1.33716 1.88119 0
M  V30 21 C 3.3951 -1.49066 0.73271 0
M  V30 22 O 4.5801 -1.63469 0.984002 0
M  V30 23 C 1.7201 -2.69238 2.15882 0
M  V30 24 C 0.8331 -2.62108 3.43399 0
M  V30 25 C -0.0319 -3.89811 3.60861 0
M  V30 26 C -0.9929 -3.77193 4.8207 0
M  V30 27 N -1.8559 -4.9673 4.96189 0
M  V30 28 H 2.9841 -1.04962 2.78903 0
M  V30 29 H 0.5211 -0.507088 1.38083 0
M  V30 30 H 2.4791 -3.48089 2.29978 0
M  V30 31 H 1.1091 -2.96194 1.28331 0
M  V30 32 H 0.1611 -1.74967 3.37773 0
M  V30 33 H 1.4731 -2.48685 4.32386 0
M  V30 34 H 0.6271 -4.77103 3.74777 0
M  V30 35 H -0.6339 -4.06102 2.7006 0
M  V30 36 H -1.6289 -2.88284 4.68159 0
M  V30 37 H -0.4039 -3.62421 5.74307 0
M  V30 38 H -2.4579 -5.13431 4.08319 0
M  V30 39 H -2.5409 -4.85839 5.79221 0
M  V30 40 H -1.2729 -5.85594 5.1449 0
M  V30 41 N 2.9562 -1.48159 -0.537278 0
M  V30 42 C 3.9032 -1.62138 -1.64256 0
M  V30 43 C 4.8732 -0.463668 -1.59497 0
M  V30 44 O 6.0582 -0.686241 -1.78032 0
M  V30 45 C 3.1982 -1.66028 -3.02537 0
M  V30 46 C 2.3112 -2.92855 -3.17585 0
M  V30 47 C 1.4462 -2.87952 -4.46382 0
M  V30 48 C 0.4852 -4.09516 -4.54932 0
M  V30 49 N -0.3778 -4.02733 -5.75109 0
M  V30 50 H 4.4622 -2.56529 -1.51647 0
M  V30 51 H 1.9992 -1.27224 -0.738414 0
M  V30 52 H 3.9572 -1.66265 -3.82638 0
M  V30 53 H 2.5872 -0.751331 -3.13934 0
M  V30 54 H 1.6392 -3.02395 -2.30784 0
M  V30 55 H 2.9512 -3.82822 -3.19764 0
M  V30 56 H 2.1052 -2.8655 -5.34765 0
M  V30 57 H 0.8442 -1.95702 -4.46712 0
M  V30 58 H -0.1508 -4.11201 -3.64957 0
M  V30 59 H 1.0742 -5.02917 -4.56346 0
M  V30 60 H -0.9798 -3.13299 -5.76351 0
M  V30 61 H -1.0628 -4.86397 -5.78752 0
M  V30 62 H 0.2052 -4.05379 -6.65799 0
M  V30 63 N 4.4343 0.785586 -1.36625 0
M  V30 64 C 5.6833 1.53883 -1.30396 0
M  V30 65 C 5.9963 1.95271 0.113452 0
M  V30 66 O 7.2023 2.69858 0.298142 0
M  V30 67 C 5.6583 2.77808 -2.28802 0
M  V30 68 C 5.2663 2.43574 -3.75999 0
M  V30 69 C 7.0103 3.55783 -2.31558 0
M  V30 70 C 4.9173 3.63919 -4.66173 0
M  V30 71 H 3.8473 0.577678 -0.484566 0
M  V30 72 H 6.4983 0.861705 -1.62009 0
M  V30 73 H 4.8803 3.47339 -1.90188 0
M  V30 74 H 6.0543 1.81916 -4.23371 0
M  V30 75 H 4.3693 1.78803 -3.76056 0
M  V30 76 H 6.9663 4.45205 -2.96137 0
M  V30 77 H 7.3093 3.94644 -1.3252 0
M  V30 78 H 7.8423 2.93235 -2.68809 0
M  V30 79 H 4.5813 3.3015 -5.66287 0
M  V30 80 H 4.1013 4.2473 -4.23515 0
M  V30 81 H 5.7803 4.30901 -4.82632 0
M  V30 82 N 5.9124 1.20967 1.01018 0
M  V30 83 C 7.1594 1.02374 1.74716 0
M  V30 84 C 7.4874 -0.443375 1.89379 0
M  V30 85 O 6.7424 -1.34535 1.42123 0
M  V30 86 C 7.0414 1.65997 3.16512 0
M  V30 87 C 6.7074 3.15831 3.2181 0
M  V30 88 C 5.3694 3.56719 3.22963 0
M  V30 89 C 7.7214 4.11816 3.19464 0
M  V30 90 C 5.0494 4.92107 3.19449 0
M  V30 91 C 7.4014 5.47158 3.17491 0
M  V30 92 C 6.0654 5.87451 3.16951 0
M  V30 93 H 5.3354 0.374614 0.639332 0
M  V30 94 H 7.9824 1.50485 1.18434 0
M  V30 95 H 6.2874 1.10166 3.75993 0
M  V30 96 H 7.9844 1.49119 3.72242 0
M  V30 97 H 4.5744 2.83263 3.21652 0
M  V30 98 H 8.7584 3.81257 3.17737 0
M  V30 99 H 4.0144 5.22579 3.17366 0
M  V30 100 H 8.1884 6.21274 3.14629 0
M  V30 101 H 5.8154 6.92329 3.13983 0
M  V30 102 N 7.3905 -1.2043 1.01659 0
M  V30 103 C 8.3205 -2.25466 0.607226 0
M  V30 104 C 9.3015 -1.65853 -0.377716 0
M  V30 105 O 10.4865 -1.92409 -0.263149 0
M  V30 106 C 7.6165 -3.47256 -0.0552949 0
M  V30 107 C 6.5705 -4.19462 0.850632 0
M  V30 108 C 5.8965 -5.34673 0.0538859 0
M  V30 109 C 7.1965 -4.75603 2.15868 0
M  V30 110 H 8.8905 -2.59962 1.48526 0
M  V30 111 H 6.4365 -1.2496 0.715605 0
M  V30 112 H 8.3895 -4.19917 -0.353233 0
M  V30 113 H 7.1135 -3.11924 -0.968045 0
M  V30 114 H 5.7725 -3.48667 1.13257 0
M  V30 115 H 5.4205 -4.95585 -0.860514 0
M  V30 116 H 5.1205 -5.83913 0.657192 0
M  V30 117 H 6.6445 -6.10138 -0.237598 0
M  V30 118 H 8.0585 -5.40083 1.92311 0
M  V30 119 H 6.4555 -5.3528 2.71284 0
M  V30 120 H 7.5255 -3.94346 2.82169 0
M  V30 121 N 8.8686 -0.792821 -1.36206 0
M  V30 122 C 10.0966 -0.378825 -2.03402 0
M  V30 123 C 10.5116 1.00586 -1.59774 0
M  V30 124 O 9.8686 1.64574 -0.788764 0
M  V30 125 C 9.9196 -0.43683 -3.58851 0
M  V30 126 O 9.6406 -1.76691 -4.00889 0
M  V30 127 C 11.1416 -0.0138943 -4.43298 0
M  V30 128 H 8.3616 -0.155673 -0.652692 0
M  V30 129 H 10.9056 -1.07261 -1.74113 0
M  V30 130 H 9.0606 0.208575 -3.86838 0
M  V30 131 H 9.4746 -1.72011 -4.95492 0
M  V30 132 H 10.9486 -0.105615 -5.51899 0
M  V30 133 H 11.4256 1.03915 -4.2673 0
M  V30 134 H 12.0316 -0.63192 -4.20579 0
M  V30 135 N 10.3467 1.47872 -0.545128 0
M  V30 136 C 11.2767 2.32661 0.197793 0
M  V30 137 C 12.2577 1.43041 0.920504 0
M  V30 138 O 13.4427 1.71912 0.90333 0
M  V30 139 C 10.5727 3.24569 1.23582 0
M  V30 140 C 9.5267 4.23333 0.630323 0
M  V30 141 C 8.8527 5.0448 1.77211 0
M  V30 142 C 10.1527 5.20704 -0.407974 0
M  V30 143 H 11.8467 2.95024 -0.510045 0
M  V30 144 H 9.3927 1.4187 -0.246731 0
M  V30 145 H 11.3457 3.8272 1.76362 0
M  V30 146 H 10.0697 2.60236 1.97344 0
M  V30 147 H 8.7287 3.6639 0.123922 0
M  V30 148 H 8.3767 4.36561 2.49847 0
M  V30 149 H 8.0767 5.71339 1.37281 0
M  V30 150 H 9.6007 5.65487 2.3034 0
M  V30 151 H 11.0147 5.7329 0.033305 0
M  V30 152 H 9.4117 5.95699 -0.725486 0
M  V30 153 H 10.4817 4.66917 -1.30828 0
M  V30 154 N 11.8248 0.280983 1.55075 0
M  V30 155 C 12.7548 -0.597469 2.25727 0
M  V30 156 C 13.7358 -1.15417 1.24952 0
M  V30 157 O 14.9208 -1.18722 1.53684 0
M  V30 158 C 12.0508 -1.7789 2.98283 0
M  V30 159 C 11.0048 -1.35347 4.06036 0
M  V30 160 C 10.3308 -2.61846 4.66198 0
M  V30 161 C 11.6308 -0.499354 5.19907 0
M  V30 162 H 13.3248 -0.00824265 2.99399 0
M  V30 163 H 10.8708 -0.0025244 1.44 0
M  V30 164 H 12.8238 -2.39937 3.46422 0
M  V30 165 H 11.5478 -2.39405 2.22155 0
M  V30 166 H 10.2068 -0.756156 3.58717 0
M  V30 167 H 9.8548 -3.21632 3.86732 0
M  V30 168 H 9.5548 -2.3409 5.38958 0
M  V30 169 H 11.0788 -3.24732 5.1709 0
M  V30 170 H 12.4928 -1.02498 5.64063 0
M  V30 171 H 10.8898 -0.316424 5.99265 0
M  V30 172 H 11.9598 0.480459 4.82514 0
M  V30 173 N 13.3029 -1.57598 0.00835791 0
M  V30 174 C 14.5309 -1.95214 -0.68549 0
M  V30 175 C 14.9459 -0.883706 -1.66841 0
M  V30 176 O 14.3029 0.136565 -1.81988 0
M  V30 177 C 14.3539 -3.32865 -1.41007 0
M  V30 178 O 14.0749 -4.35609 -0.466552 0
M  V30 179 C 15.5759 -3.84991 -2.19765 0
M  V30 180 H 12.7959 -0.643422 -0.190392 0
M  V30 181 H 15.3399 -2.04406 0.0619607 0
M  V30 182 H 13.4949 -3.24956 -2.10908 0
M  V30 183 H 13.9089 -5.15288 -0.978699 0
M  V30 184 H 15.3829 -4.8371 -2.65948 0
M  V30 185 H 15.8599 -3.18137 -3.02796 0
M  V30 186 H 16.4659 -3.96103 -1.54864 0
M  V30 187 N 14.781 0.264519 -1.55364 0
M  V30 188 C 16.027 0.99646 -1.76631 0
M  V30 189 C 16.36 1.85632 -0.570478 0
M  V30 190 O 15.635 1.89647 0.43175 0
M  V30 191 C 15.918 1.87187 -3.07625 0
M  V30 192 C 15.771 1.04138 -4.37579 0
M  V30 193 C 17.09 2.85749 -3.34717 0
M  V30 194 H 14.209 0.360841 -0.642622 0
M  V30 195 H 16.851 0.268218 -1.88097 0
M  V30 196 H 15.001 2.49279 -2.9798 0
M  V30 197 H 16.673 0.440517 -4.59192 0
M  V30 198 H 14.916 0.345115 -4.32425 0
M  V30 199 H 15.587 1.68729 -5.2558 0
M  V30 200 H 18.063 2.33793 -3.4421 0
M  V30 201 H 16.939 3.44136 -4.27623 0
M  V30 202 H 17.2 3.61311 -2.54768 0
M  V30 203 N 16.2591 1.48442 0.529413 0
M  V30 204 C 17.4841 1.60406 1.31471 0
M  V30 205 C 17.9091 0.264738 1.86228 0
M  V30 206 O 17.2671 -0.763668 1.64432 0
M  V30 207 C 17.3151 2.65419 2.44101 0
M  V30 208 O 16.4191 2.22618 3.47153 0
M  V30 209 H 15.7601 0.537863 0.389357 0
M  V30 210 H 18.2901 1.94432 0.636965 0
M  V30 211 H 18.3001 2.86709 2.90279 0
M  V30 212 H 16.9751 3.62652 2.03608 0
M  V30 213 H 15.5521 2.11543 3.0709 0
M  V30 214 N 17.7372 -0.778329 1.37039 0
M  V30 215 C 18.6672 -1.90546 1.34962 0
M  V30 216 C 19.6482 -1.68681 0.219274 0
M  V30 217 O 20.8332 -1.89634 0.418624 0
M  V30 218 C 17.9632 -3.27734 1.14925 0
M  V30 219 C 16.9172 -3.64147 2.24902 0
M  V30 220 C 16.2432 -4.99806 1.89996 0
M  V30 221 C 17.5432 -3.71579 3.67051 0
M  V30 222 H 19.2372 -1.92541 2.29277 0
M  V30 223 H 16.7832 -0.924948 1.10366 0
M  V30 224 H 18.7362 -4.06215 1.12104 0
M  V30 225 H 17.4602 -3.26154 0.170631 0
M  V30 226 H 16.1192 -2.8797 2.26868 0
M  V30 227 H 15.7672 -4.94759 0.906796 0
M  V30 228 H 15.4672 -5.25139 2.63634 0
M  V30 229 H 16.9912 -5.80694 1.88749 0
M  V30 230 H 18.4052 -4.40227 3.67251 0
M  V30 231 H 16.8022 -4.08405 4.39688 0
M  V30 232 H 17.8722 -2.72404 4.01154 0
M  V30 233 N 19.2153 -1.21501 -1.00376 0
M  V30 234 C 20.1453 -0.999478 -2.11028 0
M  V30 235 C 21.1263 0.0759671 -1.6993 0
M  V30 236 O 22.3113 -0.0841106 -1.94018 0
M  V30 237 C 19.4413 -0.564709 -3.42678 0
M  V30 238 C 18.3953 -1.58486 -3.97576 0
M  V30 239 C 17.7213 -1.00628 -5.25146 0
M  V30 240 C 19.0213 -2.97204 -4.29496 0
M  V30 241 H 20.7153 -1.92495 -2.29317 0
M  V30 242 H 18.2613 -0.92693 -1.102 0
M  V30 243 H 20.2143 -0.401091 -4.19487 0
M  V30 244 H 18.9383 0.396411 -3.24185 0
M  V30 245 H 17.5973 -1.73606 -3.22888 0
M  V30 246 H 17.2453 -0.0368439 -5.02987 0
M  V30 247 H 16.9453 -1.68771 -5.62841 0
M  V30 248 H 18.4693 -0.854015 -6.04598 0
M  V30 249 H 19.8833 -2.8552 -4.97143 0
M  V30 250 H 18.2803 -3.62372 -4.78338 0
M  V30 251 H 19.3503 -3.47956 -3.3772 0
M  V30 252 N 20.6934 1.19889 -1.02296 0
M  V30 253 C 21.9414 1.89046 -0.714558 0
M  V30 254 C 22.2624 1.79636 0.758681 0
M  V30 255 O 21.5324 1.20292 1.54618 0
M  V30 256 H 20.1124 0.699802 -0.261317 0
M  V30 257 H 22.7744 1.45574 -1.29592 0
M  V30 258 H 21.8704 2.95524 -1.0036 0
M  V30 259 N 22.1715 0.800033 1.35784 0
M  V30 260 C 23.4195 0.376597 1.9856 0
M  V30 261 C 23.7405 -1.05812 1.63795 0
M  V30 262 O 23.0105 -1.73103 0.917171 0
M  V30 263 H 21.5905 0.136261 0.734467 0
M  V30 264 H 24.2525 1.02442 1.65806 0
M  V30 265 H 23.3485 0.477002 3.08433 0
M  V30 266 N 23.6496 -1.47581 0.552962 0
M  V30 267 C 24.6126 -2.28439 -0.186605 0
M  V30 268 C 25.6126 -1.36706 -0.84665 0
M  V30 269 O 26.8026 -1.59378 -0.703164 0
M  V30 270 C 23.9346 -3.16264 -1.2724 0
M  V30 271 H 25.1276 -2.95294 0.523609 0
M  V30 272 H 22.6806 -1.532 0.309745 0
M  V30 273 H 23.4156 -2.54091 -2.01514 0
M  V30 274 H 23.2006 -3.83769 -0.803968 0
M  V30 275 H 24.6906 -3.77198 -1.79196 0
M  V30 276 N 25.1277 -0.289203 -1.54924 0
M  V30 277 C 26.3527 0.329299 -2.04769 0
M  V30 278 C 26.7777 1.4763 -1.16564 0
M  V30 279 O 26.1357 1.80527 -0.167186 0
M  V30 280 C 26.1837 0.774438 -3.52186 0
M  V30 281 O 25.2877 1.88038 -3.67036 0
M  V30 282 H 24.6287 0.0659259 -0.660719 0
M  V30 283 H 27.1587 -0.42761 -2.00082 0
M  V30 284 H 27.1687 1.06642 -3.93816 0
M  V30 285 H 25.8437 -0.0646707 -4.1585 0
M  V30 286 H 24.4207 1.58985 -3.3731 0
M  V30 287 N 26.6058 1.57591 -0.0167156 0
M  V30 288 C 27.8338 1.95575 0.675128 0
M  V30 289 C 28.2488 0.892542 1.6637 0
M  V30 290 O 27.6058 -0.126912 1.82058 0
M  V30 291 C 27.6568 3.33608 1.39239 0
M  V30 292 O 27.3778 4.3585 0.443444 0
M  V30 293 C 28.8788 3.86151 2.17721 0
M  V30 294 H 26.0988 0.644423 0.186978 0
M  V30 295 H 28.6428 2.0437 -0.0728 0
M  V30 296 H 26.7978 3.2607 2.09182 0
M  V30 297 H 27.2118 5.158 0.951358 0
M  V30 298 H 28.6858 4.85114 2.63379 0
M  V30 299 H 29.1628 3.19738 3.01105 0
M  V30 300 H 29.7688 3.96918 1.52761 0
M  V30 301 N 28.0839 -0.256276 1.55502 0
M  V30 302 C 29.0469 -1.30047 1.88734 0
M  V30 303 C 30.0469 -1.4154 0.763086 0
M  V30 304 O 31.2369 -1.40403 1.03115 0
M  V30 305 C 28.3689 -2.67953 2.10747 0
M  V30 306 H 29.5619 -1.01802 2.82093 0
M  V30 307 H 27.1149 -0.495134 1.4825 0
M  V30 308 H 27.8499 -3.01351 1.19825 0
M  V30 309 H 27.6349 -2.60993 2.92617 0
M  V30 310 H 29.1249 -3.43368 2.37673 0
M  V30 311 N 29.562 -1.4872 -0.521534 0
M  V30 312 C 30.808 -1.574 -1.27879 0
M  V30 313 C 31.141 -0.250817 -1.92573 0
M  V30 314 O 30.416 0.743934 -1.79711 0
M  V30 315 C 30.699 -2.71843 -2.36164 0
M  V30 316 C 30.552 -4.13893 -1.76105 0
M  V30 317 C 31.871 -2.82008 -3.37875 0
M  V30 318 H 28.99 -0.572941 -0.463581 0
M  V30 319 H 31.632 -1.80927 -0.580119 0
M  V30 320 H 29.782 -2.51914 -2.95756 0
M  V30 321 H 31.454 -4.45284 -1.20499 0
M  V30 322 H 29.697 -4.20498 -1.06601 0
M  V30 323 H 30.368 -4.89804 -2.5455 0
M  V30 324 H 32.844 -3.00086 -2.88249 0
M  V30 325 H 31.72 -3.63796 -4.11028 0
M  V30 326 H 31.981 -1.90511 -3.98946 0
M  V30 327 N 31.0401 0.771051 -1.3745 0
M  V30 328 C 32.0031 1.86598 -1.33093 0
M  V30 329 C 33.0031 1.59076 -0.234845 0
M  V30 330 O 34.1931 1.67145 -0.490732 0
M  V30 331 C 31.3251 3.23747 -1.06773 0
M  V30 332 H 32.5181 1.91873 -2.30488 0
M  V30 333 H 30.0711 0.970876 -1.2249 0
M  V30 334 H 30.8061 3.24148 -0.099129 0
M  V30 335 H 30.5911 3.45115 -1.86112 0
M  V30 336 H 32.0811 4.03824 -1.06377 0
M  V30 337 N 32.5182 1.22032 0.997298 0
M  V30 338 C 33.4502 0.944263 2.08845 0
M  V30 339 C 34.4632 -0.0754663 1.62625 0
M  V30 340 O 35.6522 0.157994 1.77799 0
M  V30 341 C 32.7522 0.397723 3.36558 0
M  V30 342 C 31.9252 1.47362 4.11829 0
M  V30 343 C 30.9842 0.934951 5.17827 0
M  V30 344 O 30.0102 1.62016 5.45655 0
M  V30 345 N 31.2122 -0.245895 5.79979 0
M  V30 346 H 33.9772 1.88363 2.33109 0
M  V30 347 H 31.5382 1.12661 1.16272 0
M  V30 348 H 33.5302 0.0227771 4.04694 0
M  V30 349 H 32.1002 -0.446646 3.09393 0
M  V30 350 H 31.3202 2.02208 3.38386 0
M  V30 351 H 32.6082 2.19764 4.58891 0
M  V30 352 H 32.0062 -0.819475 5.59733 0
M  V30 353 H 30.5632 -0.562272 6.4937 0
M  V30 354 N 33.9963 -1.19345 1.0293 0
M  V30 355 C 35.2733 -1.84811 0.640642 0
M  V30 356 C 35.6533 -1.91855 -0.88062 0
M  V30 357 O 35.0013 -1.43587 -1.7775 0
M  V30 358 C 35.2113 -3.23755 1.30321 0
M  V30 359 C 36.5593 -3.99912 1.42673 0
M  V30 360 O 37.5833 -3.33155 1.26041 0
M  V30 361 O 36.4423 -5.19494 1.6967 0
M  V30 362 H 33.5363 -0.796443 0.222726 0
M  V30 363 H 36.0823 -1.26831 1.12748 0
M  V30 364 H 34.8543 -3.13466 2.34211 0
M  V30 365 H 34.4773 -3.89381 0.804261 0
M  V30 366 N 35.4744 -0.807222 -1.35358 0
M  V30 367 C 36.7214 -0.387888 -1.9875 0
M  V30 368 C 37.0494 1.04509 -1.64037 0
M  V30 369 O 36.3044 1.73986 -0.895946 0
M  V30 370 C 36.6034 -0.519036 -3.53611 0
M  V30 371 C 36.2694 -1.91542 -4.08194 0
M  V30 372 C 34.9314 -2.29745 -4.22813 0
M  V30 373 C 37.2834 -2.82896 -4.37744 0
M  V30 374 C 34.6114 -3.58668 -4.643 0
M  V30 375 C 36.9634 -4.11265 -4.8067 0
M  V30 376 C 35.6274 -4.49466 -4.93494 0
M  V30 377 H 34.8974 -0.141938 -0.727279 0
M  V30 378 H 37.5444 -1.02814 -1.6156 0
M  V30 379 H 35.8494 0.204658 -3.91265 0
M  V30 380 H 37.5464 -0.175345 -4.00616 0
M  V30 381 H 34.1364 -1.60862 -3.97268 0
M  V30 382 H 38.3204 -2.54629 -4.26002 0
M  V30 383 H 33.5764 -3.88113 -4.72418 0
M  V30 384 H 37.7504 -4.82153 -5.02496 0
M  V30 385 H 35.3774 -5.49418 -5.25399 0
M  V30 386 N 36.9525 1.47285 -0.560781 0
M  V30 387 C 38.1805 2.06855 -0.0430262 0
M  V30 388 C 38.5955 1.41291 1.25229 0
M  V30 389 O 37.9525 0.510648 1.7521 0
M  V30 390 C 38.0035 3.61178 0.152518 0
M  V30 391 O 37.7245 4.24285 -1.0915 0
M  V30 392 C 39.2255 4.37624 0.707145 0
M  V30 393 H 36.4455 0.669319 -0.0474652 0
M  V30 394 H 38.9895 1.89237 -0.77521 0
M  V30 395 H 37.1445 3.78298 0.834843 0
M  V30 396 H 37.5585 5.16868 -0.891482 0
M  V30 397 H 39.0325 5.46271 0.793244 0
M  V30 398 H 39.5095 4.04152 1.71923 0
M  V30 399 H 40.1155 4.25257 0.0604027 0
M  V30 400 N 38.4306 0.297415 1.54768 0
M  V30 401 C 39.6796 -0.313669 1.99246 0
M  V30 402 C 39.9926 -1.55281 1.18942 0
M  V30 403 O 41.1986 -2.23825 1.5367 0
M  V30 404 C 39.6546 -0.609407 3.54703 0
M  V30 405 C 39.2626 0.611192 4.43811 0
M  V30 406 C 41.0066 -1.18188 4.07715 0
M  V30 407 C 38.9136 0.288805 5.90694 0
M  V30 408 H 37.8436 -0.120979 0.744231 0
M  V30 409 H 40.4946 0.40556 1.78962 0
M  V30 410 H 38.8766 -1.38813 3.70873 0
M  V30 411 H 40.0506 1.3875 4.39414 0
M  V30 412 H 38.3656 1.10205 4.01552 0
M  V30 413 H 40.9626 -1.43727 5.15021 0
M  V30 414 H 41.3056 -2.12299 3.58099 0
M  V30 415 H 41.8386 -0.464944 3.95074 0
M  V30 416 H 38.5776 1.19838 6.44453 0
M  V30 417 H 38.0976 -0.450305 5.98107 0
M  V30 418 H 39.7766 -0.110933 6.46905 0
M  V30 419 N 39.9087 -1.5758 0.0250728 0
M  V30 420 C 40.8717 -2.08896 -0.943139 0
M  V30 421 C 41.8717 -1.00321 -1.25668 0
M  V30 422 O 43.0617 -1.26495 -1.19769 0
M  V30 423 C 40.1937 -2.55143 -2.26086 0
M  V30 424 H 41.3867 -2.95723 -0.498775 0
M  V30 425 H 38.9397 -1.54703 -0.222888 0
M  V30 426 H 39.6747 -1.71633 -2.75159 0
M  V30 427 H 39.4597 -3.34461 -2.04641 0
M  V30 428 H 40.9497 -2.95083 -2.95492 0
M  V30 429 N 41.3868 0.248026 -1.55636 0
M  V30 430 C 42.3498 1.29044 -1.89421 0
M  V30 431 C 43.3498 1.41134 -0.770581 0
M  V30 432 O 44.5398 1.39854 -1.03858 0
M  V30 433 C 41.6718 2.66831 -2.12165 0
M  V30 434 H 42.8648 1.00305 -2.82629 0
M  V30 435 H 40.4178 0.487265 -1.48511 0
M  V30 436 H 41.1528 3.00711 -1.21422 0
M  V30 437 H 40.9378 2.59438 -2.93997 0
M  V30 438 H 42.4278 3.42103 -2.3949 0
M  V30 439 N 42.8649 1.48995 0.513639 0
M  V30 440 C 43.8119 1.6473 1.61656 0
M  V30 441 C 44.7819 0.488984 1.58739 0
M  V30 442 O 45.9669 0.714478 1.76918 0
M  V30 443 C 43.1069 1.7082 2.99858 0
M  V30 444 C 42.2199 2.9787 3.12885 0
M  V30 445 C 41.3549 2.95017 4.41744 0
M  V30 446 C 40.3939 4.16702 4.48359 0
M  V30 447 N 39.5309 4.11832 5.68629 0
M  V30 448 H 44.3709 2.58909 1.47547 0
M  V30 449 H 41.9079 1.28382 0.71808 0
M  V30 450 H 43.8659 1.72331 3.79944 0
M  V30 451 H 42.4959 0.801181 3.12699 0
M  V30 452 H 41.5479 3.06029 2.25944 0
M  V30 453 H 42.8599 3.8786 3.13633 0
M  V30 454 H 42.0139 2.95021 5.30139 0
M  V30 455 H 40.7529 2.02784 4.43542 0
M  V30 456 H 39.7579 4.16955 3.58369 0
M  V30 457 H 40.9829 5.10113 4.48287 0
M  V30 458 H 38.9289 3.22428 5.71293 0
M  V30 459 H 38.8459 4.95543 5.7094 0
M  V30 460 H 40.1139 4.1592 6.59266 0
M  V30 461 N 44.343 -0.763751 1.37857 0
M  V30 462 C 45.293 -1.86765 1.30777 0
M  V30 463 C 46.277 -1.59726 0.194015 0
M  V30 464 O 47.469 -1.7172 0.42911 0
M  V30 465 C 44.598 -3.24343 1.12502 0
M  V30 466 C 43.684 -3.57307 2.28456 0
M  V30 467 N 44.075 -3.61398 3.53871 0
M  V30 468 C 42.373 -3.87517 2.20786 0
M  V30 469 C 43.074 -3.91339 4.30382 0
M  V30 470 N 42.05 -4.07649 3.59615 0
M  V30 471 H 45.852 -1.88191 2.25746 0
M  V30 472 H 43.366 -0.9606 1.30944 0
M  V30 473 H 45.363 -4.03327 1.05514 0
M  V30 474 H 44.023 -3.24175 0.184574 0
M  V30 475 H 45.034 -3.43407 3.87675 0
M  V30 476 H 41.711 -3.95125 1.34844 0
M  V30 477 H 43.101 -4.01213 5.3896 0
M  V30 478 N 45.8211 -1.22559 -0.990812 0
M  V30 479 C 46.7841 -0.998863 -2.0629 0
M  V30 480 C 47.7841 0.0354834 -1.60761 0
M  V30 481 O 48.9741 -0.203231 -1.7301 0
M  V30 482 C 46.1061 -0.509203 -3.37076 0
M  V30 483 H 47.2991 -1.95014 -2.27837 0
M  V30 484 H 44.8521 -1.04456 -1.16269 0
M  V30 485 H 45.5871 0.446335 -3.21214 0
M  V30 486 H 45.3721 -1.25547 -3.71457 0
M  V30 487 H 46.8621 -0.370888 -4.1595 0
M  V30 488 N 47.2992 1.18797 -1.03562 0
M  V30 489 C 48.5482 1.87978 -0.731235 0
M  V30 490 C 48.8612 1.80911 0.743671 0
M  V30 491 O 50.0672 2.45407 1.16137 0
M  V30 492 C 48.5232 3.3721 -1.25768 0
M  V30 493 C 48.1312 3.52818 -2.76085 0
M  V30 494 C 49.8752 4.11825 -1.0296 0
M  V30 495 C 47.7822 4.9598 -3.22114 0
M  V30 496 H 46.7122 0.704063 -0.269835 0
M  V30 497 H 49.3632 1.34266 -1.25079 0
M  V30 498 H 47.7452 3.90359 -0.666011 0
M  V30 499 H 48.9192 3.09965 -3.40966 0
M  V30 500 H 47.2342 2.91602 -2.97249 0
M  V30 501 H 49.8312 5.17411 -1.34869 0
M  V30 502 H 50.1742 4.16287 0.0333546 0
M  V30 503 H 50.7072 3.64833 -1.58562 0
M  V30 504 H 47.4462 4.96684 -4.27768 0
M  V30 505 H 46.9662 5.39569 -2.61965 0
M  V30 506 H 48.6452 5.6467 -3.15844 0
M  V30 507 N 48.7773 0.814389 1.34928 0
M  V30 508 C 49.7403 0.235759 2.27984 0
M  V30 509 C 50.7403 -0.581412 1.49921 0
M  V30 510 O 51.9303 -0.398758 1.69575 0
M  V30 511 C 49.0623 -0.670433 3.34242 0
M  V30 512 H 50.2553 1.05659 2.80671 0
M  V30 513 H 47.8083 0.585614 1.44915 0
M  V30 514 H 48.5433 -1.51466 2.86755 0
M  V30 515 H 48.3283 -0.0860822 3.92005 0
M  V30 516 H 49.8183 -1.06935 4.03676 0
M  V30 517 N 50.2554 -1.46986 0.568584 0
M  V30 518 C 51.5014 -2.02741 0.0488709 0
M  V30 519 C 51.8344 -1.44077 -1.30214 0
M  V30 520 O 51.1094 -0.600552 -1.84996 0
M  V30 521 C 51.3924 -3.60086 -0.032047 0
M  V30 522 C 51.2454 -4.29162 1.34686 0
M  V30 523 C 52.5644 -4.33838 -0.739798 0
M  V30 524 H 49.6834 -0.736749 0.0192338 0
M  V30 525 H 52.3254 -1.75289 0.733065 0
M  V30 526 H 50.4754 -3.83606 -0.61473 0
M  V30 527 H 52.1474 -4.16948 1.97362 0
M  V30 528 H 50.3904 -3.89073 1.91846 0
M  V30 529 H 51.0614 -5.37826 1.24285 0
M  V30 530 H 53.5374 -4.15378 -0.244939 0
M  V30 531 H 52.4134 -5.43537 -0.765406 0
M  V30 532 H 52.6744 -4.03875 -1.79827 0
M  V30 533 N 51.7335 -0.305618 -1.54608 0
M  V30 534 C 52.6435 0.57778 -2.27374 0
M  V30 535 C 53.6595 1.14451 -1.31061 0
M  V30 536 O 54.8355 1.16831 -1.6405 0
M  V30 537 C 51.9005 1.73123 -3.00382 0
M  V30 538 C 50.9615 1.19812 -4.12242 0
M  V30 539 C 50.1945 2.2966 -4.81759 0
M  V30 540 O 50.4175 3.49651 -4.50666 0
M  V30 541 O 49.3515 1.96091 -5.69062 0
M  V30 542 H 53.1775 -0.012624 -3.03697 0
M  V30 543 H 50.7625 -0.0719184 -1.49227 0
M  V30 544 H 52.6445 2.40315 -3.4616 0
M  V30 545 H 51.3195 2.30815 -2.26949 0
M  V30 546 H 50.2265 0.491798 -3.70853 0
M  V30 547 H 51.5595 0.666566 -4.87666 0
M  V30 548 N 53.2116 1.57565 -0.0334293 0
M  V30 549 C 54.1746 2.09393 0.932048 0
M  V30 550 C 55.1746 1.00986 1.25134 0
M  V30 551 O 56.3646 1.27129 1.19096 0
M  V30 552 C 53.4966 2.56338 2.2473 0
M  V30 553 H 54.6896 2.95984 0.483085 0
M  V30 554 H 52.2426 1.54819 0.21468 0
M  V30 555 H 52.9776 1.7309 2.74245 0
M  V30 556 H 52.7626 3.35542 2.02865 0
M  V30 557 H 54.2526 2.96646 2.93923 0
M  V30 558 N 54.6897 -0.239769 1.55765 0
M  V30 559 C 55.6377 -1.31668 1.91745 0
M  V30 560 C 56.6317 -1.49462 0.797338 0
M  V30 561 O 57.8377 -1.50852 0.982021 0
M  V30 562 H 54.2127 -0.441048 0.609082 0
M  V30 563 H 56.1837 -0.985923 2.81642 0
M  V30 564 C 54.9327 -2.66368 2.2348 0
M  V30 565 H 54.2557 -2.53478 3.09175 0
M  V30 566 H 55.6957 -3.40578 2.52553 0
M  V30 567 C 54.1547 -3.20002 1.05359 0
M  V30 568 O 54.6847 -4.00538 0.305261 0
M  V30 569 N 52.8907 -2.78126 0.842292 0
M  V30 570 H 52.4377 -2.12742 1.45253 0
M  V30 571 H 52.3957 -3.14354 0.053652 0
M  V30 572 N 56.1678 -1.49265 -0.50573 0
M  V30 573 C 57.3958 -1.62215 -1.28429 0
M  V30 574 C 57.8108 -0.291697 -1.86533 0
M  V30 575 O 57.1678 0.722233 -1.67601 0
M  V30 576 C 57.2188 -2.68735 -2.41793 0
M  V30 577 O 56.9398 -3.96619 -1.86078 0
M  V30 578 C 58.4408 -2.92346 -3.3324 0
M  V30 579 H 55.6608 -0.546239 -0.389697 0
M  V30 580 H 58.2048 -1.95265 -0.607609 0
M  V30 581 H 56.3598 -2.38476 -3.053 0
M  V30 582 H 56.7738 -4.55256 -2.60465 0
M  V30 583 H 58.2478 -3.70623 -4.09075 0
M  V30 584 H 58.7248 -2.02081 -3.89948 0
M  V30 585 H 59.3308 -3.24003 -2.75503 0
M  V30 586 N 57.6459 0.756429 -1.3826 0
M  V30 587 C 58.8939 1.51248 -1.34047 0
M  V30 588 C 59.2149 1.94875 0.0698372 0
M  V30 589 O 58.4849 1.67436 1.01696 0
M  V30 590 H 57.0649 0.561018 -0.493222 0
M  V30 591 H 59.7269 0.899347 -1.7291 0
M  V30 592 H 58.8229 2.40472 -1.98947 0
M  V30 593 N 59.124 1.23083 0.984299 0
M  V30 594 C 60.071 1.00854 2.07598 0
M  V30 595 C 61.041 -0.0726709 1.65941 0
M  V30 596 O 62.226 0.0786535 1.90638 0
M  V30 597 C 59.366 0.601645 3.39815 0
M  V30 598 C 58.479 1.75456 3.94765 0
M  V30 599 C 57.614 1.29482 5.15177 0
M  V30 600 C 56.653 2.41873 5.62284 0
M  V30 601 N 55.79 1.96885 6.73929 0
M  V30 602 H 60.63 1.943 2.25946 0
M  V30 603 H 58.167 0.968001 1.10762 0
M  V30 604 H 60.125 0.346854 4.15756 0
M  V30 605 H 58.755 -0.295803 3.21442 0
M  V30 606 H 57.807 2.12346 3.15616 0
M  V30 607 H 59.119 2.59965 4.25699 0
M  V30 608 H 58.273 0.997923 5.98437 0
M  V30 609 H 57.012 0.420046 4.85888 0
M  V30 610 H 56.017 2.72342 4.77608 0
M  V30 611 H 57.242 3.29881 5.93595 0
M  V30 612 H 55.188 1.11782 6.46406 0
M  V30 613 H 55.105 2.74956 7.04227 0
M  V30 614 H 56.373 1.70289 7.60672 0
M  V30 615 N 60.6021 -1.18246 1.0419 0
M  V30 616 C 61.8511 -1.87588 0.741194 0
M  V30 617 C 62.1641 -1.81303 -0.734066 0
M  V30 618 O 63.3701 -2.46019 -1.14834 0
M  V30 619 C 61.8261 -3.36538 1.27555 0
M  V30 620 C 61.4341 -3.51349 2.77953 0
M  V30 621 C 63.1781 -4.11273 1.05143 0
M  V30 622 C 61.0851 -4.94265 3.2474 0
M  V30 623 H 60.0151 -0.702622 0.273565 0
M  V30 624 H 62.6661 -1.33601 1.25789 0
M  V30 625 H 61.0481 -3.9 0.686703 0
M  V30 626 H 62.2221 -3.08153 3.42605 0
M  V30 627 H 60.5371 -2.90022 2.98791 0
M  V30 628 H 63.1341 -5.16689 1.37611 0
M  V30 629 H 63.4771 -4.16298 -0.0112774 0
M  V30 630 H 64.0101 -3.63987 1.60495 0
M  V30 631 H 60.7491 -4.94408 4.30396 0
M  V30 632 H 60.2691 -5.38172 2.64823 0
M  V30 633 H 61.9481 -5.62987 3.18834 0
M  V30 634 N 62.0802 -0.821533 -1.34494 0
M  V30 635 C 63.0102 -0.257138 -2.3208 0
M  V30 636 C 63.9912 0.625645 -1.58176 0
M  V30 637 O 65.1762 0.552811 -1.86166 0
M  V30 638 C 62.3062 0.582958 -3.42372 0
M  V30 639 C 61.2602 -0.202571 -4.2752 0
M  V30 640 C 60.5862 0.760179 -5.29269 0
M  V30 641 C 61.8862 -1.40998 -5.02908 0
M  V30 642 H 63.5802 -1.07247 -2.79532 0
M  V30 643 H 61.1262 -0.517163 -1.34393 0
M  V30 644 H 63.0792 0.987972 -4.09655 0
M  V30 645 H 61.8032 1.43133 -2.93565 0
M  V30 646 H 60.4622 -0.588936 -3.61838 0
M  V30 647 H 60.1102 1.60447 -4.76724 0
M  V30 648 H 59.8102 0.238809 -5.87115 0
M  V30 649 H 61.3342 1.16308 -5.9942 0
M  V30 650 H 62.7482 -1.07905 -5.63054 0
M  V30 651 H 61.1452 -1.86689 -5.70322 0
M  V30 652 H 62.2152 -2.1889 -4.32684 0
M  V30 653 N 63.5583 1.46682 -0.576371 0
M  V30 654 C 64.7883 2.06498 -0.0648694 0
M  V30 655 C 65.1963 1.42665 1.24271 0
M  V30 656 O 64.5393 0.523886 1.76071 0
M  V30 657 C 64.6013 3.5904 0.181816 0
M  V30 658 C 64.2653 4.45028 -1.0392 0
M  V30 659 C 65.2623 4.81959 -1.94966 0
M  V30 660 C 62.9473 4.86259 -1.25927 0
M  V30 661 C 64.9413 5.58942 -3.06371 0
M  V30 662 C 62.6283 5.63002 -2.37638 0
M  V30 663 C 63.6263 5.99257 -3.2769 0
M  V30 664 O 63.3143 6.7445 -4.37461 0
M  V30 665 H 63.0463 0.674028 -0.0515987 0
M  V30 666 H 65.6003 1.89393 -0.794951 0
M  V30 667 H 63.8303 3.74429 0.966436 0
M  V30 668 H 65.5193 4.00806 0.641047 0
M  V30 669 H 66.2853 4.50689 -1.79177 0
M  V30 670 H 62.1643 4.57494 -0.567448 0
M  V30 671 H 65.7083 5.87158 -3.76684 0
M  V30 672 H 61.6053 5.93686 -2.53392 0
M  V30 673 H 62.3733 6.92867 -4.35749 0
M  V30 674 N 65.0364 0.313813 1.54444 0
M  V30 675 C 65.9464 -0.565714 2.27677 0
M  V30 676 C 66.9624 -1.13754 1.31666 0
M  V30 677 O 68.1384 -1.15959 1.64668 0
M  V30 678 C 65.2034 -1.71528 3.01296 0
M  V30 679 C 64.2644 -1.17624 4.12872 0
M  V30 680 C 63.4974 -2.27102 4.8297 0
M  V30 681 O 63.7204 -3.47256 4.52514 0
M  V30 682 O 62.6544 -1.9307 5.70094 0
M  V30 683 H 66.4804 0.0287296 3.03686 0
M  V30 684 H 64.0654 0.0798312 1.49187 0
M  V30 685 H 65.9474 -2.38476 3.4743 0
M  V30 686 H 64.6224 -2.29608 2.2817 0
M  V30 687 H 63.5294 -0.472124 3.71109 0
M  V30 688 H 64.8624 -0.640695 4.88012 0
M  V30 689 N 66.5145 -1.57545 0.0417849 0
M  V30 690 C 67.4615 -2.10977 -0.935805 0
M  V30 691 C 68.4315 -1.01486 -1.31491 0
M  V30 692 O 69.6165 -1.2898 -1.40602 0
M  V30 693 C 66.7565 -2.65169 -2.2086 0
M  V30 694 C 65.8695 -3.88714 -1.88482 0
M  V30 695 C 65.0045 -4.31254 -3.1015 0
M  V30 696 C 64.0435 -5.47524 -2.7365 0
M  V30 697 N 63.1805 -5.85162 -3.87982 0
M  V30 698 H 68.0205 -2.94218 -0.473249 0
M  V30 699 H 65.5575 -1.45415 -0.221981 0
M  V30 700 H 67.5155 -2.94685 -2.95325 0
M  V30 701 H 66.1455 -1.8474 -2.64709 0
M  V30 702 H 65.1975 -3.65849 -1.04205 0
M  V30 703 H 66.5095 -4.73245 -1.57608 0
M  V30 704 H 65.6635 -4.62273 -3.92923 0
M  V30 705 H 64.4025 -3.45516 -3.44195 0
M  V30 706 H 63.4075 -5.16187 -1.89291 0
M  V30 707 H 64.6325 -6.34971 -2.40807 0
M  V30 708 H 62.5785 -5.02377 -4.21846 0
M  V30 709 H 62.4955 -6.64362 -3.60775 0
M  V30 710 H 63.7635 -6.20791 -4.71422 0
M  V30 711 N 67.9926 0.231505 -1.5589 0
M  V30 712 C 69.2696 0.981096 -1.69215 0
M  V30 713 C 69.6496 2.02799 -0.586164 0
M  V30 714 O 68.9976 2.24823 0.408253 0
M  V30 715 C 69.2076 1.60054 -3.10135 0
M  V30 716 C 70.5556 2.09658 -3.69227 0
M  V30 717 O 71.5796 1.69967 -3.13033 0
M  V30 718 O 70.4386 2.8258 -4.67772 0
M  V30 719 H 67.5326 0.457653 -0.688827 0
M  V30 720 H 70.0786 0.224073 -1.68214 0
M  V30 721 H 68.8506 0.844105 -3.82087 0
M  V30 722 H 68.4736 2.42336 -3.15212 0
M  V30 723 N 69.4707 1.49531 0.497807 0
M  V30 724 C 70.4337 1.65916 1.58128 0
M  V30 725 C 71.4337 0.530825 1.51786 0
M  V30 726 O 72.6237 0.797342 1.54881 0
M  V30 727 C 69.7557 1.65951 2.9778 0
M  V30 728 H 70.9487 2.62556 1.44929 0
M  V30 729 H 68.5017 1.38611 0.722275 0
M  V30 730 H 69.2367 0.709065 3.16453 0
M  V30 731 H 69.0217 2.47897 3.03792 0
M  V30 732 H 70.5117 1.80673 3.76493 0
M  V30 733 N 70.9488 -0.749086 1.3866 0
M  V30 734 C 72.1768 -1.53834 1.38358 0
M  V30 735 C 72.5918 -1.88783 -0.0255219 0
M  V30 736 O 71.9488 -1.53101 -0.993292 0
M  V30 737 C 71.9998 -2.83468 2.2434 0
M  V30 738 O 71.7208 -2.50008 3.5976 0
M  V30 739 C 73.2218 -3.7758 2.32267 0
M  V30 740 H 70.4418 -0.47585 0.473083 0
M  V30 741 H 72.9858 -0.926726 1.82297 0
M  V30 742 H 71.1408 -3.40995 1.83851 0
M  V30 743 H 71.5548 -3.33182 4.05081 0
M  V30 744 H 73.0288 -4.65478 2.96706 0
M  V30 745 H 73.5058 -4.18334 1.33765 0
M  V30 746 H 74.1118 -3.25976 2.73166 0
M  V30 747 N 72.4269 -1.23603 -0.977757 0
M  V30 748 C 73.3589 -0.977369 -2.07317 0
M  V30 749 C 74.3719 0.0495845 -1.62724 0
M  V30 750 O 75.5609 -0.186261 -1.77526 0
M  V30 751 C 72.6609 -0.451216 -3.35883 0
M  V30 752 C 71.8339 -1.53896 -4.09432 0
M  V30 753 C 70.8929 -1.01721 -5.16274 0
M  V30 754 O 69.9189 -1.70676 -5.43009 0
M  V30 755 N 71.1209 0.153594 -5.80297 0
M  V30 756 H 73.8859 -1.92047 -2.30082 0
M  V30 757 H 71.4469 -1.14497 -1.14465 0
M  V30 758 H 73.4389 -0.0871574 -4.04606 0
M  V30 759 H 72.0089 0.397368 -3.10064 0
M  V30 760 H 71.2289 -2.07566 -3.35127 0
M  V30 761 H 72.5169 -2.27037 -4.55337 0
M  V30 762 H 71.9149 0.730323 -5.60966 0
M  V30 763 H 70.4719 0.458892 -6.50183 0
M  V30 764 N 73.905 1.17692 -1.04816 0
M  V30 765 C 75.316 1.69501 -0.782698 0
M  V30 766 C 75.667 1.83456 0.695577 0
M  V30 767 O 74.792 1.51942 1.54086 0
M  V30 768 C 75.387 3.07874 -1.41419 0
M  V30 769 C 73.946 3.56864 -1.19686 0
M  V30 770 C 73.093 2.3322 -1.50012 0
M  V30 771 H 76.044 1.02262 -1.2136 0
M  V30 772 H 76.065 3.71528 -0.821428 0
M  V30 773 H 75.577 2.97685 -2.49009 0
M  V30 774 H 73.678 3.72337 -0.140043 0
M  V30 775 H 73.791 4.39851 -1.89916 0
M  V30 776 H 72.155 2.37501 -0.920071 0
M  V30 777 H 72.938 2.25644 -2.58727 0
M  V30 778 N 75.3831 0.828654 1.34056 0
M  V30 779 C 76.6291 0.42008 1.98402 0
M  V30 780 C 76.9621 -1.01564 1.65525 0
M  V30 781 O 76.2371 -1.70834 0.929831 0
M  V30 782 C 76.5201 0.62927 3.54559 0
M  V30 783 C 76.3731 2.11152 3.97159 0
M  V30 784 C 77.6921 0.0688756 4.40046 0
M  V30 785 H 74.8111 0.154104 0.720709 0
M  V30 786 H 77.4531 1.04228 1.5886 0
M  V30 787 H 75.6031 0.0996418 3.88372 0
M  V30 788 H 77.2751 2.70522 3.73651 0
M  V30 789 H 75.5181 2.59985 3.47261 0
M  V30 790 H 76.1891 2.20868 5.05887 0
M  V30 791 H 78.6651 0.521458 4.1282 0
M  V30 792 H 77.5411 0.245006 5.48353 0
M  V30 793 H 77.8021 -1.0266 4.30015 0
M  V30 794 N 76.8612 -1.46375 0.584142 0
M  V30 795 C 77.7712 -2.34115 -0.150728 0
M  V30 796 C 78.7872 -1.49838 -0.884567 0
M  V30 797 O 79.9632 -1.82704 -0.847429 0
M  V30 798 C 77.0282 -3.2705 -1.15062 0
M  V30 799 C 76.0892 -4.27228 -0.421293 0
M  V30 800 C 75.3222 -5.15722 -1.37355 0
M  V30 801 O 75.5452 -5.07176 -2.61014 0
M  V30 802 O 74.4792 -5.95383 -0.883355 0
M  V30 803 H 78.3052 -2.98309 0.569708 0
M  V30 804 H 75.8902 -1.45373 0.344535 0
M  V30 805 H 77.7722 -3.84381 -1.72712 0
M  V30 806 H 76.4472 -2.65451 -1.8525 0
M  V30 807 H 75.3542 -3.7358 0.197085 0
M  V30 808 H 76.6872 -4.91616 0.239641 0
M  V30 809 N 78.3393 -0.321999 -1.54275 0
M  V30 810 C 79.5883 0.281931 -1.9972 0
M  V30 811 C 79.9013 1.53369 -1.21397 0
M  V30 812 O 81.1073 2.21352 -1.57211 0
M  V30 813 C 79.5633 0.5529 -3.55628 0
M  V30 814 C 79.1713 -0.681721 -4.42783 0
M  V30 815 C 80.9153 1.11687 -4.09544 0
M  V30 816 C 78.8223 -0.382742 -5.9016 0
M  V30 817 H 77.7523 0.109124 -0.746062 0
M  V30 818 H 80.4033 -0.43398 -1.78294 0
M  V30 819 H 78.7853 1.32896 -3.73035 0
M  V30 820 H 79.9593 -1.45723 -4.37151 0
M  V30 821 H 78.2743 -1.1658 -3.99748 0
M  V30 822 H 80.8713 1.35515 -5.17242 0
M  V30 823 H 81.2143 2.06575 -3.61431 0
M  V30 824 H 81.7473 0.402032 -3.95763 0
M  V30 825 H 78.4863 -1.30076 -6.42464 0
M  V30 826 H 78.0063 0.355094 -5.98748 0
M  V30 827 H 79.6853 0.00800157 -6.47 0
M  V30 828 N 79.8174 1.5752 -0.0501392 0
M  V30 829 C 80.7804 2.1037 0.909786 0
M  V30 830 C 81.7804 1.02308 1.24056 0
M  V30 831 O 82.9704 1.28385 1.17741 0
M  V30 832 C 80.1024 2.58708 2.21998 0
M  V30 833 H 81.2954 2.96479 0.451665 0
M  V30 834 H 78.8484 1.55038 0.198248 0
M  V30 835 H 79.5834 1.75989 2.72394 0
M  V30 836 H 79.3684 3.37675 1.99295 0
M  V30 837 H 80.8584 2.99747 2.9076 0
M  V30 838 N 81.2955 -0.223234 1.56011 0
M  V30 839 C 82.5205 -0.968978 1.83373 0
M  V30 840 C 82.9455 -1.77227 0.630254 0
M  V30 841 O 82.3035 -1.76345 -0.420959 0
M  V30 842 C 82.3515 -1.86363 3.08709 0
M  V30 843 O 81.4555 -2.95873 2.87285 0
M  V30 844 H 80.7965 -0.274461 0.604622 0
M  V30 845 H 83.3265 -0.237056 2.03222 0
M  V30 846 H 83.3365 -2.27376 3.38768 0
M  V30 847 H 82.0115 -1.27319 3.95933 0
M  V30 848 H 80.5885 -2.58818 2.68454 0
M  V30 849 N 82.7736 -1.49793 -0.48987 0
M  V30 850 C 84.0226 -1.59085 -1.23995 0
M  V30 851 C 84.3356 -0.287907 -1.9347 0
M  V30 852 O 85.5416 -0.259506 -2.70257 0
M  V30 853 C 83.9976 -2.80736 -2.252 0
M  V30 854 C 83.6056 -4.17833 -1.61614 0
M  V30 855 C 85.3496 -2.99364 -3.00967 0
M  V30 856 C 83.2566 -5.30693 -2.60996 0
M  V30 857 H 82.1866 -0.592372 -0.466488 0
M  V30 858 H 84.8376 -1.76197 -0.51252 0
M  V30 859 H 83.2196 -2.57142 -3.01154 0
M  V30 860 H 84.3936 -4.51608 -0.915774 0
M  V30 861 H 82.7086 -4.04656 -0.981977 0
M  V30 862 H 85.3056 -3.80851 -3.75308 0
M  V30 863 H 85.6486 -2.10356 -3.59244 0
M  V30 864 H 86.1816 -3.2305 -2.32128 0
M  V30 865 H 82.9206 -6.21796 -2.07485 0
M  V30 866 H 82.4406 -5.01359 -3.2924 0
M  V30 867 H 84.1196 -5.6049 -3.23202 0
M  V30 868 N 84.2517 0.741722 -1.39055 0
M  V30 869 C 85.4797 1.53098 -1.39171 0
M  V30 870 C 85.8947 1.88794 0.0155099 0
M  V30 871 O 85.2517 1.53626 0.985159 0
M  V30 872 C 85.3027 2.82274 -2.2584 0
M  V30 873 O 85.0237 2.48097 -3.61081 0
M  V30 874 C 86.5247 3.76343 -2.34266 0
M  V30 875 H 83.7447 0.473335 -0.4756 0
M  V30 876 H 86.2887 0.917045 -1.82785 0
M  V30 877 H 84.4437 3.40015 -1.85656 0
M  V30 878 H 84.8577 3.31029 -4.06842 0
M  V30 879 H 86.3317 4.63898 -2.9917 0
M  V30 880 H 86.8087 4.17619 -1.35982 0
M  V30 881 H 87.4147 3.24523 -2.74891 0
M  V30 882 N 85.7298 1.2412 0.971189 0
M  V30 883 C 86.6768 1.0305 2.06517 0
M  V30 884 C 87.6468 -0.0550666 1.66009 0
M  V30 885 O 88.8318 0.0988688 1.90544 0
M  V30 886 C 85.9718 0.637653 3.39158 0
M  V30 887 C 85.0848 1.79633 3.92882 0
M  V30 888 C 84.2198 1.34939 5.13775 0
M  V30 889 C 83.2588 2.47823 5.59687 0
M  V30 890 N 82.3958 2.04022 6.71803 0
M  V30 891 H 87.2358 1.96685 2.23873 0
M  V30 892 H 84.7728 0.979694 1.09729 0
M  V30 893 H 86.7308 0.390931 4.15364 0
M  V30 894 H 85.3608 -0.261693 3.21737 0
M  V30 895 H 84.4128 2.15681 3.13346 0
M  V30 896 H 85.7248 2.64466 4.22918 0
M  V30 897 H 84.8788 1.06134 5.97345 0
M  V30 898 H 83.6178 0.471557 4.85415 0
M  V30 899 H 82.6228 2.77392 4.74693 0
M  V30 900 H 83.8478 3.36158 5.90063 0
M  V30 901 H 81.7938 1.18632 6.45184 0
M  V30 902 H 81.7108 2.82409 7.01271 0
M  V30 903 H 82.9788 1.78347 7.58823 0
M  V30 904 N 87.2079 -1.17134 1.05439 0
M  V30 905 C 88.1379 -2.2342 0.678649 0
M  V30 906 C 89.1189 -1.66971 -0.32476 0
M  V30 907 O 90.3039 -1.93149 -0.201802 0
M  V30 908 C 87.4339 -3.47256 0.0552099 0
M  V30 909 C 86.3879 -4.16543 0.98365 0
M  V30 910 C 85.7139 -5.34231 0.223961 0
M  V30 911 C 87.0139 -4.68495 2.3089 0
M  V30 912 H 88.7079 -2.55105 1.56722 0
M  V30 913 H 86.2539 -1.2262 0.754998 0
M  V30 914 H 88.2069 -4.20828 -0.21946 0
M  V30 915 H 86.9309 -3.14846 -0.868319 0
M  V30 916 H 85.5899 -3.44887 1.24293 0
M  V30 917 H 85.2379 -4.98071 -0.702412 0
M  V30 918 H 84.9379 -5.81527 0.842627 0
M  V30 919 H 86.4619 -6.10585 -0.0433671 0
M  V30 920 H 87.8759 -5.33691 2.09396 0
M  V30 921 H 86.2729 -5.26379 2.88176 0
M  V30 922 H 87.3429 -3.85169 2.94572 0
M  V30 923 N 88.686 -0.835752 -1.33615 0
M  V30 924 C 89.935 -0.426289 -1.97144 0
M  V30 925 C 90.248 1.01912 -1.66953 0
M  V30 926 O 91.454 1.53311 -2.24072 0
M  V30 927 C 89.91 -0.711321 -3.52801 0
M  V30 928 C 89.518 -2.1712 -3.91871 0
M  V30 929 C 91.262 -0.368654 -4.22896 0
M  V30 930 C 89.169 -2.40044 -5.40493 0
M  V30 931 H 88.099 -0.15567 -0.737755 0
M  V30 932 H 90.75 -1.0239 -1.52278 0
M  V30 933 H 89.132 -0.0433766 -3.95976 0
M  V30 934 H 90.306 -2.87936 -3.59763 0
M  V30 935 H 88.621 -2.47654 -3.34749 0
M  V30 936 H 91.218 -0.517601 -5.32189 0
M  V30 937 H 91.561 0.688078 -4.10574 0
M  V30 938 H 92.094 -0.991702 -3.8524 0
M  V30 939 H 88.833 -3.44271 -5.57815 0
M  V30 940 H 88.353 -1.73785 -5.74072 0
M  V30 941 H 90.032 -2.23042 -6.0734 0
M  V30 942 N 90.1641 1.46063 -0.591896 0
M  V30 943 C 91.3921 2.06717 -0.0868936 0
M  V30 944 C 91.8071 1.43916 1.22203 0
M  V30 945 O 91.1641 0.547698 1.74088 0
M  V30 946 C 91.2151 3.6142 0.0758725 0
M  V30 947 O 90.9361 4.21874 -1.18126 0
M  V30 948 C 92.4371 4.39025 0.61416 0
M  V30 949 H 89.6571 0.668162 -0.0616518 0
M  V30 950 H 92.2011 1.8755 -0.815175 0
M  V30 951 H 90.3561 3.79983 0.754413 0
M  V30 952 H 90.7701 5.14861 -1.00092 0
M  V30 953 H 92.2441 5.4783 0.677193 0
M  V30 954 H 92.7211 4.07708 1.63312 0
M  V30 955 H 93.3271 4.2529 -0.0298142 0
M  V30 956 N 91.6422 0.330177 1.54103 0
M  V30 957 C 92.8882 -0.270806 2.00984 0
M  V30 958 C 93.2212 -1.51265 1.21789 0
M  V30 959 O 92.4962 -1.92142 0.301927 0
M  V30 960 C 92.7792 -0.598339 3.55094 0
M  V30 961 C 92.6322 0.654674 4.4501 0
M  V30 962 C 93.9512 -1.41334 4.16789 0
M  V30 963 H 91.0702 -0.0969531 0.730595 0
M  V30 964 H 93.7122 0.448066 1.84641 0
M  V30 965 H 91.8622 -1.21078 3.69151 0
M  V30 966 H 93.5342 1.29285 4.42813 0
M  V30 967 H 91.7772 1.28224 4.14416 0
M  V30 968 H 92.4482 0.380944 5.50684 0
M  V30 969 H 94.9242 -0.895597 4.06347 0
M  V30 970 H 93.8002 -1.61127 5.24718 0
M  V30 971 H 94.0612 -2.41146 3.70541 0
M  V30 972 N 93.1203 -1.57491 0.0584922 0
M  V30 973 C 94.3503 -1.9701 -0.622134 0
M  V30 974 C 94.7583 -0.935034 -1.6448 0
M  V30 975 O 94.1013 0.0882904 -1.83488 0
M  V30 976 C 94.1633 -3.32794 -1.35972 0
M  V30 977 C 93.8273 -4.54343 -0.492043 0
M  V30 978 C 94.8243 -5.19323 0.244901 0
M  V30 979 C 92.5093 -5.00534 -0.420821 0
M  V30 980 C 94.5033 -6.28835 1.04143 0
M  V30 981 C 92.1903 -6.09921 0.379389 0
M  V30 982 C 93.1883 -6.73933 1.10919 0
M  V30 983 O 92.8763 -7.81216 1.89623 0
M  V30 984 H 92.6083 -0.653127 -0.174359 0
M  V30 985 H 95.1623 -2.05029 0.123418 0
M  V30 986 H 93.3923 -3.21351 -2.15105 0
M  V30 987 H 95.0813 -3.5701 -1.93129 0
M  V30 988 H 95.8473 -4.8459 0.19939 0
M  V30 989 H 91.7263 -4.50496 -0.978474 0
M  V30 990 H 95.2703 -6.7873 1.61157 0
M  V30 991 H 91.1673 -6.44089 0.426512 0
M  V30 992 H 91.9353 -7.98029 1.81913 0
M  V30 993 N 94.5984 0.214957 -1.56127 0
M  V30 994 C 95.5284 1.2695 -1.95974 0
M  V30 995 C 96.5094 1.48539 -0.828868 0
M  V30 996 O 97.6944 1.60611 -1.09168 0
M  V30 997 C 94.8244 2.61794 -2.28214 0
M  V30 998 C 93.7784 2.54851 -3.43853 0
M  V30 999 C 93.1044 3.93785 -3.61715 0
M  V30 1000 C 94.4044 2.09065 -4.78632 0
M  V30 1001 H 96.0984 0.93846 -2.84312 0
M  V30 1002 H 93.6444 0.449996 -1.36788 0
M  V30 1003 H 95.5974 3.35731 -2.54682 0
M  V30 1004 H 94.3214 2.96599 -1.36736 0
M  V30 1005 H 92.9804 1.8337 -3.17444 0
M  V30 1006 H 92.6284 4.25908 -2.67602 0
M  V30 1007 H 92.3284 3.90019 -4.39498 0
M  V30 1008 H 93.8524 4.69374 -3.90539 0
M  V30 1009 H 95.2664 2.7275 -5.04262 0
M  V30 1010 H 93.6634 2.16346 -5.59745 0
M  V30 1011 H 94.7334 1.04315 -4.73547 0
M  V30 1012 N 96.0765 1.50051 0.48192 0
M  V30 1013 C 97.3225 1.60736 1.2366 0
M  V30 1014 C 97.6555 0.301786 1.91841 0
M  V30 1015 O 96.9305 -0.696025 1.8162 0
M  V30 1016 C 97.2135 2.78009 2.28874 0
M  V30 1017 C 97.0665 4.18416 1.65069 0
M  V30 1018 C 98.3855 2.90867 3.30279 0
M  V30 1019 H 95.5045 0.585031 0.448228 0
M  V30 1020 H 98.1465 1.82402 0.531946 0
M  V30 1021 H 96.2965 2.59667 2.88973 0
M  V30 1022 H 97.9685 4.48322 1.0865 0
M  V30 1023 H 96.2115 4.23177 0.954148 0
M  V30 1024 H 96.8825 4.96381 2.41474 0
M  V30 1025 H 99.3585 3.07623 2.80191 0
M  V30 1026 H 98.2345 3.74566 4.01238 0
M  V30 1027 H 98.4955 2.01021 3.93755 0
M  V30 1028 N 97.5546 -0.734337 1.39446 0
M  V30 1029 C 98.7846 -1.52137 1.39778 0
M  V30 1030 C 99.1926 -1.89198 -0.00929312 0
M  V30 1031 O 98.5356 -1.54666 -0.991168 0
M  V30 1032 C 98.5976 -2.83762 2.20724 0
M  V30 1033 C 98.2616 -2.69131 3.69347 0
M  V30 1034 C 99.2586 -2.37635 4.62413 0
M  V30 1035 C 96.9436 -2.85982 4.1294 0
M  V30 1036 C 98.9376 -2.23172 5.97054 0
M  V30 1037 C 96.6246 -2.71137 5.47657 0
M  V30 1038 C 97.6226 -2.39777 6.39528 0
M  V30 1039 O 97.3106 -2.25026 7.71763 0
M  V30 1040 H 97.0426 -0.476717 0.479288 0
M  V30 1041 H 99.5966 -0.915012 1.83893 0
M  V30 1042 H 97.8266 -3.4666 1.71359 0
M  V30 1043 H 99.5156 -3.45383 2.13226 0
M  V30 1044 H 100.282 -2.24267 4.30034 0
M  V30 1045 H 96.1606 -3.09383 3.41765 0
M  V30 1046 H 99.7046 -1.98617 6.68728 0
M  V30 1047 H 95.6016 -2.84083 5.79626 0
M  V30 1048 H 96.3696 -2.40091 7.82495 0
M  V30 1049 N 99.0327 -1.24633 -0.964593 0
M  V30 1050 C 99.9427 -1.05859 -2.09359 0
M  V30 1051 C 100.959 0.00148855 -1.74 0
M  V30 1052 O 102.135 -0.197346 -2.00431 0
M  V30 1053 C 99.1997 -0.668879 -3.40187 0
M  V30 1054 C 98.2607 -1.80578 -3.89474 0
M  V30 1055 C 97.4937 -1.43457 -5.14058 0
M  V30 1056 O 97.7167 -0.325775 -5.69469 0
M  V30 1057 O 96.6507 -2.2613 -5.57807 0
M  V30 1058 H 100.477 -2.00516 -2.28094 0
M  V30 1059 H 98.0617 -1.03481 -1.0776 0
M  V30 1060 H 99.9437 -0.463211 -4.18846 0
M  V30 1061 H 98.6187 0.248536 -3.22744 0
M  V30 1062 H 97.5257 -2.06623 -3.11862 0
M  V30 1063 H 98.8587 -2.70208 -4.11398 0
M  V30 1064 N 100.511 1.16574 -1.06058 0
M  V30 1065 C 101.474 2.19085 -0.673392 0
M  V30 1066 C 102.474 1.5835 0.279648 0
M  V30 1067 O 103.664 1.74088 0.0623488 0
M  V30 1068 C 100.796 3.40899 0.00954234 0
M  V30 1069 H 101.989 2.54853 -1.58081 0
M  V30 1070 H 99.5418 1.30808 -0.855516 0
M  V30 1071 H 100.277 3.10684 0.929826 0
M  V30 1072 H 100.062 3.86233 -0.67573 0
M  V30 1073 H 101.552 4.1675 0.266245 0
M  V30 1074 N 101.989 0.842826 1.3317 0
M  V30 1075 C 102.919 0.294028 2.31641 0
M  V30 1076 C 103.9 -0.600401 1.59151 0
M  V30 1077 O 105.085 -0.523124 1.87022 0
M  V30 1078 C 102.215 -0.528416 3.43257 0
M  V30 1079 C 101.169 0.27056 4.27144 0
M  V30 1080 C 100.495 -0.675881 5.30411 0
M  V30 1081 C 101.795 1.48981 5.00602 0
M  V30 1082 H 103.489 1.11681 2.77791 0
M  V30 1083 H 101.035 0.538478 1.33553 0
M  V30 1084 H 102.988 -0.922674 4.11175 0
M  V30 1085 H 101.712 -1.38445 2.95805 0
M  V30 1086 H 100.371 0.646427 3.60856 0
M  V30 1087 H 100.019 -1.52842 4.79216 0
M  V30 1088 H 99.7189 -0.145374 5.8742 0
M  V30 1089 H 101.243 -1.06757 6.01195 0
M  V30 1090 H 102.657 1.16849 5.61266 0
M  V30 1091 H 101.054 1.95739 5.6728 0
M  V30 1092 H 102.124 2.25746 4.29147 0
M  V30 1093 N 103.467 -1.45747 0.599634 0
M  V30 1094 C 104.377 -2.34262 -0.125888 0
M  V30 1095 C 105.393 -1.50768 -0.868625 0
M  V30 1096 O 106.569 -1.83592 -0.828003 0
M  V30 1097 C 103.634 -3.28252 -1.11587 0
M  V30 1098 C 102.695 -4.27651 -0.375956 0
M  V30 1099 C 101.928 -5.1715 -1.31877 0
M  V30 1100 O 102.151 -5.09916 -2.55621 0
M  V30 1101 O 101.085 -5.96286 -0.820157 0
M  V30 1102 H 104.911 -2.97688 0.601315 0
M  V30 1103 H 102.496 -1.44999 0.359934 0
M  V30 1104 H 104.378 -3.86191 -1.68626 0
M  V30 1105 H 103.053 -2.67401 -1.82424 0
M  V30 1106 H 101.96 -3.7335 0.236698 0
M  V30 1107 H 103.293 -4.91334 0.29177 0
M  V30 1108 N 104.945 -0.338344 -1.53925 0
M  V30 1109 C 105.893 0.536231 -2.26335 0
M  V30 1110 C 106.887 1.1063 -1.28286 0
M  V30 1111 O 108.093 1.05264 -1.46012 0
M  V30 1112 H 104.468 0.191602 -0.727181 0
M  V30 1113 H 106.439 -0.0965747 -2.98244 0
M  V30 1114 C 105.188 1.67803 -3.04528 0
M  V30 1115 H 104.511 1.24864 -3.79801 0
M  V30 1116 H 105.951 2.26526 -3.58416 0
M  V30 1117 C 104.41 2.60439 -2.13712 0
M  V30 1118 O 104.94 3.6255 -1.72975 0
M  V30 1119 N 103.146 2.29006 -1.78898 0
M  V30 1120 H 102.693 1.46011 -2.12223 0
M  V30 1121 H 102.651 2.91248 -1.18416 0
M  V30 1122 N 106.423 1.57458 -0.0668435 0
M  V30 1123 C 107.671 1.92919 0.602214 0
M  V30 1124 C 107.992 0.947215 1.70449 0
M  V30 1125 O 107.262 -0.00544117 1.95899 0
M  V30 1126 H 105.842 0.71217 0.22544 0
M  V30 1127 H 108.504 1.94508 -0.123535 0
M  V30 1128 H 107.6 2.94589 1.03073 0
M  V30 1129 N 107.901 -0.206675 1.56239 0
M  V30 1130 C 109.126 -0.949474 1.8439 0
M  V30 1131 C 109.551 -1.76549 0.649016 0
M  V30 1132 O 108.909 -1.76782 -0.402231 0
M  V30 1133 C 108.957 -1.83078 3.10668 0
M  V30 1134 O 108.061 -2.9281 2.90407 0
M  V30 1135 H 107.402 -0.268033 0.607499 0
M  V30 1136 H 109.932 -0.215488 2.03462 0
M  V30 1137 H 109.942 -2.2377 3.41161 0
M  V30 1138 H 108.617 -1.23112 3.97261 0
M  V30 1139 H 107.194 -2.55956 2.71184 0
M  V30 1140 N 109.379 -1.50304 -0.473955 0
M  V30 1141 C 110.628 -1.60392 -1.22301 0
M  V30 1142 C 110.941 -0.308411 -1.93153 0
M  V30 1143 O 112.147 -0.288156 -2.69966 0
M  V30 1144 C 110.603 -2.83109 -2.2221 0
M  V30 1145 C 110.211 -4.19524 -1.57173 0
M  V30 1146 C 111.955 -3.0254 -2.97775 0
M  V30 1147 C 109.862 -5.33431 -2.55353 0
M  V30 1148 H 108.792 -0.597286 -0.460179 0
M  V30 1149 H 111.443 -1.76731 -0.493803 0
M  V30 1150 H 109.825 -2.60322 -2.9841 0
M  V30 1151 H 110.999 -4.52554 -0.867824 0
M  V30 1152 H 109.314 -4.05674 -0.939002 0
M  V30 1153 H 111.911 -3.84811 -3.71248 0
M  V30 1154 H 112.254 -2.14154 -3.56992 0
M  V30 1155 H 112.787 -3.25494 -2.28688 0
M  V30 1156 H 109.526 -6.23962 -2.00878 0
M  V30 1157 H 109.046 -5.04823 -3.23904 0
M  V30 1158 H 110.725 -5.63887 -3.17239 0
M  V30 1159 N 110.857 0.726932 -1.39834 0
M  V30 1160 C 112.085 1.51613 -1.40787 0
M  V30 1161 C 112.5 1.88799 -0.00451505 0
M  V30 1162 O 111.857 1.54662 0.968809 0
M  V30 1163 C 111.908 2.79863 -2.28821 0
M  V30 1164 O 111.629 2.44253 -3.63692 0
M  V30 1165 C 113.13 3.73837 -2.38245 0
M  V30 1166 H 110.35 0.468264 -0.480593 0
M  V30 1167 H 112.894 0.897607 -1.83748 0
M  V30 1168 H 111.049 3.38027 -1.89252 0
M  V30 1169 H 111.463 3.26695 -4.1033 0
M  V30 1170 H 112.937 4.60699 -3.04073 0
M  V30 1171 H 113.414 4.16153 -1.40403 0
M  V30 1172 H 114.02 3.21589 -2.78317 0
M  V30 1173 N 112.336 1.25143 0.95797 0
M  V30 1174 C 113.266 1.07711 2.07173 0
M  V30 1175 C 114.247 -0.0128462 1.70095 0
M  V30 1176 O 115.432 0.156061 1.93572 0
M  V30 1177 C 112.562 0.691503 3.40346 0
M  V30 1178 C 111.516 1.73132 3.9142 0
M  V30 1179 C 110.842 1.20049 5.21049 0
M  V30 1180 C 112.142 3.1294 4.1817 0
M  V30 1181 H 113.836 2.00873 2.22014 0
M  V30 1182 H 111.382 0.967191 1.06684 0
M  V30 1183 H 113.335 0.556505 4.17709 0
M  V30 1184 H 112.059 -0.275819 3.25433 0
M  V30 1185 H 110.718 1.8547 3.16222 0
M  V30 1186 H 110.366 0.223499 5.02503 0
M  V30 1187 H 110.066 1.89545 5.56189 0
M  V30 1188 H 111.59 1.07782 6.01012 0
M  V30 1189 H 113.004 3.03775 4.86203 0
M  V30 1190 H 111.401 3.79875 4.64559 0
M  V30 1191 H 112.471 3.6025 3.24573 0
M  V30 1192 N 113.814 -1.1601 1.06675 0
M  V30 1193 C 115.039 -1.91068 0.806706 0
M  V30 1194 C 115.464 -1.77112 -0.633485 0
M  V30 1195 O 114.822 -1.09908 -1.44187 0
M  V30 1196 C 114.87 -3.39655 1.21106 0
M  V30 1197 O 113.974 -4.10893 0.352189 0
M  V30 1198 H 113.315 -0.595125 0.294486 0
M  V30 1199 H 115.845 -1.46955 1.42356 0
M  V30 1200 H 115.855 -3.90434 1.18428 0
M  V30 1201 H 114.53 -3.49132 2.26008 0
M  V30 1202 H 113.107 -3.70285 0.440868 0
M  V30 1203 N 115.292 -0.849877 -1.32721 0
M  V30 1204 C 116.52 -0.464754 -2.01613 0
M  V30 1205 C 116.935 0.937191 -1.63897 0
M  V30 1206 O 116.292 1.61081 -0.857856 0
M  V30 1207 C 116.343 -0.588638 -3.56675 0
M  V30 1208 O 116.064 -1.93535 -3.93034 0
M  V30 1209 C 117.565 -0.2019 -4.4284 0
M  V30 1210 H 114.785 -0.183215 -0.645502 0
M  V30 1211 H 117.329 -1.1455 -1.69407 0
M  V30 1212 H 115.484 0.0443159 -3.87375 0
M  V30 1213 H 115.898 -1.92871 -4.87751 0
M  V30 1214 H 117.372 -0.339599 -5.50954 0
M  V30 1215 H 117.849 0.857224 -4.30753 0
M  V30 1216 H 118.455 -0.809733 -4.17521 0
M  V30 1217 N 116.77 1.45427 -0.607355 0
M  V30 1218 C 118.181 1.85756 -0.187535 0
M  V30 1219 C 118.532 1.5077 1.25551 0
M  V30 1220 O 117.657 0.93427 1.95193 0
M  V30 1221 C 118.252 3.37154 -0.333572 0
M  V30 1222 C 116.811 3.76387 0.0315542 0
M  V30 1223 C 115.958 2.69377 -0.658117 0
M  V30 1224 H 118.909 1.36231 -0.81405 0
M  V30 1225 H 118.93 3.78014 0.43428 0
M  V30 1226 H 118.442 3.62586 -1.38393 0
M  V30 1227 H 116.543 3.56571 1.0811 0
M  V30 1228 H 116.656 4.77731 -0.361935 0
M  V30 1229 H 115.02 2.5452 -0.0957873 0
M  V30 1230 H 115.803 2.97646 -1.7106 0
M  V30 1231 N 118.248 0.346503 1.53744 0
M  V30 1232 C 119.494 -0.249473 2.0126 0
M  V30 1233 C 119.827 -1.49965 1.23386 0
M  V30 1234 O 119.102 -1.91811 0.32229 0
M  V30 1235 C 119.385 -0.560643 3.55709 0
M  V30 1236 C 119.238 0.701836 4.44291 0
M  V30 1237 C 120.557 -1.36905 4.18264 0
M  V30 1238 H 117.676 -0.0891987 0.731582 0
M  V30 1239 H 120.318 0.467624 1.84156 0
M  V30 1240 H 118.468 -1.17156 3.70414 0
M  V30 1241 H 120.14 1.33974 4.41417 0
M  V30 1242 H 118.383 1.32612 4.13033 0
M  V30 1243 H 119.054 0.43933 5.50249 0
M  V30 1244 H 121.53 -0.852448 4.07275 0
M  V30 1245 H 120.406 -1.55553 5.26398 0
M  V30 1246 H 120.667 -2.37203 3.73078 0
M  V30 1247 N 119.726 -1.57421 0.075193 0
M  V30 1248 C 121.003 -1.85029 -0.634329 0
M  V30 1249 C 121.383 -0.968305 -1.87582 0
M  V30 1250 O 120.731 -0.0354749 -2.28472 0
M  V30 1251 C 120.941 -3.35286 -0.968742 0
M  V30 1252 C 122.289 -4.02875 -1.34077 0
M  V30 1253 O 123.313 -3.40051 -1.06037 0
M  V30 1254 O 122.172 -5.13691 -1.86506 0
M  V30 1255 H 119.266 -0.7645 -0.315387 0
M  V30 1256 H 121.812 -1.69366 0.106382 0
M  V30 1257 H 120.584 -3.91203 -0.0871376 0
M  V30 1258 H 120.207 -3.56223 -1.7661 0
M  V30 1259 N 121.204 0.198386 -1.56346 0
M  V30 1260 C 122.453 0.917451 -1.79627 0
M  V30 1261 C 122.766 1.8456 -0.64784 0
M  V30 1262 O 123.972 2.60504 -0.764859 0
M  V30 1263 C 122.428 1.68175 -3.18191 0
M  V30 1264 C 122.036 0.798589 -4.40825 0
M  V30 1265 C 123.78 2.39065 -3.50782 0
M  V30 1266 C 121.687 1.56157 -5.70411 0
M  V30 1267 H 120.617 0.346317 -0.669762 0
M  V30 1268 H 123.268 0.170801 -1.82703 0
M  V30 1269 H 121.65 2.47216 -3.09354 0
M  V30 1270 H 122.824 0.0470665 -4.60776 0
M  V30 1271 H 121.139 0.200686 -4.15916 0
M  V30 1272 H 123.736 2.96692 -4.44835 0
M  V30 1273 H 124.079 3.13091 -2.74371 0
M  V30 1274 H 124.612 1.66993 -3.61052 0
M  V30 1275 H 121.351 0.864142 -6.49779 0
M  V30 1276 H 120.871 2.2871 -5.54483 0
M  V30 1277 H 122.55 2.11622 -6.11412 0
M  V30 1278 N 122.682 1.50554 0.465978 0
M  V30 1279 C 123.907 1.65838 1.24549 0
M  V30 1280 C 124.332 0.343486 1.84937 0
M  V30 1281 O 123.69 -0.69324 1.67523 0
M  V30 1282 C 123.738 2.75533 2.32624 0
M  V30 1283 O 122.842 2.37142 3.37398 0
M  V30 1284 H 122.183 0.553893 0.366194 0
M  V30 1285 H 124.713 1.96959 0.553927 0
M  V30 1286 H 124.723 2.98763 2.77857 0
M  V30 1287 H 123.398 3.70962 1.88043 0
M  V30 1288 H 121.975 2.24377 2.97841 0
M  V30 1289 N 124.16 -0.719506 1.40217 0
M  V30 1290 C 125.437 -1.47221 1.28784 0
M  V30 1291 C 125.817 -2.10883 -0.0956067 0
M  V30 1292 O 125.165 -1.99833 -1.10811 0
M  V30 1293 C 125.375 -2.5111 2.42373 0
M  V30 1294 C 126.723 -3.17053 2.82423 0
M  V30 1295 O 127.747 -2.61429 2.41937 0
M  V30 1296 O 126.606 -4.17742 3.52355 0
M  V30 1297 H 123.7 -0.654491 0.50554 0
M  V30 1298 H 126.246 -0.752014 1.52128 0
M  V30 1299 H 125.018 -2.02556 3.34793 0
M  V30 1300 H 124.641 -3.3067 2.20778 0
M  V30 1301 N 125.638 -1.25649 -0.95132 0
M  V30 1302 C 126.868 -1.13179 -1.72841 0
M  V30 1303 C 127.276 0.316827 -1.86528 0
M  V30 1304 O 126.619 1.22948 -1.3649 0
M  V30 1305 C 126.681 -1.71644 -3.15878 0
M  V30 1306 C 126.345 -3.20667 -3.25609 0
M  V30 1307 C 127.342 -4.17616 -3.09666 0
M  V30 1308 C 125.027 -3.6094 -3.49324 0
M  V30 1309 C 127.021 -5.52817 -3.17289 0
M  V30 1310 C 124.708 -4.96278 -3.56584 0
M  V30 1311 C 125.706 -5.92025 -3.40581 0
M  V30 1312 O 125.394 -7.24899 -3.47528 0
M  V30 1313 H 125.126 -0.395389 -0.54831 0
M  V30 1314 H 127.68 -1.66566 -1.20187 0
M  V30 1315 H 125.91 -1.12707 -3.69911 0
M  V30 1316 H 127.599 -1.54225 -3.75459 0
M  V30 1317 H 128.365 -3.87842 -2.91211 0
M  V30 1318 H 124.244 -2.86907 -3.6084 0
M  V30 1319 H 127.788 -6.2753 -3.04716 0
M  V30 1320 H 123.685 -5.25716 -3.74556 0
M  V30 1321 H 124.453 -7.33039 -3.64138 0
M  V30 1322 N 127.117 1.15442 -1.07289 0
M  V30 1323 C 128.528 1.67803 -0.818475 0
M  V30 1324 C 128.879 1.8489 0.656507 0
M  V30 1325 O 128.004 1.55176 1.50829 0
M  V30 1326 C 128.599 3.04805 -1.47917 0
M  V30 1327 C 127.158 3.54245 -1.27229 0
M  V30 1328 C 126.305 2.29986 -1.54925 0
M  V30 1329 H 129.256 0.996646 -1.23502 0
M  V30 1330 H 129.277 3.69702 -0.90005 0
M  V30 1331 H 128.789 2.92336 -2.55267 0
M  V30 1332 H 126.89 3.71956 -0.21899 0
M  V30 1333 H 127.003 4.35723 -1.99203 0
M  V30 1334 H 125.367 2.35496 -0.970242 0
M  V30 1335 H 126.15 2.20105 -2.63455 0
M  V30 1336 N 128.595 0.856903 1.32268 0
M  V30 1337 C 129.825 0.47475 2.01071 0
M  V30 1338 C 130.233 -0.933746 1.64553 0
M  V30 1339 O 129.576 -1.62114 0.863989 0
M  V30 1340 C 129.638 0.536746 3.55471 0
M  V30 1341 C 129.302 1.90453 4.15423 0
M  V30 1342 C 130.299 2.87029 4.33486 0
M  V30 1343 C 127.984 2.20229 4.51447 0
M  V30 1344 C 129.978 4.11532 4.86744 0
M  V30 1345 C 127.665 3.44984 5.0441 0
M  V30 1346 C 128.663 4.40452 5.22007 0
M  V30 1347 O 128.351 5.62998 5.73837 0
M  V30 1348 H 128.083 0.184778 0.650256 0
M  V30 1349 H 130.637 1.15615 1.69771 0
M  V30 1350 H 128.867 -0.20152 3.86175 0
M  V30 1351 H 130.556 0.169875 4.05544 0
M  V30 1352 H 131.322 2.6533 4.05986 0
M  V30 1353 H 127.201 1.46705 4.37034 0
M  V30 1354 H 130.745 4.86056 5.00395 0
M  V30 1355 H 126.642 3.66532 5.31342 0
M  V30 1356 H 127.41 5.64987 5.92226 0
M  V30 1357 N 130.073 -1.45103 0.615059 0
M  V30 1358 C 131.005 -2.28786 -0.13762 0
M  V30 1359 C 132.018 -1.40376 -0.824525 0
M  V30 1360 O 133.207 -1.64681 -0.688662 0
M  V30 1361 C 130.307 -3.16322 -1.21628 0
M  V30 1362 C 129.48 -4.33054 -0.615039 0
M  V30 1363 C 128.539 -5.01743 -1.58556 0
M  V30 1364 O 127.565 -5.58293 -1.10895 0
M  V30 1365 N 128.767 -5.01714 -2.91998 0
M  V30 1366 H 131.532 -2.94025 0.580483 0
M  V30 1367 H 129.093 -1.55373 0.45507 0
M  V30 1368 H 131.085 -3.59139 -1.86552 0
M  V30 1369 H 129.655 -2.52943 -1.83681 0
M  V30 1370 H 128.875 -3.93627 0.21245 0
M  V30 1371 H 130.163 -5.08431 -0.193704 0
M  V30 1372 H 129.561 -4.57075 -3.33316 0
M  V30 1373 H 128.118 -5.48371 -3.52325 0
M  V30 1374 N 131.551 -0.354651 -1.53558 0
M  V30 1375 C 132.481 0.489091 -2.2832 0
M  V30 1376 C 133.462 1.09324 -1.30316 0
M  V30 1377 O 134.647 1.11255 -1.59173 0
M  V30 1378 C 131.777 1.63456 -3.0643 0
M  V30 1379 C 130.731 1.1582 -4.12031 0
M  V30 1380 C 130.057 2.39305 -4.7816 0
M  V30 1381 C 131.357 0.250731 -5.21698 0
M  V30 1382 H 133.051 -0.134614 -2.99097 0
M  V30 1383 H 130.597 -0.0661826 -1.43848 0
M  V30 1384 H 132.55 2.23136 -3.57475 0
M  V30 1385 H 131.274 2.28533 -2.33325 0
M  V30 1386 H 129.933 0.584146 -3.61916 0
M  V30 1387 H 129.581 3.02814 -4.01637 0
M  V30 1388 H 129.281 2.08109 -5.49513 0
M  V30 1389 H 130.805 2.99691 -5.31994 0
M  V30 1390 H 132.219 0.754695 -5.68311 0
M  V30 1391 H 130.616 0.0301468 -6.00092 0
M  V30 1392 H 131.686 -0.710125 -4.79672 0
M  V30 1393 N 133.029 1.57378 -0.0835403 0
M  V30 1394 C 134.257 1.98263 0.59157 0
M  V30 1395 C 134.672 0.962302 1.62435 0
M  V30 1396 O 134.029 -0.049581 1.82433 0
M  V30 1397 C 134.08 3.39214 1.24965 0
M  V30 1398 O 133.801 4.37339 0.258186 0
M  V30 1399 C 135.302 3.95038 2.01147 0
M  V30 1400 H 132.522 0.651773 0.159477 0
M  V30 1401 H 135.066 2.03878 -0.159415 0
M  V30 1402 H 133.221 3.34649 1.95164 0
M  V30 1403 H 133.635 5.19371 0.731734 0
M  V30 1404 H 135.109 4.95848 2.42567 0
M  V30 1405 H 135.586 3.32222 2.87272 0
M  V30 1406 H 136.192 4.0304 1.35789 0
M  V30 1407 N 134.507 -0.190092 1.56449 0
M  V30 1408 C 135.735 -0.925772 1.85033 0
M  V30 1409 C 136.15 -1.76638 0.666658 0
M  V30 1410 O 135.507 -1.78822 -0.364565 0
M  V30 1411 C 135.558 -1.81786 3.12468 0
M  V30 1412 O 135.279 -1.01118 4.26271 0
M  V30 1413 C 136.78 -2.6648 3.54265 0
M  V30 1414 H 134 -0.269872 0.614337 0
M  V30 1415 H 136.544 -0.195837 2.0356 0
M  V30 1416 H 134.699 -2.50136 2.95822 0
M  V30 1417 H 135.113 -1.61956 4.98869 0
M  V30 1418 H 136.587 -3.24722 4.46385 0
M  V30 1419 H 137.064 -3.40434 2.77491 0
M  V30 1420 H 137.67 -2.03493 3.73458 0
M  V30 1421 N 135.985 -1.50799 -0.457987 0
M  V30 1422 C 136.933 -1.71162 -1.575 0
M  V30 1423 C 137.927 -0.577592 -1.59249 0
M  V30 1424 O 139.133 -0.758443 -1.63241 0
M  V30 1425 H 135.508 -0.540468 -0.522875 0
M  V30 1426 H 137.479 -2.64837 -1.37492 0
M  V30 1427 C 136.228 -1.83496 -2.95338 0
M  V30 1428 H 135.551 -2.70153 -2.94716 0
M  V30 1429 H 136.991 -2.01765 -3.72917 0
M  V30 1430 C 135.45 -0.589694 -3.31699 0
M  V30 1431 O 135.98 0.265163 -4.00824 0
M  V30 1432 N 134.186 -0.439845 -2.87252 0
M  V30 1433 H 133.733 -1.13655 -2.31172 0
M  V30 1434 H 133.691 0.392159 -3.11945 0
M  V30 1435 N 137.463 0.71206 -1.40597 0
M  V30 1436 C 138.688 1.50617 -1.42581 0
M  V30 1437 C 139.113 1.88079 -0.0282102 0
M  V30 1438 O 138.471 1.53511 0.964579 0
M  V30 1439 C 138.519 2.7557 -2.3258 0
M  V30 1440 O 137.623 3.72414 -1.77148 0
M  V30 1441 H 136.964 0.453966 -0.484573 0
M  V30 1442 H 139.494 0.876649 -1.84868 0
M  V30 1443 H 139.504 3.2406 -2.47889 0
M  V30 1444 H 138.179 2.47639 -3.34138 0
M  V30 1445 H 136.756 3.31276 -1.71204 0
M  V30 1446 N 138.941 1.26152 0.944643 0
M  V30 1447 C 139.851 1.09176 2.07648 0
M  V30 1448 C 140.867 0.0261935 1.7398 0
M  V30 1449 O 142.043 0.229208 2.00091 0
M  V30 1450 C 139.108 0.722915 3.39079 0
M  V30 1451 C 138.169 1.86752 3.86552 0
M  V30 1452 C 137.402 1.51617 5.11711 0
M  V30 1453 O 137.625 0.416331 5.68879 0
M  V30 1454 O 136.559 2.34975 5.54139 0
M  V30 1455 H 140.385 2.0412 2.24875 0
M  V30 1456 H 137.97 1.05182 1.061 0
M  V30 1457 H 139.852 0.529787 4.18056 0
M  V30 1458 H 138.527 -0.197159 3.23099 0
M  V30 1459 H 137.434 2.11558 3.08535 0
M  V30 1460 H 138.767 2.76719 4.07047 0
M  V30 1461 N 140.419 -1.14872 1.07899 0
M  V30 1462 C 141.382 -2.17986 0.708161 0
M  V30 1463 C 142.382 -1.58775 -0.25442 0
M  V30 1464 O 143.572 -1.74166 -0.034645 0
M  V30 1465 C 140.704 -3.40871 0.0446929 0
M  V30 1466 H 141.897 -2.52306 1.62116 0
M  V30 1467 H 139.45 -1.2943 0.876218 0
M  V30 1468 H 140.185 -3.12124 -0.880281 0
M  V30 1469 H 139.97 -3.8511 0.737091 0
M  V30 1470 H 141.46 -4.17121 -0.19991 0
M  V30 1471 N 141.898 -0.863906 -1.31812 0
M  V30 1472 C 143.123 -0.48527 -2.01643 0
M  V30 1473 C 143.548 0.913058 -1.64453 0
M  V30 1474 O 142.906 1.6014 -0.849985 0
M  V30 1475 C 142.954 -0.642625 -3.54828 0
M  V30 1476 O 142.058 0.320659 -4.11151 0
M  V30 1477 H 141.399 -0.193793 -0.635091 0
M  V30 1478 H 143.929 -1.16565 -1.68148 0
M  V30 1479 H 143.939 -0.533628 -4.04495 0
M  V30 1480 H 142.614 -1.66227 -3.81237 0
M  V30 1481 H 141.191 0.167126 -3.72525 0
M  V30 1482 N 143.376 1.44774 -0.622745 0
M  V30 1483 C 144.324 2.32387 0.0994683 0
M  V30 1484 C 145.318 1.46859 0.844326 0
M  V30 1485 O 146.524 1.63254 0.758174 0
M  V30 1486 H 142.899 0.750273 0.0509291 0
M  V30 1487 H 144.87 2.91062 -0.65767 0
M  V30 1488 C 143.619 3.30723 1.07319 0
M  V30 1489 H 142.942 3.96541 0.509462 0
M  V30 1490 H 144.382 3.94725 1.54817 0
M  V30 1491 C 142.841 2.59021 2.15429 0
M  V30 1492 O 143.371 2.38286 3.23393 0
M  V30 1493 N 141.577 2.189 1.91131 0
M  V30 1494 H 141.124 2.35964 1.03337 0
M  V30 1495 H 141.082 1.71251 2.63668 0
M  V30 1496 N 144.854 0.36279 1.53368 0
M  V30 1497 C 146.103 -0.22888 2.00397 0
M  V30 1498 C 146.416 -1.50096 1.25421 0
M  V30 1499 O 147.622 -2.17106 1.63025 0
M  V30 1500 C 146.078 -0.458417 3.56969 0
M  V30 1501 C 145.686 0.798877 4.4082 0
M  V30 1502 C 147.43 -1.00789 4.12361 0
M  V30 1503 C 145.337 0.539078 5.88938 0
M  V30 1504 H 144.267 -0.089305 0.748693 0
M  V30 1505 H 146.918 0.481099 1.77081 0
M  V30 1506 H 145.3 -1.22959 3.76427 0
M  V30 1507 H 146.474 1.57262 4.33134 0
M  V30 1508 H 144.789 1.27137 3.96516 0
M  V30 1509 H 147.386 -1.21754 5.20653 0
M  V30 1510 H 147.729 -1.9692 3.66781 0
M  V30 1511 H 148.262 -0.296961 3.9669 0
M  V30 1512 H 145.001 1.47064 6.3879 0
M  V30 1513 H 144.521 -0.196222 5.99479 0
M  V30 1514 H 146.2 0.163542 6.46793 0
M  V30 1515 N 146.332 -1.57332 0.0918853 0
M  V30 1516 C 147.743 -1.81496 -0.437739 0
M  V30 1517 C 148.094 -1.00727 -1.6837 0
M  V30 1518 O 147.219 -0.235694 -2.15113 0
M  V30 1519 C 147.814 -3.29197 -0.800939 0
M  V30 1520 C 146.373 -3.54136 -1.27532 0
M  V30 1521 C 145.52 -2.75979 -0.270392 0
M  V30 1522 H 148.471 -1.55494 0.317366 0
M  V30 1523 H 148.492 -3.42344 -1.66074 0
M  V30 1524 H 148.004 -3.87955 0.106078 0
M  V30 1525 H 146.105 -3.00705 -2.20016 0
M  V30 1526 H 146.218 -4.62792 -1.23938 0
M  V30 1527 H 144.582 -2.43349 -0.751872 0
M  V30 1528 H 145.365 -3.37484 0.629248 0
M  V30 1529 N 147.81 0.181792 -1.56548 0
M  V30 1530 C 148.743 1.25366 -1.90679 0
M  V30 1531 C 149.721 1.43299 -0.768376 0
M  V30 1532 O 150.905 1.58475 -1.02068 0
M  V30 1533 C 148.032 2.61826 -2.1486 0
M  V30 1534 C 147.078 2.60688 -3.37556 0
M  V30 1535 S 147.911 2.10804 -4.92262 0
M  V30 1536 C 149.067 3.49062 -5.19525 0
M  V30 1537 H 149.3 0.962277 -2.81296 0
M  V30 1538 H 146.833 0.385892 -1.495 0
M  V30 1539 H 148.791 3.40371 -2.29473 0
M  V30 1540 H 147.452 2.88169 -1.24969 0
M  V30 1541 H 146.645 3.61058 -3.51643 0
M  V30 1542 H 146.247 1.90232 -3.22006 0
M  V30 1543 H 148.539 4.45003 -5.10861 0
M  V30 1544 H 149.482 3.39859 -6.2121 0
M  V30 1545 H 149.89 3.4459 -4.47122 0
M  V30 1546 N 149.288 1.51039 0.449983 0
M  V30 1547 C 150.198 1.74261 1.57067 0
M  V30 1548 C 151.214 0.626363 1.62335 0
M  V30 1549 O 152.39 0.907162 1.79812 0
M  V30 1550 C 149.455 1.85114 2.93144 0
M  V30 1551 C 148.516 3.0893 2.98095 0
M  V30 1552 C 147.749 3.19256 4.27681 0
M  V30 1553 O 147.972 2.35835 5.19363 0
M  V30 1554 O 146.906 4.12144 4.38658 0
M  V30 1555 H 150.732 2.69303 1.40391 0
M  V30 1556 H 148.317 1.35389 0.631688 0
M  V30 1557 H 150.199 1.94311 3.73926 0
M  V30 1558 H 148.874 0.932588 3.09975 0
M  V30 1559 H 147.781 3.0522 2.16314 0
M  V30 1560 H 149.114 4.00433 2.86206 0
M  V30 1561 N 150.766 -0.704594 1.40972 0
M  V30 1562 C 151.729 -1.80035 1.41845 0
M  V30 1563 C 152.729 -1.57774 0.310474 0
M  V30 1564 O 153.919 -1.64613 0.56992 0
M  V30 1565 C 151.051 -3.18284 1.22098 0
M  V30 1566 H 152.244 -1.80658 2.3938 0
M  V30 1567 H 149.797 -0.911329 1.26982 0
M  V30 1568 H 150.532 -3.23306 0.253672 0
M  V30 1569 H 150.317 -3.35843 2.02366 0
M  V30 1570 H 151.807 -3.98289 1.25522 0
M  V30 1571 N 152.244 -1.26651 -0.937939 0
M  V30 1572 C 153.66 -1.03834 -1.21205 0
M  V30 1573 C 153.86 0.234502 -2.00131 0
M  V30 1574 O 152.916 0.942767 -2.3424 0
M  V30 1575 C 154.229 -2.27167 -1.97017 0
M  V30 1576 C 155.777 -2.32101 -2.09996 0
M  V30 1577 C 156.252 -3.55136 -2.8921 0
M  V30 1578 N 157.743 -3.55632 -2.96783 0
M  V30 1579 C 158.478 -4.475 -3.58512 0
M  V30 1580 N 157.974 -5.4966 -4.21717 0
M  V30 1581 N 159.767 -4.35145 -3.55816 0
M  V30 1582 H 151.918 -2.08398 -0.410391 0
M  V30 1583 H 154.181 -0.916031 -0.244114 0
M  V30 1584 H 153.887 -3.19765 -1.46434 0
M  V30 1585 H 153.761 -2.31672 -2.97671 0
M  V30 1586 H 156.148 -1.40015 -2.59769 0
M  V30 1587 H 156.229 -2.31605 -1.08594 0
M  V30 1588 H 155.873 -4.47553 -2.40123 0
M  V30 1589 H 155.803 -3.5288 -3.90875 0
M  V30 1590 H 158.294 -2.81743 -2.51852 0
M  V30 1591 H 158.607 -6.15943 -4.66727 0
M  V30 1592 H 156.952 -5.53514 -4.20294 0
M  V30 1593 H 160.143 -3.5455 -3.05634 0
M  V30 1594 H 160.316 -5.06934 -4.03636 0
M  V30 1595 N 153.722 1.14298 -1.08507 0
M  V30 1596 C 154.67 2.21483 -0.710483 0
M  V30 1597 C 155.664 1.66998 0.284234 0
M  V30 1598 O 156.87 1.79401 0.146692 0
M  V30 1599 H 153.245 0.721578 -0.211729 0
M  V30 1600 H 155.216 2.50348 -1.62384 0
M  V30 1601 C 153.965 3.4743 -0.137007 0
M  V30 1602 H 153.288 3.89686 -0.893592 0
M  V30 1603 H 154.728 4.2391 0.0872789 0
M  V30 1604 C 153.187 3.17548 1.12538 0
M  V30 1605 O 153.717 3.35437 2.21009 0
M  V30 1606 N 151.923 2.71499 1.03617 0
M  V30 1607 H 151.47 2.57143 0.153403 0
M  V30 1608 H 151.428 2.51881 1.88158 0
M  V30 1609 N 155.201 0.870884 1.31352 0
M  V30 1610 C 156.431 0.496049 2.00557 0
M  V30 1611 C 156.839 -0.916241 1.65534 0
M  V30 1612 O 156.182 -1.61188 0.881134 0
M  V30 1613 C 156.244 0.574418 3.54881 0
M  V30 1614 C 155.908 1.94849 4.1338 0
M  V30 1615 C 156.905 2.91611 4.30417 0
M  V30 1616 C 154.59 2.25005 4.49086 0
M  V30 1617 C 156.584 4.16672 4.82352 0
M  V30 1618 C 154.271 3.50315 5.00722 0
M  V30 1619 C 155.269 4.45964 5.17306 0
M  V30 1620 O 154.957 5.69052 5.67833 0
M  V30 1621 H 154.689 0.191664 0.64826 0
M  V30 1622 H 157.243 1.17409 1.68536 0
M  V30 1623 H 155.473 -0.160549 3.86367 0
M  V30 1624 H 157.162 0.212879 4.05341 0
M  V30 1625 H 157.928 2.69622 4.03149 0
M  V30 1626 H 153.807 1.51332 4.35453 0
M  V30 1627 H 157.351 4.91336 4.95211 0
M  V30 1628 H 153.248 3.72147 5.27424 0
M  V30 1629 H 154.016 5.71236 5.86201 0
M  V30 1630 N 156.679 -1.44442 0.630414 0
M  V30 1631 C 157.907 -2.06414 0.141671 0
M  V30 1632 C 158.322 -1.47105 -1.18345 0
M  V30 1633 O 157.679 -0.593662 -1.72574 0
M  V30 1634 C 157.73 -3.61494 0.0199784 0
M  V30 1635 O 157.451 -4.18594 1.29269 0
M  V30 1636 C 158.952 -4.40499 -0.497544 0
M  V30 1637 H 156.172 -0.666292 0.0793452 0
M  V30 1638 H 158.716 -1.85323 0.864614 0
M  V30 1639 H 156.871 -3.8185 -0.653402 0
M  V30 1640 H 157.285 -5.12026 1.13707 0
M  V30 1641 H 158.759 -5.49433 -0.531708 0
M  V30 1642 H 159.236 -4.11895 -1.52445 0
M  V30 1643 H 159.842 -4.25061 0.142562 0
M  V30 1644 N 158.157 -0.370918 -1.53173 0
M  V30 1645 C 159.403 0.217423 -2.01631 0
M  V30 1646 C 159.736 1.47983 -1.25756 0
M  V30 1647 O 159.011 1.91274 -0.352764 0
M  V30 1648 C 159.294 0.503982 -3.56556 0
M  V30 1649 C 159.147 -0.77243 -4.43118 0
M  V30 1650 C 160.466 1.30234 -4.20389 0
M  V30 1651 H 157.585 0.0775486 -0.732909 0
M  V30 1652 H 160.227 -0.496863 -1.83388 0
M  V30 1653 H 158.377 1.11248 -3.72231 0
M  V30 1654 H 160.049 -1.4098 -4.39229 0
M  V30 1655 H 158.292 -1.39167 -4.10871 0
M  V30 1656 H 158.963 -0.526815 -5.4948 0
M  V30 1657 H 161.439 0.787546 -4.08579 0
M  V30 1658 H 160.315 1.47158 -5.28806 0
M  V30 1659 H 160.576 2.31237 -3.76805 0
M  V30 1660 N 159.635 1.57281 -0.100228 0
M  V30 1661 C 160.545 2.17833 0.870965 0
M  V30 1662 C 161.561 1.14921 1.30649 0
M  V30 1663 O 162.737 1.47313 1.37335 0
M  V30 1664 C 159.802 2.75085 2.1102 0
M  V30 1665 C 158.863 3.9297 1.72838 0
M  V30 1666 C 158.096 4.47482 2.90854 0
M  V30 1667 O 158.319 4.00922 4.05731 0
M  V30 1668 O 157.253 5.38433 2.69023 0
M  V30 1669 H 161.079 3.0124 0.38575 0
M  V30 1670 H 158.664 1.48881 0.124397 0
M  V30 1671 H 160.546 3.11656 2.83634 0
M  V30 1672 H 159.221 1.94721 2.58584 0
M  V30 1673 H 158.128 3.61201 0.973883 0
M  V30 1674 H 159.461 4.74713 1.30033 0
M  V30 1675 N 161.113 -0.173488 1.56642 0
M  V30 1676 C 162.023 -1.23482 1.99473 0
M  V30 1677 C 163.039 -1.48567 0.905752 0
M  V30 1678 O 164.215 -1.60758 1.21321 0
M  V30 1679 C 161.28 -2.55444 2.34413 0
M  V30 1680 C 160.341 -2.38241 3.57127 0
M  V30 1681 C 159.574 -3.63909 3.90392 0
M  V30 1682 O 159.797 -4.68996 3.24653 0
M  V30 1683 O 158.731 -3.58149 4.83749 0
M  V30 1684 H 162.557 -0.901279 2.90018 0
M  V30 1685 H 160.142 -0.380185 1.44482 0
M  V30 1686 H 162.024 -3.33292 2.57865 0
M  V30 1687 H 160.699 -2.88382 1.4703 0
M  V30 1688 H 159.606 -1.58431 3.38896 0
M  V30 1689 H 160.939 -2.10228 4.45045 0
M  V30 1690 N 162.591 -1.51276 -0.441967 0
M  V30 1691 C 163.521 -1.752 -1.54361 0
M  V30 1692 C 164.502 -0.601682 -1.59103 0
M  V30 1693 O 165.687 -0.843913 -1.74905 0
M  V30 1694 C 162.817 -1.87282 -2.92477 0
M  V30 1695 C 161.771 -3.02687 -3.02596 0
M  V30 1696 C 161.097 -2.99947 -4.42647 0
M  V30 1697 C 162.397 -4.4273 -2.77106 0
M  V30 1698 H 164.091 -2.67442 -1.34592 0
M  V30 1699 H 161.637 -1.28694 -0.646048 0
M  V30 1700 H 163.59 -2.02602 -3.695 0
M  V30 1701 H 162.314 -0.916844 -3.13467 0
M  V30 1702 H 160.973 -2.87065 -2.28012 0
M  V30 1703 H 160.621 -2.02136 -4.60597 0
M  V30 1704 H 160.321 -3.77439 -4.50348 0
M  V30 1705 H 161.845 -3.17354 -5.2165 0
M  V30 1706 H 163.259 -4.58727 -3.43864 0
M  V30 1707 H 161.656 -5.21893 -2.96222 0
M  V30 1708 H 162.726 -4.53087 -1.72744 0
M  V30 1709 N 164.069 0.697108 -1.41344 0
M  V30 1710 C 164.999 1.82353 -1.45841 0
M  V30 1711 C 165.98 1.67115 -0.317247 0
M  V30 1712 O 167.165 1.86871 -0.528474 0
M  V30 1713 C 164.295 3.20476 -1.33838 0
M  V30 1714 C 163.249 3.50415 -2.4575 0
M  V30 1715 C 162.575 4.87878 -2.18813 0
M  V30 1716 C 163.875 3.49546 -3.88091 0
M  V30 1717 H 165.569 1.78846 -2.40113 0
M  V30 1718 H 163.115 0.859028 -1.15571 0
M  V30 1719 H 165.068 3.98988 -1.35596 0
M  V30 1720 H 163.792 3.24604 -0.360498 0
M  V30 1721 H 162.451 2.74253 -2.43271 0
M  V30 1722 H 162.099 4.8863 -1.19371 0
M  V30 1723 H 161.799 5.08875 -2.93803 0
M  V30 1724 H 163.323 5.68702 -2.22284 0
M  V30 1725 H 164.737 4.18066 -3.92293 0
M  V30 1726 H 163.134 3.82075 -4.62751 0
M  V30 1727 H 164.204 2.48552 -4.16353 0
M  V30 1728 N 165.547 1.27147 0.931209 0
M  V30 1729 C 166.457 1.11372 2.06478 0
M  V30 1730 C 167.473 0.044645 1.73943 0
M  V30 1731 O 168.649 0.250417 1.99837 0
M  V30 1732 C 165.714 0.758838 3.38294 0
M  V30 1733 C 164.775 1.90841 3.84549 0
M  V30 1734 C 164.008 1.57036 5.10074 0
M  V30 1735 O 164.231 0.476645 5.68405 0
M  V30 1736 O 163.165 2.40839 5.51616 0
M  V30 1737 H 166.991 2.06493 2.22698 0
M  V30 1738 H 164.576 1.06301 1.04978 0
M  V30 1739 H 166.458 0.574098 4.17471 0
M  V30 1740 H 165.133 -0.162879 3.2329 0
M  V30 1741 H 164.04 2.14819 3.06274 0
M  V30 1742 H 165.373 2.81021 4.04089 0
M  V30 1743 N 167.025 -1.13721 1.09112 0
M  V30 1744 C 167.988 -2.17222 0.731241 0
M  V30 1745 C 168.988 -1.59035 -0.237566 0
M  V30 1746 O 170.178 -1.74192 -0.0161704 0
M  V30 1747 C 167.31 -3.40804 0.0808443 0
M  V30 1748 H 168.503 -2.50573 1.64783 0
M  V30 1749 H 166.056 -1.28493 0.889897 0
M  V30 1750 H 166.791 -3.1304 -0.847127 0
M  V30 1751 H 166.576 -3.84306 0.777896 0
M  V30 1752 H 168.066 -4.1731 -0.155657 0
M  V30 1753 N 168.503 -0.877838 -1.30888 0
M  V30 1754 C 169.731 -0.507414 -2.00581 0
M  V30 1755 C 170.146 0.902216 -1.65848 0
M  V30 1756 O 169.503 1.59225 -0.891831 0
M  V30 1757 C 169.554 -0.664162 -3.55347 0
M  V30 1758 O 169.275 -2.01829 -3.8884 0
M  V30 1759 C 170.776 -0.295787 -4.42312 0
M  V30 1760 H 167.996 -0.196866 -0.641471 0
M  V30 1761 H 170.54 -1.18117 -1.66939 0
M  V30 1762 H 168.695 -0.0378619 -3.87381 0
M  V30 1763 H 169.109 -2.03174 -4.8355 0
M  V30 1764 H 170.583 -0.456388 -5.5011 0
M  V30 1765 H 171.06 0.765663 -4.32475 0
M  V30 1766 H 171.666 -0.898113 -4.15709 0
M  V30 1767 N 169.982 1.44106 -0.638065 0
M  V30 1768 C 170.912 2.33448 0.0494287 0
M  V30 1769 C 171.893 1.48606 0.827672 0
M  V30 1770 O 173.078 1.77308 0.792173 0
M  V30 1771 C 170.208 3.31771 1.02691 0
M  V30 1772 C 169.162 4.26485 0.359823 0
M  V30 1773 C 168.488 5.14729 1.44769 0
M  V30 1774 C 169.788 5.17056 -0.738296 0
M  V30 1775 H 171.482 2.91183 -0.696636 0
M  V30 1776 H 169.028 1.40014 -0.336456 0
M  V30 1777 H 170.981 3.93161 1.51666 0
M  V30 1778 H 169.705 2.7226 1.80395 0
M  V30 1779 H 168.364 3.66437 -0.10934 0
M  V30 1780 H 168.012 4.51566 2.21578 0
M  V30 1781 H 167.712 5.78913 1.00668 0
M  V30 1782 H 169.236 5.78991 1.93911 0
M  V30 1783 H 170.65 5.72342 -0.331354 0
M  V30 1784 H 169.047 5.89879 -1.10286 0
M  V30 1785 H 170.117 4.57652 -1.60258 0
M  V30 1786 N 171.46 0.379036 1.52974 0
M  V30 1787 C 172.706 -0.206727 2.01744 0
M  V30 1788 C 173.039 -1.47314 1.26539 0
M  V30 1789 O 172.314 -1.91084 0.362903 0
M  V30 1790 C 172.597 -0.485066 3.56818 0
M  V30 1791 C 172.45 0.795919 4.42702 0
M  V30 1792 C 173.769 -1.28003 4.21074 0
M  V30 1793 H 170.888 -0.0736607 0.73331 0
M  V30 1794 H 173.53 0.506581 1.83122 0
M  V30 1795 H 171.68 -1.09272 3.72816 0
M  V30 1796 H 173.352 1.43307 4.38476 0
M  V30 1797 H 171.595 1.41344 4.10127 0
M  V30 1798 H 172.266 0.555947 5.49193 0
M  V30 1799 H 174.742 -0.765867 4.08991 0
M  V30 1800 H 173.618 -1.44352 5.29579 0
M  V30 1801 H 173.879 -2.29236 3.78026 0
M  V30 1802 N 172.938 -1.57226 0.108567 0
M  V30 1803 C 174.163 -1.99604 -0.563303 0
M  V30 1804 C 174.588 -0.987563 -1.6009 0
M  V30 1805 O 173.946 0.0421687 -1.81251 0
M  V30 1806 C 173.994 -3.40902 -1.17552 0
M  V30 1807 O 173.098 -3.42896 -2.2912 0
M  V30 1808 H 172.439 -0.648704 -0.1417 0
M  V30 1809 H 174.969 -2.03679 0.193961 0
M  V30 1810 H 174.979 -3.78886 -1.51357 0
M  V30 1811 H 173.654 -4.1382 -0.415445 0
M  V30 1812 H 172.231 -3.1672 -1.96832 0
M  V30 1813 N 174.416 0.165178 -1.56732 0
M  V30 1814 C 175.641 0.900253 -1.86843 0
M  V30 1815 C 176.066 1.74766 -0.695596 0
M  V30 1816 O 175.424 1.77786 0.35522 0
M  V30 1817 C 175.472 1.74777 -3.15413 0
M  V30 1818 O 174.576 2.85007 -2.98068 0
M  V30 1819 H 173.917 0.251832 -0.614391 0
M  V30 1820 H 176.447 0.161468 -2.03962 0
M  V30 1821 H 176.457 2.14646 -3.46974 0
M  V30 1822 H 175.132 1.12537 -4.00385 0
M  V30 1823 H 173.709 2.48676 -2.77875 0
M  V30 1824 N 175.894 1.51508 0.433938 0
M  V30 1825 C 176.857 1.72473 1.50949 0
M  V30 1826 C 177.857 0.594725 1.49398 0
M  V30 1827 O 179.047 0.862315 1.5136 0
M  V30 1828 C 176.179 1.78431 2.90474 0
M  V30 1829 H 177.372 2.68467 1.33662 0
M  V30 1830 H 174.925 1.41549 0.662836 0
M  V30 1831 H 175.66 0.842645 3.13161 0
M  V30 1832 H 175.445 2.60558 2.93005 0
M  V30 1833 H 176.935 1.96479 3.68491 0
M  V30 1834 N 177.372 -0.689602 1.41712 0
M  V30 1835 C 178.32 -1.82475 1.44242 0
M  V30 1836 C 179.314 -1.66354 0.319774 0
M  V30 1837 O 180.52 -1.73143 0.492089 0
M  V30 1838 H 176.895 -0.601416 0.451445 0
M  V30 1839 H 178.866 -1.77458 2.39899 0
M  V30 1840 C 177.615 -3.20535 1.3473 0
M  V30 1841 H 176.938 -3.33559 2.20405 0
M  V30 1842 H 178.378 -4.00023 1.40562 0
M  V30 1843 C 176.837 -3.36846 0.0603281 0
M  V30 1844 O 177.367 -3.91656 -0.892663 0
M  V30 1845 N 175.573 -2.90595 -0.0177039 0
M  V30 1846 H 175.12 -2.46178 0.758572 0
M  V30 1847 H 175.078 -3.01886 -0.878201 0
M  V30 1848 N 178.85 -1.27639 -0.924453 0
M  V30 1849 C 180.075 -1.17101 -1.71179 0
M  V30 1850 C 180.5 0.268134 -1.86179 0
M  V30 1851 O 179.858 1.19415 -1.36418 0
M  V30 1852 C 179.906 -1.86313 -3.08739 0
M  V30 1853 O 179.01 -1.16331 -3.95652 0
M  V30 1854 H 178.351 -0.407091 -0.524569 0
M  V30 1855 H 180.881 -1.68767 -1.15666 0
M  V30 1856 H 180.891 -1.938 -3.59034 0
M  V30 1857 H 179.566 -2.91001 -2.97138 0
M  V30 1858 H 178.143 -1.16935 -3.54091 0
M  V30 1859 N 180.328 1.1314 -1.09713 0
M  V30 1860 C 181.291 2.16831 -0.742751 0
M  V30 1861 C 182.291 1.59159 0.229129 0
M  V30 1862 O 183.481 1.74199 0.00693237 0
M  V30 1863 C 180.613 3.40756 -0.0989168 0
M  V30 1864 H 181.806 2.49695 -1.66109 0
M  V30 1865 H 179.359 1.2802 -0.896699 0
M  V30 1866 H 180.094 3.13485 0.830514 0
M  V30 1867 H 179.879 3.83888 -0.798265 0
M  V30 1868 H 181.369 4.17386 0.133524 0
M  V30 1869 N 181.806 0.884767 1.30421 0
M  V30 1870 C 182.769 0.356277 2.26414 0
M  V30 1871 C 183.769 -0.501124 1.52792 0
M  V30 1872 O 184.959 -0.30831 1.7145 0
M  V30 1873 C 182.091 -0.492316 3.37326 0
M  V30 1874 H 183.284 1.20389 2.74675 0
M  V30 1875 H 180.837 0.661607 1.41607 0
M  V30 1876 H 181.572 -1.36052 2.94381 0
M  V30 1877 H 181.357 0.121832 3.91911 0
M  V30 1878 H 182.847 -0.853871 4.08777 0
M  V30 1879 N 183.284 -1.43765 0.645699 0
M  V30 1880 C 184.533 -2.01116 0.153412 0
M  V30 1881 C 184.846 -1.51493 -1.23731 0
M  V30 1882 O 186.052 -2.01067 -1.8244 0
M  V30 1883 C 184.508 -3.59206 0.223473 0
M  V30 1884 C 184.116 -4.17823 1.61642 0
M  V30 1885 C 185.86 -4.23972 -0.211597 0
M  V30 1886 C 183.767 -5.68183 1.64081 0
M  V30 1887 H 182.697 -0.752093 0.0535891 0
M  V30 1888 H 185.348 -1.6482 0.806633 0
M  V30 1889 H 183.73 -3.92867 -0.497118 0
M  V30 1890 H 184.904 -3.95674 2.36176 0
M  V30 1891 H 183.219 -3.65399 1.99681 0
M  V30 1892 H 185.816 -5.34275 -0.213112 0
M  V30 1893 H 186.159 -3.97352 -1.24165 0
M  V30 1894 H 186.692 -3.95166 0.456988 0
M  V30 1895 H 183.431 -5.99559 2.64971 0
M  V30 1896 H 182.951 -5.9241 0.938611 0
M  V30 1897 H 184.63 -6.32085 1.3812 0
M  V30 1898 N 184.763 -0.387143 -1.52771 0
M  V30 1899 C 185.726 0.436939 -2.24997 0
M  V30 1900 C 186.726 0.991991 -1.26555 0
M  V30 1901 O 187.916 0.874335 -1.50669 0
M  V30 1902 C 185.048 1.61281 -3.00335 0
M  V30 1903 H 186.241 -0.195365 -2.99263 0
M  V30 1904 H 183.794 -0.139218 -1.55679 0
M  V30 1905 H 184.529 2.2826 -2.30364 0
M  V30 1906 H 184.314 1.22154 -3.72587 0
M  V30 1907 H 185.804 2.19629 -3.5518 0
M  V30 1908 N 186.241 1.57166 -0.116904 0
M  V30 1909 C 187.171 2.18222 0.830759 0
M  V30 1910 C 188.152 1.12167 1.27877 0
M  V30 1911 O 189.337 1.40394 1.34176 0
M  V30 1912 C 186.467 2.77996 2.08172 0
M  V30 1913 C 185.421 3.89614 1.77157 0
M  V30 1914 C 184.747 4.36187 3.09265 0
M  V30 1915 C 186.047 5.1181 1.04151 0
M  V30 1916 H 187.741 2.97664 0.321992 0
M  V30 1917 H 185.287 1.4318 0.153434 0
M  V30 1918 H 187.24 3.19366 2.74924 0
M  V30 1919 H 185.964 1.9584 2.6137 0
M  V30 1920 H 184.623 3.48816 1.12796 0
M  V30 1921 H 184.271 3.50893 3.60393 0
M  V30 1922 H 183.971 5.11455 2.89288 0
M  V30 1923 H 185.495 4.80207 3.77139 0
M  V30 1924 H 186.909 5.50214 1.61052 0
M  V30 1925 H 185.306 5.92648 0.942762 0
M  V30 1926 H 186.376 4.84892 0.0279022 0
M  V30 1927 N 187.719 -0.156864 1.56817 0
M  V30 1928 C 188.682 -1.17781 1.96622 0
M  V30 1929 C 189.682 -1.36401 0.851555 0
M  V30 1930 O 190.872 -1.33561 1.11836 0
M  V30 1931 C 188.004 -2.54008 2.27361 0
M  V30 1932 H 189.197 -0.836564 2.87996 0
M  V30 1933 H 186.75 -0.39985 1.51099 0
M  V30 1934 H 187.485 -2.9312 1.38748 0
M  V30 1935 H 187.27 -2.41856 3.08623 0
M  V30 1936 H 188.76 -3.27558 2.59029 0
M  V30 1937 N 189.197 -1.51736 -0.425897 0
M  V30 1938 C 190.107 -1.76738 -1.54275 0
M  V30 1939 C 191.123 -0.65211 -1.61318 0
M  V30 1940 O 192.299 -0.935654 -1.78346 0
M  V30 1941 C 189.364 -1.89755 -2.90162 0
M  V30 1942 C 188.425 -3.13633 -2.93143 0
M  V30 1943 C 187.658 -3.2602 -4.22548 0
M  V30 1944 O 187.881 -2.44067 -5.15546 0
M  V30 1945 O 186.815 -4.19071 -4.32046 0
M  V30 1946 H 190.641 -2.71502 -1.36089 0
M  V30 1947 H 188.226 -1.36376 -0.610069 0
M  V30 1948 H 190.108 -2.00236 -3.70788 0
M  V30 1949 H 188.783 -0.981785 -3.08452 0
M  V30 1950 H 187.69 -3.08622 -2.11431 0
M  V30 1951 H 189.023 -4.04936 -2.798 0
M  V30 1952 N 190.675 0.682077 -1.42076 0
M  V30 1953 C 191.622 1.79578 -1.44984 0
M  V30 1954 C 192.592 1.6332 -0.302614 0
M  V30 1955 O 193.777 1.83978 -0.505633 0
M  V30 1956 C 190.917 3.1756 -1.35091 0
M  V30 1957 C 190.03 3.45156 -2.59791 0
M  V30 1958 C 189.165 4.72826 -2.42093 0
M  V30 1959 C 188.204 4.93433 -3.62202 0
M  V30 1960 N 187.341 6.12338 -3.43491 0
M  V30 1961 H 192.181 1.76427 -2.40161 0
M  V30 1962 H 189.718 0.861376 -1.19242 0
M  V30 1963 H 191.676 3.97287 -1.27354 0
M  V30 1964 H 190.306 3.19854 -0.435133 0
M  V30 1965 H 189.358 2.59736 -2.77923 0
M  V30 1966 H 190.67 3.5628 -3.49094 0
M  V30 1967 H 189.824 5.60631 -2.319 0
M  V30 1968 H 188.563 4.63973 -1.50268 0
M  V30 1969 H 187.568 4.04073 -3.72834 0
M  V30 1970 H 188.793 5.04136 -4.54998 0
M  V30 1971 H 186.739 6.04672 -2.54377 0
M  V30 1972 H 186.656 6.2429 -4.26377 0
M  V30 1973 H 187.924 7.02841 -3.37097 0
M  V30 1974 N 192.153 1.28127 0.917671 0
M  V30 1975 C 193.402 1.14432 1.66097 0
M  V30 1976 C 193.715 -0.307247 1.93172 0
M  V30 1977 O 194.921 -0.565259 2.65551 0
M  V30 1978 C 193.377 2.00015 2.99202 0
M  V30 1979 C 192.985 3.49889 2.79789 0
M  V30 1980 C 194.729 1.94996 3.77064 0
M  V30 1981 C 192.636 4.27636 4.08511 0
M  V30 1982 H 191.566 0.424662 0.62304 0
M  V30 1983 H 194.217 1.52628 1.01868 0
M  V30 1984 H 192.599 1.54672 3.64544 0
M  V30 1985 H 193.773 4.03162 2.23152 0
M  V30 1986 H 192.088 3.56392 2.15345 0
M  V30 1987 H 194.685 2.50354 4.72469 0
M  V30 1988 H 195.028 0.925819 4.05875 0
M  V30 1989 H 195.561 2.38287 3.18534 0
M  V30 1990 H 192.3 5.30615 3.84874 0
M  V30 1991 H 191.82 3.79137 4.64774 0
M  V30 1992 H 193.499 4.37346 4.76799 0
M  V30 1993 N 193.631 -1.12557 1.10312 0
M  V30 1994 C 194.594 -2.16434 0.75424 0
M  V30 1995 C 195.594 -1.59278 -0.220685 0
M  V30 1996 O 196.784 -1.742 0.00230591 0
M  V30 1997 C 193.916 -3.40699 0.116987 0
M  V30 1998 H 195.109 -2.48811 1.67431 0
M  V30 1999 H 192.662 -1.27542 0.903475 0
M  V30 2000 H 193.397 -3.13921 -0.813877 0
M  V30 2001 H 193.182 -3.83459 0.818613 0
M  V30 2002 H 194.672 -4.17451 -0.111387 0
M  V30 2003 N 195.109 -0.891671 -1.2995 0
M  V30 2004 C 196.357 -0.512486 -1.95494 0
M  V30 2005 C 196.678 0.942776 -1.70695 0
M  V30 2006 O 195.948 1.66374 -1.03424 0
M  V30 2007 H 194.528 -0.186533 -0.723336 0
M  V30 2008 H 197.19 -1.13621 -1.58355 0
M  V30 2009 H 196.286 -0.688342 -3.04415 0
M  V30 2010 N 196.587 1.43421 -0.653314 0
M  V30 2011 C 197.812 2.06678 -0.172846 0
M  V30 2012 C 198.237 1.48648 1.15262 0
M  V30 2013 O 197.595 0.596457 1.71208 0
M  V30 2014 C 197.643 3.60474 -0.0953184 0
M  V30 2015 O 196.747 4.01487 0.942442 0
M  V30 2016 H 196.088 0.657181 -0.0949155 0
M  V30 2017 H 198.618 1.83925 -0.896265 0
M  V30 2018 H 198.628 4.07905 0.0879728 0
M  V30 2019 H 197.303 4.02088 -1.06291 0
M  V30 2020 H 195.88 3.65646 0.731932 0
M  V30 2021 N 198.065 0.39524 1.52563 0
M  V30 2022 C 198.975 -0.444232 2.30356 0
M  V30 2023 C 199.991 -1.06615 1.37511 0
M  V30 2024 O 201.167 -1.07067 1.70583 0
M  V30 2025 C 198.232 -1.55315 3.09964 0
M  V30 2026 C 197.293 -0.955734 4.18526 0
M  V30 2027 C 196.526 -2.01181 4.9433 0
M  V30 2028 O 196.749 -3.22781 4.70285 0
M  V30 2029 O 195.683 -1.62579 5.79527 0
M  V30 2030 H 199.509 0.189667 3.03107 0
M  V30 2031 H 197.094 0.1588 1.48554 0
M  V30 2032 H 198.976 -2.19724 3.59582 0
M  V30 2033 H 197.651 -2.17191 2.4002 0
M  V30 2034 H 196.558 -0.274743 3.7309 0
M  V30 2035 H 197.891 -0.381109 4.90722 0
M  V30 2036 N 199.544 -1.57102 0.125237 0
M  V30 2037 C 200.491 -2.15641 -0.822655 0
M  V30 2038 C 201.461 -1.08313 -1.25927 0
M  V30 2039 O 202.646 -1.36251 -1.33567 0
M  V30 2040 C 199.786 -2.76504 -2.06494 0
M  V30 2041 C 198.899 -3.98158 -1.67612 0
M  V30 2042 C 198.034 -4.47088 -2.86854 0
M  V30 2043 C 197.073 -5.6126 -2.44242 0
M  V30 2044 N 196.21 -6.04905 -3.56419 0
M  V30 2045 H 201.05 -2.96313 -0.316625 0
M  V30 2046 H 198.587 -1.46388 -0.144588 0
M  V30 2047 H 200.545 -3.09925 -2.79289 0
M  V30 2048 H 199.175 -1.98512 -2.54545 0
M  V30 2049 H 198.227 -3.70858 -0.846661 0
M  V30 2050 H 199.539 -4.80934 -1.32301 0
M  V30 2051 H 198.693 -4.82451 -3.67867 0
M  V30 2052 H 197.432 -3.63275 -3.25396 0
M  V30 2053 H 196.437 -5.25495 -1.61663 0
M  V30 2054 H 197.662 -6.46843 -2.0681 0
M  V30 2055 H 195.608 -5.24032 -3.94623 0
M  V30 2056 H 195.525 -6.82552 -3.25051 0
M  V30 2057 H 196.793 -6.44907 -4.37853 0
M  V30 2058 N 201.022 0.148545 -1.56898 0
M  V30 2059 C 202.299 0.890019 -1.74178 0
M  V30 2060 C 202.679 1.99407 -0.692839 0
M  V30 2061 O 202.027 2.26671 0.288505 0
M  V30 2062 C 202.237 1.43389 -3.18183 0
M  V30 2063 C 203.585 1.89791 -3.79822 0
M  V30 2064 O 204.609 1.53134 -3.21603 0
M  V30 2065 O 203.468 2.57387 -4.82093 0
M  V30 2066 H 200.562 0.420496 -0.712118 0
M  V30 2067 H 203.108 0.134591 -1.69165 0
M  V30 2068 H 201.88 0.640383 -3.86024 0
M  V30 2069 H 201.503 2.25287 -3.27615 0
M  V30 2070 N 202.5 1.5196 0.417844 0
M  V30 2071 C 203.747 1.65591 1.16559 0
M  V30 2072 C 204.075 0.381565 1.90721 0
M  V30 2073 O 203.33 -0.635156 1.85106 0
M  V30 2074 C 203.629 2.82269 2.19223 0
M  V30 2075 C 203.295 4.20819 1.61933 0
M  V30 2076 C 201.957 4.58506 1.46033 0
M  V30 2077 C 204.309 5.07196 1.20008 0
M  V30 2078 C 201.637 5.80257 0.867113 0
M  V30 2079 C 203.989 6.29544 0.621086 0
M  V30 2080 C 202.653 6.65987 0.449144 0
M  V30 2081 H 201.923 0.605939 0.42652 0
M  V30 2082 H 204.57 1.86041 0.45397 0
M  V30 2083 H 202.875 2.56118 2.96498 0
M  V30 2084 H 204.572 2.90012 2.76936 0
M  V30 2085 H 201.162 3.91116 1.7529 0
M  V30 2086 H 205.346 4.7867 1.31105 0
M  V30 2087 H 200.602 6.07124 0.721833 0
M  V30 2088 H 204.776 6.95805 0.287798 0
M  V30 2089 H 202.403 7.60199 -0.012632 0
M  V30 2090 N 203.978 -0.674533 1.42435 0
M  V30 2091 C 205.224 -1.43671 1.43131 0
M  V30 2092 C 205.557 -1.94142 0.0476021 0
M  V30 2093 O 204.832 -1.70924 -0.928188 0
M  V30 2094 C 205.115 -2.63355 2.45594 0
M  V30 2095 C 204.968 -2.18514 3.93156 0
M  V30 2096 C 206.287 -3.65571 2.45043 0
M  V30 2097 H 203.406 -0.521077 0.521198 0
M  V30 2098 H 206.048 -0.766551 1.7385 0
M  V30 2099 H 204.198 -3.2053 2.19528 0
M  V30 2100 H 205.87 -1.66504 4.30202 0
M  V30 2101 H 204.113 -1.50086 4.07009 0
M  V30 2102 H 204.784 -3.04484 4.60428 0
M  V30 2103 H 207.26 -3.18113 2.68223 0
M  V30 2104 H 206.136 -4.46893 3.18713 0
M  V30 2105 H 206.397 -4.16716 1.47649 0
M  V30 2106 N 205.456 -1.28612 -0.910864 0
M  V30 2107 C 206.733 -1.06632 -1.63979 0
M  V30 2108 C 207.113 0.393351 -2.07403 0
M  V30 2109 O 206.461 1.37999 -1.82122 0
M  V30 2110 C 206.671 -2.0436 -2.8291 0
M  V30 2111 C 208.019 -2.34666 -3.5386 0
M  V30 2112 O 209.043 -2.02467 -2.93062 0
M  V30 2113 O 207.902 -2.89631 -4.63439 0
M  V30 2114 H 204.996 -0.407737 -0.7195 0
M  V30 2115 H 207.542 -1.39942 -0.959914 0
M  V30 2116 H 206.314 -3.02727 -2.47936 0
M  V30 2117 H 205.937 -1.71714 -3.58609 0
M  V30 2118 N 206.934 1.1197 -1.10907 0
M  V30 2119 C 207.867 2.16998 -0.706192 0
M  V30 2120 C 208.845 1.59903 0.294897 0
M  V30 2121 O 210.029 1.87513 0.192636 0
M  V30 2122 C 207.156 3.38673 -0.0427664 0
M  V30 2123 C 206.202 4.14414 -1.00811 0
M  V30 2124 S 207.035 4.72079 -2.52789 0
M  V30 2125 C 208.191 5.97083 -1.87731 0
M  V30 2126 H 208.424 2.50837 -1.59587 0
M  V30 2127 H 205.957 1.23508 -0.926555 0
M  V30 2128 H 207.915 4.09142 0.333668 0
M  V30 2129 H 206.576 3.03105 0.823788 0
M  V30 2130 H 205.769 5.016 -0.491259 0
M  V30 2131 H 205.371 3.49678 -1.3267 0
M  V30 2132 H 207.663 6.66599 -1.21044 0
M  V30 2133 H 208.606 6.53403 -2.72892 0
M  V30 2134 H 209.014 5.4837 -1.33979 0
M  V30 2135 N 208.412 0.89855 1.29475 0
M  V30 2136 C 209.345 0.319981 2.25945 0
M  V30 2137 C 210.323 -0.567189 1.52387 0
M  V30 2138 O 211.507 -0.514254 1.8135 0
M  V30 2139 C 208.634 -0.544013 3.34303 0
M  V30 2140 C 207.68 0.275682 4.25608 0
M  V30 2141 S 208.513 1.67272 5.08704 0
M  V30 2142 C 209.669 0.815621 6.20563 0
M  V30 2143 H 209.902 1.13767 2.74671 0
M  V30 2144 H 207.435 0.69882 1.3768 0
M  V30 2145 H 209.393 -1.03673 3.97193 0
M  V30 2146 H 208.054 -1.33593 2.84274 0
M  V30 2147 H 207.247 -0.384263 5.02533 0
M  V30 2148 H 206.849 0.701496 3.67362 0
M  V30 2149 H 209.141 0.0385042 6.77489 0
M  V30 2150 H 210.084 1.55691 6.90772 0
M  V30 2151 H 210.492 0.370516 5.63283 0
M  V30 2152 N 209.89 -1.43072 0.660911 0
M  V30 2153 C 211.306 -1.56169 0.329173 0
M  V30 2154 C 211.506 -1.64317 -1.16629 0
M  V30 2155 O 210.562 -1.60245 -1.95135 0
M  V30 2156 C 211.875 -2.81873 1.04729 0
M  V30 2157 C 213.423 -2.95627 1.02828 0
M  V30 2158 C 213.898 -4.24174 1.72744 0
M  V30 2159 N 215.389 -4.31055 1.69545 0
M  V30 2160 C 216.124 -5.29304 2.20511 0
M  V30 2161 N 215.62 -6.33786 2.79799 0
M  V30 2162 N 217.413 -5.21008 2.10966 0
M  V30 2163 H 209.564 -1.36027 1.63127 0
M  V30 2164 H 211.827 -0.653823 0.686454 0
M  V30 2165 H 211.533 -2.81942 2.10242 0
M  V30 2166 H 211.407 -3.72338 0.603702 0
M  V30 2167 H 213.794 -2.95094 -0.0184742 0
M  V30 2168 H 213.875 -2.06431 1.51063 0
M  V30 2169 H 213.519 -4.25467 2.7738 0
M  V30 2170 H 213.449 -5.1228 1.2197 0
M  V30 2171 H 215.94 -3.56174 1.26288 0
M  V30 2172 H 216.253 -7.05086 3.16344 0
M  V30 2173 H 214.598 -6.34387 2.83863 0
M  V30 2174 H 217.789 -4.38301 1.64347 0
M  V30 2175 H 217.962 -5.97416 2.50993 0
M  V30 2176 N 211.368 -0.403325 -1.52352 0
M  V30 2177 C 212.331 0.413051 -2.25447 0
M  V30 2178 C 213.331 0.978513 -1.276 0
M  V30 2179 O 214.521 0.858305 -1.51587 0
M  V30 2180 C 211.653 1.58087 -3.02029 0
M  V30 2181 H 212.846 -0.227094 -2.99039 0
M  V30 2182 H 210.399 -0.155722 -1.55522 0
M  V30 2183 H 211.134 2.25804 -2.32772 0
M  V30 2184 H 210.919 1.18195 -3.73861 0
M  V30 2185 H 212.409 2.1585 -3.57489 0
M  V30 2186 N 212.846 1.57033 -0.133567 0
M  V30 2187 C 213.793 2.16074 0.811208 0
M  V30 2188 C 214.763 1.08979 1.2535 0
M  V30 2189 O 215.948 1.36958 1.32843 0
M  V30 2190 C 213.088 2.77595 2.05024 0
M  V30 2191 C 212.201 3.99042 1.65498 0
M  V30 2192 C 211.336 4.48603 2.84479 0
M  V30 2193 C 210.375 5.62547 2.41262 0
M  V30 2194 N 209.512 6.06787 3.53206 0
M  V30 2195 H 214.352 2.96477 0.300906 0
M  V30 2196 H 211.889 1.46462 0.136822 0
M  V30 2197 H 213.847 3.11402 2.77642 0
M  V30 2198 H 212.477 1.99859 2.53488 0
M  V30 2199 H 211.529 3.71302 0.826981 0
M  V30 2200 H 212.841 4.81629 1.29748 0
M  V30 2201 H 211.995 4.84395 3.65303 0
M  V30 2202 H 210.734 3.64995 3.23465 0
M  V30 2203 H 209.739 5.26345 1.58874 0
M  V30 2204 H 210.964 6.47931 2.03377 0
M  V30 2205 H 208.91 5.26117 3.91838 0
M  V30 2206 H 208.827 6.84266 3.21427 0
M  V30 2207 H 210.095 6.4722 4.34427 0
M  V30 2208 N 214.325 -0.140222 1.56975 0
M  V30 2209 C 215.255 -1.17456 2.01808 0
M  V30 2210 C 216.236 -1.44415 0.898794 0
M  V30 2211 O 217.421 -1.5522 1.16707 0
M  V30 2212 C 214.551 -2.50607 2.40444 0
M  V30 2213 C 213.505 -2.38155 3.55621 0
M  V30 2214 C 212.831 -3.76078 3.80091 0
M  V30 2215 C 214.131 -1.85991 4.88062 0
M  V30 2216 H 215.825 -0.801743 2.88466 0
M  V30 2217 H 213.371 -0.38422 1.38779 0
M  V30 2218 H 215.324 -3.23197 2.7041 0
M  V30 2219 H 214.048 -2.89737 1.50732 0
M  V30 2220 H 212.707 -1.68016 3.25832 0
M  V30 2221 H 212.355 -4.12656 2.87618 0
M  V30 2222 H 212.055 -3.68606 4.57606 0
M  V30 2223 H 213.579 -4.50206 4.12488 0
M  V30 2224 H 214.993 -2.4838 5.16701 0
M  V30 2225 H 213.39 -1.89393 5.6943 0
M  V30 2226 H 214.46 -0.816023 4.77984 0
M  V30 2227 N 215.803 -1.52179 -0.40978 0
M  V30 2228 C 216.733 -1.78435 -1.5061 0
M  V30 2229 C 217.714 -0.635295 -1.57791 0
M  V30 2230 O 218.899 -0.880823 -1.73076 0
M  V30 2231 C 216.029 -1.93444 -2.88439 0
M  V30 2232 C 214.983 -3.09038 -2.96108 0
M  V30 2233 C 214.309 -3.09268 -4.36185 0
M  V30 2234 C 215.609 -4.48508 -2.67652 0
M  V30 2235 H 217.303 -2.70237 -1.28889 0
M  V30 2236 H 214.849 -1.30036 -0.618605 0
M  V30 2237 H 216.802 -2.10394 -3.65119 0
M  V30 2238 H 215.526 -0.983129 -3.11452 0
M  V30 2239 H 214.185 -2.91837 -2.21872 0
M  V30 2240 H 213.833 -2.11861 -4.56206 0
M  V30 2241 H 213.533 -3.86907 -4.42241 0
M  V30 2242 H 215.057 -3.28348 -5.14801 0
M  V30 2243 H 216.471 -4.65918 -3.34056 0
M  V30 2244 H 214.868 -5.28059 -2.85085 0
M  V30 2245 H 215.938 -4.56649 -1.63095 0
M  V30 2246 N 217.281 0.66697 -1.42791 0
M  V30 2247 C 218.191 1.80962 -1.49299 0
M  V30 2248 C 219.207 1.69775 -0.381108 0
M  V30 2249 O 220.383 1.91188 -0.633188 0
M  V30 2250 C 217.448 3.17156 -1.40045 0
M  V30 2251 C 216.509 3.40242 -2.6179 0
M  V30 2252 C 215.742 4.69939 -2.52969 0
M  V30 2253 O 215.965 5.48372 -1.56985 0
M  V30 2254 O 214.899 4.94441 -3.43237 0
M  V30 2255 H 218.725 1.78427 -2.45759 0
M  V30 2256 H 216.31 0.823713 -1.24641 0
M  V30 2257 H 218.192 3.98413 -1.37276 0
M  V30 2258 H 216.867 3.20312 -0.467138 0
M  V30 2259 H 215.774 2.58802 -2.70134 0
M  V30 2260 H 217.107 3.41923 -3.54047 0
M  V30 2261 N 218.759 1.29093 0.90403 0
M  V30 2262 C 220.005 1.17996 1.65676 0
M  V30 2263 C 220.36 -0.266816 1.90541 0
M  V30 2264 O 219.653 -1.19 1.50165 0
M  V30 2265 C 219.847 1.92224 3.01305 0
M  V30 2266 C 219.676 3.43972 2.89678 0
M  V30 2267 C 218.446 4.1332 2.90679 0
M  V30 2268 C 220.644 4.39546 2.67028 0
M  V30 2269 N 218.626 5.51463 2.69743 0
M  V30 2270 C 219.997 5.65119 2.5503 0
M  V30 2271 C 222.052 4.29359 2.52101 0
M  V30 2272 C 220.755 6.81663 2.29626 0
M  V30 2273 C 222.781 5.4565 2.28079 0
M  V30 2274 C 222.143 6.70193 2.16843 0
M  V30 2275 H 218.242 0.486759 0.612037 0
M  V30 2276 H 220.826 1.62868 1.06688 0
M  V30 2277 H 218.997 1.49773 3.58361 0
M  V30 2278 H 220.729 1.73429 3.65656 0
M  V30 2279 H 217.484 3.64984 3.01801 0
M  V30 2280 H 217.908 6.24105 2.6234 0
M  V30 2281 H 222.55 3.33769 2.59534 0
M  V30 2282 H 220.268 7.77313 2.20932 0
M  V30 2283 H 223.854 5.39664 2.1738 0
M  V30 2284 H 222.734 7.58659 1.98511 0
M  V30 2285 N 220.237 -1.11381 1.11499 0
M  V30 2286 C 221.485 -1.8277 0.862524 0
M  V30 2287 C 221.806 -1.85097 -0.613534 0
M  V30 2288 O 221.076 -1.32198 -1.4457 0
M  V30 2289 H 219.656 -0.676823 0.316101 0
M  V30 2290 H 222.318 -1.34816 1.4075 0
M  V30 2291 H 221.414 -2.86614 1.23527 0
M  V30 2292 N 221.715 -0.905404 -1.28997 0
M  V30 2293 C 222.964 -0.530191 -1.94607 0
M  V30 2294 C 223.277 0.929185 -1.72121 0
M  V30 2295 O 224.483 1.41218 -2.31883 0
M  V30 2296 C 222.939 -0.897333 -3.48534 0
M  V30 2297 C 222.547 -2.37587 -3.79811 0
M  V30 2298 C 224.291 -0.592304 -4.20347 0
M  V30 2299 C 222.198 -2.68357 -5.27009 0
M  V30 2300 H 221.128 -0.194558 -0.728466 0
M  V30 2301 H 223.779 -1.10318 -1.46636 0
M  V30 2302 H 222.161 -0.253214 -3.9519 0
M  V30 2303 H 223.335 -3.06602 -3.43994 0
M  V30 2304 H 221.65 -2.6505 -3.2115 0
M  V30 2305 H 224.247 -0.798975 -5.28697 0
M  V30 2306 H 224.59 0.469474 -4.13644 0
M  V30 2307 H 225.123 -1.19452 -3.79442 0
M  V30 2308 H 221.862 -3.73355 -5.38782 0
M  V30 2309 H 221.382 -2.03971 -5.64053 0
M  V30 2310 H 223.061 -2.54922 -5.94663 0
M  V30 2311 N 223.193 1.4272 -0.668489 0
M  V30 2312 C 224.125 2.2914 0.052613 0
M  V30 2313 C 225.138 1.43339 0.771857 0
M  V30 2314 O 226.327 1.67123 0.627067 0
M  V30 2315 C 223.427 3.20618 1.09804 0
M  V30 2316 C 222.6 4.35039 0.45389 0
M  V30 2317 C 221.659 5.07282 1.39825 0
M  V30 2318 O 220.685 5.62024 0.900978 0
M  V30 2319 N 221.887 5.12206 2.73176 0
M  V30 2320 H 224.652 2.91668 -0.689209 0
M  V30 2321 H 222.213 1.53577 -0.512422 0
M  V30 2322 H 224.205 3.65815 1.73094 0
M  V30 2323 H 222.775 2.59585 1.74167 0
M  V30 2324 H 221.995 3.92567 -0.358396 0
M  V30 2325 H 223.283 5.088 0.00486972 0
M  V30 2326 H 222.681 4.6913 3.16122 0
M  V30 2327 H 221.238 5.61069 3.31729 0
M  V30 2328 N 224.671 0.411399 1.52136 0
M  V30 2329 C 225.948 -0.222308 1.94333 0
M  V30 2330 C 226.328 -1.6242 1.34844 0
M  V30 2331 O 225.676 -2.22384 0.525145 0
M  V30 2332 C 225.886 -0.226345 3.48265 0
M  V30 2333 C 227.234 -0.444592 4.22266 0
M  V30 2334 O 228.258 -0.305602 3.54887 0
M  V30 2335 O 227.117 -0.718749 5.41753 0
M  V30 2336 H 224.211 -0.143907 0.814383 0
M  V30 2337 H 226.757 0.467506 1.63133 0
M  V30 2338 H 225.529 0.75475 3.83952 0
M  V30 2339 H 225.152 -0.960163 3.85832 0
M  V30 2340 N 226.149 -1.5696 0.141893 0
M  V30 2341 C 227.112 -2.15316 -0.785587 0
M  V30 2342 C 228.112 -1.09366 -1.1788 0
M  V30 2343 O 229.302 -1.35031 -1.10056 0
M  V30 2344 C 226.434 -2.71211 -2.06537 0
M  V30 2345 H 227.627 -2.98608 -0.278041 0
M  V30 2346 H 225.18 -1.5593 -0.107519 0
M  V30 2347 H 225.915 -1.91571 -2.6167 0
M  V30 2348 H 225.7 -3.4872 -1.79268 0
M  V30 2349 H 227.19 -3.16189 -2.72789 0
M  V30 2350 N 227.627 0.131896 -1.57047 0
M  V30 2351 C 228.855 0.856461 -1.88341 0
M  V30 2352 C 229.27 1.74042 -0.731757 0
M  V30 2353 O 228.627 1.80051 0.297945 0
M  V30 2354 C 228.678 1.70064 -3.18999 0
M  V30 2355 O 228.399 0.852278 -4.2973 0
M  V30 2356 C 229.9 2.53148 -3.63911 0
M  V30 2357 H 227.12 0.246885 -0.62393 0
M  V30 2358 H 229.664 0.120152 -2.04147 0
M  V30 2359 H 227.819 2.38984 -3.04902 0
M  V30 2360 H 228.233 1.43329 -5.04537 0
M  V30 2361 H 229.707 3.07931 -4.58129 0
M  V30 2362 H 230.184 3.29901 -2.89935 0
M  V30 2363 H 230.79 1.89492 -3.80753 0
M  V30 2364 N 229.106 1.52395 0.401703 0
M  V30 2365 C 230.352 1.67065 1.14966 0
M  V30 2366 C 230.685 0.403052 1.89971 0
M  V30 2367 O 229.96 -0.598774 1.85054 0
M  V30 2368 C 230.243 2.8975 2.13815 0
M  V30 2369 C 230.096 4.26578 1.42658 0
M  V30 2370 C 231.415 3.07965 3.14397 0
M  V30 2371 H 228.534 0.607968 0.416587 0
M  V30 2372 H 231.176 1.84965 0.434511 0
M  V30 2373 H 229.326 2.74619 2.74803 0
M  V30 2374 H 230.998 4.53451 0.847329 0
M  V30 2375 H 229.241 4.27639 0.72849 0
M  V30 2376 H 229.912 5.08483 2.14823 0
M  V30 2377 H 232.388 3.22043 2.63491 0
M  V30 2378 H 231.264 3.95308 3.80819 0
M  V30 2379 H 231.525 2.21611 3.82545 0
M  V30 2380 N 230.584 -0.659388 1.43143 0
M  V30 2381 C 231.83 -1.42145 1.44647 0
M  V30 2382 C 232.163 -1.9408 0.0681907 0
M  V30 2383 O 231.438 -1.71899 -0.910007 0
M  V30 2384 C 231.721 -2.60735 2.48373 0
M  V30 2385 C 231.574 -2.14332 3.95451 0
M  V30 2386 C 232.893 -3.62951 2.48906 0
M  V30 2387 H 230.012 -0.51552 0.526696 0
M  V30 2388 H 232.654 -0.748069 1.74654 0
M  V30 2389 H 230.804 -3.18184 2.22916 0
M  V30 2390 H 232.476 -1.61932 4.31944 0
M  V30 2391 H 230.719 -1.4576 4.08578 0
M  V30 2392 H 231.39 -2.99583 4.63631 0
M  V30 2393 H 233.866 -3.1525 2.71582 0
M  V30 2394 H 232.742 -4.43487 3.23435 0
M  V30 2395 H 233.003 -4.15126 1.52061 0
M  V30 2396 N 232.062 -1.29571 -0.897171 0
M  V30 2397 C 233.01 -1.14802 -2.02295 0
M  V30 2398 C 234.004 -0.0629637 -1.69283 0
M  V30 2399 O 235.21 -0.222945 -1.78614 0
M  V30 2400 H 231.585 -0.354692 -0.663097 0
M  V30 2401 H 233.556 -2.10108 -2.11889 0
M  V30 2402 C 232.305 -0.843966 -3.37302 0
M  V30 2403 H 231.628 -1.67093 -3.63208 0
M  V30 2404 H 233.068 -0.780672 -4.16751 0
M  V30 2405 C 231.527 0.452843 -3.33843 0
M  V30 2406 O 232.057 1.47813 -3.73516 0
M  V30 2407 N 230.263 0.459601 -2.86943 0
M  V30 2408 H 229.81 -0.375213 -2.54853 0
M  V30 2409 H 229.768 1.32726 -2.85011 0
M  V30 2410 N 233.54 1.10788 -1.12088 0
M  V30 2411 C 234.768 1.86461 -0.896651 0
M  V30 2412 C 235.183 1.80492 0.553912 0
M  V30 2413 O 234.54 1.19102 1.38278 0
M  V30 2414 C 234.591 3.35006 -1.35843 0
M  V30 2415 O 234.312 3.40866 -2.75213 0
M  V30 2416 C 235.813 4.27565 -1.1706 0
M  V30 2417 H 233.033 0.589425 -0.320654 0
M  V30 2418 H 235.577 1.40076 -1.48993 0
M  V30 2419 H 233.732 3.7887 -0.808458 0
M  V30 2420 H 234.146 4.33411 -2.9539 0
M  V30 2421 H 235.62 5.30007 -1.54263 0
M  V30 2422 H 236.097 4.3906 -0.110814 0
M  V30 2423 H 236.703 3.89501 -1.70789 0
M  V30 2424 N 235.018 0.912232 1.28515 0
M  V30 2425 C 236.246 0.560416 1.99166 0
M  V30 2426 C 236.661 -0.857927 1.68182 0
M  V30 2427 O 236.018 -1.56805 0.933733 0
M  V30 2428 C 236.069 0.758142 3.53461 0
M  V30 2429 O 235.79 2.12067 3.83352 0
M  V30 2430 C 237.291 0.412954 4.41372 0
M  V30 2431 H 234.511 0.213805 0.636026 0
M  V30 2432 H 237.055 1.22502 1.63749 0
M  V30 2433 H 235.21 0.140556 3.87145 0
M  V30 2434 H 235.624 2.15923 4.77993 0
M  V30 2435 H 237.098 0.60208 5.48707 0
M  V30 2436 H 237.575 -0.65073 4.34353 0
M  V30 2437 H 238.181 1.00802 4.13182 0
M  V30 2438 N 236.496 -1.42363 0.676048 0
M  V30 2439 C 237.744 -2.01123 0.198437 0
M  V30 2440 C 238.065 -1.53731 -1.19966 0
M  V30 2441 O 237.335 -0.759518 -1.80577 0
M  V30 2442 H 235.915 -0.743678 0.0703721 0
M  V30 2443 H 238.577 -1.74263 0.872837 0
M  V30 2444 H 237.673 -3.11454 0.200686 0
M  V30 2445 N 237.974 -0.419461 -1.51915 0
M  V30 2446 C 238.904 0.391813 -2.30189 0
M  V30 2447 C 239.885 1.03699 -1.34836 0
M  V30 2448 O 241.07 1.04403 -1.63748 0
M  V30 2449 C 238.2 1.50312 -3.13087 0
M  V30 2450 C 237.154 0.9824 -4.16573 0
M  V30 2451 C 236.48 2.18809 -4.8788 0
M  V30 2452 C 237.78 0.0292356 -5.22292 0
M  V30 2453 H 239.474 -0.26135 -2.98257 0
M  V30 2454 H 237.02 -0.127134 -1.43438 0
M  V30 2455 H 238.973 2.07773 -3.66617 0
M  V30 2456 H 237.697 2.18431 -2.42807 0
M  V30 2457 H 236.356 0.430119 -3.64068 0
M  V30 2458 H 236.004 2.85507 -4.14119 0
M  V30 2459 H 235.704 1.84615 -5.57845 0
M  V30 2460 H 237.228 2.76858 -5.44226 0
M  V30 2461 H 238.642 0.512976 -5.71 0
M  V30 2462 H 237.039 -0.2244 -5.9968 0
M  V30 2463 H 238.109 -0.912931 -4.76228 0
M  V30 2464 N 239.452 1.56882 -0.150215 0
M  V30 2465 C 240.4 2.18214 0.805313 0
M  V30 2466 C 241.394 1.14006 1.25296 0
M  V30 2467 O 242.6 1.3225 1.22107 0
M  V30 2468 H 238.975 0.698762 0.277913 0
M  V30 2469 H 240.946 2.97231 0.263862 0
M  V30 2470 C 239.695 2.82065 2.03309 0
M  V30 2471 H 239.018 3.61968 1.69763 0
M  V30 2472 H 240.458 3.28477 2.68103 0
M  V30 2473 C 238.917 1.80739 2.84315 0
M  V30 2474 O 239.447 1.27983 3.80767 0
M  V30 2475 N 237.653 1.4997 2.48913 0
M  V30 2476 H 237.2 1.93062 1.70542 0
M  V30 2477 H 237.158 0.824217 3.03404 0
M  V30 2478 N 240.93 -0.123565 1.57115 0
M  V30 2479 C 241.878 -1.17082 2.00984 0
M  V30 2480 C 242.872 -1.43136 0.906009 0
M  V30 2481 O 244.078 -1.43152 1.09121 0
M  V30 2482 H 240.453 -0.394653 0.64012 0
M  V30 2483 H 242.424 -0.774292 2.88179 0
M  V30 2484 C 241.173 -2.49057 2.42623 0
M  V30 2485 H 240.496 -2.29846 3.27125 0
M  V30 2486 H 241.936 -3.20906 2.7712 0
M  V30 2487 C 240.395 -3.11305 1.28805 0
M  V30 2488 O 240.925 -3.97171 0.60153 0
M  V30 2489 N 239.131 -2.71111 1.04628 0
M  V30 2490 H 238.678 -2.01382 1.60634 0
M  V30 2491 H 238.636 -3.1309 0.286685 0
M  V30 2492 N 242.408 -1.52605 -0.393616 0
M  V30 2493 C 243.318 -1.79971 -1.50492 0
M  V30 2494 C 244.334 -0.686181 -1.59899 0
M  V30 2495 O 245.51 -0.973274 -1.76322 0
M  V30 2496 C 242.575 -1.95867 -2.86072 0
M  V30 2497 C 241.636 -3.19781 -2.86424 0
M  V30 2498 C 240.869 -3.34909 -4.15538 0
M  V30 2499 O 241.092 -2.54948 -5.10253 0
M  V30 2500 O 240.026 -4.28141 -4.23059 0
M  V30 2501 H 243.852 -2.74328 -1.30299 0
M  V30 2502 H 241.437 -1.3764 -0.581005 0
M  V30 2503 H 243.319 -2.08056 -3.66457 0
M  V30 2504 H 241.994 -1.04699 -3.063 0
M  V30 2505 H 240.901 -3.13038 -2.04837 0
M  V30 2506 H 242.234 -4.1078 -2.71147 0
M  V30 2507 N 243.887 0.651787 -1.4349 0
M  V30 2508 C 245.115 1.43937 -1.48626 0
M  V30 2509 C 245.53 1.8851 -0.104587 0
M  V30 2510 O 244.887 1.5958 0.885464 0
M  V30 2511 C 244.938 2.6734 -2.43334 0
M  V30 2512 O 244.659 2.24631 -3.76128 0
M  V30 2513 C 246.16 3.60683 -2.57726 0
M  V30 2514 H 243.38 0.44213 -0.504739 0
M  V30 2515 H 245.924 0.798944 -1.88248 0
M  V30 2516 H 244.079 3.2752 -2.06904 0
M  V30 2517 H 244.493 3.04485 -4.2707 0
M  V30 2518 H 245.967 4.43933 -3.28067 0
M  V30 2519 H 246.444 4.08126 -1.62265 0
M  V30 2520 H 247.05 3.06384 -2.94973 0
M  V30 2521 N 245.365 1.30045 0.890287 0
M  V30 2522 C 246.295 1.18541 2.01172 0
M  V30 2523 C 247.276 0.0773356 1.69924 0
M  V30 2524 O 248.461 0.25845 1.92473 0
M  V30 2525 C 245.591 0.870941 3.36202 0
M  V30 2526 C 244.545 1.93637 3.81692 0
M  V30 2527 C 243.871 1.475 5.13953 0
M  V30 2528 C 245.171 3.34666 4.00994 0
M  V30 2529 H 246.865 2.12359 2.11054 0
M  V30 2530 H 244.411 1.02238 1.01407 0
M  V30 2531 H 246.364 0.777141 4.14172 0
M  V30 2532 H 245.088 -0.102926 3.26438 0
M  V30 2533 H 243.747 2.01972 3.05946 0
M  V30 2534 H 243.395 0.489551 5.00612 0
M  V30 2535 H 243.095 2.1876 5.4536 0
M  V30 2536 H 244.619 1.39489 5.94454 0
M  V30 2537 H 246.033 3.2912 4.69417 0
M  V30 2538 H 244.43 4.03966 4.43769 0
M  V30 2539 H 245.5 3.76949 3.05021 0
M  V30 2540 N 246.843 -1.10192 1.12674 0
M  V30 2541 C 248.091 -1.81845 0.881861 0
M  V30 2542 C 248.412 -1.85737 -0.593867 0
M  V30 2543 O 247.682 -1.33724 -1.4316 0
M  V30 2544 H 246.262 -0.673432 0.323261 0
M  V30 2545 H 248.924 -1.33316 1.42172 0
M  V30 2546 H 248.02 -2.85288 1.2656 0
M  V30 2547 N 248.321 -0.919034 -1.28029 0
M  V30 2548 C 249.598 -0.473668 -1.89778 0
M  V30 2549 C 249.978 1.04783 -1.83259 0
M  V30 2550 O 249.326 1.8982 -1.27202 0
M  V30 2551 C 249.536 -1.00998 -3.34066 0
M  V30 2552 C 250.884 -1.06525 -4.1102 0
M  V30 2553 O 251.908 -0.958996 -3.43048 0
M  V30 2554 O 250.767 -1.22776 -5.3253 0
M  V30 2555 H 247.861 -0.15098 -0.813101 0
M  V30 2556 H 250.407 -1.01016 -1.36359 0
M  V30 2557 H 249.179 -2.05392 -3.33061 0
M  V30 2558 H 248.802 -0.454626 -3.94992 0
M  V30 2559 N 249.799 1.42003 -0.683588 0
M  V30 2560 C 250.747 2.326 0.000815408 0
M  V30 2561 C 251.741 1.50308 0.781278 0
M  V30 2562 O 252.947 1.66322 0.688251 0
M  V30 2563 H 249.322 0.751758 0.0190616 0
M  V30 2564 H 251.293 2.88011 -0.780528 0
M  V30 2565 C 250.042 3.34978 0.93195 0
M  V30 2566 H 249.365 3.98345 0.340817 0
M  V30 2567 H 250.805 4.00936 1.37936 0
M  V30 2568 C 249.264 2.67925 2.04249 0
M  V30 2569 O 249.794 2.51788 3.12995 0
M  V30 2570 N 248 2.2681 1.81675 0
M  V30 2571 H 247.547 2.40135 0.932363 0
M  V30 2572 H 247.505 1.8228 2.56167 0
M  V30 2573 N 251.277 0.427512 1.51691 0
M  V30 2574 C 252.526 -0.143679 2.01188 0
M  V30 2575 C 252.839 -1.44642 1.31674 0
M  V30 2576 O 254.045 -2.09997 1.72086 0
M  V30 2577 C 252.501 -0.306602 3.58592 0
M  V30 2578 C 252.109 0.985125 4.37035 0
M  V30 2579 C 253.853 -0.832091 4.16265 0
M  V30 2580 C 251.76 0.788382 5.86122 0
M  V30 2581 H 250.69 -0.0574701 0.751807 0
M  V30 2582 H 253.341 0.555772 1.74881 0
M  V30 2583 H 251.723 -1.06882 3.81303 0
M  V30 2584 H 252.897 1.75492 4.26074 0
M  V30 2585 H 251.212 1.4384 3.90767 0
M  V30 2586 H 253.809 -0.995617 5.25349 0
M  V30 2587 H 254.152 -1.81186 3.74803 0
M  V30 2588 H 254.685 -0.128444 3.97593 0
M  V30 2589 H 251.424 1.74025 6.31978 0
M  V30 2590 H 250.944 0.0582143 5.99772 0
M  V30 2591 H 252.623 0.437722 6.45518 0
M  V30 2592 N 252.755 -1.56801 0.158532 0
M  V30 2593 C 253.985 -2.00568 -0.495583 0
M  V30 2594 C 254.393 -1.03774 -1.58201 0
M  V30 2595 O 253.736 -0.0285797 -1.83678 0
M  V30 2596 C 253.798 -3.40768 -1.14532 0
M  V30 2597 C 253.462 -4.56553 -0.202101 0
M  V30 2598 C 254.459 -5.16714 0.574675 0
M  V30 2599 C 252.144 -5.02197 -0.101648 0
M  V30 2600 C 254.138 -6.20939 1.43924 0
M  V30 2601 C 251.825 -6.06274 0.766508 0
M  V30 2602 C 252.823 -6.65515 1.53555 0
M  V30 2603 O 252.511 -7.67575 2.38922 0
M  V30 2604 H 252.243 -0.662893 -0.13247 0
M  V30 2605 H 254.797 -2.03829 0.253559 0
M  V30 2606 H 253.027 -3.34381 -1.94233 0
M  V30 2607 H 254.716 -3.6857 -1.70033 0
M  V30 2608 H 255.482 -4.82341 0.507167 0
M  V30 2609 H 251.361 -4.55807 -0.689994 0
M  V30 2610 H 254.905 -6.67107 2.03996 0
M  V30 2611 H 250.802 -6.40073 0.835266 0
M  V30 2612 H 251.57 -7.84844 2.32296 0
M  V30 2613 N 254.233 0.115231 -1.57178 0
M  V30 2614 C 255.644 0.67197 -1.74188 0
M  V30 2615 C 255.995 1.80125 -0.777777 0
M  V30 2616 O 255.12 2.16346 0.0484376 0
M  V30 2617 C 255.715 1.22573 -3.1585 0
M  V30 2618 C 254.274 1.72872 -3.34353 0
M  V30 2619 C 253.421 0.629972 -2.70049 0
M  V30 2620 H 256.372 -0.110712 -1.58313 0
M  V30 2621 H 256.393 2.09535 -3.17609 0
M  V30 2622 H 255.905 0.403598 -3.85996 0
M  V30 2623 H 254.006 2.5755 -2.69256 0
M  V30 2624 H 254.119 1.83557 -4.42542 0
M  V30 2625 H 252.483 1.0645 -2.31388 0
M  V30 2626 H 253.266 -0.181241 -3.42821 0
M  V30 2627 N 255.711 1.52812 0.385517 0
M  V30 2628 C 256.959 1.67694 1.12797 0
M  V30 2629 C 257.28 0.421115 1.90399 0
M  V30 2630 O 256.55 -0.564551 1.87589 0
M  V30 2631 H 255.13 0.618155 0.419396 0
M  V30 2632 H 257.792 1.89938 0.436972 0
M  V30 2633 H 256.888 2.52896 1.82894 0
M  V30 2634 N 257.189 -0.644168 1.43834 0
M  V30 2635 C 258.414 -1.43642 1.49605 0
M  V30 2636 C 258.839 -1.8773 0.117913 0
M  V30 2637 O 258.197 -1.57938 -0.890239 0
M  V30 2638 C 258.245 -2.6416 2.45463 0
M  V30 2639 O 257.349 -3.63538 1.94714 0
M  V30 2640 H 256.69 -0.430329 0.50568 0
M  V30 2641 H 259.22 -0.787448 1.8884 0
M  V30 2642 H 259.23 -3.11864 2.63068 0
M  V30 2643 H 257.905 -2.31414 3.45572 0
M  V30 2644 H 256.482 -3.2273 1.86814 0
M  V30 2645 N 258.668 -1.30515 -0.883378 0
M  V30 2646 C 259.615 -1.17032 -1.98927 0
M  V30 2647 C 260.585 -0.0594241 -1.65994 0
M  V30 2648 O 261.77 -0.229895 -1.8941 0
M  V30 2649 C 258.91 -0.869777 -3.33959 0
M  V30 2650 C 258.023 -2.06271 -3.79574 0
M  V30 2651 C 257.158 -1.70011 -5.03259 0
M  V30 2652 C 256.197 -2.8579 -5.41286 0
M  V30 2653 N 255.334 -2.49816 -6.56153 0
M  V30 2654 H 260.174 -2.1164 -2.09792 0
M  V30 2655 H 257.711 -1.05296 -1.02719 0
M  V30 2656 H 259.669 -0.676138 -4.11685 0
M  V30 2657 H 258.299 0.0394332 -3.22776 0
M  V30 2658 H 257.351 -2.36755 -2.97744 0
M  V30 2659 H 258.663 -2.92971 -4.03694 0
M  V30 2660 H 257.817 -1.47032 -5.88614 0
M  V30 2661 H 256.556 -0.804829 -4.81013 0
M  V30 2662 H 255.561 -3.09434 -4.54456 0
M  V30 2663 H 256.786 -3.76008 -5.65504 0
M  V30 2664 H 254.732 -1.62795 -6.35479 0
M  V30 2665 H 254.649 -3.30048 -6.8015 0
M  V30 2666 H 255.917 -2.30197 -7.44735 0
M  V30 2667 N 260.146 1.09593 -1.13257 0
M  V30 2668 C 261.093 2.1618 -0.808381 0
M  V30 2669 C 262.063 1.64517 0.228754 0
M  V30 2670 O 263.248 1.9053 0.101381 0
M  V30 2671 C 260.388 3.43973 -0.278675 0
M  V30 2672 C 259.501 4.09545 -1.37466 0
M  V30 2673 C 258.636 5.25088 -0.803479 0
M  V30 2674 C 257.675 5.82579 -1.87799 0
M  V30 2675 N 256.812 6.89486 -1.32488 0
M  V30 2676 H 261.652 2.43254 -1.72138 0
M  V30 2677 H 259.189 1.19392 -0.859294 0
M  V30 2678 H 261.147 4.17174 0.0465583 0
M  V30 2679 H 259.777 3.17223 0.597459 0
M  V30 2680 H 258.829 3.34226 -1.81652 0
M  V30 2681 H 260.141 4.48307 -2.18684 0
M  V30 2682 H 259.295 6.05178 -0.429427 0
M  V30 2683 H 258.034 4.87684 0.0397956 0
M  V30 2684 H 257.039 5.01152 -2.26113 0
M  V30 2685 H 258.264 6.22045 -2.72463 0
M  V30 2686 H 256.21 6.54064 -0.503575 0
M  V30 2687 H 256.127 7.27007 -2.07355 0
M  V30 2688 H 257.395 7.73336 -0.978336 0
M  V30 2689 N 261.624 0.925811 1.2754 0
M  V30 2690 C 262.901 0.483726 1.89524 0
M  V30 2691 C 263.281 -1.03809 1.83812 0
M  V30 2692 O 262.629 -1.89143 1.28207 0
M  V30 2693 C 262.839 1.02769 3.33526 0
M  V30 2694 C 264.187 1.08703 4.10449 0
M  V30 2695 O 265.211 0.977175 3.42534 0
M  V30 2696 O 264.07 1.25599 5.31871 0
M  V30 2697 H 261.164 0.15529 0.812289 0
M  V30 2698 H 263.71 1.01738 1.35822 0
M  V30 2699 H 262.482 2.07155 3.31967 0
M  V30 2700 H 262.105 0.475567 3.94746 0
M  V30 2701 N 263.102 -1.41638 0.69111 0
M  V30 2702 C 264.012 -2.34588 0.0233487 0
M  V30 2703 C 265.028 -1.55987 -0.770984 0
M  V30 2704 O 266.204 -1.88486 -0.709569 0
M  V30 2705 C 263.269 -3.34684 -0.904851 0
M  V30 2706 C 262.33 -4.29176 -0.103225 0
M  V30 2707 C 261.563 -5.2449 -0.987216 0
M  V30 2708 O 261.786 -5.2514 -2.22674 0
M  V30 2709 O 260.72 -6.00295 -0.439281 0
M  V30 2710 H 264.546 -2.93261 0.789416 0
M  V30 2711 H 262.131 -1.42417 0.45142 0
M  V30 2712 H 264.013 -3.96133 -1.43724 0
M  V30 2713 H 262.688 -2.78461 -1.65049 0
M  V30 2714 H 261.595 -3.71089 0.473655 0
M  V30 2715 H 262.928 -4.88484 0.60365 0
M  V30 2716 N 264.58 -0.43555 -1.51462 0
M  V30 2717 C 265.49 0.383001 -2.31453 0
M  V30 2718 C 266.506 1.02931 -1.4029 0
M  V30 2719 O 267.682 1.02507 -1.73362 0
M  V30 2720 C 264.747 1.47043 -3.13973 0
M  V30 2721 C 263.808 0.844433 -4.20913 0
M  V30 2722 C 263.041 1.88004 -4.9949 0
M  V30 2723 O 263.264 3.10199 -4.78678 0
M  V30 2724 O 262.198 1.47157 -5.83634 0
M  V30 2725 H 266.024 -0.269964 -3.02498 0
M  V30 2726 H 263.609 -0.19813 -1.4808 0
M  V30 2727 H 265.491 2.10113 -3.65281 0
M  V30 2728 H 264.166 2.10751 -2.45695 0
M  V30 2729 H 263.073 0.175729 -3.73687 0
M  V30 2730 H 264.406 0.250869 -4.9156 0
M  V30 2731 N 266.058 1.56714 -0.166846 0
M  V30 2732 C 267.006 2.19056 0.782123 0
M  V30 2733 C 268 1.15328 1.24079 0
M  V30 2734 O 269.206 1.33537 1.20697 0
M  V30 2735 H 265.581 0.70167 0.270486 0
M  V30 2736 H 267.552 2.97494 0.232322 0
M  V30 2737 C 266.301 2.84206 2.00306 0
M  V30 2738 H 265.624 3.63748 1.65914 0
M  V30 2739 H 267.064 3.31302 2.64604 0
M  V30 2740 C 265.523 1.83744 2.82382 0
M  V30 2741 O 266.053 1.32014 3.79388 0
M  V30 2742 N 264.259 1.52601 2.47308 0
M  V30 2743 H 263.806 1.9486 1.68485 0
M  V30 2744 H 263.764 0.856351 3.02513 0
M  V30 2745 N 267.536 -0.106894 1.57237 0
M  V30 2746 C 268.483 -1.13049 2.01217 0
M  V30 2747 C 269.453 -1.40471 0.886403 0
M  V30 2748 O 270.638 -1.52133 1.15153 0
M  V30 2749 C 267.778 -2.4487 2.43172 0
M  V30 2750 C 266.891 -2.24281 3.69218 0
M  V30 2751 C 266.026 -3.49417 4.00101 0
M  V30 2752 C 265.065 -3.24038 5.19294 0
M  V30 2753 N 264.202 -4.41409 5.45988 0
M  V30 2754 H 269.042 -0.748456 2.88448 0
M  V30 2755 H 266.579 -0.358054 1.42676 0
M  V30 2756 H 268.537 -3.21786 2.65537 0
M  V30 2757 H 267.167 -2.80944 1.58967 0
M  V30 2758 H 266.219 -1.38224 3.54398 0
M  V30 2759 H 267.531 -2.01512 4.56283 0
M  V30 2760 H 266.685 -4.34746 4.2318 0
M  V30 2761 H 265.424 -3.75229 3.11535 0
M  V30 2762 H 264.429 -2.37102 4.96047 0
M  V30 2763 H 265.654 -2.99584 6.09447 0
M  V30 2764 H 263.6 -4.67319 4.60379 0
M  V30 2765 H 263.517 -4.21788 6.274 0
M  V30 2766 H 264.785 -5.27836 5.73593 0
M  V30 2767 N 269.014 -1.53014 -0.377408 0
M  V30 2768 C 269.944 -1.81589 -1.46791 0
M  V30 2769 C 270.925 -0.668622 -1.56408 0
M  V30 2770 O 272.11 -0.917337 -1.71168 0
M  V30 2771 C 269.24 -1.99519 -2.8427 0
M  V30 2772 C 268.194 -3.15249 -2.89486 0
M  V30 2773 C 267.52 -3.18451 -4.29527 0
M  V30 2774 C 268.82 -4.54084 -2.58079 0
M  V30 2775 H 270.514 -2.7291 -1.23127 0
M  V30 2776 H 268.06 -1.31319 -0.590883 0
M  V30 2777 H 270.013 -2.18092 -3.60575 0
M  V30 2778 H 268.737 -1.04897 -3.09296 0
M  V30 2779 H 267.396 -2.96477 -2.15631 0
M  V30 2780 H 267.044 -2.2149 -4.5161 0
M  V30 2781 H 266.744 -3.962 -4.33934 0
M  V30 2782 H 268.268 -3.39193 -5.07721 0
M  V30 2783 H 269.682 -4.72899 -3.24098 0
M  V30 2784 H 268.079 -5.33987 -2.7382 0
M  V30 2785 H 269.149 -4.60006 -1.53372 0
M  V30 2786 N 270.492 0.636531 -1.44174 0
M  V30 2787 C 271.717 1.42847 -1.50364 0
M  V30 2788 C 272.142 1.87665 -0.127867 0
M  V30 2789 O 271.5 1.58408 0.88185 0
M  V30 2790 C 271.548 2.62854 -2.4686 0
M  V30 2791 O 270.652 3.62501 -1.9664 0
M  V30 2792 H 269.993 0.427642 -0.507955 0
M  V30 2793 H 272.523 0.777422 -1.89255 0
M  V30 2794 H 272.533 3.10465 -2.64718 0
M  V30 2795 H 271.208 2.29578 -3.46795 0
M  V30 2796 H 269.785 3.21735 -1.88523 0
M  V30 2797 N 271.97 1.30982 0.876444 0
M  V30 2798 C 272.933 1.18054 1.96459 0
M  V30 2799 C 273.933 0.109399 1.60427 0
M  V30 2800 O 275.123 0.358173 1.70478 0
M  V30 2801 C 272.255 0.810616 3.31122 0
M  V30 2802 H 273.448 2.14735 2.09354 0
M  V30 2803 H 271.001 1.145 1.06392 0
M  V30 2804 H 271.736 -0.155322 3.23928 0
M  V30 2805 H 271.521 1.58481 3.58645 0
M  V30 2806 H 273.011 0.743876 4.10921 0
M  V30 2807 N 273.449 -1.08991 1.13837 0
M  V30 2808 C 274.679 -1.84743 0.924859 0
M  V30 2809 C 275.087 -1.81629 -0.529874 0
M  V30 2810 O 274.43 -1.21397 -1.37872 0
M  V30 2811 C 274.492 -3.33568 1.34061 0
M  V30 2812 C 274.156 -3.60425 2.80968 0
M  V30 2813 C 275.153 -3.55771 3.79108 0
M  V30 2814 C 272.838 -3.88627 3.18236 0
M  V30 2815 C 274.832 -3.78939 5.12527 0
M  V30 2816 C 272.519 -4.11449 4.51833 0
M  V30 2817 C 273.517 -4.06598 5.48787 0
M  V30 2818 O 273.205 -4.28826 6.79973 0
M  V30 2819 H 272.937 -0.590258 0.329502 0
M  V30 2820 H 275.491 -1.38598 1.51591 0
M  V30 2821 H 273.721 -3.80442 0.692853 0
M  V30 2822 H 275.41 -3.90743 1.09886 0
M  V30 2823 H 276.176 -3.34005 3.51661 0
M  V30 2824 H 272.055 -3.91526 2.43369 0
M  V30 2825 H 275.599 -3.75068 5.88192 0
M  V30 2826 H 271.496 -4.32698 4.79002 0
M  V30 2827 H 272.264 -4.46264 6.86142 0
M  V30 2828 N 274.927 -0.932562 -1.27047 0
M  V30 2829 C 276.204 -0.49377 -1.89265 0
M  V30 2830 C 276.584 1.02833 -1.8436 0
M  V30 2831 O 275.932 1.88461 -1.29209 0
M  V30 2832 C 276.142 -1.04536 -3.32976 0
M  V30 2833 C 277.49 -1.10879 -4.09867 0
M  V30 2834 O 278.514 -0.995327 -3.42011 0
M  V30 2835 O 277.373 -1.28417 -5.31198 0
M  V30 2836 H 274.467 -0.159596 -0.811454 0
M  V30 2837 H 277.013 -1.02457 -1.3528 0
M  V30 2838 H 275.785 -2.08913 -3.30864 0
M  V30 2839 H 275.408 -0.496494 -3.94488 0
M  V30 2840 N 276.405 1.4127 -0.698611 0
M  V30 2841 C 277.651 2.01478 -0.231207 0
M  V30 2842 C 277.984 1.55215 1.16713 0
M  V30 2843 O 277.259 0.764672 1.78838 0
M  V30 2844 C 277.542 3.58912 -0.292281 0
M  V30 2845 C 277.395 4.15293 -1.72778 0
M  V30 2846 C 278.714 4.38736 0.346194 0
M  V30 2847 H 275.833 0.732025 -0.0854878 0
M  V30 2848 H 278.475 1.67977 -0.887906 0
M  V30 2849 H 276.625 3.87582 0.26686 0
M  V30 2850 H 278.297 3.97486 -2.341 0
M  V30 2851 H 276.54 3.7022 -2.26096 0
M  V30 2852 H 277.211 5.24452 -1.72202 0
M  V30 2853 H 279.687 4.15897 -0.130035 0
M  V30 2854 H 278.563 5.48221 0.272932 0
M  V30 2855 H 278.824 4.18425 1.42734 0
M  V30 2856 N 277.883 0.443576 1.51229 0
M  V30 2857 C 278.846 -0.353132 2.26463 0
M  V30 2858 C 279.846 -0.944338 1.3015 0
M  V30 2859 O 281.036 -0.817813 1.5381 0
M  V30 2860 C 278.168 -1.50023 3.06114 0
M  V30 2861 H 279.361 0.3063 2.98332 0
M  V30 2862 H 276.914 0.196902 1.55055 0
M  V30 2863 H 277.649 -2.19553 2.38677 0
M  V30 2864 H 277.434 -1.08241 3.76864 0
M  V30 2865 H 278.924 -2.06296 3.63087 0
M  V30 2866 N 279.361 -1.56624 0.175154 0
M  V30 2867 C 280.61 -1.96173 -0.468921 0
M  V30 2868 C 280.923 -1.06401 -1.64128 0
M  V30 2869 O 282.129 -1.35648 -2.35185 0
M  V30 2870 C 280.585 -3.48833 -0.885633 0
M  V30 2871 C 280.193 -4.47237 0.261343 0
M  V30 2872 C 281.937 -3.97194 -1.49791 0
M  V30 2873 C 279.844 -5.9114 -0.175214 0
M  V30 2874 H 278.774 -0.732455 -0.178958 0
M  V30 2875 H 281.425 -1.81591 0.263997 0
M  V30 2876 H 279.807 -3.58848 -1.67464 0
M  V30 2877 H 280.981 -4.4894 1.03871 0
M  V30 2878 H 279.296 -4.08956 0.783827 0
M  V30 2879 H 281.893 -5.02167 -1.83665 0
M  V30 2880 H 282.236 -3.40351 -2.39722 0
M  V30 2881 H 282.769 -3.90212 -0.773267 0
M  V30 2882 H 279.508 -6.51865 0.689414 0
M  V30 2883 H 279.028 -5.92735 -0.91786 0
M  V30 2884 H 280.707 -6.44044 -0.617792 0
M  V30 2885 N 280.839 0.0985539 -1.57292 0
M  V30 2886 C 282.085 0.803867 -1.86188 0
M  V30 2887 C 282.418 1.78549 -0.763794 0
M  V30 2888 O 281.693 1.93153 0.22855 0
M  V30 2889 C 281.976 1.53568 -3.25713 0
M  V30 2890 C 281.829 0.572277 -4.46145 0
M  V30 2891 C 283.148 2.48708 -3.63087 0
M  V30 2892 H 280.267 0.290781 -0.677211 0
M  V30 2893 H 282.909 0.0675783 -1.8988 0
M  V30 2894 H 281.059 2.16332 -3.22696 0
M  V30 2895 H 282.731 -0.0480894 -4.61275 0
M  V30 2896 H 280.974 -0.114618 -4.33649 0
M  V30 2897 H 281.645 1.12139 -5.40489 0
M  V30 2898 H 284.121 1.96039 -3.67026 0
M  V30 2899 H 282.997 2.96932 -4.61652 0
M  V30 2900 H 283.258 3.32309 -2.91588 0
M  V30 2901 N 282.317 1.53212 0.369288 0
M  V30 2902 C 283.28 1.7872 1.43498 0
M  V30 2903 C 284.28 0.657554 1.46741 0
M  V30 2904 O 285.47 0.925736 1.47566 0
M  V30 2905 C 282.602 1.90591 2.82645 0
M  V30 2906 H 283.795 2.73894 1.22156 0
M  V30 2907 H 281.348 1.44233 0.602203 0
M  V30 2908 H 282.083 0.974709 3.09306 0
M  V30 2909 H 281.868 2.72751 2.8169 0
M  V30 2910 H 283.358 2.11931 3.59826 0
M  V30 2911 N 283.795 -0.628877 1.44509 0
M  V30 2912 C 285.211 -0.947305 1.28446 0
M  V30 2913 C 285.411 -2.00275 0.221872 0
M  V30 2914 O 284.467 -2.49447 -0.391471 0
M  V30 2915 C 285.78 -1.40843 2.65676 0
M  V30 2916 C 287.328 -1.52379 2.73404 0
M  V30 2917 C 287.803 -2.01875 4.11109 0
M  V30 2918 N 289.294 -2.09142 4.13296 0
M  V30 2919 C 290.029 -2.48615 5.16699 0
M  V30 2920 N 289.525 -2.87209 6.30462 0
M  V30 2921 N 291.318 -2.48768 5.04054 0
M  V30 2922 H 283.469 0.0690977 2.12288 0
M  V30 2923 H 285.732 -0.0317164 0.947469 0
M  V30 2924 H 285.438 -0.707206 3.44516 0
M  V30 2925 H 285.312 -2.37902 2.92716 0
M  V30 2926 H 287.699 -2.21598 1.9488 0
M  V30 2927 H 287.78 -0.536898 2.50102 0
M  V30 2928 H 287.424 -1.3325 4.90109 0
M  V30 2929 H 287.354 -3.0144 4.31789 0
M  V30 2930 H 289.845 -1.81991 3.31191 0
M  V30 2931 H 290.158 -3.16149 7.05174 0
M  V30 2932 H 288.503 -2.84955 6.33897 0
M  V30 2933 H 291.694 -2.18009 4.14234 0
M  V30 2934 H 291.867 -2.79207 5.84763 0
M  V30 2935 N 285.273 -1.31445 -0.869486 0
M  V30 2936 C 286.221 -1.19067 -1.99814 0
M  V30 2937 C 287.215 -0.0988569 -1.69111 0
M  V30 2938 O 288.421 -0.260781 -1.78101 0
M  V30 2939 H 284.796 -0.368677 -0.655425 0
M  V30 2940 H 286.767 -2.14555 -2.07385 0
M  V30 2941 C 285.516 -0.915323 -3.35436 0
M  V30 2942 H 284.839 -1.74759 -3.59582 0
M  V30 2943 H 286.279 -0.868895 -4.15001 0
M  V30 2944 C 284.738 0.381928 -3.34728 0
M  V30 2945 O 285.268 1.39857 -3.76567 0
M  V30 2946 N 283.474 0.398633 -2.87853 0
M  V30 2947 H 283.021 -0.429186 -2.54 0
M  V30 2948 H 282.979 1.26651 -2.87762 0
M  V30 2949 N 286.751 1.08385 -1.14413 0
M  V30 2950 C 287.681 2.17321 -0.854044 0
M  V30 2951 C 288.662 1.69024 0.191049 0
M  V30 2952 O 289.847 1.94141 0.0476779 0
M  V30 2953 C 286.977 3.45719 -0.330983 0
M  V30 2954 C 285.931 4.07409 -1.31155 0
M  V30 2955 C 285.257 5.30762 -0.64778 0
M  V30 2956 C 286.557 4.48665 -2.67388 0
M  V30 2957 H 288.251 2.41845 -1.76498 0
M  V30 2958 H 285.797 1.16233 -0.850051 0
M  V30 2959 H 287.75 4.21241 -0.115645 0
M  V30 2960 H 286.474 3.2075 0.615381 0
M  V30 2961 H 285.133 3.33919 -1.51306 0
M  V30 2962 H 284.781 5.02078 0.304398 0
M  V30 2963 H 284.481 5.72992 -1.30207 0
M  V30 2964 H 286.005 6.08998 -0.441972 0
M  V30 2965 H 287.419 5.15364 -2.51143 0
M  V30 2966 H 285.816 5.01814 -3.29093 0
M  V30 2967 H 286.886 3.60543 -3.24248 0
M  V30 2968 N 288.23 0.939286 1.26551 0
M  V30 2969 C 289.479 0.581601 1.93133 0
M  V30 2970 C 289.792 -0.883224 1.74524 0
M  V30 2971 O 290.998 -1.3502 2.35546 0
M  V30 2972 C 289.454 0.989425 3.46032 0
M  V30 2973 C 289.062 2.47573 3.73379 0
M  V30 2974 C 290.806 0.703544 4.18629 0
M  V30 2975 C 288.713 2.82235 5.19709 0
M  V30 2976 H 287.643 0.213803 0.723052 0
M  V30 2977 H 290.294 1.14167 1.4366 0
M  V30 2978 H 288.676 0.357902 3.94379 0
M  V30 2979 H 289.85 3.15614 3.35744 0
M  V30 2980 H 288.165 2.73471 3.1401 0
M  V30 2981 H 290.762 0.938869 5.26393 0
M  V30 2982 H 291.105 -0.359639 4.14744 0
M  V30 2983 H 291.638 1.2947 3.76141 0
M  V30 2984 H 288.377 3.87509 5.28694 0
M  V30 2985 H 287.897 2.18854 5.58447 0
M  V30 2986 H 289.576 2.70599 5.87695 0
M  V30 2987 N 289.708 -1.40897 0.706093 0
M  V30 2988 C 290.655 -2.30751 0.0474474 0
M  V30 2989 C 291.625 -1.47678 -0.76029 0
M  V30 2990 O 292.81 -1.76441 -0.726177 0
M  V30 2991 C 289.95 -3.33815 -0.875309 0
M  V30 2992 C 289.063 -4.31961 -0.0580623 0
M  V30 2993 C 288.198 -5.22093 -0.979425 0
M  V30 2994 C 287.237 -6.11902 -0.155706 0
M  V30 2995 N 286.374 -6.94482 -1.03144 0
M  V30 2996 H 291.214 -2.86513 0.819413 0
M  V30 2997 H 288.751 -1.41102 0.415783 0
M  V30 2998 H 290.709 -3.92129 -1.42446 0
M  V30 2999 H 289.339 -2.79579 -1.61356 0
M  V30 3000 H 288.391 -3.75507 0.608147 0
M  V30 3001 H 289.703 -4.95415 0.580082 0
M  V30 3002 H 288.857 -5.85292 -1.59744 0
M  V30 3003 H 287.596 -4.5889 -1.65141 0
M  V30 3004 H 286.601 -5.47742 0.475309 0
M  V30 3005 H 287.826 -6.77162 0.512635 0
M  V30 3006 H 285.772 -6.33877 -1.68924 0
M  V30 3007 H 285.689 -7.54665 -0.449108 0
M  V30 3008 H 286.957 -7.6214 -1.63593 0
M  V30 3009 N 291.186 -0.45159 -1.50991 0
M  V30 3010 C 292.133 0.352625 -2.2809 0
M  V30 3011 C 293.103 1.0044 -1.32291 0
M  V30 3012 O 294.288 1.02058 -1.6121 0
M  V30 3013 C 291.428 1.43983 -3.13629 0
M  V30 3014 C 290.541 0.804772 -4.24438 0
M  V30 3015 C 289.676 1.86822 -4.97263 0
M  V30 3016 C 288.715 1.21236 -5.99973 0
M  V30 3017 N 287.852 2.2178 -6.66152 0
M  V30 3018 H 292.692 -0.311186 -2.96371 0
M  V30 3019 H 290.229 -0.165308 -1.46168 0
M  V30 3020 H 292.187 2.08161 -3.61559 0
M  V30 3021 H 290.817 2.07307 -2.47434 0
M  V30 3022 H 289.869 0.0509129 -3.80366 0
M  V30 3023 H 291.181 0.286076 -4.97979 0
M  V30 3024 H 290.335 2.58628 -5.48813 0
M  V30 3025 H 289.074 2.42068 -4.23385 0
M  V30 3026 H 288.079 0.479828 -5.47702 0
M  V30 3027 H 289.304 0.667051 -6.75816 0
M  V30 3028 H 287.25 2.76079 -5.95077 0
M  V30 3029 H 287.167 1.74841 -7.35504 0
M  V30 3030 H 288.435 2.93026 -7.22327 0
M  V30 3031 N 292.664 1.56529 -0.183458 0
M  V30 3032 C 293.894 2.01331 0.463612 0
M  V30 3033 C 294.302 1.06278 1.5653 0
M  V30 3034 O 293.645 0.0577976 1.83609 0
M  V30 3035 C 293.707 3.42547 1.09096 0
M  V30 3036 C 293.371 4.56817 0.129442 0
M  V30 3037 C 294.368 5.15734 -0.656807 0
M  V30 3038 C 292.053 5.02295 0.02174 0
M  V30 3039 C 294.047 6.1857 -1.53784 0
M  V30 3040 C 291.734 6.04978 -0.862864 0
M  V30 3041 C 292.732 6.62988 -1.64123 0
M  V30 3042 O 292.42 7.63677 -2.51103 0
M  V30 3043 H 292.152 0.664917 0.121907 0
M  V30 3044 H 294.706 2.034 -0.285954 0
M  V30 3045 H 292.936 3.37428 1.88889 0
M  V30 3046 H 294.625 3.71228 1.64148 0
M  V30 3047 H 295.391 4.81473 -0.583839 0
M  V30 3048 H 291.27 4.56847 0.617392 0
M  V30 3049 H 294.814 6.63777 -2.14583 0
M  V30 3050 H 290.711 6.38663 -0.93699 0
M  V30 3051 H 291.479 7.81049 -2.44753 0
M  V30 3052 N 294.142 -0.090211 1.57342 0
M  V30 3053 C 295.553 -0.644173 1.75235 0
M  V30 3054 C 295.904 -1.78865 0.806335 0
M  V30 3055 O 295.029 -2.16395 -0.0140128 0
M  V30 3056 C 295.624 -1.17532 3.1776 0
M  V30 3057 C 294.183 -1.67531 3.37061 0
M  V30 3058 C 293.33 -0.58693 2.71017 0
M  V30 3059 H 296.281 0.135884 1.58117 0
M  V30 3060 H 296.302 -2.04455 3.20902 0
M  V30 3061 H 295.814 -0.342138 3.86589 0
M  V30 3062 H 293.915 -2.53234 2.73319 0
M  V30 3063 H 294.028 -1.76493 4.45406 0
M  V30 3064 H 292.392 -1.02756 2.33052 0
M  V30 3065 H 293.175 0.235758 3.4249 0
M  V30 3066 N 295.62 -1.53406 -0.361157 0
M  V30 3067 C 296.552 -1.76446 -1.46286 0
M  V30 3068 C 297.565 -0.645322 -1.49464 0
M  V30 3069 O 298.754 -0.921681 -1.52864 0
M  V30 3070 C 295.854 -1.83332 -2.85031 0
M  V30 3071 C 295.027 -3.13033 -3.05498 0
M  V30 3072 C 294.086 -3.11104 -4.24383 0
M  V30 3073 O 293.112 -3.84888 -4.19344 0
M  V30 3074 N 294.314 -2.32234 -5.32022 0
M  V30 3075 H 297.079 -2.71508 -1.26899 0
M  V30 3076 H 294.64 -1.52238 -0.550915 0
M  V30 3077 H 296.632 -1.79514 -3.62708 0
M  V30 3078 H 295.202 -0.955342 -2.97644 0
M  V30 3079 H 294.422 -3.30119 -2.15442 0
M  V30 3080 H 295.71 -3.9874 -3.16044 0
M  V30 3081 H 295.108 -1.71807 -5.38979 0
M  V30 3082 H 293.665 -2.3423 -6.08259 0
M  V30 3083 N 297.098 0.621204 -1.44841 0
M  V30 3084 C 298.344 1.3826 -1.48365 0
M  V30 3085 C 298.677 1.93831 -0.119624 0
M  V30 3086 O 297.952 1.74251 0.864111 0
M  V30 3087 C 298.235 2.54058 -2.55199 0
M  V30 3088 C 298.088 2.03772 -4.00995 0
M  V30 3089 C 299.407 3.56225 -2.58442 0
M  V30 3090 H 296.526 0.501374 -0.540179 0
M  V30 3091 H 299.168 0.7015 -1.76576 0
M  V30 3092 H 297.318 3.12162 -2.31274 0
M  V30 3093 H 298.99 1.50423 -4.36086 0
M  V30 3094 H 297.233 1.34876 -4.12299 0
M  V30 3095 H 297.904 2.87185 -4.71411 0
M  V30 3096 H 300.38 3.07939 -2.79844 0
M  V30 3097 H 299.256 4.34756 -3.3508 0
M  V30 3098 H 299.517 4.10949 -1.63013 0
M  V30 3099 N 298.576 1.31904 0.862503 0
M  V30 3100 C 299.506 1.22782 1.98612 0
M  V30 3101 C 300.487 0.113362 1.69722 0
M  V30 3102 O 301.672 0.299218 1.91881 0
M  V30 3103 C 298.802 0.942058 3.34279 0
M  V30 3104 C 297.756 2.0169 3.77499 0
M  V30 3105 C 297.082 1.58369 5.10709 0
M  V30 3106 C 298.382 3.43096 3.93805 0
M  V30 3107 H 300.076 2.16788 2.06502 0
M  V30 3108 H 297.622 1.04366 0.992154 0
M  V30 3109 H 299.575 0.864818 4.1243 0
M  V30 3110 H 298.299 -0.0336603 3.26583 0
M  V30 3111 H 296.958 2.08416 3.01593 0
M  V30 3112 H 296.606 0.595628 4.99461 0
M  V30 3113 H 296.306 2.30279 5.40597 0
M  V30 3114 H 297.83 1.52067 5.91361 0
M  V30 3115 H 299.244 3.39003 4.62331 0
M  V30 3116 H 297.641 4.13288 4.35101 0
M  V30 3117 H 298.711 3.83334 2.96957 0
M  V30 3118 N 300.054 -1.07777 1.14986 0
M  V30 3119 C 300.964 -2.18404 0.856546 0
M  V30 3120 C 301.98 -1.73211 -0.165485 0
M  V30 3121 O 303.156 -2.01399 0.00755219 0
M  V30 3122 C 300.221 -3.44977 0.34526 0
M  V30 3123 C 299.282 -4.0476 1.43065 0
M  V30 3124 C 298.515 -5.25291 0.943663 0
M  V30 3125 O 298.738 -5.70004 -0.212426 0
M  V30 3126 O 297.672 -5.76638 1.72547 0
M  V30 3127 H 301.498 -2.45978 1.78125 0
M  V30 3128 H 299.083 -1.17033 0.928631 0
M  V30 3129 H 300.965 -4.21348 0.0663671 0
M  V30 3130 H 299.64 -3.18965 -0.551631 0
M  V30 3131 H 298.547 -3.29949 1.76309 0
M  V30 3132 H 299.88 -4.35035 2.30229 0
M  V30 3133 N 301.532 -0.945985 -1.26051 0
M  V30 3134 C 302.781 -0.591836 -1.92822 0
M  V30 3135 C 303.094 0.873956 -1.7499 0
M  V30 3136 O 304.3 1.33769 -2.36259 0
M  V30 3137 C 302.756 -1.00776 -3.45503 0
M  V30 3138 C 302.364 -2.4955 -3.7206 0
M  V30 3139 C 304.108 -0.725735 -4.1825 0
M  V30 3140 C 302.015 -2.84988 -5.18205 0
M  V30 3141 H 300.945 -0.217635 -0.721908 0
M  V30 3142 H 303.596 -1.14927 -1.43052 0
M  V30 3143 H 301.978 -0.378812 -3.94184 0
M  V30 3144 H 303.152 -3.1739 -3.34066 0
M  V30 3145 H 301.467 -2.75133 -3.12555 0
M  V30 3146 H 304.064 -0.966771 -5.25887 0
M  V30 3147 H 304.407 0.337639 -4.14929 0
M  V30 3148 H 304.94 -1.31463 -3.7545 0
M  V30 3149 H 301.679 -3.90307 -5.26631 0
M  V30 3150 H 301.199 -2.21813 -5.57278 0
M  V30 3151 H 302.878 -2.73712 -5.86252 0
M  V30 3152 N 303.011 1.40521 -0.713556 0
M  V30 3153 C 304.239 2.05237 -0.261775 0
M  V30 3154 C 304.654 1.53755 1.09567 0
M  V30 3155 O 304.011 0.693268 1.6882 0
M  V30 3156 C 304.062 3.60763 -0.230706 0
M  V30 3157 O 303.783 4.10345 -1.53455 0
M  V30 3158 C 305.284 4.42651 0.239874 0
M  V30 3159 H 302.504 0.660533 -0.118057 0
M  V30 3160 H 305.048 1.79967 -0.971192 0
M  V30 3161 H 303.203 3.8501 0.429661 0
M  V30 3162 H 303.617 5.04526 -1.43366 0
M  V30 3163 H 305.091 5.51599 0.210468 0
M  V30 3164 H 305.568 4.20082 1.28171 0
M  V30 3165 H 306.174 4.23507 -0.390142 0
M  V30 3166 N 304.489 0.459591 1.5075 0
M  V30 3167 C 305.436 -0.340524 2.28274 0
M  V30 3168 C 306.406 -0.997371 1.32822 0
M  V30 3169 O 307.591 -1.01202 1.61749 0
M  V30 3170 C 304.731 -1.42317 3.14388 0
M  V30 3171 C 303.844 -0.782251 4.24859 0
M  V30 3172 C 302.979 -1.84182 4.98247 0
M  V30 3173 C 302.018 -1.18053 6.00608 0
M  V30 3174 N 301.155 -2.18244 6.67319 0
M  V30 3175 H 305.995 0.326899 2.96202 0
M  V30 3176 H 303.532 0.173057 1.46078 0
M  V30 3177 H 305.49 -2.06241 3.62658 0
M  V30 3178 H 304.12 -2.05992 2.4853 0
M  V30 3179 H 303.172 -0.0307404 3.80388 0
M  V30 3180 H 304.484 -0.259663 4.98124 0
M  V30 3181 H 303.638 -2.55714 5.50177 0
M  V30 3182 H 302.377 -2.39819 4.24662 0
M  V30 3183 H 301.382 -0.450776 5.47949 0
M  V30 3184 H 302.607 -0.631202 6.7616 0
M  V30 3185 H 300.553 -2.72919 5.96533 0
M  V30 3186 H 300.47 -1.70938 7.36421 0
M  V30 3187 H 301.738 -2.89191 7.23871 0
M  V30 3188 N 305.967 -1.56429 0.191757 0
M  V30 3189 C 306.914 -2.18936 -0.730454 0
M  V30 3190 C 307.884 -1.13557 -1.21219 0
M  V30 3191 O 309.069 -1.41794 -1.27668 0
M  V30 3192 C 306.209 -2.85013 -1.9458 0
M  V30 3193 C 305.322 -4.04909 -1.50574 0
M  V30 3194 C 304.457 -4.58853 -2.67634 0
M  V30 3195 C 303.496 -5.71114 -2.20217 0
M  V30 3196 N 302.633 -6.19478 -3.30442 0
M  V30 3197 H 307.473 -2.97389 -0.190664 0
M  V30 3198 H 305.01 -1.46869 -0.0823694 0
M  V30 3199 H 306.968 -3.21492 -2.65893 0
M  V30 3200 H 305.598 -2.09129 -2.45896 0
M  V30 3201 H 304.65 -3.74115 -0.688605 0
M  V30 3202 H 305.962 -4.86113 -1.11784 0
M  V30 3203 H 305.116 -4.97619 -3.47074 0
M  V30 3204 H 303.855 -3.76749 -3.09696 0
M  V30 3205 H 302.86 -5.31879 -1.3923 0
M  V30 3206 H 304.085 -6.55033 -1.79189 0
M  V30 3207 H 302.031 -5.40297 -3.72041 0
M  V30 3208 H 301.948 -6.95725 -2.9581 0
M  V30 3209 H 303.216 -6.62898 -4.10106 0
M  V30 3210 N 307.445 0.0818655 -1.57387 0
M  V30 3211 C 308.856 0.634871 -1.75574 0
M  V30 3212 C 309.207 1.78435 -0.815809 0
M  V30 3213 O 308.332 2.164 0.0025366 0
M  V30 3214 C 308.927 1.15845 -3.18379 0
M  V30 3215 C 307.486 1.65741 -3.37945 0
M  V30 3216 C 306.633 0.572549 -2.71325 0
M  V30 3217 H 309.584 -0.144268 -1.58043 0
M  V30 3218 H 309.605 2.02751 -3.21982 0
M  V30 3219 H 309.117 0.321631 -3.86765 0
M  V30 3220 H 307.218 2.51781 -2.74658 0
M  V30 3221 H 307.331 1.74129 -4.46336 0
M  V30 3222 H 305.695 1.01518 -2.33594 0
M  V30 3223 H 306.478 -0.253918 -3.4236 0
M  V30 3224 N 308.923 1.53595 0.353017 0
M  V30 3225 C 310.148 1.7462 1.11904 0
M  V30 3226 C 310.573 0.479721 1.8188 0
M  V30 3227 O 309.931 -0.567066 1.72204 0
M  V30 3228 C 309.979 2.92029 2.11545 0
M  V30 3229 O 309.083 2.61516 3.18878 0
M  V30 3230 H 308.424 0.579531 0.324099 0
M  V30 3231 H 310.954 2.00525 0.406301 0
M  V30 3232 H 310.964 3.18551 2.5493 0
M  V30 3233 H 309.639 3.83888 1.60008 0
M  V30 3234 H 308.216 2.45852 2.80377 0
M  V30 3235 N 310.401 -0.613514 1.45168 0
M  V30 3236 C 311.626 -1.40437 1.52618 0
M  V30 3237 C 312.051 -1.87438 0.157707 0
M  V30 3238 O 311.409 -1.59791 -0.856537 0
M  V30 3239 C 311.457 -2.58894 2.51011 0
M  V30 3240 O 310.561 -3.59326 2.02382 0
M  V30 3241 H 309.902 -0.419506 0.514695 0
M  V30 3242 H 312.432 -0.747215 1.90467 0
M  V30 3243 H 312.442 -3.06214 2.69624 0
M  V30 3244 H 311.117 -2.24032 3.50403 0
M  V30 3245 H 309.694 -3.18695 1.93618 0
M  V30 3246 N 311.879 -1.3236 -0.855495 0
M  V30 3247 C 313.107 -1.2587 -1.64208 0
M  V30 3248 C 313.522 0.173457 -1.88002 0
M  V30 3249 O 312.879 1.11027 -1.44842 0
M  V30 3250 C 312.93 -2.01424 -3.00184 0
M  V30 3251 O 312.651 -3.39051 -2.77445 0
M  V30 3252 C 314.152 -2.01948 -3.94629 0
M  V30 3253 H 311.372 -0.434318 -0.511477 0
M  V30 3254 H 313.916 -1.74469 -1.0668 0
M  V30 3255 H 312.071 -1.56549 -3.5436 0
M  V30 3256 H 312.485 -3.77711 -3.63916 0
M  V30 3257 H 313.959 -2.59297 -4.87308 0
M  V30 3258 H 314.436 -1.00554 -4.27534 0
M  V30 3259 H 315.042 -2.46767 -3.4639 0
M  V30 3260 N 313.357 1.07166 -1.15556 0
M  V30 3261 C 314.604 1.79798 -0.931604 0
M  V30 3262 C 314.932 1.8682 0.54115 0
M  V30 3263 O 314.187 1.34942 1.41736 0
M  V30 3264 C 314.486 3.24707 -1.49332 0
M  V30 3265 C 314.152 3.37781 -2.98688 0
M  V30 3266 C 312.814 3.41057 -3.39461 0
M  V30 3267 C 315.166 3.40424 -3.94665 0
M  V30 3268 C 312.494 3.4458 -4.74849 0
M  V30 3269 C 314.846 3.45485 -5.29927 0
M  V30 3270 C 313.51 3.47039 -5.70193 0
M  V30 3271 H 312.78 0.657928 -0.340898 0
M  V30 3272 H 315.427 1.26091 -1.44129 0
M  V30 3273 H 313.732 3.81208 -0.904859 0
M  V30 3274 H 315.429 3.79486 -1.29582 0
M  V30 3275 H 312.019 3.35932 -2.66172 0
M  V30 3276 H 316.203 3.37113 -3.64237 0
M  V30 3277 H 311.459 3.44083 -5.05388 0
M  V30 3278 H 315.633 3.46476 -6.04092 0
M  V30 3279 H 313.26 3.49522 -6.75084 0
M  V30 3280 N 314.835 0.952656 1.25548 0
M  V30 3281 C 315.798 0.475794 2.24207 0
M  V30 3282 C 316.798 -0.419428 1.55234 0
M  V30 3283 O 317.988 -0.216994 1.72843 0
M  V30 3284 C 315.12 -0.312814 3.39462 0
M  V30 3285 H 316.313 1.34779 2.67908 0
M  V30 3286 H 313.866 0.735739 1.37901 0
M  V30 3287 H 314.601 -1.20257 3.01179 0
M  V30 3288 H 314.386 0.329404 3.90714 0
M  V30 3289 H 315.876 -0.635986 4.12729 0
M  V30 3290 N 316.313 -1.40141 0.720998 0
M  V30 3291 C 317.561 -2.0039 0.262323 0
M  V30 3292 C 317.882 -1.57469 -1.15015 0
M  V30 3293 O 317.152 -0.816582 -1.78069 0
M  V30 3294 H 315.732 -0.741063 0.093996 0
M  V30 3295 H 318.394 -1.71398 0.927835 0
M  V30 3296 H 317.49 -3.10658 0.299671 0
M  V30 3297 N 317.792 -0.46758 -1.50504 0
M  V30 3298 C 318.725 0.374324 -2.25109 0
M  V30 3299 C 319.703 0.99921 -1.28275 0
M  V30 3300 O 320.887 1.03583 -1.57489 0
M  V30 3301 C 318.014 1.52419 -3.02467 0
M  V30 3302 C 317.06 1.01702 -4.14197 0
M  V30 3303 S 317.893 -0.0654477 -5.3546 0
M  V30 3304 C 319.049 1.08837 -6.16365 0
M  V30 3305 H 319.282 -0.258983 -2.9617 0
M  V30 3306 H 316.815 -0.252421 -1.52323 0
M  V30 3307 H 318.773 2.18322 -3.47628 0
M  V30 3308 H 317.434 2.129 -2.30938 0
M  V30 3309 H 316.627 1.87776 -4.67714 0
M  V30 3310 H 316.229 0.435757 -3.71453 0
M  V30 3311 H 318.521 2.00071 -6.47285 0
M  V30 3312 H 319.464 0.592538 -7.05616 0
M  V30 3313 H 319.872 1.34061 -5.4835 0
M  V30 3314 N 319.27 1.56325 -0.20005 0
M  V30 3315 C 320.498 2.02105 0.442874 0
M  V30 3316 C 320.913 1.08014 1.5485 0
M  V30 3317 O 320.27 0.0858797 1.82298 0
M  V30 3318 C 320.321 3.47549 0.994583 0
M  V30 3319 O 320.042 4.38049 -0.0669322 0
M  V30 3320 C 321.543 4.0887 1.7129 0
M  V30 3321 H 318.763 0.661807 0.110691 0
M  V30 3322 H 321.307 2.02134 -0.310207 0
M  V30 3323 H 319.462 3.48204 1.69803 0
M  V30 3324 H 319.876 5.23368 0.344462 0
M  V30 3325 H 321.35 5.12475 2.05118 0
M  V30 3326 H 321.827 3.52615 2.61838 0
M  V30 3327 H 322.433 4.12002 1.05518 0
M  V30 3328 N 320.748 -0.0735177 1.57428 0
M  V30 3329 C 321.997 -0.771809 1.86349 0
M  V30 3330 C 322.31 -1.78828 0.792452 0
M  V30 3331 O 323.516 -2.53602 0.96945 0
M  V30 3332 C 321.972 -1.42358 3.30548 0
M  V30 3333 C 321.58 -0.445761 4.45777 0
M  V30 3334 C 323.324 -2.10434 3.6867 0
M  V30 3335 C 321.231 -1.10335 5.81016 0
M  V30 3336 H 320.161 -0.291999 0.695164 0
M  V30 3337 H 322.812 -0.0250749 1.83483 0
M  V30 3338 H 321.194 -2.21852 3.28021 0
M  V30 3339 H 322.368 0.319239 4.59693 0
M  V30 3340 H 320.683 0.130457 4.16196 0
M  V30 3341 H 323.28 -2.60405 4.67004 0
M  V30 3342 H 323.623 -2.90298 2.98383 0
M  V30 3343 H 324.156 -1.37773 3.7318 0
M  V30 3344 H 320.895 -0.345061 6.54591 0
M  V30 3345 H 320.415 -1.83925 5.70904 0
M  V30 3346 H 322.094 -1.62367 6.26295 0
M  V30 3347 N 322.226 -1.5378 -0.344866 0
M  V30 3348 C 323.454 -1.74899 -1.10534 0
M  V30 3349 C 323.869 -0.487534 -1.82397 0
M  V30 3350 O 323.226 0.540741 -1.74305 0
M  V30 3351 C 323.277 -2.92822 -2.11984 0
M  V30 3352 O 322.998 -4.14089 -1.43044 0
M  V30 3353 C 324.499 -3.25982 -3.00417 0
M  V30 3354 H 321.719 -0.584426 -0.329678 0
M  V30 3355 H 324.263 -2.006 -0.397474 0
M  V30 3356 H 322.418 -2.69457 -2.78338 0
M  V30 3357 H 322.832 -4.80272 -2.10805 0
M  V30 3358 H 324.306 -4.11848 -3.67539 0
M  V30 3359 H 324.783 -2.42228 -3.66363 0
M  V30 3360 H 325.389 -3.51349 -2.39654 0
M  V30 3361 N 323.704 0.605807 -1.45491 0
M  V30 3362 C 324.929 1.39625 -1.53361 0
M  V30 3363 C 325.354 1.87351 -0.167645 0
M  V30 3364 O 324.712 1.60243 0.848051 0
M  V30 3365 C 324.76 2.57559 -2.5238 0
M  V30 3366 O 323.864 3.58248 -2.04285 0
M  V30 3367 H 323.205 0.416771 -0.516912 0
M  V30 3368 H 325.735 0.737103 -1.90861 0
M  V30 3369 H 325.745 3.0478 -2.71244 0
M  V30 3370 H 324.42 2.22171 -3.51586 0
M  V30 3371 H 322.997 3.17664 -1.95305 0
M  V30 3372 N 325.182 1.32811 0.848464 0
M  V30 3373 C 326.41 1.26739 1.63538 0
M  V30 3374 C 326.825 -0.163484 1.88091 0
M  V30 3375 O 326.182 -1.10258 1.45429 0
M  V30 3376 C 326.233 2.03013 2.99112 0
M  V30 3377 O 325.954 3.40518 2.75643 0
M  V30 3378 C 327.455 2.04038 3.93552 0
M  V30 3379 H 324.675 0.437024 0.509167 0
M  V30 3380 H 327.219 1.75033 1.05753 0
M  V30 3381 H 325.374 1.58426 3.53525 0
M  V30 3382 H 325.788 3.79635 3.61908 0
M  V30 3383 H 327.262 2.61877 4.85926 0
M  V30 3384 H 327.739 1.0282 4.26995 0
M  V30 3385 H 328.345 2.486 3.45077 0
M  V30 3386 N 326.66 -1.06551 1.16123 0
M  V30 3387 C 327.608 -2.16063 0.861371 0
M  V30 3388 C 328.602 -1.6856 -0.168517 0
M  V30 3389 O 329.808 -1.79986 -0.0227579 0
M  V30 3390 H 326.183 -0.705278 0.260934 0
M  V30 3391 H 328.154 -2.38567 1.79244 0
M  V30 3392 C 326.903 -3.45661 0.376018 0
M  V30 3393 H 326.226 -3.82604 1.15992 0
M  V30 3394 H 327.666 -4.23504 0.204951 0
M  V30 3395 C 326.125 -3.24546 -0.903954 0
M  V30 3396 O 326.655 -3.49865 -1.97377 0
M  V30 3397 N 324.861 -2.77992 -0.846679 0
M  V30 3398 H 324.408 -2.57589 0.0241017 0
M  V30 3399 H 324.366 -2.64244 -1.70359 0
M  V30 3400 N 328.138 -0.959301 -1.25041 0
M  V30 3401 C 329.368 -0.63303 -1.96663 0
M  V30 3402 C 329.776 0.800031 -1.71453 0
M  V30 3403 O 329.119 1.54736 -0.99008 0
M  V30 3404 C 329.181 -0.817523 -3.50081 0
M  V30 3405 C 328.845 -2.22863 -3.98975 0
M  V30 3406 C 329.842 -3.20569 -4.09306 0
M  V30 3407 C 327.527 -2.55407 -4.32519 0
M  V30 3408 C 329.521 -4.4891 -4.52503 0
M  V30 3409 C 327.208 -3.83976 -4.754 0
M  V30 3410 C 328.206 -4.8054 -4.85356 0
M  V30 3411 O 327.894 -6.06817 -5.27284 0
M  V30 3412 H 327.626 -0.235866 -0.633516 0
M  V30 3413 H 330.18 -1.2874 -1.60047 0
M  V30 3414 H 328.41 -0.105992 -3.86555 0
M  V30 3415 H 330.099 -0.491604 -4.02912 0
M  V30 3416 H 330.865 -2.96753 -3.83618 0
M  V30 3417 H 326.744 -1.8097 -4.23994 0
M  V30 3418 H 330.288 -5.24283 -4.60188 0
M  V30 3419 H 326.185 -4.07596 -5.00535 0
M  V30 3420 H 326.953 -6.10262 -5.45457 0
M  V30 3421 N 329.616 1.39756 -0.72842 0
M  V30 3422 C 330.549 2.28176 -0.0330172 0
M  V30 3423 C 331.527 1.44035 0.754501 0
M  V30 3424 O 332.711 1.73434 0.738445 0
M  V30 3425 C 329.838 3.24795 0.960504 0
M  V30 3426 C 328.884 4.25693 0.262264 0
M  V30 3427 S 329.717 5.25714 -1.01906 0
M  V30 3428 C 330.873 6.25894 -0.0279717 0
M  V30 3429 H 331.106 2.86807 -0.78287 0
M  V30 3430 H 328.639 1.45382 -0.519951 0
M  V30 3431 H 330.597 3.80983 1.52846 0
M  V30 3432 H 329.258 2.65196 1.68315 0
M  V30 3433 H 328.451 4.93699 1.01379 0
M  V30 3434 H 328.053 3.7327 -0.233482 0
M  V30 3435 H 330.345 6.72585 0.814621 0
M  V30 3436 H 331.288 7.04876 -0.67499 0
M  V30 3437 H 331.696 5.63466 0.341489 0
M  V30 3438 N 331.094 0.475555 1.50254 0
M  V30 3439 C 332.024 -0.30611 2.31485 0
M  V30 3440 C 333.005 -0.986228 1.38591 0
M  V30 3441 O 334.19 -0.982541 1.67511 0
M  V30 3442 C 331.32 -1.38588 3.1845 0
M  V30 3443 C 330.274 -0.827115 4.19932 0
M  V30 3444 C 329.6 -2.00551 4.95665 0
M  V30 3445 C 330.9 0.16463 5.2204 0
M  V30 3446 H 332.594 0.371866 2.97082 0
M  V30 3447 H 330.14 0.180282 1.42867 0
M  V30 3448 H 332.093 -1.94023 3.74076 0
M  V30 3449 H 330.817 -2.09269 2.50747 0
M  V30 3450 H 329.476 -0.294702 3.65414 0
M  V30 3451 H 329.124 -2.6994 4.2443 0
M  V30 3452 H 328.824 -1.63784 5.64313 0
M  V30 3453 H 330.348 -2.56468 5.54127 0
M  V30 3454 H 331.762 -0.300699 5.72511 0
M  V30 3455 H 330.159 0.446813 5.98434 0
M  V30 3456 H 331.229 1.08905 4.72512 0
M  V30 3457 N 332.573 -1.56217 0.208337 0
M  V30 3458 C 333.483 -2.23316 -0.718836 0
M  V30 3459 C 334.499 -1.23648 -1.22422 0
M  V30 3460 O 335.675 -1.56423 -1.26861 0
M  V30 3461 C 332.74 -2.88968 -1.91568 0
M  V30 3462 C 331.801 -4.03943 -1.45357 0
M  V30 3463 C 331.034 -4.66455 -2.59337 0
M  V30 3464 O 331.257 -4.27919 -3.77149 0
M  V30 3465 O 330.191 -5.55686 -2.31293 0
M  V30 3466 H 334.017 -3.03182 -0.177315 0
M  V30 3467 H 331.602 -1.49384 -0.0215402 0
M  V30 3468 H 333.484 -3.30455 -2.61491 0
M  V30 3469 H 332.159 -2.12071 -2.44556 0
M  V30 3470 H 331.066 -3.67052 -0.722746 0
M  V30 3471 H 332.399 -4.82543 -0.970219 0
M  V30 3472 N 334.051 0.0651679 -1.57465 0
M  V30 3473 C 335.299 0.761555 -1.87202 0
M  V30 3474 C 335.62 1.77778 -0.801243 0
M  V30 3475 O 334.89 1.95166 0.16937 0
M  V30 3476 H 333.47 0.284251 -0.690804 0
M  V30 3477 H 336.132 0.0396827 -1.9486 0
M  V30 3478 H 335.228 1.27365 -2.84929 0
M  V30 3479 N 335.529 1.53961 0.336706 0
M  V30 3480 C 336.462 1.77255 1.43722 0
M  V30 3481 C 337.44 0.62193 1.50236 0
M  V30 3482 O 338.624 0.857874 1.67847 0
M  V30 3483 C 335.751 1.87733 2.81912 0
M  V30 3484 C 334.797 3.09933 2.92991 0
M  V30 3485 S 335.63 4.68836 2.58753 0
M  V30 3486 C 336.786 4.82202 3.99039 0
M  V30 3487 H 337.019 2.70322 1.23748 0
M  V30 3488 H 334.552 1.44917 0.532777 0
M  V30 3489 H 336.51 1.94455 3.61521 0
M  V30 3490 H 335.171 0.956666 2.99177 0
M  V30 3491 H 334.364 3.1396 3.94265 0
M  V30 3492 H 333.966 3.01472 2.21338 0
M  V30 3493 H 336.258 4.64032 4.9364 0
M  V30 3494 H 337.201 5.84298 4.00002 0
M  V30 3495 H 337.609 4.10604 3.87382 0
M  V30 3496 N 337.007 -0.598083 1.45811 0
M  V30 3497 C 338.418 -1.18011 1.44673 0
M  V30 3498 C 338.769 -1.95378 0.179364 0
M  V30 3499 O 337.894 -2.04124 -0.718509 0
M  V30 3500 C 338.489 -2.14677 2.62105 0
M  V30 3501 C 337.048 -2.68236 2.64057 0
M  V30 3502 C 336.195 -1.43816 2.37091 0
M  V30 3503 H 339.146 -0.38686 1.53913 0
M  V30 3504 H 339.167 -2.97878 2.36746 0
M  V30 3505 H 338.679 -1.5834 3.5433 0
M  V30 3506 H 336.78 -3.28486 1.75864 0
M  V30 3507 H 336.893 -3.12021 3.63566 0
M  V30 3508 H 335.257 -1.731 1.86838 0
M  V30 3509 H 336.04 -0.893333 3.31473 0
M  V30 3510 N 338.485 -1.33259 -0.841409 0
M  V30 3511 C 339.448 -1.23221 -1.9326 0
M  V30 3512 C 340.448 -0.151895 -1.60081 0
M  V30 3513 O 341.638 -0.403246 -1.69468 0
M  V30 3514 C 338.77 -0.898123 -3.28856 0
M  V30 3515 H 339.963 -2.2021 -2.03587 0
M  V30 3516 H 337.516 -1.17281 -1.03319 0
M  V30 3517 H 338.251 0.0693841 -3.24226 0
M  V30 3518 H 338.036 -1.67934 -3.54317 0
M  V30 3519 H 339.526 -0.852563 -4.08805 0
M  V30 3520 N 339.963 1.05934 -1.16686 0
M  V30 3521 C 341.193 1.82226 -0.973515 0
M  V30 3522 C 341.601 1.8297 0.481532 0
M  V30 3523 O 340.944 1.25009 1.34604 0
M  V30 3524 C 341.006 3.29897 -1.42858 0
M  V30 3525 C 340.67 3.52849 -2.90425 0
M  V30 3526 C 341.667 3.45595 -3.88407 0
M  V30 3527 C 339.352 3.80053 -3.28428 0
M  V30 3528 C 341.346 3.65217 -5.22394 0
M  V30 3529 C 339.033 3.99325 -4.62583 0
M  V30 3530 C 340.031 3.91905 -5.59374 0
M  V30 3531 O 339.719 4.10647 -6.91104 0
M  V30 3532 H 339.451 0.581314 -0.345036 0
M  V30 3533 H 342.005 1.3453 -1.55212 0
M  V30 3534 H 340.235 3.78472 -0.793477 0
M  V30 3535 H 341.924 3.87692 -1.20207 0
M  V30 3536 H 342.69 3.24564 -3.60393 0
M  V30 3537 H 338.569 3.84936 -2.53664 0
M  V30 3538 H 342.113 3.59341 -5.9793 0
M  V30 3539 H 338.01 4.19846 -4.90306 0
M  V30 3540 H 338.778 4.27915 -6.97733 0
M  V30 3541 N 341.441 0.965919 1.2453 0
M  V30 3542 C 342.857 0.67216 1.44756 0
M  V30 3543 C 343.057 -0.766609 1.86347 0
M  V30 3544 O 342.113 -1.5407 2.00047 0
M  V30 3545 C 343.426 1.65473 2.51076 0
M  V30 3546 C 344.974 1.66716 2.64905 0
M  V30 3547 C 345.449 2.63766 3.74421 0
M  V30 3548 N 346.94 2.62198 3.81846 0
M  V30 3549 C 347.675 3.33966 4.66106 0
M  V30 3550 N 347.171 4.15245 5.54566 0
M  V30 3551 N 348.964 3.22799 4.60171 0
M  V30 3552 H 341.115 1.89553 0.958293 0
M  V30 3553 H 343.378 0.815979 0.482579 0
M  V30 3554 H 343.084 2.68296 2.27399 0
M  V30 3555 H 342.958 1.4261 3.49202 0
M  V30 3556 H 345.345 0.646057 2.87941 0
M  V30 3557 H 345.426 1.93642 1.67142 0
M  V30 3558 H 345.07 3.6601 3.52135 0
M  V30 3559 H 345 2.34121 4.71694 0
M  V30 3560 H 347.491 2.032 3.18619 0
M  V30 3561 H 347.804 4.66898 6.15814 0
M  V30 3562 H 346.149 4.1934 5.54237 0
M  V30 3563 H 349.34 2.58764 3.90075 0
M  V30 3564 H 349.513 3.78994 5.25612 0
M  V30 3565 N 342.919 -1.39368 0.735821 0
M  V30 3566 C 344.167 -2.00101 0.283562 0
M  V30 3567 C 344.488 -1.5868 -1.13338 0
M  V30 3568 O 343.758 -0.835423 -1.77193 0
M  V30 3569 H 342.338 -0.740024 0.101851 0
M  V30 3570 H 345 -1.70404 0.945962 0
M  V30 3571 H 344.096 -3.10323 0.332604 0
M  V30 3572 N 344.397 -0.483516 -1.5 0
M  V30 3573 C 345.645 0.067027 -2.01989 0
M  V30 3574 C 345.966 1.3909 -1.36671 0
M  V30 3575 O 345.236 1.88978 -0.516152 0
M  V30 3576 H 343.816 0.0277606 -0.746484 0
M  V30 3577 H 346.478 -0.636773 -1.84204 0
M  V30 3578 H 345.574 0.209484 -3.11396 0
M  V30 3579 N 345.875 1.56104 -0.216619 0
M  V30 3580 C 347.122 1.98172 0.416416 0
M  V30 3581 C 347.45 1.10413 1.60122 0
M  V30 3582 O 346.705 0.147967 1.9514 0
M  V30 3583 C 347.004 3.45923 0.898464 0
M  V30 3584 C 346.67 4.50559 -0.175288 0
M  V30 3585 C 345.332 4.78897 -0.470271 0
M  V30 3586 C 347.684 5.1334 -0.901728 0
M  V30 3587 C 345.012 5.67299 -1.4963 0
M  V30 3588 C 347.364 6.02853 -1.91705 0
M  V30 3589 C 346.028 6.29537 -2.21901 0
M  V30 3590 H 345.298 0.725164 0.152377 0
M  V30 3591 H 347.945 1.88839 -0.318103 0
M  V30 3592 H 346.25 3.52434 1.71165 0
M  V30 3593 H 347.947 3.75841 1.39803 0
M  V30 3594 H 344.537 4.28551 0.0647806 0
M  V30 3595 H 348.721 4.91521 -0.687072 0
M  V30 3596 H 343.977 5.86239 -1.73592 0
M  V30 3597 H 348.151 6.50552 -2.48505 0
M  V30 3598 H 345.778 6.97835 -3.01548 0
M  V30 3599 N 347.353 -0.0568162 1.57498 0
M  V30 3600 C 348.63 -0.786954 1.79071 0
M  V30 3601 C 349.01 -1.95028 0.80792 0
M  V30 3602 O 348.358 -2.27968 -0.155858 0
M  V30 3603 C 348.568 -1.24594 3.26002 0
M  V30 3604 C 349.916 -1.67323 3.90241 0
M  V30 3605 O 350.94 -1.34124 3.29984 0
M  V30 3606 O 349.799 -2.28842 4.9628 0
M  V30 3607 H 346.893 -0.378262 0.735423 0
M  V30 3608 H 349.439 -0.035734 1.69662 0
M  V30 3609 H 348.211 -0.41423 3.89101 0
M  V30 3610 H 347.834 -2.05803 3.40192 0
M  V30 3611 N 348.832 -1.54138 -0.328536 0
M  V30 3612 C 350.08 -1.71765 -1.06496 0
M  V30 3613 C 350.401 -0.49149 -1.88704 0
M  V30 3614 O 349.671 0.494539 -1.89555 0
M  V30 3615 H 348.251 -0.633295 -0.396164 0
M  V30 3616 H 350.913 -1.91429 -0.366176 0
M  V30 3617 H 350.009 -2.5951 -1.73381 0
M  V30 3618 N 350.31 0.590341 -1.46126 0
M  V30 3619 C 351.24 1.71032 -1.58966 0
M  V30 3620 C 352.221 1.64302 -0.440335 0
M  V30 3621 O 353.406 1.82436 -0.665634 0
M  V30 3622 C 350.536 3.09665 -1.57241 0
M  V30 3623 C 349.49 3.31221 -2.71066 0
M  V30 3624 C 348.816 4.70303 -2.54399 0
M  V30 3625 C 350.116 3.19796 -4.1295 0
M  V30 3626 H 351.81 1.60543 -2.52718 0
M  V30 3627 H 349.356 0.770933 -1.21625 0
M  V30 3628 H 351.309 3.87831 -1.64819 0
M  V30 3629 H 350.033 3.21036 -0.600289 0
M  V30 3630 H 348.692 2.55452 -2.62944 0
M  V30 3631 H 348.34 4.78429 -1.55288 0
M  V30 3632 H 348.04 4.85679 -3.30741 0
M  V30 3633 H 349.564 5.50647 -2.63857 0
M  V30 3634 H 350.978 3.87815 -4.22223 0
M  V30 3635 H 349.375 3.46696 -4.89818 0
M  V30 3636 H 350.445 2.16983 -4.33643 0
M  V30 3637 N 351.788 1.33704 0.83433 0
M  V30 3638 C 352.735 1.24335 1.94447 0
M  V30 3639 C 353.705 0.120991 1.65659 0
M  V30 3640 O 354.89 0.300035 1.88426 0
M  V30 3641 C 352.03 0.993124 3.30501 0
M  V30 3642 C 351.143 2.20217 3.71657 0
M  V30 3643 C 350.278 1.88572 4.96602 0
M  V30 3644 C 349.317 3.05683 5.30306 0
M  V30 3645 N 348.454 2.73997 6.46429 0
M  V30 3646 H 353.294 2.1928 2.01792 0
M  V30 3647 H 350.831 1.09035 0.987404 0
M  V30 3648 H 352.789 0.828467 4.08892 0
M  V30 3649 H 351.419 0.0803902 3.227 0
M  V30 3650 H 350.471 2.47642 2.88752 0
M  V30 3651 H 351.783 3.07752 3.92543 0
M  V30 3652 H 350.937 1.68776 5.82752 0
M  V30 3653 H 349.676 0.982799 4.77695 0
M  V30 3654 H 348.681 3.26088 4.42659 0
M  V30 3655 H 349.906 3.96737 5.51159 0
M  V30 3656 H 347.852 1.86268 6.28999 0
M  V30 3657 H 347.769 3.55064 6.67432 0
M  V30 3658 H 349.037 2.57679 7.35678 0
M  V30 3659 N 353.266 -1.05314 1.17247 0
M  V30 3660 C 354.494 -1.81971 0.984593 0
M  V30 3661 C 354.909 -1.82929 -0.467166 0
M  V30 3662 O 354.266 -1.25564 -1.32438 0
M  V30 3663 C 354.317 -3.28143 1.51672 0
M  V30 3664 O 354.038 -3.27347 2.91163 0
M  V30 3665 C 355.539 -4.21493 1.37326 0
M  V30 3666 H 352.759 -0.573455 0.348411 0
M  V30 3667 H 355.303 -1.32808 1.55506 0
M  V30 3668 H 353.458 -3.74582 0.988302 0
M  V30 3669 H 353.872 -4.18824 3.15732 0
M  V30 3670 H 355.346 -5.22043 1.79375 0
M  V30 3671 H 355.823 -4.38031 0.320169 0
M  V30 3672 H 356.429 -3.80909 1.89178 0
M  V30 3673 N 354.744 -0.972509 -1.24016 0
M  V30 3674 C 355.992 -0.635776 -1.91839 0
M  V30 3675 C 356.313 0.832312 -1.76345 0
M  V30 3676 O 355.583 1.5946 -1.13795 0
M  V30 3677 H 354.163 -0.232157 -0.710009 0
M  V30 3678 H 356.825 -1.23462 -1.50809 0
M  V30 3679 H 355.921 -0.880545 -2.99421 0
M  V30 3680 N 356.222 1.38976 -0.743202 0
M  V30 3681 C 357.45 2.04636 -0.30525 0
M  V30 3682 C 357.865 1.56044 1.06281 0
M  V30 3683 O 357.222 0.728921 1.67311 0
M  V30 3684 C 357.273 3.60193 -0.307177 0
M  V30 3685 O 356.994 4.06998 -1.62124 0
M  V30 3686 C 358.495 4.4306 0.145928 0
M  V30 3687 H 355.715 0.65788 -0.132041 0
M  V30 3688 H 358.259 1.77866 -1.00915 0
M  V30 3689 H 356.414 3.85835 0.347898 0
M  V30 3690 H 356.828 5.01371 -1.54036 0
M  V30 3691 H 358.302 5.51921 0.0934183 0
M  V30 3692 H 358.779 4.22706 1.19231 0
M  V30 3693 H 359.385 4.22584 -0.479886 0
M  V30 3694 N 357.7 0.491464 1.49741 0
M  V30 3695 C 358.928 -0.0535151 2.06831 0
M  V30 3696 C 359.343 -1.31683 1.35296 0
M  V30 3697 O 358.7 -1.77402 0.42836 0
M  V30 3698 C 358.751 -0.320835 3.60073 0
M  V30 3699 O 358.472 0.892394 4.28915 0
M  V30 3700 C 359.973 -0.910519 4.33848 0
M  V30 3701 H 357.193 0.0161909 0.670805 0
M  V30 3702 H 359.737 0.68609 1.92647 0
M  V30 3703 H 357.892 -1.0104 3.73991 0
M  V30 3704 H 358.306 0.649401 5.20464 0
M  V30 3705 H 359.78 -1.04721 5.41976 0
M  V30 3706 H 360.257 -1.90589 3.95692 0
M  V30 3707 H 360.863 -0.258712 4.24512 0
M  V30 3708 N 359.178 -1.55987 0.224894 0
M  V30 3709 C 360.455 -1.90232 -0.455083 0
M  V30 3710 C 360.835 -1.14269 -1.77499 0
M  V30 3711 O 360.183 -0.253079 -2.27094 0
M  V30 3712 C 360.393 -3.42993 -0.644758 0
M  V30 3713 C 361.741 -4.13821 -0.950669 0
M  V30 3714 O 362.765 -3.4861 -0.731423 0
M  V30 3715 O 361.624 -5.29128 -1.36695 0
M  V30 3716 H 358.718 -0.79108 -0.241084 0
M  V30 3717 H 361.264 -1.67581 0.267327 0
M  V30 3718 H 360.036 -3.90252 0.28613 0
M  V30 3719 H 359.659 -3.71434 -1.41853 0
M  V30 3720 N 360.656 0.0484629 -1.57525 0
M  V30 3721 C 361.603 1.05504 -2.05275 0
M  V30 3722 C 362.573 1.37084 -0.937927 0
M  V30 3723 O 363.758 1.47754 -1.2072 0
M  V30 3724 C 360.898 2.35676 -2.52093 0
M  V30 3725 C 360.011 2.10423 -3.77288 0
M  V30 3726 C 359.146 3.34327 -4.12794 0
M  V30 3727 C 358.185 3.04542 -5.30962 0
M  V30 3728 N 357.322 4.20841 -5.61994 0
M  V30 3729 H 362.162 0.640885 -2.91027 0
M  V30 3730 H 359.699 0.304854 -1.43906 0
M  V30 3731 H 361.657 3.11709 -2.77297 0
M  V30 3732 H 360.287 2.7485 -1.69285 0
M  V30 3733 H 359.339 1.24976 -3.59284 0
M  V30 3734 H 360.651 1.84438 -4.63448 0
M  V30 3735 H 359.805 4.1874 -4.39024 0
M  V30 3736 H 358.544 3.63408 -3.25247 0
M  V30 3737 H 357.549 2.18528 -5.04505 0
M  V30 3738 H 358.774 2.76758 -6.20146 0
M  V30 3739 H 356.72 4.4991 -4.77406 0
M  V30 3740 H 356.637 3.98212 -6.42622 0
M  V30 3741 H 357.905 5.06184 -5.92789 0
M  V30 3742 N 362.134 1.5431 0.320358 0
M  V30 3743 C 363.097 1.83195 1.3774 0
M  V30 3744 C 364.097 0.703906 1.44575 0
M  V30 3745 O 365.287 0.972214 1.44546 0
M  V30 3746 C 362.419 1.99487 2.76438 0
M  V30 3747 H 363.612 2.77642 1.1338 0
M  V30 3748 H 361.165 1.46076 0.556012 0
M  V30 3749 H 361.9 1.07262 3.06048 0
M  V30 3750 H 361.685 2.81575 2.7287 0
M  V30 3751 H 363.175 2.23271 3.52902 0
M  V30 3752 N 363.613 -0.582584 1.46437 0
M  V30 3753 C 364.861 -1.33814 1.51453 0
M  V30 3754 C 365.182 -1.94277 0.167792 0
M  V30 3755 O 364.452 -1.78566 -0.805677 0
M  V30 3756 H 363.032 -0.496838 0.557818 0
M  V30 3757 H 365.694 -0.682281 1.82568 0
M  V30 3758 H 364.79 -2.14479 2.26728 0
M  V30 3759 N 365.091 -1.34144 -0.827227 0
M  V30 3760 C 366.001 -1.27428 -1.96975 0
M  V30 3761 C 367.017 -0.182728 -1.73038 0
M  V30 3762 O 368.193 -0.408426 -1.97215 0
M  V30 3763 C 365.258 -1.02526 -3.31194 0
M  V30 3764 C 364.319 -2.20796 -3.68168 0
M  V30 3765 C 363.552 -1.97073 -4.95982 0
M  V30 3766 O 363.775 -0.926822 -5.6282 0
M  V30 3767 O 362.709 -2.83912 -5.30733 0
M  V30 3768 H 366.535 -2.23537 -2.05584 0
M  V30 3769 H 364.12 -1.14307 -0.961989 0
M  V30 3770 H 366.002 -0.904026 -4.11589 0
M  V30 3771 H 364.677 -0.0945389 -3.23562 0
M  V30 3772 H 363.584 -2.38477 -2.88235 0
M  V30 3773 H 364.917 -3.12243 -3.8048 0
M  V30 3774 N 366.569 1.04691 -1.17803 0
M  V30 3775 C 367.794 1.81984 -0.994813 0
M  V30 3776 C 368.219 1.82586 0.452112 0
M  V30 3777 O 367.577 1.23854 1.324 0
M  V30 3778 C 367.625 3.2575 -1.54659 0
M  V30 3779 O 366.729 4.05267 -0.763728 0
M  V30 3780 H 366.07 0.562483 -0.352857 0
M  V30 3781 H 368.6 1.3189 -1.56417 0
M  V30 3782 H 368.61 3.76541 -1.57102 0
M  V30 3783 H 367.285 3.24627 -2.59981 0
M  V30 3784 H 365.862 3.63972 -0.811108 0
M  V30 3785 N 368.047 0.979072 1.23499 0
M  V30 3786 C 369.294 0.647219 1.91878 0
M  V30 3787 C 369.622 -0.819074 1.76413 0
M  V30 3788 O 368.877 -1.60616 1.11808 0
M  V30 3789 C 369.176 0.981932 3.43646 0
M  V30 3790 C 368.842 2.43822 3.79291 0
M  V30 3791 C 367.504 2.83622 3.88731 0
M  V30 3792 C 369.856 3.3828 3.96505 0
M  V30 3793 C 367.184 4.16897 4.12812 0
M  V30 3794 C 369.536 4.71197 4.22085 0
M  V30 3795 C 368.2 5.10758 4.29747 0
M  V30 3796 H 367.47 0.236834 0.702133 0
M  V30 3797 H 370.117 1.23268 1.46551 0
M  V30 3798 H 368.422 0.314365 3.90537 0
M  V30 3799 H 370.119 0.703395 3.94783 0
M  V30 3800 H 366.709 2.11966 3.72516 0
M  V30 3801 H 370.893 3.0871 3.88603 0
M  V30 3802 H 366.149 4.47157 4.16966 0
M  V30 3803 H 370.323 5.44348 4.34348 0
M  V30 3804 H 367.95 6.1405 4.48159 0
M  V30 3805 N 369.525 -1.3858 0.750561 0
M  V30 3806 C 370.771 -2.00481 0.305825 0
M  V30 3807 C 371.104 -1.5944 -1.10872 0
M  V30 3808 O 370.379 -0.83052 -1.75877 0
M  V30 3809 C 370.662 -3.5758 0.425287 0
M  V30 3810 C 370.515 -4.08594 1.88072 0
M  V30 3811 C 371.834 -4.39719 -0.183122 0
M  V30 3812 H 368.953 -0.728348 0.112598 0
M  V30 3813 H 371.595 -1.64566 0.949638 0
M  V30 3814 H 369.745 -3.88306 -0.122828 0
M  V30 3815 H 371.417 -3.88523 2.48691 0
M  V30 3816 H 369.66 -3.61574 2.39681 0
M  V30 3817 H 370.331 -5.177 1.91548 0
M  V30 3818 H 372.807 -4.15128 0.284303 0
M  V30 3819 H 371.683 -5.48856 -0.0692757 0
M  V30 3820 H 371.944 -4.23434 -1.27106 0
M  V30 3821 N 371.003 -0.499398 -1.49478 0
M  V30 3822 C 372.251 0.0455996 -2.02049 0
M  V30 3823 C 372.572 1.37633 -1.38138 0
M  V30 3824 O 371.842 1.8842 -0.536166 0
M  V30 3825 H 370.422 0.0198416 -0.746736 0
M  V30 3826 H 373.084 -0.656274 -1.83519 0
M  V30 3827 H 372.18 0.176445 -3.11601 0
M  V30 3828 N 372.481 1.55866 -0.233164 0
M  V30 3829 C 373.709 2.02998 0.399905 0
M  V30 3830 C 374.124 1.11274 1.52524 0
M  V30 3831 O 373.481 0.124528 1.82075 0
M  V30 3832 C 373.532 3.4958 0.920639 0
M  V30 3833 O 373.253 4.37808 -0.159834 0
M  V30 3834 C 374.754 4.12411 1.62578 0
M  V30 3835 H 371.974 0.664006 0.0966281 0
M  V30 3836 H 374.518 2.0143 -0.353013 0
M  V30 3837 H 372.673 3.51727 1.62379 0
M  V30 3838 H 373.087 5.23981 0.23337 0
M  V30 3839 H 374.561 5.16711 1.94201 0
M  V30 3840 H 375.038 3.5809 2.54299 0
M  V30 3841 H 375.644 4.14148 0.967553 0
M  V30 3842 N 373.959 -0.0401083 1.57549 0
M  V30 3843 C 375.187 -0.745196 1.93014 0
M  V30 3844 C 375.602 -1.6948 0.831984 0
M  V30 3845 O 374.959 -1.81482 -0.192463 0
M  V30 3846 C 375.01 -1.51176 3.28372 0
M  V30 3847 O 374.731 -0.600284 4.33968 0
M  V30 3848 C 376.232 -2.315 3.78051 0
M  V30 3849 H 373.452 -0.210088 0.637263 0
M  V30 3850 H 375.996 -0.000924689 2.045 0
M  V30 3851 H 374.151 -2.20801 3.18317 0
M  V30 3852 H 374.565 -1.13669 5.12035 0
M  V30 3853 H 376.039 -2.80697 4.75303 0
M  V30 3854 H 376.516 -3.12436 3.08675 0
M  V30 3855 H 377.122 -1.66971 3.91153 0
M  V30 3856 N 375.437 -1.54477 -0.31217 0
M  V30 3857 C 376.683 -1.73483 -1.0503 0
M  V30 3858 C 377.016 -0.513125 -1.87298 0
M  V30 3859 O 376.291 0.489864 -1.8823 0
M  V30 3860 C 376.574 -3.01723 -1.96558 0
M  V30 3861 C 376.427 -4.3417 -1.17545 0
M  V30 3862 C 377.746 -3.25772 -2.95907 0
M  V30 3863 H 374.865 -0.631222 -0.380432 0
M  V30 3864 H 377.507 -1.87184 -0.325932 0
M  V30 3865 H 375.657 -2.90174 -2.58324 0
M  V30 3866 H 377.329 -4.5762 -0.581513 0
M  V30 3867 H 375.572 -4.31159 -0.477925 0
M  V30 3868 H 376.243 -5.20143 -1.84811 0
M  V30 3869 H 378.719 -3.36857 -2.44267 0
M  V30 3870 H 377.595 -4.16838 -3.57123 0
M  V30 3871 H 377.856 -2.43537 -3.68974 0
M  V30 3872 N 376.915 0.57481 -1.46744 0
M  V30 3873 C 377.825 1.711 -1.60505 0
M  V30 3874 C 378.841 1.67008 -0.488307 0
M  V30 3875 O 380.017 1.86774 -0.753495 0
M  V30 3876 C 377.082 3.07608 -1.59932 0
M  V30 3877 C 376.143 3.22904 -2.82898 0
M  V30 3878 C 375.376 4.529 -2.82343 0
M  V30 3879 O 375.599 5.37278 -1.91542 0
M  V30 3880 O 374.533 4.71611 -3.73987 0
M  V30 3881 H 378.359 1.62436 -2.56609 0
M  V30 3882 H 375.944 0.742779 -1.29627 0
M  V30 3883 H 377.826 3.88877 -1.62336 0
M  V30 3884 H 376.501 3.16692 -0.669898 0
M  V30 3885 H 375.408 2.41099 -2.86046 0
M  V30 3886 H 376.741 3.18715 -3.75076 0
M  V30 3887 N 378.394 1.34581 0.820102 0
M  V30 3888 C 379.341 1.2639 1.93117 0
M  V30 3889 C 380.311 0.138554 1.65521 0
M  V30 3890 O 381.496 0.320004 1.88097 0
M  V30 3891 C 378.636 1.02812 3.29429 0
M  V30 3892 C 377.749 2.24146 3.693 0
M  V30 3893 C 376.884 1.93829 4.94574 0
M  V30 3894 C 375.923 3.1129 5.27034 0
M  V30 3895 N 375.06 2.80838 6.43486 0
M  V30 3896 H 379.9 2.21408 1.99455 0
M  V30 3897 H 377.437 1.10077 0.975784 0
M  V30 3898 H 379.395 0.871788 4.0799 0
M  V30 3899 H 378.025 0.114612 3.22596 0
M  V30 3900 H 377.077 2.50691 2.86109 0
M  V30 3901 H 378.389 3.11899 3.89257 0
M  V30 3902 H 377.543 1.74948 5.80929 0
M  V30 3903 H 376.282 1.03341 4.76626 0
M  V30 3904 H 375.287 3.30764 4.39175 0
M  V30 3905 H 376.512 4.02561 5.4692 0
M  V30 3906 H 374.458 1.92929 6.26988 0
M  V30 3907 H 374.375 3.62123 6.63629 0
M  V30 3908 H 375.643 2.65467 7.32903 0
M  V30 3909 N 379.872 -1.04064 1.18357 0
M  V30 3910 C 381.12 -1.76915 0.977013 0
M  V30 3911 C 381.441 -1.88624 -0.494577 0
M  V30 3912 O 380.711 -1.41125 -1.3587 0
M  V30 3913 H 379.291 -0.65535 0.358504 0
M  V30 3914 H 381.953 -1.25592 1.49039 0
M  V30 3915 H 381.049 -2.78178 1.41504 0
M  V30 3916 N 381.35 -0.985608 -1.22978 0
M  V30 3917 C 382.283 -0.47487 -2.23204 0
M  V30 3918 C 383.261 0.460865 -1.55932 0
M  V30 3919 O 384.445 0.388105 -1.84461 0
M  V30 3920 C 381.572 0.312427 -3.37256 0
M  V30 3921 C 380.618 -0.568219 -4.22698 0
M  V30 3922 S 381.451 -2.01919 -4.95973 0
M  V30 3923 C 382.607 -1.24118 -6.1347 0
M  V30 3924 H 382.84 -1.32419 -2.66181 0
M  V30 3925 H 380.373 -0.792005 -1.32539 0
M  V30 3926 H 382.331 0.760645 -4.03391 0
M  V30 3927 H 380.992 1.13693 -2.92801 0
M  V30 3928 H 380.185 0.0371657 -5.03986 0
M  V30 3929 H 379.787 -0.952897 -3.61657 0
M  V30 3930 H 382.079 -0.505121 -6.75614 0
M  V30 3931 H 383.022 -2.02907 -6.78406 0
M  V30 3932 H 383.43 -0.757669 -5.59392 0
M  V30 3933 N 382.828 1.3818 -0.7579 0
M  V30 3934 C 384.244 1.5353 -0.435972 0
M  V30 3935 C 384.444 1.71961 1.05032 0
M  V30 3936 O 383.5 1.73307 1.83633 0
M  V30 3937 C 384.813 2.73989 -1.23898 0
M  V30 3938 C 386.361 2.87841 -1.22949 0
M  V30 3939 C 386.836 4.11266 -2.01554 0
M  V30 3940 N 388.327 4.18352 -1.98837 0
M  V30 3941 C 389.062 5.12856 -2.5645 0
M  V30 3942 N 388.558 6.13005 -3.22794 0
M  V30 3943 N 390.351 5.05238 -2.46356 0
M  V30 3944 H 382.502 1.24467 -1.7211 0
M  V30 3945 H 384.765 0.604982 -0.729864 0
M  V30 3946 H 384.471 2.66789 -2.29165 0
M  V30 3947 H 384.345 3.67294 -0.858764 0
M  V30 3948 H 386.732 2.9452 -0.184854 0
M  V30 3949 H 386.813 1.95534 -1.64924 0
M  V30 3950 H 386.457 4.05349 -3.06031 0
M  V30 3951 H 386.387 5.02661 -1.5697 0
M  V30 3952 H 388.878 3.46628 -1.50524 0
M  V30 3953 H 389.191 6.81619 -3.64165 0
M  V30 3954 H 387.536 6.13325 -3.2689 0
M  V30 3955 H 390.727 4.25938 -1.9415 0
M  V30 3956 H 390.9 5.78707 -2.91552 0
M  V30 3957 N 384.306 0.507319 1.49211 0
M  V30 3958 C 385.552 -0.0350047 2.0277 0
M  V30 3959 C 385.885 -1.3606 1.38569 0
M  V30 3960 O 385.16 -1.87321 0.523542 0
M  V30 3961 C 385.443 -0.180916 3.59645 0
M  V30 3962 C 385.296 1.16825 4.34364 0
M  V30 3963 C 386.615 -0.918558 4.30407 0
M  V30 3964 H 383.734 -0.0112473 0.736914 0
M  V30 3965 H 386.376 0.659956 1.7817 0
M  V30 3966 H 384.526 -0.772826 3.80736 0
M  V30 3967 H 386.198 1.79952 4.24753 0
M  V30 3968 H 384.441 1.75594 3.96673 0
M  V30 3969 H 385.112 1.01939 5.42506 0
M  V30 3970 H 387.588 -0.41649 4.1401 0
M  V30 3971 H 386.464 -0.989505 5.39907 0
M  V30 3972 H 386.725 -1.96373 3.96093 0
M  V30 3973 N 385.784 -1.5574 0.241426 0
M  V30 3974 C 387.033 -1.97986 -0.385295 0
M  V30 3975 C 387.346 -1.13267 -1.59468 0
M  V30 3976 O 388.552 -1.45501 -2.2922 0
M  V30 3977 C 387.008 -3.52275 -0.736884 0
M  V30 3978 C 386.616 -4.45726 0.450796 0
M  V30 3979 C 388.36 -4.03189 -1.3281 0
M  V30 3980 C 386.267 -5.91352 0.0756662 0
M  V30 3981 H 385.197 -0.739386 -0.147731 0
M  V30 3982 H 387.848 -1.80308 0.340779 0
M  V30 3983 H 386.23 -3.65628 -1.52094 0
M  V30 3984 H 387.404 -4.44131 1.22819 0
M  V30 3985 H 385.719 -4.05264 0.956573 0
M  V30 3986 H 388.316 -5.09505 -1.62201 0
M  V30 3987 H 388.659 -3.50212 -2.25071 0
M  V30 3988 H 389.192 -3.93141 -0.607069 0
M  V30 3989 H 385.931 -6.48354 0.965272 0
M  V30 3990 H 385.451 -5.96095 -0.665635 0
M  V30 3991 H 387.13 -6.46084 -0.344075 0
M  V30 3992 N 387.262 0.0317525 -1.57568 0
M  V30 3993 C 388.49 0.734949 -1.93407 0
M  V30 3994 C 388.905 1.69036 -0.84096 0
M  V30 3995 O 388.262 1.81582 0.182836 0
M  V30 3996 C 388.313 1.49432 -3.29169 0
M  V30 3997 O 388.034 0.577261 -4.3428 0
M  V30 3998 C 389.535 2.29492 -3.79273 0
M  V30 3999 H 386.755 0.206706 -0.638368 0
M  V30 4000 H 389.299 -0.00992046 -2.04498 0
M  V30 4001 H 387.454 2.1911 -3.19483 0
M  V30 4002 H 387.868 1.10952 -5.1263 0
M  V30 4003 H 389.342 2.78172 -4.76785 0
M  V30 4004 H 389.819 3.10794 -3.10328 0
M  V30 4005 H 390.425 1.64894 -3.92033 0
M  V30 4006 N 388.74 1.54641 0.303973 0
M  V30 4007 C 389.986 1.74038 1.04109 0
M  V30 4008 C 390.319 0.523051 1.87024 0
M  V30 4009 O 389.594 -0.479874 1.88487 0
M  V30 4010 C 389.877 3.02761 1.94955 0
M  V30 4011 C 389.73 4.34787 1.1524 0
M  V30 4012 C 391.049 3.27336 2.94175 0
M  V30 4013 H 388.168 0.63323 0.377079 0
M  V30 4014 H 390.81 1.87354 0.316001 0
M  V30 4015 H 388.96 2.9154 2.56782 0
M  V30 4016 H 390.632 4.57922 0.557236 0
M  V30 4017 H 388.875 4.31407 0.455053 0
M  V30 4018 H 389.546 5.21116 1.8205 0
M  V30 4019 H 392.022 3.38148 2.42477 0
M  V30 4020 H 390.898 4.18726 3.54908 0
M  V30 4021 H 391.159 2.45491 3.67677 0
M  V30 4022 N 390.218 -0.567019 1.47046 0
M  V30 4023 C 391.464 -1.32658 1.53394 0
M  V30 4024 C 391.797 -1.93254 0.19148 0
M  V30 4025 O 391.072 -1.77338 -0.798844 0
M  V30 4026 C 391.355 -2.44412 2.64452 0
M  V30 4027 C 391.208 -1.88749 4.08282 0
M  V30 4028 C 392.527 -3.46387 2.71485 0
M  V30 4029 H 389.646 -0.48098 0.558415 0
M  V30 4030 H 392.288 -0.635481 1.79058 0
M  V30 4031 H 390.438 -3.03363 2.427 0
M  V30 4032 H 392.11 -1.34134 4.41368 0
M  V30 4033 H 390.353 -1.19481 4.17021 0
M  V30 4034 H 391.024 -2.69491 4.81745 0
M  V30 4035 H 393.5 -2.9734 2.91081 0
M  V30 4036 H 392.376 -4.2202 3.50985 0
M  V30 4037 H 392.637 -4.04616 1.78153 0
M  V30 4038 N 391.696 -1.35014 -0.812953 0
M  V30 4039 C 392.626 -1.30069 -1.93919 0
M  V30 4040 C 393.607 -0.176275 -1.69184 0
M  V30 4041 O 394.792 -0.370227 -1.90638 0
M  V30 4042 C 391.922 -1.06547 -3.30552 0
M  V30 4043 C 390.876 -2.15561 -3.69753 0
M  V30 4044 C 390.202 -1.77214 -5.04479 0
M  V30 4045 C 391.502 -3.57476 -3.808 0
M  V30 4046 H 393.196 -2.24303 -1.98314 0
M  V30 4047 H 390.742 -1.07977 -0.952736 0
M  V30 4048 H 392.695 -1.01729 -4.08937 0
M  V30 4049 H 391.419 -0.0875719 -3.26483 0
M  V30 4050 H 390.078 -2.19466 -2.9365 0
M  V30 4051 H 389.726 -0.780589 -4.96906 0
M  V30 4052 H 389.426 -2.50184 -5.31678 0
M  V30 4053 H 390.95 -1.7391 -5.8531 0
M  V30 4054 H 392.364 -3.55929 -4.4943 0
M  V30 4055 H 390.761 -4.29152 -4.19462 0
M  V30 4056 H 391.831 -3.94091 -2.82525 0
M  V30 4057 N 393.175 1.03435 -1.18907 0
M  V30 4058 C 394.123 2.13703 -0.918353 0
M  V30 4059 C 395.117 1.68947 0.123767 0
M  V30 4060 O 396.323 1.79983 -0.0249701 0
M  V30 4061 H 392.698 0.698112 -0.279542 0
M  V30 4062 H 394.669 2.33731 -1.85506 0
M  V30 4063 C 393.418 3.44542 -0.467532 0
M  V30 4064 H 392.741 3.79394 -1.26095 0
M  V30 4065 H 394.181 4.22812 -0.317164 0
M  V30 4066 C 392.64 3.26829 0.817588 0
M  V30 4067 O 393.17 3.54975 1.88031 0
M  V30 4068 N 391.376 2.80139 0.772677 0
M  V30 4069 H 390.923 2.57434 -0.0923883 0
M  V30 4070 H 390.881 2.68668 1.63294 0
M  V30 4071 N 394.653 0.992116 1.22453 0
M  V30 4072 C 395.616 0.546883 2.2258 0
M  V30 4073 C 396.616 -0.369829 1.56489 0
M  V30 4074 O 397.806 -0.161896 1.73446 0
M  V30 4075 C 394.938 -0.204659 3.40285 0
M  V30 4076 H 396.131 1.43234 2.63484 0
M  V30 4077 H 393.684 0.779239 1.3549 0
M  V30 4078 H 394.419 -1.10614 3.04853 0
M  V30 4079 H 394.204 0.45354 3.89468 0
M  V30 4080 H 395.694 -0.504358 4.14543 0
M  V30 4081 N 396.131 -1.37776 0.765217 0
M  V30 4082 C 397.408 -1.93975 0.251596 0
M  V30 4083 C 397.788 -1.69949 -1.25222 0
M  V30 4084 O 397.136 -1.04457 -2.03226 0
M  V30 4085 C 397.346 -3.43487 0.617895 0
M  V30 4086 C 398.694 -4.20564 0.584029 0
M  V30 4087 O 399.718 -3.5182 0.556888 0
M  V30 4088 O 398.577 -5.43138 0.605291 0
M  V30 4089 H 395.671 -0.82509 0.0561806 0
M  V30 4090 H 398.217 -1.47101 0.846128 0
M  V30 4091 H 396.989 -3.5453 1.65602 0
M  V30 4092 H 396.612 -3.976 -0.00403411 0
M  V30 4093 N 397.609 -0.515225 -1.4894 0
M  V30 4094 C 398.559 0.275113 -2.26334 0
M  V30 4095 C 399.543 0.923007 -1.31793 0
M  V30 4096 O 400.735 0.828254 -1.56426 0
M  V30 4097 C 397.864 1.33041 -3.16473 0
M  V30 4098 C 396.95 0.688051 -4.18481 0
M  V30 4099 N 397.341 -0.217638 -5.05332 0
M  V30 4100 C 395.639 0.94699 -4.3583 0
M  V30 4101 C 396.34 -0.58676 -5.78733 0
M  V30 4102 N 395.316 0.0486966 -5.43578 0
M  V30 4103 H 399.118 -0.421876 -2.90856 0
M  V30 4104 H 396.632 -0.332249 -1.58965 0
M  V30 4105 H 398.629 1.9102 -3.70563 0
M  V30 4106 H 397.289 2.02894 -2.53504 0
M  V30 4107 H 398.3 -0.589343 -5.14536 0
M  V30 4108 H 394.977 1.63719 -3.8406 0
M  V30 4109 H 396.367 -1.32855 -6.58634 0
M  V30 4110 N 399.087 1.5561 -0.249682 0
M  V30 4111 C 400.019 2.18834 0.681496 0
M  V30 4112 C 401.032 1.16546 1.1367 0
M  V30 4113 O 402.221 1.43397 1.06299 0
M  V30 4114 C 399.321 2.77992 1.9384 0
M  V30 4115 C 398.494 4.05725 1.63419 0
M  V30 4116 C 397.553 4.49174 2.74096 0
M  V30 4117 O 396.579 5.15492 2.41364 0
M  V30 4118 N 397.781 4.17191 4.03649 0
M  V30 4119 H 400.546 2.9937 0.140514 0
M  V30 4120 H 398.107 1.6175 -0.0697541 0
M  V30 4121 H 400.099 3.04015 2.67127 0
M  V30 4122 H 398.669 2.01596 2.38909 0
M  V30 4123 H 397.889 3.87261 0.736358 0
M  V30 4124 H 399.177 4.88999 1.40562 0
M  V30 4125 H 398.575 3.63955 4.33074 0
M  V30 4126 H 397.132 4.48043 4.73393 0
M  V30 4127 N 400.565 -0.0233959 1.57583 0
M  V30 4128 C 401.842 -0.748794 1.807 0
M  V30 4129 C 402.222 -1.9327 0.849106 0
M  V30 4130 O 401.57 -2.28247 -0.107468 0
M  V30 4131 C 401.78 -1.17651 3.28571 0
M  V30 4132 C 403.128 -1.59008 3.93702 0
M  V30 4133 O 404.152 -1.27094 3.32755 0
M  V30 4134 O 403.011 -2.18264 5.01022 0
M  V30 4135 H 400.105 -0.362578 0.743281 0
M  V30 4136 H 402.651 0.000261958 1.697 0
M  V30 4137 H 401.423 -0.331603 3.89892 0
M  V30 4138 H 401.046 -1.98541 3.44481 0
M  V30 4139 N 402.043 -1.548 -0.295768 0
M  V30 4140 C 402.991 -1.86874 -1.38495 0
M  V30 4141 C 403.985 -0.742938 -1.52239 0
M  V30 4142 O 405.191 -0.926999 -1.54294 0
M  V30 4143 H 401.566 -0.592786 -0.462719 0
M  V30 4144 H 403.537 -2.77904 -1.08682 0
M  V30 4145 C 402.286 -2.13732 -2.74252 0
M  V30 4146 H 401.609 -2.99835 -2.64459 0
M  V30 4147 H 403.049 -2.4011 -3.49461 0
M  V30 4148 C 401.508 -0.937539 -3.23592 0
M  V30 4149 O 402.038 -0.160665 -4.01379 0
M  V30 4150 N 400.244 -0.741478 -2.80981 0
M  V30 4151 H 399.791 -1.37489 -2.1784 0
M  V30 4152 H 399.749 0.0597103 -3.14343 0
M  V30 4153 N 403.521 0.559213 -1.47345 0
M  V30 4154 C 404.469 1.68747 -1.60085 0
M  V30 4155 C 405.463 1.628 -0.46825 0
M  V30 4156 O 406.669 1.68009 -0.645977 0
M  V30 4157 H 403.044 0.558329 -0.503759 0
M  V30 4158 H 405.015 1.55138 -2.54902 0
M  V30 4159 C 403.764 3.07103 -1.63042 0
M  V30 4160 H 403.087 3.12361 -2.49541 0
M  V30 4161 H 404.527 3.85743 -1.76006 0
M  V30 4162 C 402.986 3.34935 -0.363357 0
M  V30 4163 O 403.516 3.98102 0.536416 0
M  V30 4164 N 401.722 2.89574 -0.244 0
M  V30 4165 H 401.269 2.38348 -0.977133 0
M  V30 4166 H 401.227 3.08566 0.602836 0
M  V30 4167 N 404.999 1.35443 0.805782 0
M  V30 4168 C 406.41 1.25768 1.37983 0
M  V30 4169 C 406.761 -0.10958 1.95894 0
M  V30 4170 O 405.886 -1.01056 1.91355 0
M  V30 4171 C 406.481 2.27727 2.5085 0
M  V30 4172 C 405.04 2.2179 3.04115 0
M  V30 4173 C 404.187 2.13393 1.77084 0
M  V30 4174 H 407.138 1.4656 0.608752 0
M  V30 4175 H 407.159 1.90422 3.29424 0
M  V30 4176 H 406.671 3.27227 2.08671 0
M  V30 4177 H 404.772 1.25703 3.50756 0
M  V30 4178 H 404.885 3.13788 3.62042 0
M  V30 4179 H 403.249 1.59384 1.98668 0
M  V30 4180 H 404.032 3.14755 1.37056 0
M  V30 4181 N 406.477 -1.02803 1.19454 0
M  V30 4182 C 407.707 -1.79581 1.02149 0
M  V30 4183 C 408.115 -1.84182 -0.432851 0
M  V30 4184 O 407.458 -1.28534 -1.31243 0
M  V30 4185 C 407.52 -3.25993 1.51554 0
M  V30 4186 C 407.184 -3.45025 2.99678 0
M  V30 4187 C 408.181 -3.35175 3.97434 0
M  V30 4188 C 405.866 -3.71212 3.38389 0
M  V30 4189 C 407.86 -3.51238 5.31893 0
M  V30 4190 C 405.547 -3.8692 4.73008 0
M  V30 4191 C 406.545 -3.76936 5.69569 0
M  V30 4192 O 406.233 -3.92179 7.01748 0
M  V30 4193 H 405.965 -0.571962 0.360327 0
M  V30 4194 H 408.519 -1.30367 1.58725 0
M  V30 4195 H 406.749 -3.76235 0.893543 0
M  V30 4196 H 408.438 -3.84368 1.30444 0
M  V30 4197 H 409.204 -3.14895 3.68872 0
M  V30 4198 H 405.083 -3.78075 2.6378 0
M  V30 4199 H 408.627 -3.43362 6.07247 0
M  V30 4200 H 404.524 -4.06699 5.01265 0
M  V30 4201 H 405.292 -4.09265 7.08833 0
M  V30 4202 N 407.956 -0.998596 -1.21925 0
M  V30 4203 C 408.919 -0.558679 -2.22287 0
M  V30 4204 C 409.919 0.361525 -1.56683 0
M  V30 4205 O 411.109 0.152695 -1.73529 0
M  V30 4206 C 408.241 0.18661 -3.40389 0
M  V30 4207 H 409.434 -1.4463 -2.62721 0
M  V30 4208 H 406.987 -0.786413 -1.35075 0
M  V30 4209 H 407.722 1.08996 -3.05435 0
M  V30 4210 H 407.507 -0.474188 -3.89222 0
M  V30 4211 H 408.997 0.482367 -4.14805 0
M  V30 4212 N 409.434 1.37368 -0.772513 0
M  V30 4213 C 410.85 1.53059 -0.452231 0
M  V30 4214 C 411.05 1.73065 1.03203 0
M  V30 4215 O 410.106 1.75245 1.81784 0
M  V30 4216 C 411.419 2.72659 -1.26797 0
M  V30 4217 C 412.967 2.86521 -1.25995 0
M  V30 4218 C 413.442 4.09105 -2.05905 0
M  V30 4219 N 414.933 4.16219 -2.03263 0
M  V30 4220 C 415.668 5.10107 -2.61875 0
M  V30 4221 N 415.164 6.09547 -3.29278 0
M  V30 4222 N 416.957 5.02596 -2.51701 0
M  V30 4223 H 409.108 1.22634 -1.7342 0
M  V30 4224 H 411.371 0.597206 -0.736239 0
M  V30 4225 H 411.077 2.64343 -2.31982 0
M  V30 4226 H 410.951 3.66363 -0.897672 0
M  V30 4227 H 413.338 2.94308 -0.216081 0
M  V30 4228 H 413.419 1.93774 -1.66989 0
M  V30 4229 H 413.063 4.0208 -3.10313 0
M  V30 4230 H 412.993 5.00968 -1.62292 0
M  V30 4231 H 415.484 3.45012 -1.54192 0
M  V30 4232 H 415.797 6.77718 -3.71374 0
M  V30 4233 H 414.142 6.09824 -3.33377 0
M  V30 4234 H 417.333 4.23855 -1.98657 0
M  V30 4235 H 417.506 5.75582 -2.97673 0
M  V30 4236 N 410.912 0.523116 1.48665 0
M  V30 4237 C 412.159 -0.0134763 2.02496 0
M  V30 4238 C 412.487 -1.3493 1.40086 0
M  V30 4239 O 411.742 -1.88286 0.533567 0
M  V30 4240 C 412.041 -0.191671 3.56886 0
M  V30 4241 C 411.707 1.06893 4.38046 0
M  V30 4242 C 410.369 1.41443 4.59943 0
M  V30 4243 C 412.721 1.90584 4.85106 0
M  V30 4244 C 410.049 2.59594 5.26144 0
M  V30 4245 C 412.401 3.07907 5.52609 0
M  V30 4246 C 411.065 3.42811 5.72745 0
M  V30 4247 H 410.335 -0.00493133 0.740984 0
M  V30 4248 H 412.982 0.687751 1.78724 0
M  V30 4249 H 411.287 -0.97561 3.79459 0
M  V30 4250 H 412.984 -0.621659 3.96152 0
M  V30 4251 H 409.574 0.789848 4.21259 0
M  V30 4252 H 413.758 1.65203 4.67997 0
M  V30 4253 H 409.014 2.86847 5.39934 0
M  V30 4254 H 413.188 3.73066 5.88043 0
M  V30 4255 H 410.815 4.34462 6.23816 0
M  V30 4256 N 412.39 -1.55475 0.257931 0
M  V30 4257 C 413.618 -2.03609 -0.367559 0
M  V30 4258 C 414.033 -1.13687 -1.50734 0
M  V30 4259 O 413.39 -0.153479 -1.81853 0
M  V30 4260 C 413.441 -3.51001 -0.864908 0
M  V30 4261 O 413.162 -4.37499 0.229465 0
M  V30 4262 C 414.663 -4.14946 -1.55997 0
M  V30 4263 H 411.883 -0.665459 -0.0860521 0
M  V30 4264 H 414.427 -2.00843 0.385014 0
M  V30 4265 H 412.582 -3.54266 -1.56762 0
M  V30 4266 H 412.996 -5.24286 -0.14998 0
M  V30 4267 H 414.47 -5.19735 -1.85956 0
M  V30 4268 H 414.947 -3.6209 -2.4857 0
M  V30 4269 H 415.553 -4.15635 -0.901543 0
M  V30 4270 N 413.868 0.0150385 -1.57593 0
M  V30 4271 C 414.831 0.995996 -2.06428 0
M  V30 4272 C 415.831 1.2818 -0.970903 0
M  V30 4273 O 417.021 1.22949 -1.23406 0
M  V30 4274 C 414.153 2.32506 -2.49307 0
M  V30 4275 H 415.346 0.573873 -2.94358 0
M  V30 4276 H 412.899 0.262186 -1.54085 0
M  V30 4277 H 413.634 2.79438 -1.64575 0
M  V30 4278 H 413.419 2.13087 -3.29145 0
M  V30 4279 H 414.909 3.02906 -2.87468 0
M  V30 4280 N 415.346 1.54954 0.287554 0
M  V30 4281 C 416.574 1.78881 1.03967 0
M  V30 4282 C 416.989 0.554894 1.80462 0
M  V30 4283 O 416.346 -0.475676 1.76192 0
M  V30 4284 C 416.397 3.00488 2.0097 0
M  V30 4285 O 416.118 4.19113 1.27577 0
M  V30 4286 C 417.619 3.36907 2.88112 0
M  V30 4287 H 414.839 0.596259 0.307761 0
M  V30 4288 H 417.383 2.01937 0.322749 0
M  V30 4289 H 415.538 2.79601 2.68145 0
M  V30 4290 H 415.952 4.87765 1.92835 0
M  V30 4291 H 417.426 4.25205 3.52001 0
M  V30 4292 H 417.903 2.55659 3.57121 0
M  V30 4293 H 418.509 3.60001 2.26449 0
M  V30 4294 N 416.824 -0.551391 1.4764 0
M  V30 4295 C 418.049 -1.33837 1.58437 0
M  V30 4296 C 418.474 -1.866 0.237063 0
M  V30 4297 O 417.832 -1.6328 -0.787994 0
M  V30 4298 C 417.88 -2.48014 2.61766 0
M  V30 4299 O 416.984 -3.50419 2.1744 0
M  V30 4300 H 416.325 -0.397299 0.532024 0
M  V30 4301 H 418.855 -0.665759 1.93465 0
M  V30 4302 H 418.865 -2.94503 2.82369 0
M  V30 4303 H 417.54 -2.08969 3.5959 0
M  V30 4304 H 416.117 -3.10196 2.06961 0
M  V30 4305 N 418.302 -1.35869 -0.798587 0
M  V30 4306 C 419.527 -1.32883 -1.59238 0
M  V30 4307 C 419.952 0.0894587 -1.87887 0
M  V30 4308 O 419.31 1.05869 -1.47178 0
M  V30 4309 C 419.358 -2.14892 -2.89575 0
M  V30 4310 O 418.462 -1.53512 -3.82763 0
M  V30 4311 H 417.803 -0.455236 -0.48338 0
M  V30 4312 H 420.333 -1.79024 -0.990539 0
M  V30 4313 H 420.343 -2.27139 -3.38928 0
M  V30 4314 H 419.018 -3.17998 -2.68049 0
M  V30 4315 H 417.595 -1.50153 -3.41334 0
M  V30 4316 N 419.78 1.02168 -1.19998 0
M  V30 4317 C 420.71 2.12488 -0.96804 0
M  V30 4318 C 421.691 1.69799 0.101185 0
M  V30 4319 O 422.876 1.94121 -0.0552993 0
M  V30 4320 C 420.006 3.43479 -0.513776 0
M  V30 4321 C 418.96 3.99884 -1.52566 0
M  V30 4322 C 418.286 5.26582 -0.928214 0
M  V30 4323 C 419.586 4.33861 -2.90795 0
M  V30 4324 H 421.28 2.32149 -1.89069 0
M  V30 4325 H 418.826 1.11564 -0.910468 0
M  V30 4326 H 420.779 4.20036 -0.338774 0
M  V30 4327 H 419.503 3.23561 0.444493 0
M  V30 4328 H 418.162 3.25429 -1.68794 0
M  V30 4329 H 417.81 5.02986 0.0378289 0
M  V30 4330 H 417.51 5.65284 -1.60397 0
M  V30 4331 H 419.034 6.05799 -0.764167 0
M  V30 4332 H 420.448 5.01327 -2.78109 0
M  V30 4333 H 418.845 4.83664 -3.55231 0
M  V30 4334 H 419.915 3.42848 -3.42904 0
M  V30 4335 N 421.258 1.00505 1.21394 0
M  V30 4336 C 422.191 0.51032 2.22421 0
M  V30 4337 C 423.169 -0.436 1.56645 0
M  V30 4338 O 424.353 -0.358709 1.85055 0
M  V30 4339 C 421.48 -0.258733 3.3771 0
M  V30 4340 C 420.526 0.635395 4.2174 0
M  V30 4341 S 421.359 2.09783 4.92698 0
M  V30 4342 C 422.515 1.33862 6.11418 0
M  V30 4343 H 422.748 1.36637 2.64041 0
M  V30 4344 H 420.281 0.812991 1.31262 0
M  V30 4345 H 422.239 -0.696372 4.0455 0
M  V30 4346 H 420.9 -1.0902 2.94573 0
M  V30 4347 H 420.093 0.0430189 5.03982 0
M  V30 4348 H 419.695 1.01031 3.60095 0
M  V30 4349 H 421.987 0.612541 6.74725 0
M  V30 4350 H 422.93 2.13675 6.75092 0
M  V30 4351 H 423.338 0.846568 5.58116 0
M  V30 4352 N 422.737 -1.36956 0.779787 0
M  V30 4353 C 424.014 -1.93697 0.272156 0
M  V30 4354 C 424.394 -1.71267 -1.23413 0
M  V30 4355 O 423.742 -1.06607 -2.02107 0
M  V30 4356 C 423.952 -3.42812 0.654291 0
M  V30 4357 C 425.3 -4.19921 0.628602 0
M  V30 4358 O 426.324 -3.51209 0.594172 0
M  V30 4359 O 425.183 -5.42465 0.662864 0
M  V30 4360 H 422.277 -0.824447 0.0649286 0
M  V30 4361 H 424.823 -1.46196 0.861682 0
M  V30 4362 H 423.595 -3.52754 1.69353 0
M  V30 4363 H 423.218 -3.97582 0.0381369 0
M  V30 4364 N 424.215 -0.530993 -1.48385 0
M  V30 4365 C 425.445 -0.00133928 -2.066 0
M  V30 4366 C 425.853 1.28599 -1.38777 0
M  V30 4367 O 425.196 1.77599 -0.469495 0
M  V30 4368 C 425.258 0.292137 -3.58311 0
M  V30 4369 C 424.922 -0.901864 -4.48013 0
M  V30 4370 C 425.919 -1.80053 -4.87726 0
M  V30 4371 C 423.604 -1.10915 -4.89901 0
M  V30 4372 C 425.598 -2.89038 -5.68098 0
M  V30 4373 C 423.285 -2.20213 -5.70043 0
M  V30 4374 C 424.283 -3.09107 -6.0905 0
M  V30 4375 O 423.971 -4.16514 -6.87583 0
M  V30 4376 H 423.703 -0.0308475 -0.675296 0
M  V30 4377 H 426.257 -0.736335 -1.91748 0
M  V30 4378 H 424.487 1.08112 -3.7128 0
M  V30 4379 H 426.176 0.763994 -3.98645 0
M  V30 4380 H 426.942 -1.65234 -4.55986 0
M  V30 4381 H 422.821 -0.426498 -4.59023 0
M  V30 4382 H 426.365 -3.58451 -5.98464 0
M  V30 4383 H 422.262 -2.35016 -6.01197 0
M  V30 4384 H 423.03 -4.14237 -7.05939 0
M  V30 4385 N 425.693 1.55336 -0.266172 0
M  V30 4386 C 426.942 1.98574 0.353749 0
M  V30 4387 C 427.255 1.15789 1.57646 0
M  V30 4388 O 428.461 1.49129 2.26876 0
M  V30 4389 C 426.917 3.53403 0.680747 0
M  V30 4390 C 426.525 4.44953 -0.52165 0
M  V30 4391 C 428.269 4.05251 1.26379 0
M  V30 4392 C 426.176 5.91156 -0.169736 0
M  V30 4393 H 425.106 0.741643 0.135949 0
M  V30 4394 H 427.757 1.79743 -0.369421 0
M  V30 4395 H 426.139 3.68001 1.46257 0
M  V30 4396 H 427.313 4.42121 -1.29869 0
M  V30 4397 H 425.628 4.03691 -1.02093 0
M  V30 4398 H 428.225 5.12021 1.54074 0
M  V30 4399 H 428.568 3.53749 2.19471 0
M  V30 4400 H 429.101 3.94057 0.544447 0
M  V30 4401 H 425.84 6.46736 -1.0683 0
M  V30 4402 H 425.36 5.97079 0.570717 0
M  V30 4403 H 427.039 6.4655 0.241245 0
M  V30 4404 N 427.171 -0.0066808 1.57599 0
M  V30 4405 C 428.396 -0.707738 1.94951 0
M  V30 4406 C 428.821 -1.66882 0.867868 0
M  V30 4407 O 428.179 -1.80457 -0.17458 0
M  V30 4408 C 428.227 -1.42162 3.31394 0
M  V30 4409 O 427.331 -2.53578 3.25226 0
M  V30 4410 H 426.672 -0.188752 0.636607 0
M  V30 4411 H 429.202 0.0445193 2.04552 0
M  V30 4412 H 429.212 -1.78655 3.66806 0
M  V30 4413 H 427.887 -0.716903 4.09675 0
M  V30 4414 H 426.464 -2.19463 3.01481 0
M  V30 4415 N 428.649 -1.55105 -0.279332 0
M  V30 4416 C 429.874 -1.7976 -1.03446 0
M  V30 4417 C 430.299 -0.565952 -1.79384 0
M  V30 4418 O 429.657 0.484259 -1.74713 0
M  V30 4419 C 429.705 -3.0179 -1.97371 0
M  V30 4420 O 428.809 -2.76432 -3.06038 0
M  V30 4421 H 428.15 -0.594334 -0.29608 0
M  V30 4422 H 430.68 -2.02235 -0.310165 0
M  V30 4423 H 430.69 -3.30351 -2.39441 0
M  V30 4424 H 429.365 -3.91085 -1.4151 0
M  V30 4425 H 427.942 -2.58949 -2.68328 0
M  V30 4426 N 430.127 0.543554 -1.4793 0
M  V30 4427 C 431.355 1.32516 -1.58894 0
M  V30 4428 C 431.77 1.87215 -0.244131 0
M  V30 4429 O 431.127 1.65709 0.764652 0
M  V30 4430 C 431.178 2.48554 -2.62494 0
M  V30 4431 O 430.899 1.96112 -3.91755 0
M  V30 4432 C 432.4 3.40572 -2.8377 0
M  V30 4433 H 429.62 0.403472 -0.536145 0
M  V30 4434 H 432.164 0.657106 -1.93655 0
M  V30 4435 H 430.319 3.1127 -2.30629 0
M  V30 4436 H 430.733 2.71967 -4.4848 0
M  V30 4437 H 432.207 4.18375 -3.60093 0
M  V30 4438 H 432.684 3.94965 -1.92092 0
M  V30 4439 H 433.29 2.8366 -3.16887 0
M  V30 4440 N 431.605 1.3629 0.791371 0
M  V30 4441 C 432.852 1.30412 1.54916 0
M  V30 4442 C 433.18 -0.117162 1.94147 0
M  V30 4443 O 432.435 -1.08599 1.62803 0
M  V30 4444 C 432.734 2.17068 2.8393 0
M  V30 4445 C 432.4 3.65645 2.63846 0
M  V30 4446 C 431.062 4.0614 2.58077 0
M  V30 4447 C 433.414 4.59855 2.45322 0
M  V30 4448 C 430.742 5.3899 2.31748 0
M  V30 4449 C 433.094 5.9292 2.2052 0
M  V30 4450 C 431.758 6.32542 2.13183 0
M  V30 4451 H 431.028 0.47721 0.566879 0
M  V30 4452 H 433.675 1.68325 0.913172 0
M  V30 4453 H 431.98 1.72085 3.51986 0
M  V30 4454 H 433.677 2.09846 3.4171 0
M  V30 4455 H 430.267 3.33518 2.69191 0
M  V30 4456 H 434.451 4.29443 2.48782 0
M  V30 4457 H 429.707 5.68672 2.24548 0
M  V30 4458 H 433.881 6.65487 2.05182 0
M  V30 4459 H 431.508 7.35412 1.92544 0
M  V30 4460 N 433.083 -1.0153 1.20538 0
M  V30 4461 C 434.311 -1.78746 1.04199 0
M  V30 4462 C 434.726 -1.84323 -0.408733 0
M  V30 4463 O 434.083 -1.29714 -1.28377 0
M  V30 4464 C 434.134 -3.23152 1.62035 0
M  V30 4465 O 433.855 -3.17918 3.0143 0
M  V30 4466 C 435.356 -4.16911 1.50666 0
M  V30 4467 H 432.576 -0.56208 0.366479 0
M  V30 4468 H 435.12 -1.27794 1.59653 0
M  V30 4469 H 433.275 -3.71248 1.10697 0
M  V30 4470 H 433.689 -4.08567 3.28897 0
M  V30 4471 H 435.163 -5.16072 1.95892 0
M  V30 4472 H 435.64 -4.36791 0.459363 0
M  V30 4473 H 436.246 -3.74698 2.01201 0
M  V30 4474 N 434.561 -1.01147 -1.20859 0
M  V30 4475 C 435.491 -0.597663 -2.25722 0
M  V30 4476 C 436.472 0.384744 -1.65692 0
M  V30 4477 O 437.657 0.271303 -1.92296 0
M  V30 4478 C 434.787 0.0700149 -3.47229 0
M  V30 4479 C 433.741 -0.832843 -4.19819 0
M  V30 4480 C 433.067 -0.0312202 -5.34691 0
M  V30 4481 C 434.367 -2.1385 -4.76514 0
M  V30 4482 H 436.061 -1.47423 -2.60589 0
M  V30 4483 H 433.607 -0.710301 -1.25263 0
M  V30 4484 H 435.56 0.37103 -4.19763 0
M  V30 4485 H 434.284 0.981259 -3.11511 0
M  V30 4486 H 432.943 -1.11778 -3.49144 0
M  V30 4487 H 432.591 0.881515 -4.95215 0
M  V30 4488 H 432.291 -0.632434 -5.84187 0
M  V30 4489 H 433.815 0.26346 -6.10031 0
M  V30 4490 H 435.229 -1.9002 -5.40893 0
M  V30 4491 H 433.626 -2.69012 -5.36426 0
M  V30 4492 H 434.696 -2.80495 -3.95538 0
M  V30 4493 N 436.039 1.36541 -0.78704 0
M  V30 4494 C 437.455 1.52571 -0.46844 0
M  V30 4495 C 437.655 1.7415 1.01361 0
M  V30 4496 O 436.711 1.77163 1.79915 0
M  V30 4497 C 438.024 2.71299 -1.29682 0
M  V30 4498 C 439.572 2.85169 -1.29027 0
M  V30 4499 C 440.047 4.06898 -2.10233 0
M  V30 4500 N 441.538 4.1404 -2.07666 0
M  V30 4501 C 442.273 5.07301 -2.67271 0
M  V30 4502 N 441.769 6.06021 -3.35724 0
M  V30 4503 N 443.562 4.99898 -2.57018 0
M  V30 4504 H 435.713 1.20788 -1.74711 0
M  V30 4505 H 437.976 0.589364 -0.742532 0
M  V30 4506 H 437.682 2.61868 -2.34773 0
M  V30 4507 H 437.556 3.6539 -0.936479 0
M  V30 4508 H 439.943 2.94062 -0.247284 0
M  V30 4509 H 440.024 1.91992 -1.69035 0
M  V30 4510 H 439.668 3.98766 -3.1456 0
M  V30 4511 H 439.598 4.99218 -1.67597 0
M  V30 4512 H 442.089 3.43357 -1.57843 0
M  V30 4513 H 442.402 6.73741 -3.78541 0
M  V30 4514 H 440.747 6.06253 -3.39826 0
M  V30 4515 H 443.938 4.21724 -2.03142 0
M  V30 4516 H 444.111 5.72392 -3.03761 0
M  V30 4517 N 437.518 0.538854 1.48102 0
M  V30 4518 C 438.465 -0.219042 2.29758 0
M  V30 4519 C 439.435 -0.925562 1.37922 0
M  V30 4520 O 440.62 -0.924855 1.66886 0
M  V30 4521 C 437.76 -1.25452 3.2149 0
M  V30 4522 C 436.873 -0.555943 4.28408 0
M  V30 4523 C 436.008 -1.57512 5.0731 0
M  V30 4524 C 435.047 -0.860498 6.06021 0
M  V30 4525 N 434.184 -1.82564 6.77949 0
M  V30 4526 H 439.024 0.483449 2.94052 0
M  V30 4527 H 436.561 0.250247 1.44956 0
M  V30 4528 H 438.519 -1.86727 3.7308 0
M  V30 4529 H 437.149 -1.92528 2.591 0
M  V30 4530 H 436.201 0.170938 3.80016 0
M  V30 4531 H 437.513 0.00474616 4.988 0
M  V30 4532 H 436.667 -2.26191 5.62959 0
M  V30 4533 H 435.406 -2.16972 4.36778 0
M  V30 4534 H 434.411 -0.159686 5.49568 0
M  V30 4535 H 435.636 -0.271897 6.78555 0
M  V30 4536 H 433.582 -2.40915 6.10161 0
M  V30 4537 H 433.499 -1.31662 7.44447 0
M  V30 4538 H 434.767 -2.50414 7.38182 0
M  V30 4539 N 438.996 -1.55193 0.274407 0
M  V30 4540 C 440.245 -1.98758 -0.343213 0
M  V30 4541 C 440.558 -1.16624 -1.5703 0
M  V30 4542 O 441.764 -1.5033 -2.26082 0
M  V30 4543 C 440.22 -3.53759 -0.661996 0
M  V30 4544 C 439.828 -4.4467 0.54524 0
M  V30 4545 C 441.572 -4.05916 -1.24228 0
M  V30 4546 C 439.479 -5.91058 0.201084 0
M  V30 4547 H 438.409 -0.742353 -0.132014 0
M  V30 4548 H 441.06 -1.79545 0.378948 0
M  V30 4549 H 439.442 -3.68772 -1.44304 0
M  V30 4550 H 440.616 -4.41426 1.32212 0
M  V30 4551 H 438.931 -4.03143 1.04232 0
M  V30 4552 H 441.528 -5.12831 -1.51357 0
M  V30 4553 H 441.871 -3.54908 -2.17592 0
M  V30 4554 H 442.404 -3.9434 -0.523542 0
M  V30 4555 H 439.143 -6.46161 1.10258 0
M  V30 4556 H 438.663 -5.97373 -0.539045 0
M  V30 4557 H 440.342 -6.46669 -0.206954 0
M  V30 4558 N 440.474 -0.00167713 -1.576 0
M  V30 4559 C 441.72 0.683832 -1.90923 0
M  V30 4560 C 442.053 1.7333 -0.875799 0
M  V30 4561 O 441.328 1.94215 0.10525 0
M  V30 4562 C 441.611 1.32543 -3.3482 0
M  V30 4563 C 441.464 0.287387 -4.48881 0
M  V30 4564 C 442.783 2.25114 -3.78169 0
M  V30 4565 H 439.902 0.247125 -0.694333 0
M  V30 4566 H 442.544 -0.0533149 -1.89925 0
M  V30 4567 H 440.694 1.95372 -3.35801 0
M  V30 4568 H 442.366 -0.341346 -4.60035 0
M  V30 4569 H 440.609 -0.39017 -4.32042 0
M  V30 4570 H 441.28 0.775393 -5.46527 0
M  V30 4571 H 443.756 1.723 -3.7875 0
M  V30 4572 H 442.632 2.66971 -4.79602 0
M  V30 4573 H 442.893 3.13092 -3.12131 0
M  V30 4574 N 441.952 1.55251 0.271103 0
M  V30 4575 C 442.884 1.84675 1.35749 0
M  V30 4576 C 443.897 0.731366 1.45447 0
M  V30 4577 O 445.086 1.00924 1.4723 0
M  V30 4578 C 442.186 1.99638 2.73857 0
M  V30 4579 C 441.359 3.30312 2.86727 0
M  V30 4580 C 440.418 3.35318 4.05522 0
M  V30 4581 O 439.444 4.08682 3.96191 0
M  V30 4582 N 440.646 2.62857 5.17577 0
M  V30 4583 H 443.411 2.78445 1.10853 0
M  V30 4584 H 440.972 1.55191 0.461218 0
M  V30 4585 H 442.964 2.00355 3.51625 0
M  V30 4586 H 441.534 1.12725 2.91568 0
M  V30 4587 H 440.754 3.42118 1.95829 0
M  V30 4588 H 442.042 4.16488 2.92258 0
M  V30 4589 H 441.44 2.02939 5.28046 0
M  V30 4590 H 439.997 2.69295 5.93568 0
M  V30 4591 N 443.43 -0.535701 1.48216 0
M  V30 4592 C 444.362 -1.65662 1.58394 0
M  V30 4593 C 445.375 -1.5591 0.468607 0
M  V30 4594 O 446.564 -1.62475 0.7392 0
M  V30 4595 C 443.664 -3.04276 1.4923 0
M  V30 4596 C 442.837 -3.39567 2.75705 0
M  V30 4597 C 441.896 -4.57436 2.60075 0
M  V30 4598 O 440.922 -4.60942 3.33948 0
M  V30 4599 N 442.124 -5.55259 1.69315 0
M  V30 4600 H 444.889 -1.5737 2.55058 0
M  V30 4601 H 442.45 -0.722845 1.44867 0
M  V30 4602 H 444.442 -3.80994 1.36477 0
M  V30 4603 H 443.012 -3.06677 0.605632 0
M  V30 4604 H 442.232 -2.52083 3.03064 0
M  V30 4605 H 443.52 -3.59929 3.59623 0
M  V30 4606 H 442.918 -5.552 1.08489 0
M  V30 4607 H 441.475 -6.31218 1.62504 0
M  V30 4608 N 444.908 -1.36708 -0.784132 0
M  V30 4609 C 446.156 -1.30972 -1.53918 0
M  V30 4610 C 446.477 0.109086 -1.94695 0
M  V30 4611 O 445.747 1.05048 -1.65353 0
M  V30 4612 H 444.327 -0.481819 -0.570841 0
M  V30 4613 H 446.989 -1.71063 -0.934002 0
M  V30 4614 H 446.085 -1.94061 -2.44431 0
M  V30 4615 N 446.386 1.0089 -1.21074 0
M  V30 4616 C 447.663 1.71834 -0.934469 0
M  V30 4617 C 448.043 2.0368 0.554753 0
M  V30 4618 O 447.391 1.70742 1.51854 0
M  V30 4619 C 447.601 2.98061 -1.8155 0
M  V30 4620 C 448.949 3.7117 -2.06199 0
M  V30 4621 O 449.973 3.08034 -1.78867 0
M  V30 4622 O 448.832 4.84721 -2.52404 0
M  V30 4623 H 445.926 0.749253 -0.35007 0
M  V30 4624 H 448.472 1.06668 -1.31985 0
M  V30 4625 H 447.244 2.70908 -2.82355 0
M  V30 4626 H 446.867 3.70968 -1.43068 0
M  V30 4627 N 447.864 1.01787 1.20321 0
M  V30 4628 C 448.827 0.593972 2.2137 0
M  V30 4629 C 449.827 -0.336553 1.57239 0
M  V30 4630 O 451.017 -0.125069 1.7375 0
M  V30 4631 C 448.149 -0.132433 3.40643 0
M  V30 4632 H 449.342 1.48791 2.60387 0
M  V30 4633 H 446.895 0.807803 1.33807 0
M  V30 4634 H 447.63 -1.04123 3.0713 0
M  V30 4635 H 447.415 0.53605 3.88418 0
M  V30 4636 H 448.905 -0.416314 4.1552 0
M  V30 4637 N 449.342 -1.36122 0.79427 0
M  V30 4638 C 450.572 -2.03067 0.380437 0
M  V30 4639 C 450.98 -1.60018 -1.00949 0
M  V30 4640 O 450.323 -0.787425 -1.65968 0
M  V30 4641 C 450.385 -3.57587 0.37034 0
M  V30 4642 C 450.049 -4.23855 1.70867 0
M  V30 4643 C 451.046 -4.46404 2.66496 0
M  V30 4644 C 448.731 -4.61229 1.9893 0
M  V30 4645 C 450.725 -5.05412 3.88378 0
M  V30 4646 C 448.412 -5.19953 3.21079 0
M  V30 4647 C 449.41 -5.41985 4.15621 0
M  V30 4648 O 449.098 -5.99475 5.35616 0
M  V30 4649 H 448.83 -0.658168 0.154243 0
M  V30 4650 H 451.384 -1.7498 1.0757 0
M  V30 4651 H 449.614 -3.84814 -0.381444 0
M  V30 4652 H 451.303 -4.05895 -0.0194894 0
M  V30 4653 H 452.069 -4.17921 2.46103 0
M  V30 4654 H 447.948 -4.43402 1.26158 0
M  V30 4655 H 451.492 -5.22524 4.62185 0
M  V30 4656 H 447.389 -5.47862 3.41347 0
M  V30 4657 H 448.157 -6.17937 5.36745 0
M  V30 4658 N 450.82 -0.546701 -1.47814 0
M  V30 4659 C 451.752 0.244196 -2.27895 0
M  V30 4660 C 452.765 0.88911 -1.36377 0
M  V30 4661 O 453.954 0.764733 -1.61289 0
M  V30 4662 C 451.054 1.36252 -3.10304 0
M  V30 4663 C 450.227 0.816382 -4.29714 0
M  V30 4664 C 449.286 1.81789 -4.93801 0
M  V30 4665 O 448.312 1.36818 -5.52512 0
M  V30 4666 N 449.514 3.15085 -4.87547 0
M  V30 4667 H 452.279 -0.442694 -2.96412 0
M  V30 4668 H 449.84 -0.382095 -1.57327 0
M  V30 4669 H 451.832 2.03102 -3.50045 0
M  V30 4670 H 450.402 1.95281 -2.44099 0
M  V30 4671 H 449.622 -0.0285981 -3.9419 0
M  V30 4672 H 450.91 0.430668 -5.06974 0
M  V30 4673 H 450.308 3.54275 -4.41028 0
M  V30 4674 H 448.865 3.77522 -5.31339 0
M  V30 4675 N 452.299 1.55045 -0.282633 0
M  V30 4676 C 453.576 1.9179 0.384166 0
M  V30 4677 C 453.956 1.20778 1.73136 0
M  V30 4678 O 453.304 0.33719 2.25998 0
M  V30 4679 C 453.514 3.45149 0.517014 0
M  V30 4680 C 454.862 4.17064 0.796427 0
M  V30 4681 O 455.886 3.51084 0.601535 0
M  V30 4682 O 454.745 5.33837 1.16962 0
M  V30 4683 H 451.839 0.799483 0.211558 0
M  V30 4684 H 454.385 1.66474 -0.32934 0
M  V30 4685 H 453.157 3.88922 -0.430772 0
M  V30 4686 H 452.78 3.76443 1.2797 0
M  V30 4687 N 453.777 0.010035 1.57597 0
M  V30 4688 C 455.002 -0.687021 1.95691 0
M  V30 4689 C 455.427 -1.65952 0.885519 0
M  V30 4690 O 454.785 -1.80633 -0.15543 0
M  V30 4691 C 454.833 -1.3864 3.32884 0
M  V30 4692 O 453.937 -2.50115 3.27897 0
M  V30 4693 H 453.278 -0.181989 0.638573 0
M  V30 4694 H 455.808 0.0662122 2.04493 0
M  V30 4695 H 455.818 -1.74754 3.6868 0
M  V30 4696 H 454.493 -0.673411 4.10412 0
M  V30 4697 H 453.07 -2.16253 3.03791 0
M  V30 4698 N 455.255 -1.55392 -0.262866 0
M  V30 4699 C 456.202 -1.88966 -1.32516 0
M  V30 4700 C 457.172 -0.742187 -1.48596 0
M  V30 4701 O 458.357 -0.99439 -1.62839 0
M  V30 4702 C 455.497 -2.17592 -2.67858 0
M  V30 4703 C 454.61 -3.45061 -2.59917 0
M  V30 4704 C 453.745 -3.63336 -3.87505 0
M  V30 4705 C 452.784 -4.84462 -3.74116 0
M  V30 4706 N 451.921 -4.99342 -4.93561 0
M  V30 4707 H 456.761 -2.79566 -1.03184 0
M  V30 4708 H 454.298 -1.38404 -0.498285 0
M  V30 4709 H 456.256 -2.3219 -3.46617 0
M  V30 4710 H 454.886 -1.30215 -2.95371 0
M  V30 4711 H 453.938 -3.38881 -1.72812 0
M  V30 4712 H 455.25 -4.3396 -2.45926 0
M  V30 4713 H 454.404 -3.77807 -4.74707 0
M  V30 4714 H 453.143 -2.72641 -4.04374 0
M  V30 4715 H 452.148 -4.69985 -2.85297 0
M  V30 4716 H 453.373 -5.76603 -3.58757 0
M  V30 4717 H 451.319 -4.1158 -5.10821 0
M  V30 4718 H 451.236 -5.82303 -4.82141 0
M  V30 4719 H 452.504 -5.18208 -5.82306 0
M  V30 4720 N 456.733 0.527833 -1.48498 0
M  V30 4721 C 457.961 1.30823 -1.6029 0
M  V30 4722 C 458.376 1.86945 -0.263974 0
M  V30 4723 O 457.733 1.6651 0.747034 0
M  V30 4724 C 457.784 2.45756 -2.65116 0
M  V30 4725 O 457.505 1.91946 -3.93813 0
M  V30 4726 C 459.006 3.37543 -2.87367 0
M  V30 4727 H 456.226 0.397763 -0.540394 0
M  V30 4728 H 458.77 0.636529 -1.94341 0
M  V30 4729 H 456.925 3.08806 -2.33917 0
M  V30 4730 H 457.339 2.67195 -4.51339 0
M  V30 4731 H 458.813 4.14532 -3.6451 0
M  V30 4732 H 459.29 3.92905 -1.9627 0
M  V30 4733 H 459.896 2.80283 -3.19878 0
M  V30 4734 N 458.211 1.37122 0.776871 0
M  V30 4735 C 459.622 1.28667 1.35284 0
M  V30 4736 C 459.973 -0.0680035 1.96082 0
M  V30 4737 O 459.098 -0.969743 1.93455 0
M  V30 4738 C 459.693 2.32997 2.45963 0
M  V30 4739 C 458.252 2.28191 2.99342 0
M  V30 4740 C 457.399 2.17101 1.72517 0
M  V30 4741 H 460.35 1.47819 0.577527 0
M  V30 4742 H 460.371 1.97366 3.2531 0
M  V30 4743 H 459.883 3.3158 2.01684 0
M  V30 4744 H 457.984 1.33115 3.4801 0
M  V30 4745 H 458.097 3.21397 3.55304 0
M  V30 4746 H 456.461 1.63562 1.95242 0
M  V30 4747 H 457.244 3.17591 1.30348 0
M  V30 4748 N 459.689 -1.00246 1.21608 0
M  V30 4749 C 460.935 -1.74319 1.03638 0
M  V30 4750 C 461.268 -1.89408 -0.428749 0
M  V30 4751 O 460.543 -1.43026 -1.3181 0
M  V30 4752 C 460.826 -3.15431 1.73711 0
M  V30 4753 C 460.679 -3.08049 3.27759 0
M  V30 4754 C 461.998 -4.14407 1.48173 0
M  V30 4755 H 459.117 -0.632741 0.377899 0
M  V30 4756 H 461.759 -1.16853 1.49818 0
M  V30 4757 H 459.909 -3.64493 1.34452 0
M  V30 4758 H 461.581 -2.66681 3.76403 0
M  V30 4759 H 459.824 -2.45088 3.57931 0
M  V30 4760 H 460.495 -4.07862 3.71958 0
M  V30 4761 H 462.971 -3.74061 1.82258 0
M  V30 4762 H 461.847 -5.11279 1.99713 0
M  V30 4763 H 462.108 -4.40174 0.412273 0
M  V30 4764 N 461.167 -1.02423 -1.1978 0
M  V30 4765 C 462.099 -0.559152 -2.22275 0
M  V30 4766 C 463.112 0.36251 -1.58713 0
M  V30 4767 O 464.301 0.159641 -1.77785 0
M  V30 4768 C 461.401 0.205094 -3.38279 0
M  V30 4769 C 460.574 -0.720361 -4.31427 0
M  V30 4770 C 459.633 -0.00234368 -5.262 0
M  V30 4771 O 458.659 -0.627378 -5.65732 0
M  V30 4772 N 459.861 1.26996 -5.66438 0
M  V30 4773 H 462.626 -1.44064 -2.62804 0
M  V30 4774 H 460.187 -0.902692 -1.34399 0
M  V30 4775 H 462.179 0.694868 -3.9869 0
M  V30 4776 H 460.749 0.987947 -2.96578 0
M  V30 4777 H 459.969 -1.39031 -3.68869 0
M  V30 4778 H 461.257 -1.3495 -4.90577 0
M  V30 4779 H 460.655 1.79858 -5.36347 0
M  V30 4780 H 459.212 1.70432 -6.29123 0
M  V30 4781 N 462.645 1.35699 -0.801477 0
M  V30 4782 C 463.922 1.9324 -0.302937 0
M  V30 4783 C 464.302 1.73209 1.20672 0
M  V30 4784 O 463.65 1.09809 2.00385 0
M  V30 4785 C 463.86 3.41728 -0.708747 0
M  V30 4786 C 465.208 4.18868 -0.695328 0
M  V30 4787 O 466.232 3.5022 -0.649971 0
M  V30 4788 O 465.091 5.41342 -0.749081 0
M  V30 4789 H 462.185 0.82331 -0.0780367 0
M  V30 4790 H 464.731 1.44806 -0.884832 0
M  V30 4791 H 463.503 3.50015 -1.74944 0
M  V30 4792 H 463.126 3.97471 -0.101384 0
M  V30 4793 N 464.123 0.554532 1.47522 0
M  V30 4794 C 465.371 0.0294208 2.02079 0
M  V30 4795 C 465.692 -1.32411 1.43151 0
M  V30 4796 O 464.962 -1.863 0.605728 0
M  V30 4797 H 463.542 0.00788672 0.746958 0
M  V30 4798 H 466.204 0.723934 1.80956 0
M  V30 4799 H 465.3 -0.0606745 3.12041 0
M  V30 4800 N 465.601 -1.54893 0.290851 0
M  V30 4801 C 466.548 -2.23138 -0.58974 0
M  V30 4802 C 467.518 -1.21036 -1.13752 0
M  V30 4803 O 468.703 -1.49626 -1.18392 0
M  V30 4804 C 465.843 -2.96811 -1.76061 0
M  V30 4805 C 464.956 -4.13665 -1.24519 0
M  V30 4806 C 464.091 -4.74944 -2.3791 0
M  V30 4807 C 463.13 -5.83963 -1.83451 0
M  V30 4808 N 462.267 -6.39239 -2.90376 0
M  V30 4809 H 467.107 -2.98 -0.00114915 0
M  V30 4810 H 464.644 -1.47096 0.0112006 0
M  V30 4811 H 466.602 -3.37751 -2.44909 0
M  V30 4812 H 465.232 -2.24344 -2.32098 0
M  V30 4813 H 464.284 -3.77737 -0.449288 0
M  V30 4814 H 465.596 -4.92238 -0.806424 0
M  V30 4815 H 464.75 -5.18684 -3.14724 0
M  V30 4816 H 463.489 -3.95682 -2.85109 0
M  V30 4817 H 462.494 -5.39657 -1.05122 0
M  V30 4818 H 463.719 -6.65103 -1.37169 0
M  V30 4819 H 461.665 -5.62864 -3.36927 0
M  V30 4820 H 461.582 -7.13129 -2.50965 0
M  V30 4821 H 462.85 -6.87637 -3.67118 0
M  V30 4822 N 467.08 -0.0183926 -1.57589 0
M  V30 4823 C 467.99 0.982943 -2.13015 0
M  V30 4824 C 469.006 1.36443 -1.07979 0
M  V30 4825 O 470.182 1.44802 -1.3998 0
M  V30 4826 C 467.247 2.25024 -2.63752 0
M  V30 4827 C 466.308 1.93018 -3.83461 0
M  V30 4828 C 465.541 3.13706 -4.31769 0
M  V30 4829 O 465.764 4.2601 -3.79305 0
M  V30 4830 O 464.698 2.96629 -5.23732 0
M  V30 4831 H 468.524 0.541709 -2.9883 0
M  V30 4832 H 466.109 0.201565 -1.48034 0
M  V30 4833 H 467.991 2.99441 -2.96502 0
M  V30 4834 H 466.666 2.68349 -1.81026 0
M  V30 4835 H 465.573 1.16019 -3.55655 0
M  V30 4836 H 466.906 1.54516 -4.67317 0
M  V30 4837 N 468.558 1.5553 0.254621 0
M  V30 4838 C 469.835 1.6774 1.00611 0
M  V30 4839 C 470.215 0.555993 2.03647 0
M  V30 4840 O 469.563 -0.441583 2.24193 0
M  V30 4841 C 469.773 3.07725 1.6464 0
M  V30 4842 C 471.121 3.66074 2.15116 0
M  V30 4843 O 472.145 3.10476 1.74595 0
M  V30 4844 O 471.004 4.63526 2.89493 0
M  V30 4845 H 468.098 0.681958 0.467828 0
M  V30 4846 H 470.644 1.67863 0.24902 0
M  V30 4847 H 469.416 3.80792 0.900734 0
M  V30 4848 H 469.039 3.1158 2.46989 0
M  V30 4849 N 470.036 -0.519951 1.48776 0
M  V30 4850 C 471.264 -1.29971 1.60982 0
M  V30 4851 C 471.679 -1.86803 0.273885 0
M  V30 4852 O 471.036 -1.66904 -0.738193 0
M  V30 4853 C 471.087 -2.44346 2.66415 0
M  V30 4854 O 470.808 -1.89855 3.94825 0
M  V30 4855 C 472.309 -3.36014 2.89153 0
M  V30 4856 H 469.529 -0.394891 0.542496 0
M  V30 4857 H 472.073 -0.626214 1.94676 0
M  V30 4858 H 470.228 -3.07562 2.35552 0
M  V30 4859 H 470.642 -2.64798 4.5275 0
M  V30 4860 H 472.116 -4.12593 3.66703 0
M  V30 4861 H 472.593 -3.91859 1.98351 0
M  V30 4862 H 473.199 -2.78582 3.21359 0
M  V30 4863 N 471.514 -1.37532 -0.769588 0
M  V30 4864 C 472.76 -1.33057 -1.53048 0
M  V30 4865 C 473.093 0.0841865 -1.94017 0
M  V30 4866 O 472.368 1.04198 -1.64235 0
M  V30 4867 C 472.651 -2.27166 -2.79406 0
M  V30 4868 C 472.504 -3.77429 -2.44677 0
M  V30 4869 C 473.823 -2.19683 -3.81349 0
M  V30 4870 H 470.942 -0.484655 -0.555228 0
M  V30 4871 H 473.584 -1.68251 -0.882702 0
M  V30 4872 H 471.734 -1.97283 -3.34682 0
M  V30 4873 H 473.406 -4.17918 -1.953 0
M  V30 4874 H 471.649 -3.95892 -1.77346 0
M  V30 4875 H 472.32 -4.38716 -3.35011 0
M  V30 4876 H 474.796 -2.46029 -3.35573 0
M  V30 4877 H 473.672 -2.87668 -4.67481 0
M  V30 4878 H 473.933 -1.19045 -4.25771 0
M  V30 4879 N 472.992 0.995999 -1.22138 0
M  V30 4880 C 474.22 1.77066 -1.07029 0
M  V30 4881 C 474.635 1.8495 0.379357 0
M  V30 4882 O 473.992 1.3174 1.26297 0
M  V30 4883 C 474.043 3.20533 -1.67155 0
M  V30 4884 O 473.764 3.13082 -3.06449 0
M  V30 4885 C 475.265 4.14461 -1.5728 0
M  V30 4886 H 472.485 0.556179 -0.375374 0
M  V30 4887 H 475.029 1.25238 -1.61666 0
M  V30 4888 H 473.184 3.6944 -1.16589 0
M  V30 4889 H 473.598 4.03283 -3.35355 0
M  V30 4890 H 475.072 5.1289 -2.04078 0
M  V30 4891 H 475.549 4.36005 -0.528795 0
M  V30 4892 H 476.155 3.71449 -2.07136 0
M  V30 4893 N 474.47 1.03057 1.19235 0
M  V30 4894 C 475.433 0.617418 2.20727 0
M  V30 4895 C 476.433 -0.319856 1.57587 0
M  V30 4896 O 477.623 -0.106633 1.73873 0
M  V30 4897 C 474.755 -0.096296 3.40764 0
M  V30 4898 H 475.948 1.51544 2.58794 0
M  V30 4899 H 473.501 0.821949 1.32942 0
M  V30 4900 H 474.236 -1.00859 3.08217 0
M  V30 4901 H 474.021 0.577217 3.87828 0
M  V30 4902 H 475.511 -0.372219 4.15938 0
M  V30 4903 N 475.948 -1.35272 0.808662 0
M  V30 4904 C 477.194 -1.99003 0.390581 0
M  V30 4905 C 477.527 -1.63999 -1.0401 0
M  V30 4906 O 476.802 -0.904368 -1.72196 0
M  V30 4907 C 477.085 -3.55454 0.576566 0
M  V30 4908 C 476.938 -4.00249 2.05233 0
M  V30 4909 C 478.257 -4.401 0.00354277 0
M  V30 4910 H 475.376 -0.722917 0.143388 0
M  V30 4911 H 478.018 -1.6039 1.01858 0
M  V30 4912 H 476.168 -3.88477 0.0419766 0
M  V30 4913 H 477.84 -3.77626 2.64946 0
M  V30 4914 H 476.083 -3.51082 2.54801 0
M  V30 4915 H 476.754 -5.0911 2.13333 0
M  V30 4916 H 479.23 -4.13548 0.460117 0
M  V30 4917 H 478.106 -5.48656 0.163575 0
M  V30 4918 H 478.367 -4.28444 -1.09032 0
M  V30 4919 N 477.426 -0.562348 -1.47226 0
M  V30 4920 C 478.389 0.172056 -2.28553 0
M  V30 4921 C 479.389 0.837928 -1.37242 0
M  V30 4922 O 480.579 0.693001 -1.59822 0
M  V30 4923 C 477.711 1.25223 -3.17068 0
M  V30 4924 H 478.904 -0.542401 -2.94954 0
M  V30 4925 H 476.457 -0.319493 -1.53 0
M  V30 4926 H 477.192 1.99892 -2.55369 0
M  V30 4927 H 476.977 0.779515 -3.84273 0
M  V30 4928 H 478.467 1.76791 -3.78332 0
M  V30 4929 N 478.904 1.54736 -0.299062 0
M  V30 4930 C 480.315 1.8569 0.193971 0
M  V30 4931 C 480.666 1.22101 1.53577 0
M  V30 4932 O 479.791 0.51799 2.10109 0
M  V30 4933 C 480.386 3.36895 0.358733 0
M  V30 4934 C 478.945 3.67887 0.795986 0
M  V30 4935 C 478.092 2.77131 -0.096807 0
M  V30 4936 H 481.043 1.49934 -0.520134 0
M  V30 4937 H 481.064 3.61294 1.19361 0
M  V30 4938 H 480.576 3.83148 -0.617998 0
M  V30 4939 H 478.677 3.27151 1.78334 0
M  V30 4940 H 478.79 4.75114 0.616718 0
M  V30 4941 H 477.154 2.51153 0.423581 0
M  V30 4942 H 477.937 3.26204 -1.06986 0
M  V30 4943 N 480.382 0.0267497 1.57577 0
M  V30 4944 C 481.292 -0.971633 2.13533 0
M  V30 4945 C 482.308 -1.35868 1.08701 0
M  V30 4946 O 483.484 -1.44058 1.40746 0
M  V30 4947 C 480.549 -2.23622 2.64941 0
M  V30 4948 C 479.61 -1.90982 3.8448 0
M  V30 4949 C 478.843 -3.11411 4.33427 0
M  V30 4950 O 479.066 -4.23992 3.81558 0
M  V30 4951 O 478 -2.93848 5.25297 0
M  V30 4952 H 481.826 -0.525853 2.99113 0
M  V30 4953 H 479.411 -0.193712 1.48139 0
M  V30 4954 H 481.293 -2.97864 2.98086 0
M  V30 4955 H 479.968 -2.67386 1.82446 0
M  V30 4956 H 478.875 -1.14132 3.56265 0
M  V30 4957 H 480.208 -1.52036 4.6813 0
M  V30 4958 N 481.861 -1.55662 -0.24637 0
M  V30 4959 C 483.138 -1.68272 -0.997198 0
M  V30 4960 C 483.518 -0.566785 -2.03349 0
M  V30 4961 O 482.866 0.429688 -2.24424 0
M  V30 4962 C 483.076 -3.08594 -1.63006 0
M  V30 4963 C 484.424 -3.6721 -2.13171 0
M  V30 4964 O 485.448 -3.11397 -1.72946 0
M  V30 4965 O 484.307 -4.65054 -2.87031 0
M  V30 4966 H 481.401 -0.684429 -0.464205 0
M  V30 4967 H 483.947 -1.67993 -0.240114 0
M  V30 4968 H 482.719 -3.81264 -0.880527 0
M  V30 4969 H 482.342 -3.12886 -2.45333 0
M  V30 4970 N 483.339 0.512053 -1.4905 0
M  V30 4971 C 484.588 1.26343 -1.57227 0
M  V30 4972 C 484.901 1.93876 -0.259155 0
M  V30 4973 O 486.107 2.70612 -0.219358 0
M  V30 4974 C 484.563 2.29343 -2.77362 0
M  V30 4975 C 484.171 1.67799 -4.15388 0
M  V30 4976 C 485.915 3.05378 -2.94864 0
M  V30 4977 C 483.822 2.68845 -5.2676 0
M  V30 4978 H 482.752 0.475231 -0.585382 0
M  V30 4979 H 485.403 0.53862 -1.75417 0
M  V30 4980 H 483.785 3.04938 -2.52643 0
M  V30 4981 H 484.959 0.982715 -4.50199 0
M  V30 4982 H 483.274 1.04194 -4.03153 0
M  V30 4983 H 485.871 3.80921 -3.75238 0
M  V30 4984 H 486.214 3.62327 -2.05 0
M  V30 4985 H 486.747 2.36898 -3.19569 0
M  V30 4986 H 483.486 2.16692 -6.18647 0
M  V30 4987 H 483.006 3.36647 -4.96416 0
M  V30 4988 H 484.685 3.31487 -5.5563 0
M  V30 4989 N 484.817 1.37938 0.762283 0
M  V30 4990 C 486.047 1.36685 1.54922 0
M  V30 4991 C 486.455 -0.0474099 1.89141 0
M  V30 4992 O 485.798 -1.02213 1.52638 0
M  V30 4993 C 485.86 2.14963 2.88152 0
M  V30 4994 C 485.524 3.6385 2.76518 0
M  V30 4995 C 486.521 4.57531 2.46904 0
M  V30 4996 C 484.206 4.07095 2.94243 0
M  V30 4997 C 486.2 5.92436 2.35156 0
M  V30 4998 C 483.887 5.42083 2.82116 0
M  V30 4999 C 484.885 6.34567 2.52614 0
M  V30 5000 O 484.573 7.67073 2.40529 0
M  V30 5001 H 484.305 0.469586 0.486276 0
M  V30 5002 H 486.859 1.82012 0.951876 0
M  V30 5003 H 485.089 1.6434 3.50042 0
M  V30 5004 H 486.778 2.06224 3.49609 0
M  V30 5005 H 487.544 4.25428 2.32886 0
M  V30 5006 H 483.423 3.35462 3.16206 0
M  V30 5007 H 486.967 6.64591 2.12049 0
M  V30 5008 H 482.864 5.73785 2.95704 0
M  V30 5009 H 483.632 7.77499 2.55807 0
M  V30 5010 N 486.295 -0.989507 1.22664 0
M  V30 5011 C 487.225 -2.09847 1.02404 0
M  V30 5012 C 488.206 -1.70007 -0.0561303 0
M  V30 5013 O 489.391 -1.93906 0.106748 0
M  V30 5014 C 486.521 -3.41996 0.604663 0
M  V30 5015 C 485.475 -3.95699 1.63115 0
M  V30 5016 C 484.801 -5.23936 1.0675 0
M  V30 5017 C 486.101 -4.25999 3.02196 0
M  V30 5018 H 487.795 -2.27054 1.95158 0
M  V30 5019 H 485.341 -1.09111 0.939727 0
M  V30 5020 H 487.294 -4.1899 0.45002 0
M  V30 5021 H 486.018 -3.24626 -0.35855 0
M  V30 5022 H 484.677 -3.2084 1.77362 0
M  V30 5023 H 484.325 -5.02909 0.0955422 0
M  V30 5024 H 484.025 -5.60833 1.75328 0
M  V30 5025 H 485.549 -6.0356 0.924516 0
M  V30 5026 H 486.963 -4.93777 2.91303 0
M  V30 5027 H 485.36 -4.74076 3.67929 0
M  V30 5028 H 486.43 -3.33636 3.51873 0
M  V30 5029 N 487.773 -1.03688 -1.18687 0
M  V30 5030 C 489.022 -0.733235 -1.879 0
M  V30 5031 C 489.335 0.741745 -1.8099 0
M  V30 5032 O 490.541 1.15875 -2.4553 0
M  V30 5033 C 488.997 -1.26127 -3.37076 0
M  V30 5034 C 488.605 -2.76461 -3.52524 0
M  V30 5035 C 490.349 -1.03398 -4.11715 0
M  V30 5036 C 488.256 -3.22642 -4.95637 0
M  V30 5037 H 487.186 -0.270584 -0.703776 0
M  V30 5038 H 489.837 -1.25222 -1.34133 0
M  V30 5039 H 488.219 -0.670165 -3.90288 0
M  V30 5040 H 489.393 -3.41296 -3.09602 0
M  V30 5041 H 487.708 -2.97559 -2.91286 0
M  V30 5042 H 490.305 -1.3542 -5.17267 0
M  V30 5043 H 490.648 0.0289246 -4.1629 0
M  V30 5044 H 491.181 -1.5895 -3.64664 0
M  V30 5045 H 487.92 -4.28296 -4.96228 0
M  V30 5046 H 487.44 -2.62539 -5.39289 0
M  V30 5047 H 489.119 -3.16444 -5.64333 0
M  V30 5048 N 489.251 1.34841 -0.815825 0
M  V30 5049 C 490.161 2.33425 -0.234462 0
M  V30 5050 C 491.177 1.62295 0.627413 0
M  V30 5051 O 492.353 1.94109 0.536987 0
M  V30 5052 C 489.418 3.41471 0.599849 0
M  V30 5053 C 488.479 4.28362 -0.283596 0
M  V30 5054 C 487.712 5.31248 0.51099 0
M  V30 5055 O 487.935 5.43056 1.7449 0
M  V30 5056 O 486.869 6.01812 -0.10297 0
M  V30 5057 H 490.695 2.84962 -1.05024 0
M  V30 5058 H 488.28 1.37774 -0.577809 0
M  V30 5059 H 490.162 4.07464 1.07475 0
M  V30 5060 H 488.837 2.9219 1.39308 0
M  V30 5061 H 487.744 3.65318 -0.805836 0
M  V30 5062 H 489.077 4.81066 -1.041 0
M  V30 5063 N 490.729 0.570148 1.46925 0
M  V30 5064 C 492.145 0.23087 1.57921 0
M  V30 5065 C 492.345 -1.26676 1.56702 0
M  V30 5066 O 491.401 -2.04774 1.47729 0
M  V30 5067 C 492.714 0.868973 2.8787 0
M  V30 5068 C 494.262 0.841397 3.01479 0
M  V30 5069 C 494.737 1.45881 4.34146 0
M  V30 5070 N 496.228 1.42258 4.40814 0
M  V30 5071 C 496.963 1.8698 5.42057 0
M  V30 5072 N 496.459 2.39618 6.50042 0
M  V30 5073 N 498.252 1.77972 5.33181 0
M  V30 5074 H 490.403 1.54301 1.45962 0
M  V30 5075 H 492.666 0.644224 0.69547 0
M  V30 5076 H 492.372 1.922 2.94537 0
M  V30 5077 H 492.246 0.369682 3.75384 0
M  V30 5078 H 494.633 -0.202973 2.94401 0
M  V30 5079 H 494.714 1.37858 2.15474 0
M  V30 5080 H 494.358 2.50231 4.4198 0
M  V30 5081 H 494.288 0.896958 5.18905 0
M  V30 5082 H 496.779 1.03768 3.63374 0
M  V30 5083 H 497.092 2.71633 7.23488 0
M  V30 5084 H 495.437 2.43636 6.50897 0
M  V30 5085 H 498.628 1.36617 4.4772 0
M  V30 5086 H 498.801 2.13143 6.11943 0
M  V30 5087 N 492.207 -1.54576 0.307264 0
M  V30 5088 C 493.453 -2.0056 -0.300612 0
M  V30 5089 C 493.786 -1.1953 -1.53057 0
M  V30 5090 O 493.061 -0.27337 -1.92569 0
M  V30 5091 C 493.344 -3.54167 -0.650987 0
M  V30 5092 C 493.197 -4.45933 0.588539 0
M  V30 5093 C 494.516 -4.14645 -1.47506 0
M  V30 5094 H 491.635 -0.729075 -0.107788 0
M  V30 5095 H 494.277 -1.85286 0.420606 0
M  V30 5096 H 492.427 -3.67313 -1.26544 0
M  V30 5097 H 494.099 -4.44683 1.22697 0
M  V30 5098 H 492.342 -4.16274 1.22058 0
M  V30 5099 H 493.013 -5.51189 0.299153 0
M  V30 5100 H 495.489 -4.04973 -0.955821 0
M  V30 5101 H 494.365 -5.22269 -1.68899 0
M  V30 5102 H 494.626 -3.66921 -2.4662 0
M  V30 5103 N 493.685 -0.035106 -1.57561 0
M  V30 5104 C 494.933 0.64096 -1.91667 0
M  V30 5105 C 495.254 1.72323 -0.912681 0
M  V30 5106 O 494.524 1.95849 0.0449089 0
M  V30 5107 H 493.104 0.239743 -0.707483 0
M  V30 5108 H 495.766 -0.084321 -1.94718 0
M  V30 5109 H 494.862 1.08987 -2.92452 0
M  V30 5110 N 495.163 1.55791 0.238111 0
M  V30 5111 C 496.111 1.91885 1.31464 0
M  V30 5112 C 497.105 0.798929 1.49377 0
M  V30 5113 O 498.311 0.983626 1.50747 0
M  V30 5114 H 494.686 0.609551 0.440399 0
M  V30 5115 H 496.657 2.81747 0.982925 0
M  V30 5116 C 495.406 2.23763 2.6613 0
M  V30 5117 H 494.729 3.09444 2.53149 0
M  V30 5118 H 496.169 2.52915 3.40309 0
M  V30 5119 C 494.628 1.05699 3.1989 0
M  V30 5120 O 495.158 0.309524 4.00506 0
M  V30 5121 N 493.364 0.845251 2.78036 0
M  V30 5122 H 492.911 1.4548 2.12588 0
M  V30 5123 H 492.869 0.0569973 3.14348 0
M  V30 5124 N 496.642 -0.504142 1.49319 0
M  V30 5125 C 497.574 -1.62265 1.61872 0
M  V30 5126 C 498.587 -1.54881 0.501573 0
M  V30 5127 O 499.776 -1.6087 0.773497 0
M  V30 5128 C 496.876 -3.01042 1.55651 0
M  V30 5129 C 496.049 -3.33642 2.82845 0
M  V30 5130 C 495.108 -4.51816 2.69719 0
M  V30 5131 O 494.134 -4.53755 3.4365 0
M  V30 5132 N 495.336 -5.51543 1.81055 0
M  V30 5133 H 498.101 -1.51924 2.58339 0
M  V30 5134 H 495.662 -0.691954 1.46368 0
M  V30 5135 H 497.654 -3.78013 1.44528 0
M  V30 5136 H 496.224 -3.05323 0.670546 0
M  V30 5137 H 495.444 -2.45598 3.08343 0
M  V30 5138 H 496.732 -3.5222 3.67177 0
M  V30 5139 H 496.13 -5.52774 1.20241 0
M  V30 5140 H 494.687 -6.27629 1.75856 0
M  V30 5141 N 498.12 -1.38341 -0.754957 0
M  V30 5142 C 499.345 -1.37882 -1.5493 0
M  V30 5143 C 499.77 0.0296385 -1.88077 0
M  V30 5144 O 499.128 1.01133 -1.50472 0
M  V30 5145 C 499.176 -2.23996 -2.82592 0
M  V30 5146 O 498.28 -1.65612 -3.77686 0
M  V30 5147 H 497.621 -0.470384 -0.468652 0
M  V30 5148 H 500.151 -1.82084 -0.933082 0
M  V30 5149 H 500.161 -2.37806 -3.3153 0
M  V30 5150 H 498.836 -3.26365 -2.57796 0
M  V30 5151 H 497.413 -1.60936 -3.36384 0
M  V30 5152 N 499.598 0.982988 -1.23187 0
M  V30 5153 C 500.823 1.76455 -1.08988 0
M  V30 5154 C 501.248 1.84726 0.354691 0
M  V30 5155 O 500.606 1.30699 1.25649 0
M  V30 5156 C 500.654 3.17094 -1.71708 0
M  V30 5157 O 499.758 4.00648 -0.977477 0
M  V30 5158 H 499.099 0.542988 -0.382177 0
M  V30 5159 H 501.629 1.23413 -1.63188 0
M  V30 5160 H 501.639 3.67684 -1.76841 0
M  V30 5161 H 500.314 3.10389 -2.76823 0
M  V30 5162 H 498.891 3.59161 -1.0029 0
M  V30 5163 N 501.076 1.04316 1.18135 0
M  V30 5164 C 502.008 0.594444 2.21357 0
M  V30 5165 C 503.021 -0.337215 1.59269 0
M  V30 5166 O 504.21 -0.131337 1.78016 0
M  V30 5167 C 501.31 -0.151251 3.38562 0
M  V30 5168 C 500.483 0.788907 4.30227 0
M  V30 5169 C 499.542 0.0860572 5.2613 0
M  V30 5170 O 498.568 0.717302 5.64662 0
M  V30 5171 N 499.77 -1.17969 5.68387 0
M  V30 5172 H 502.535 1.48227 2.60478 0
M  V30 5173 H 500.096 0.92396 1.32946 0
M  V30 5174 H 502.088 -0.631352 3.99745 0
M  V30 5175 H 500.658 -0.940639 2.98112 0
M  V30 5176 H 499.878 1.44882 3.6661 0
M  V30 5177 H 501.166 1.42738 4.88368 0
M  V30 5178 H 500.564 -1.71302 5.3914 0
M  V30 5179 H 499.121 -1.60402 6.31755 0
M  V30 5180 N 502.554 -1.34406 0.822964 0
M  V30 5181 C 503.779 -2.0304 0.423034 0
M  V30 5182 C 504.204 -1.61568 -0.963196 0
M  V30 5183 O 503.562 -0.800339 -1.62678 0
M  V30 5184 C 503.61 -3.56636 0.53321 0
M  V30 5185 O 502.714 -4.09971 -0.446939 0
M  V30 5186 H 502.055 -0.64075 0.174171 0
M  V30 5187 H 504.585 -1.71653 1.11339 0
M  V30 5188 H 504.595 -4.05945 0.408991 0
M  V30 5189 H 503.27 -3.86168 1.54425 0
M  V30 5190 H 501.847 -3.71835 -0.281601 0
M  V30 5191 N 504.032 -0.577932 -1.46621 0
M  V30 5192 C 505.278 -0.0617793 -2.02706 0
M  V30 5193 C 505.611 1.29294 -1.44903 0
M  V30 5194 O 504.886 1.8461 -0.61232 0
M  V30 5195 C 505.169 0.00911824 -3.60099 0
M  V30 5196 C 505.022 -1.37416 -4.28295 0
M  V30 5197 C 506.341 0.712159 -4.343 0
M  V30 5198 H 503.46 -0.0239246 -0.736612 0
M  V30 5199 H 506.102 -0.744211 -1.74818 0
M  V30 5200 H 504.252 0.590292 -3.83989 0
M  V30 5201 H 505.924 -2.00013 -4.15683 0
M  V30 5202 H 504.167 -1.94319 -3.87843 0
M  V30 5203 H 504.838 -1.27707 -5.37024 0
M  V30 5204 H 507.314 0.218486 -4.15526 0
M  V30 5205 H 506.19 0.730782 -5.44014 0
M  V30 5206 H 506.451 1.77251 -4.05012 0
M  V30 5207 N 505.51 1.54411 -0.315457 0
M  V30 5208 C 506.442 2.21527 0.588067 0
M  V30 5209 C 507.455 1.21263 1.08624 0
M  V30 5210 O 508.644 1.47777 1.00121 0
M  V30 5211 C 505.744 2.85963 1.81875 0
M  V30 5212 C 504.917 4.12291 1.46063 0
M  V30 5213 C 503.976 4.60396 2.54799 0
M  V30 5214 O 503.002 5.25265 2.19283 0
M  V30 5215 N 504.204 4.33935 3.85591 0
M  V30 5216 H 506.969 2.99697 0.013414 0
M  V30 5217 H 504.53 1.61308 -0.138295 0
M  V30 5218 H 506.522 3.15071 2.53993 0
M  V30 5219 H 505.092 2.11548 2.30144 0
M  V30 5220 H 504.312 3.90036 0.571445 0
M  V30 5221 H 505.6 4.9452 1.19695 0
M  V30 5222 H 504.998 3.81996 4.17248 0
M  V30 5223 H 503.555 4.67718 4.53964 0
M  V30 5224 N 506.988 0.0434614 1.5754 0
M  V30 5225 C 508.235 -0.632035 1.92384 0
M  V30 5226 C 508.563 -1.71304 0.921157 0
M  V30 5227 O 507.818 -1.95583 -0.067744 0
M  V30 5228 C 508.117 -1.2738 3.3393 0
M  V30 5229 C 507.783 -0.321757 4.49751 0
M  V30 5230 C 506.445 -0.0597611 4.81163 0
M  V30 5231 C 508.797 0.331158 5.20147 0
M  V30 5232 C 506.125 0.862715 5.80322 0
M  V30 5233 C 508.477 1.24178 6.20292 0
M  V30 5234 C 507.141 1.51252 6.50138 0
M  V30 5235 H 506.411 -0.231278 0.703983 0
M  V30 5236 H 509.058 0.108294 1.91194 0
M  V30 5237 H 507.363 -2.08921 3.3145 0
M  V30 5238 H 509.06 -1.80326 3.58167 0
M  V30 5239 H 505.65 -0.53614 4.25233 0
M  V30 5240 H 509.834 0.141826 4.96097 0
M  V30 5241 H 505.09 1.08003 6.01785 0
M  V30 5242 H 509.264 1.75381 6.73954 0
M  V30 5243 H 506.891 2.22897 7.26788 0
M  V30 5244 N 508.466 -1.55915 -0.229846 0
M  V30 5245 C 509.694 -1.82617 -0.972562 0
M  V30 5246 C 510.109 -0.621488 -1.78278 0
M  V30 5247 O 509.466 0.409956 -1.77836 0
M  V30 5248 C 509.517 -3.0774 -1.89679 0
M  V30 5249 O 509.238 -4.23559 -1.11934 0
M  V30 5250 C 510.739 -3.47368 -2.75409 0
M  V30 5251 H 507.959 -0.60727 -0.285419 0
M  V30 5252 H 510.503 -2.02996 -0.247579 0
M  V30 5253 H 508.658 -2.89361 -2.57583 0
M  V30 5254 H 509.072 -4.94586 -1.74599 0
M  V30 5255 H 510.546 -4.37977 -3.35977 0
M  V30 5256 H 511.023 -2.68737 -3.47386 0
M  V30 5257 H 511.629 -3.68158 -2.12931 0
M  V30 5258 N 509.944 0.496216 -1.49584 0
M  V30 5259 C 511.355 1.07765 -1.52459 0
M  V30 5260 C 511.706 1.93679 -0.31353 0
M  V30 5261 O 510.831 2.08588 0.576186 0
M  V30 5262 C 511.426 1.96111 -2.76271 0
M  V30 5263 C 509.985 2.49409 -2.81908 0
M  V30 5264 C 509.132 1.27142 -2.46435 0
M  V30 5265 H 512.083 0.279914 -1.56212 0
M  V30 5266 H 512.104 2.80862 -2.56704 0
M  V30 5267 H 511.616 1.33555 -3.64396 0
M  V30 5268 H 509.717 3.1559 -1.98074 0
M  V30 5269 H 509.83 2.86234 -3.84196 0
M  V30 5270 H 508.194 1.59818 -1.98319 0
M  V30 5271 H 508.977 0.662866 -3.3684 0
M  V30 5272 N 511.423 1.38739 0.74761 0
M  V30 5273 C 512.7 1.25791 1.49786 0
M  V30 5274 C 513.08 -0.138075 2.10648 0
M  V30 5275 O 512.428 -1.14815 1.9756 0
M  V30 5276 C 512.638 2.37265 2.55942 0
M  V30 5277 C 513.986 2.75978 3.22679 0
M  V30 5278 O 515.01 2.36621 2.6625 0
M  V30 5279 O 513.869 3.43867 4.24756 0
M  V30 5280 H 510.963 0.492251 0.664543 0
M  V30 5281 H 513.509 1.50582 0.782511 0
M  V30 5282 H 512.281 3.30644 2.0926 0
M  V30 5283 H 511.904 2.14071 3.35051 0
M  V30 5284 N 512.901 -0.976442 1.23707 0
M  V30 5285 C 514.126 -1.75875 1.09922 0
M  V30 5286 C 514.551 -1.84911 -0.34489 0
M  V30 5287 O 513.909 -1.31363 -1.24954 0
M  V30 5288 C 513.957 -3.16179 1.73388 0
M  V30 5289 O 513.061 -4.00124 0.99871 0
M  V30 5290 H 512.402 -0.540954 0.385052 0
M  V30 5291 H 514.932 -1.22546 1.6384 0
M  V30 5292 H 514.942 -3.66741 1.78788 0
M  V30 5293 H 513.617 -3.08917 2.78466 0
M  V30 5294 H 512.194 -3.58624 1.02193 0
M  V30 5295 N 514.379 -1.04941 -1.1758 0
M  V30 5296 C 515.326 -0.648155 -2.21512 0
M  V30 5297 C 516.296 0.348431 -1.62404 0
M  V30 5298 O 517.481 0.240419 -1.89279 0
M  V30 5299 C 514.621 -0.0264291 -3.4509 0
M  V30 5300 C 513.734 -1.07154 -4.185 0
M  V30 5301 C 512.869 -0.417403 -5.29558 0
M  V30 5302 C 511.908 -1.447 -5.94751 0
M  V30 5303 N 511.045 -0.817203 -6.97328 0
M  V30 5304 H 515.885 -1.53891 -2.55189 0
M  V30 5305 H 513.422 -0.769699 -1.25356 0
M  V30 5306 H 515.38 0.351456 -4.15717 0
M  V30 5307 H 514.01 0.827802 -3.12005 0
M  V30 5308 H 513.062 -1.56728 -3.46613 0
M  V30 5309 H 514.374 -1.8532 -4.63096 0
M  V30 5310 H 513.528 0.0142061 -6.06698 0
M  V30 5311 H 512.267 0.396265 -4.86087 0
M  V30 5312 H 511.272 -1.88865 -5.16343 0
M  V30 5313 H 512.497 -2.26252 -6.40302 0
M  V30 5314 H 510.443 -0.0239995 -6.55996 0
M  V30 5315 H 510.36 -1.53644 -7.40223 0
M  V30 5316 H 511.628 -0.410283 -7.7842 0
M  V30 5317 N 515.857 1.33968 -0.830081 0
M  V30 5318 C 516.82 2.27694 -0.26235 0
M  V30 5319 C 517.82 1.50589 0.563876 0
M  V30 5320 O 519.01 1.70028 0.378941 0
M  V30 5321 C 516.142 3.35002 0.63138 0
M  V30 5322 H 517.335 2.79419 -1.08928 0
M  V30 5323 H 514.888 1.44221 -0.602486 0
M  V30 5324 H 515.623 2.88504 1.48109 0
M  V30 5325 H 515.408 3.92079 0.0403276 0
M  V30 5326 H 516.898 4.04897 1.02217 0
M  V30 5327 N 517.335 0.585699 1.46312 0
M  V30 5328 C 518.584 0.0701192 2.01578 0
M  V30 5329 C 518.897 -1.29889 1.46247 0
M  V30 5330 O 520.103 -1.90598 1.93351 0
M  V30 5331 C 518.559 0.0747499 3.59822 0
M  V30 5332 C 518.167 1.44226 4.24149 0
M  V30 5333 C 519.911 -0.38673 4.22735 0
M  V30 5334 C 517.818 1.40446 5.74481 0
M  V30 5335 H 516.748 0.0224441 0.753666 0
M  V30 5336 H 519.399 0.737789 1.68015 0
M  V30 5337 H 517.781 -0.659144 3.90476 0
M  V30 5338 H 518.955 2.19612 4.05101 0
M  V30 5339 H 517.27 1.84401 3.73343 0
M  V30 5340 H 519.867 -0.433853 5.32937 0
M  V30 5341 H 520.21 -1.40489 3.91878 0
M  V30 5342 H 520.743 0.293195 3.96718 0
M  V30 5343 H 517.482 2.39952 6.10003 0
M  V30 5344 H 517.002 0.692845 5.95785 0
M  V30 5345 H 518.681 1.11865 6.37256 0
M  V30 5346 N 518.813 -1.54241 0.323641 0
M  V30 5347 C 520.224 -1.85975 -0.164405 0
M  V30 5348 C 520.575 -1.24529 -1.51615 0
M  V30 5349 O 519.7 -0.551351 -2.09258 0
M  V30 5350 C 520.295 -3.37424 -0.305091 0
M  V30 5351 C 518.854 -3.69107 -0.737358 0
M  V30 5352 C 518.001 -2.76942 0.140884 0
M  V30 5353 H 520.952 -1.49088 0.543922 0
M  V30 5354 H 520.973 -3.63147 -1.13598 0
M  V30 5355 H 520.485 -3.82116 0.678876 0
M  V30 5356 H 518.586 -3.29947 -1.73107 0
M  V30 5357 H 518.699 -4.76035 -0.541053 0
M  V30 5358 H 517.063 -2.51795 -0.383572 0
M  V30 5359 H 517.846 -3.24461 1.12162 0
M  V30 5360 N 520.291 -0.0518155 -1.57515 0
M  V30 5361 C 521.254 0.907547 -2.10467 0
M  V30 5362 C 522.254 1.23947 -1.02439 0
M  V30 5363 O 523.444 1.17604 -1.2851 0
M  V30 5364 C 520.576 2.21723 -2.58944 0
M  V30 5365 H 521.769 0.44851 -2.96527 0
M  V30 5366 H 519.322 0.196598 -1.55059 0
M  V30 5367 H 520.057 2.72206 -1.76279 0
M  V30 5368 H 519.842 1.98935 -3.37886 0
M  V30 5369 H 521.332 2.90441 -3.00056 0
M  V30 5370 N 521.769 1.56035 0.221574 0
M  V30 5371 C 523.18 1.69229 0.788567 0
M  V30 5372 C 523.531 0.653814 1.84986 0
M  V30 5373 O 522.656 -0.195065 2.15519 0
M  V30 5374 C 523.251 3.06809 1.43713 0
M  V30 5375 C 521.81 3.21858 1.95152 0
M  V30 5376 C 520.957 2.65155 0.811685 0
M  V30 5377 H 523.908 1.587 -0.00307894 0
M  V30 5378 H 523.929 3.02666 2.30594 0
M  V30 5379 H 523.441 3.82369 0.664475 0
M  V30 5380 H 521.542 2.51167 2.7522 0
M  V30 5381 H 521.655 4.29073 2.1315 0
M  V30 5382 H 520.019 2.23635 1.21899 0
M  V30 5383 H 520.802 3.43261 0.0516987 0
M  V30 5384 N 523.247 -0.488276 1.49845 0
M  V30 5385 C 524.177 -1.59675 1.70371 0
M  V30 5386 C 525.158 -1.60878 0.552473 0
M  V30 5387 O 526.343 -1.77417 0.78973 0
M  V30 5388 C 523.473 -2.98098 1.782 0
M  V30 5389 C 522.427 -3.11761 2.93239 0
M  V30 5390 C 521.753 -4.51661 2.86193 0
M  V30 5391 C 523.053 -2.90589 4.33999 0
M  V30 5392 H 524.747 -1.42752 2.63177 0
M  V30 5393 H 522.293 -0.685317 1.26647 0
M  V30 5394 H 524.246 -3.75555 1.91144 0
M  V30 5395 H 522.97 -3.16138 0.820018 0
M  V30 5396 H 521.629 -2.36732 2.79917 0
M  V30 5397 H 521.277 -4.66595 1.87877 0
M  V30 5398 H 520.977 -4.61742 3.63412 0
M  V30 5399 H 522.501 -5.31162 3.01163 0
M  V30 5400 H 523.915 -3.57807 4.47936 0
M  V30 5401 H 522.312 -3.1213 5.12538 0
M  V30 5402 H 523.382 -1.86595 4.4756 0
M  V30 5403 N 524.725 -1.39134 -0.740242 0
M  V30 5404 C 525.635 -1.39697 -1.88473 0
M  V30 5405 C 526.651 -0.292403 -1.71526 0
M  V30 5406 O 527.827 -0.533021 -1.94219 0
M  V30 5407 C 524.892 -1.23382 -3.24003 0
M  V30 5408 C 523.953 -2.43763 -3.53381 0
M  V30 5409 C 523.186 -2.28216 -4.82445 0
M  V30 5410 O 523.409 -1.28288 -5.55786 0
M  V30 5411 O 522.343 -3.1709 -5.11603 0
M  V30 5412 H 526.169 -2.36159 -1.90952 0
M  V30 5413 H 523.754 -1.20194 -0.887346 0
M  V30 5414 H 525.636 -1.16395 -4.05006 0
M  V30 5415 H 524.311 -0.300121 -3.22306 0
M  V30 5416 H 523.218 -2.56325 -2.72485 0
M  V30 5417 H 524.551 -3.35808 -3.59852 0
M  V30 5418 N 526.204 0.969867 -1.24223 0
M  V30 5419 C 527.167 2.04564 -1.03373 0
M  V30 5420 C 528.167 1.60798 0.00819206 0
M  V30 5421 O 529.357 1.72641 -0.232567 0
M  V30 5422 C 526.489 3.36163 -0.566343 0
M  V30 5423 H 527.682 2.24494 -1.98853 0
M  V30 5424 H 525.235 1.1448 -1.06415 0
M  V30 5425 H 525.97 3.21925 0.391751 0
M  V30 5426 H 525.755 3.69273 -1.31834 0
M  V30 5427 H 527.245 4.1526 -0.441435 0
M  V30 5428 N 527.682 1.05563 1.17022 0
M  V30 5429 C 528.93 0.76642 1.87004 0
M  V30 5430 C 529.251 -0.708854 1.8166 0
M  V30 5431 O 528.521 -1.51242 1.2451 0
M  V30 5432 H 527.101 0.280516 0.692329 0
M  V30 5433 H 529.763 1.33557 1.41945 0
M  V30 5434 H 528.859 1.08472 2.92644 0
M  V30 5435 N 529.16 -1.33526 0.837174 0
M  V30 5436 C 530.388 -2.02047 0.445494 0
M  V30 5437 C 530.803 -1.62995 -0.952788 0
M  V30 5438 O 530.16 -0.842447 -1.61892 0
M  V30 5439 C 530.211 -3.57221 0.554577 0
M  V30 5440 O 529.932 -3.94863 1.89776 0
M  V30 5441 C 531.433 -4.43012 0.159634 0
M  V30 5442 H 528.653 -0.647221 0.177048 0
M  V30 5443 H 531.197 -1.70492 1.12928 0
M  V30 5444 H 529.352 -3.87315 -0.0812781 0
M  V30 5445 H 529.766 -4.89569 1.88208 0
M  V30 5446 H 531.24 -5.51253 0.28701 0
M  V30 5447 H 531.717 -4.29916 -0.898289 0
M  V30 5448 H 532.323 -4.18274 0.769855 0
M  V30 5449 N 530.638 -0.59345 -1.46 0
M  V30 5450 C 531.884 -0.0832754 -2.02629 0
M  V30 5451 C 532.217 1.27749 -1.46266 0
M  V30 5452 O 531.492 1.8395 -0.631866 0
M  V30 5453 C 531.775 -0.0290756 -3.60088 0
M  V30 5454 C 531.628 -1.41951 -4.26814 0
M  V30 5455 C 532.947 0.666055 -4.35031 0
M  V30 5456 H 530.066 -0.031736 -0.736316 0
M  V30 5457 H 532.708 -0.762711 -1.74019 0
M  V30 5458 H 530.858 0.549532 -3.84594 0
M  V30 5459 H 532.53 -2.04411 -4.13538 0
M  V30 5460 H 530.773 -1.98422 -3.8576 0
M  V30 5461 H 531.444 -1.33395 -5.3564 0
M  V30 5462 H 533.92 0.174401 -4.15734 0
M  V30 5463 H 532.796 0.673041 -5.44758 0
M  V30 5464 H 533.057 1.72946 -4.06869 0
M  V30 5465 N 532.116 1.54067 -0.331816 0
M  V30 5466 C 533.362 2.01012 0.268667 0
M  V30 5467 C 533.695 1.2195 1.51136 0
M  V30 5468 O 532.97 0.303972 1.9211 0
M  V30 5469 C 533.253 3.55158 0.59456 0
M  V30 5470 C 533.106 4.4494 -0.659409 0
M  V30 5471 C 534.425 4.16939 1.4089 0
M  V30 5472 H 531.544 0.730698 0.0961756 0
M  V30 5473 H 534.186 1.84593 -0.450031 0
M  V30 5474 H 532.336 3.6928 1.20685 0
M  V30 5475 H 534.008 4.42675 -1.29756 0
M  V30 5476 H 532.251 4.1428 -1.28665 0
M  V30 5477 H 532.922 5.50643 -0.386804 0
M  V30 5478 H 535.398 4.06443 0.891272 0
M  V30 5479 H 534.274 5.24889 1.60569 0
M  V30 5480 H 534.535 3.70798 2.40752 0
M  V30 5481 N 533.594 0.0601682 1.57485 0
M  V30 5482 C 534.842 -0.610386 1.92662 0
M  V30 5483 C 535.163 -1.70849 0.939981 0
M  V30 5484 O 534.433 -1.95895 -0.0137455 0
M  V30 5485 H 533.013 -0.228457 0.711208 0
M  V30 5486 H 535.675 0.115288 1.94559 0
M  V30 5487 H 534.771 -1.0432 2.94149 0
M  V30 5488 N 535.072 -1.5615 -0.213296 0
M  V30 5489 C 536.022 -1.89485 -1.26804 0
M  V30 5490 C 537.006 -0.758713 -1.41889 0
M  V30 5491 O 538.198 -1.02127 -1.44565 0
M  V30 5492 C 535.327 -2.22219 -2.61675 0
M  V30 5493 C 534.413 -3.42245 -2.50458 0
M  V30 5494 N 534.804 -4.60645 -2.089 0
M  V30 5495 C 533.102 -3.46023 -2.81397 0
M  V30 5496 C 533.803 -5.42805 -2.09135 0
M  V30 5497 N 532.779 -4.82732 -2.49941 0
M  V30 5498 H 536.581 -2.78537 -0.937771 0
M  V30 5499 H 534.095 -1.56826 -0.421824 0
M  V30 5500 H 536.092 -2.44278 -3.37837 0
M  V30 5501 H 534.752 -1.34484 -2.95541 0
M  V30 5502 H 535.763 -4.85651 -1.79899 0
M  V30 5503 H 532.44 -2.68654 -3.1958 0
M  V30 5504 H 533.83 -6.47601 -1.79059 0
M  V30 5505 N 536.55 0.480323 -1.50102 0
M  V30 5506 C 537.48 1.58769 -1.71215 0
M  V30 5507 C 538.461 1.60583 -0.560997 0
M  V30 5508 O 539.646 1.76996 -0.799127 0
M  V30 5509 C 536.776 2.97148 -1.79778 0
M  V30 5510 C 535.73 3.10201 -2.94888 0
M  V30 5511 C 535.056 4.50137 -2.88584 0
M  V30 5512 C 536.356 2.88283 -4.35534 0
M  V30 5513 H 538.05 1.41354 -2.6393 0
M  V30 5514 H 535.596 0.678591 -1.27008 0
M  V30 5515 H 537.549 3.74536 -1.93133 0
M  V30 5516 H 536.273 3.15699 -0.836772 0
M  V30 5517 H 534.932 2.35244 -2.81169 0
M  V30 5518 H 534.58 4.65593 -1.90349 0
M  V30 5519 H 534.28 4.59808 -3.65856 0
M  V30 5520 H 535.804 5.29558 -3.03976 0
M  V30 5521 H 537.218 3.55427 -4.49827 0
M  V30 5522 H 535.615 3.09408 -5.14186 0
M  V30 5523 H 536.685 1.84219 -4.48544 0
M  V30 5524 N 538.028 1.39524 0.732853 0
M  V30 5525 C 539.256 1.40143 1.52209 0
M  V30 5526 C 539.671 -0.00348836 1.888 0
M  V30 5527 O 539.028 -0.975357 1.5425 0
M  V30 5528 C 539.079 2.27632 2.8083 0
M  V30 5529 O 538.8 3.62654 2.45792 0
M  V30 5530 C 540.301 2.36658 3.74844 0
M  V30 5531 H 537.521 0.478604 0.470297 0
M  V30 5532 H 540.065 1.83366 0.905388 0
M  V30 5533 H 538.22 1.87818 3.38826 0
M  V30 5534 H 538.634 4.08941 3.28431 0
M  V30 5535 H 540.108 3.02118 4.61984 0
M  V30 5536 H 540.585 1.38638 4.16745 0
M  V30 5537 H 541.191 2.76951 3.22766 0
M  V30 5538 N 539.506 -0.963266 1.24736 0
M  V30 5539 C 540.736 -1.73913 1.11524 0
M  V30 5540 C 541.144 -1.86218 -0.334612 0
M  V30 5541 O 540.487 -1.3531 -1.24245 0
M  V30 5542 C 540.549 -3.17501 1.68622 0
M  V30 5543 C 540.213 -3.28655 3.17546 0
M  V30 5544 C 541.21 -3.13637 4.14642 0
M  V30 5545 C 538.895 -3.52753 3.5759 0
M  V30 5546 C 540.889 -3.2255 5.49764 0
M  V30 5547 C 538.576 -3.61303 4.92852 0
M  V30 5548 C 539.574 -3.46214 5.88748 0
M  V30 5549 O 539.262 -3.5443 7.2155 0
M  V30 5550 H 538.994 -0.552057 0.390139 0
M  V30 5551 H 541.548 -1.2177 1.65412 0
M  V30 5552 H 539.778 -3.70969 1.09172 0
M  V30 5553 H 541.467 -3.76914 1.50635 0
M  V30 5554 H 542.233 -2.94899 3.85045 0
M  V30 5555 H 538.112 -3.63561 2.83451 0
M  V30 5556 H 541.656 -3.1069 6.24594 0
M  V30 5557 H 537.553 -3.79556 5.22118 0
M  V30 5558 H 538.321 -3.71116 7.29531 0
M  V30 5559 N 540.985 -1.06182 -1.16461 0
M  V30 5560 C 541.895 -0.682671 -2.24448 0
M  V30 5561 C 542.911 0.30078 -1.71381 0
M  V30 5562 O 544.087 0.150376 -2.00838 0
M  V30 5563 C 541.152 -0.0737202 -3.46622 0
M  V30 5564 C 540.213 -1.10889 -4.14731 0
M  V30 5565 C 539.446 -0.528908 -5.31073 0
M  V30 5566 O 539.669 0.65868 -5.66584 0
M  V30 5567 O 538.603 -1.26805 -5.88391 0
M  V30 5568 H 542.429 -1.58291 -2.59187 0
M  V30 5569 H 540.014 -0.834013 -1.23954 0
M  V30 5570 H 541.896 0.264192 -4.20571 0
M  V30 5571 H 540.571 0.800015 -3.13658 0
M  V30 5572 H 539.478 -1.49896 -3.42756 0
M  V30 5573 H 540.811 -1.95412 -4.51747 0
M  V30 5574 N 542.463 1.3308 -0.844243 0
M  V30 5575 C 543.74 1.92178 -0.364261 0
M  V30 5576 C 544.12 1.76961 1.15101 0
M  V30 5577 O 543.468 1.16128 1.9679 0
M  V30 5578 C 543.678 3.393 -0.817106 0
M  V30 5579 C 545.026 4.16444 -0.828236 0
M  V30 5580 O 546.05 3.47975 -0.761062 0
M  V30 5581 O 544.909 5.38685 -0.920926 0
M  V30 5582 H 542.003 0.820411 -0.10419 0
M  V30 5583 H 544.549 1.41918 -0.930453 0
M  V30 5584 H 543.321 3.44272 -1.85991 0
M  V30 5585 H 542.944 3.96947 -0.227785 0
M  V30 5586 N 543.941 0.601185 1.45683 0
M  V30 5587 C 544.888 -0.121396 2.30481 0
M  V30 5588 C 545.858 -0.866232 1.41724 0
M  V30 5589 O 547.043 -0.85324 1.70659 0
M  V30 5590 C 544.183 -1.11704 3.26521 0
M  V30 5591 C 543.296 -0.373741 4.3038 0
M  V30 5592 C 542.431 -1.35854 5.13534 0
M  V30 5593 C 541.47 -0.602689 6.09126 0
M  V30 5594 N 540.607 -1.53645 6.85082 0
M  V30 5595 H 545.447 0.607732 2.91737 0
M  V30 5596 H 542.984 0.311502 1.43764 0
M  V30 5597 H 544.942 -1.70735 3.80664 0
M  V30 5598 H 543.572 -1.81366 2.67032 0
M  V30 5599 H 542.624 0.331962 3.78949 0
M  V30 5600 H 543.936 0.2163 4.98331 0
M  V30 5601 H 543.09 -2.02111 5.72046 0
M  V30 5602 H 541.829 -1.98251 4.45587 0
M  V30 5603 H 540.834 0.0735482 5.49751 0
M  V30 5604 H 542.059 0.0161467 6.79098 0
M  V30 5605 H 540.005 -2.14819 6.1983 0
M  V30 5606 H 539.922 -0.999688 7.49361 0
M  V30 5607 H 541.19 -2.1888 7.48139 0
M  V30 5608 N 545.419 -1.53889 0.339982 0
M  V30 5609 C 546.696 -1.93084 -0.312719 0
M  V30 5610 C 547.076 -1.2712 -1.68534 0
M  V30 5611 O 546.424 -0.420835 -2.24591 0
M  V30 5612 C 546.634 -3.4683 -0.388558 0
M  V30 5613 C 547.982 -4.19732 -0.641088 0
M  V30 5614 O 549.006 -3.53075 -0.470818 0
M  V30 5615 O 547.865 -5.3781 -0.970685 0
M  V30 5616 H 544.959 -0.806784 -0.18174 0
M  V30 5617 H 547.505 -1.65137 0.390898 0
M  V30 5618 H 546.277 -3.87055 0.574821 0
M  V30 5619 H 545.9 -3.80933 -1.1391 0
M  V30 5620 N 546.897 -0.0685191 -1.57451 0
M  V30 5621 C 547.827 0.89747 -2.15564 0
M  V30 5622 C 548.808 1.31266 -1.08181 0
M  V30 5623 O 549.993 1.38429 -1.36202 0
M  V30 5624 C 547.123 2.16623 -2.71463 0
M  V30 5625 C 546.077 1.89054 -3.83982 0
M  V30 5626 C 545.403 3.22532 -4.26471 0
M  V30 5627 C 546.703 1.1984 -5.08366 0
M  V30 5628 H 548.397 0.413373 -2.96533 0
M  V30 5629 H 545.943 0.197391 -1.42641 0
M  V30 5630 H 547.896 2.84614 -3.10761 0
M  V30 5631 H 546.62 2.67269 -1.8771 0
M  V30 5632 H 545.279 1.23469 -3.45183 0
M  V30 5633 H 544.927 3.71013 -3.39644 0
M  V30 5634 H 544.627 3.04879 -5.02317 0
M  V30 5635 H 546.151 3.91727 -4.68383 0
M  V30 5636 H 547.565 1.77896 -5.45001 0
M  V30 5637 H 545.962 1.12456 -5.89469 0
M  V30 5638 H 547.032 0.176996 -4.84577 0
M  V30 5639 N 548.375 1.56261 0.205012 0
M  V30 5640 C 549.624 1.79236 0.925058 0
M  V30 5641 C 549.937 0.640011 1.84833 0
M  V30 5642 O 551.143 0.753809 2.60826 0
M  V30 5643 C 549.599 3.17475 1.69522 0
M  V30 5644 C 549.207 4.40482 0.817269 0
M  V30 5645 C 550.951 3.49766 2.4055 0
M  V30 5646 C 548.858 5.69744 1.58573 0
M  V30 5647 H 547.788 0.668287 0.349153 0
M  V30 5648 H 550.439 1.82629 0.178544 0
M  V30 5649 H 548.821 3.08304 2.48526 0
M  V30 5650 H 549.995 4.60752 0.0665988 0
M  V30 5651 H 548.31 4.15827 0.218316 0
M  V30 5652 H 550.907 4.43573 2.98575 0
M  V30 5653 H 551.25 2.73041 3.14252 0
M  V30 5654 H 551.783 3.60341 1.68522 0
M  V30 5655 H 548.522 6.49407 0.891679 0
M  V30 5656 H 548.042 5.53509 2.31059 0
M  V30 5657 H 549.721 6.1051 2.14212 0
M  V30 5658 N 549.853 -0.472356 1.50355 0
M  V30 5659 C 551.101 -1.22211 1.60962 0
M  V30 5660 C 551.422 -1.92497 0.311439 0
M  V30 5661 O 550.692 -1.8405 -0.671002 0
M  V30 5662 H 549.272 -0.454092 0.593135 0
M  V30 5663 H 551.934 -0.544977 1.87126 0
M  V30 5664 H 551.03 -1.9707 2.42012 0
M  V30 5665 N 551.331 -1.39911 -0.725443 0
M  V30 5666 C 552.263 -1.35301 -1.85003 0
M  V30 5667 C 553.276 -0.260102 -1.60709 0
M  V30 5668 O 554.465 -0.519749 -1.70766 0
M  V30 5669 C 551.565 -1.08039 -3.21218 0
M  V30 5670 C 550.738 -2.28793 -3.7279 0
M  V30 5671 C 549.797 -1.97841 -4.87591 0
M  V30 5672 O 548.823 -2.70616 -5.00755 0
M  V30 5673 N 550.025 -0.950367 -5.72668 0
M  V30 5674 H 552.79 -2.32218 -1.89459 0
M  V30 5675 H 550.351 -1.34137 -0.90658 0
M  V30 5676 H 552.343 -0.853354 -3.95601 0
M  V30 5677 H 550.913 -0.198229 -3.11971 0
M  V30 5678 H 550.133 -2.67388 -2.8965 0
M  V30 5679 H 551.421 -3.09317 -4.03981 0
M  V30 5680 H 550.819 -0.347436 -5.64632 0
M  V30 5681 H 549.376 -0.783232 -6.47077 0
M  V30 5682 N 552.809 0.956637 -1.25245 0
M  V30 5683 C 554.057 1.69764 -1.09657 0
M  V30 5684 C 554.378 1.91583 0.363464 0
M  V30 5685 O 553.648 1.50149 1.25825 0
M  V30 5686 H 552.228 0.629097 -0.402798 0
M  V30 5687 H 554.89 1.15026 -1.57337 0
M  V30 5688 H 553.986 2.67769 -1.60331 0
M  V30 5689 N 554.287 1.06798 1.15896 0
M  V30 5690 C 555.517 0.807522 1.90165 0
M  V30 5691 C 555.925 -0.642417 1.7796 0
M  V30 5692 O 555.268 -1.45193 1.12537 0
M  V30 5693 C 555.33 1.12939 3.41299 0
M  V30 5694 C 554.994 2.57879 3.7729 0
M  V30 5695 C 555.991 3.56118 3.78782 0
M  V30 5696 C 553.676 2.93311 4.07767 0
M  V30 5697 C 555.67 4.87827 4.10248 0
M  V30 5698 C 553.357 4.25219 4.38899 0
M  V30 5699 C 554.355 5.22287 4.4012 0
M  V30 5700 O 554.043 6.51826 4.70508 0
M  V30 5701 H 553.775 0.291946 0.609708 0
M  V30 5702 H 556.329 1.42627 1.47806 0
M  V30 5703 H 554.559 0.45359 3.84031 0
M  V30 5704 H 556.248 0.852363 3.9685 0
M  V30 5705 H 557.014 3.30086 3.55342 0
M  V30 5706 H 552.893 2.18409 4.05979 0
M  V30 5707 H 556.437 5.63586 4.11116 0
M  V30 5708 H 552.334 4.51006 4.61805 0
M  V30 5709 H 553.102 6.56893 4.88298 0
M  V30 5710 N 555.766 -1.3263 0.851289 0
M  V30 5711 C 557.015 -1.96633 0.449267 0
M  V30 5712 C 557.328 -1.68131 -0.999562 0
M  V30 5713 O 558.534 -2.25845 -1.50685 0
M  V30 5714 C 556.99 -3.51946 0.752446 0
M  V30 5715 C 556.598 -3.89311 2.21678 0
M  V30 5716 C 558.342 -4.22437 0.417983 0
M  V30 5717 C 556.249 -5.37655 2.46336 0
M  V30 5718 H 555.179 -0.735888 0.164269 0
M  V30 5719 H 557.83 -1.51073 1.0416 0
M  V30 5720 H 556.212 -3.95899 0.0895858 0
M  V30 5721 H 557.386 -3.56378 2.92115 0
M  V30 5722 H 555.701 -3.31836 2.51543 0
M  V30 5723 H 558.298 -5.31549 0.579674 0
M  V30 5724 H 558.641 -4.11349 -0.640115 0
M  V30 5725 H 559.174 -3.84057 1.03659 0
M  V30 5726 H 555.913 -5.5376 3.50757 0
M  V30 5727 H 555.433 -5.72005 1.80473 0
M  V30 5728 H 557.112 -6.04695 2.30115 0
M  V30 5729 N 557.244 -0.608902 -1.45362 0
M  V30 5730 C 558.472 -0.111013 -2.06602 0
M  V30 5731 C 558.887 1.20516 -1.45332 0
M  V30 5732 O 558.244 1.73437 -0.567978 0
M  V30 5733 C 558.295 0.033688 -3.61484 0
M  V30 5734 O 558.016 -1.23041 -4.20467 0
M  V30 5735 C 559.517 0.562882 -4.39712 0
M  V30 5736 H 556.737 -0.0694453 -0.667397 0
M  V30 5737 H 559.281 -0.837008 -1.86586 0
M  V30 5738 H 557.436 0.710016 -3.80838 0
M  V30 5739 H 557.85 -1.06094 -5.13658 0
M  V30 5740 H 559.324 0.613213 -5.48583 0
M  V30 5741 H 559.801 1.58543 -4.09586 0
M  V30 5742 H 560.407 -0.0794454 -4.25226 0
M  V30 5743 N 558.722 1.53707 -0.348139 0
M  V30 5744 C 559.95 2.05406 0.248224 0
M  V30 5745 C 560.365 1.22282 1.43849 0
M  V30 5746 O 559.722 0.259244 1.80649 0
M  V30 5747 C 559.773 3.55446 0.658793 0
M  V30 5748 O 559.494 4.35417 -0.484149 0
M  V30 5749 C 560.995 4.23335 1.31539 0
M  V30 5750 H 558.215 0.669344 0.0471075 0
M  V30 5751 H 560.759 1.98257 -0.501456 0
M  V30 5752 H 558.914 3.62803 1.35841 0
M  V30 5753 H 559.328 5.24268 -0.155949 0
M  V30 5754 H 560.802 5.29692 1.55338 0
M  V30 5755 H 561.279 3.75967 2.27036 0
M  V30 5756 H 561.885 4.20184 0.657683 0
M  V30 5757 N 560.2 0.0768682 1.57412 0
M  V30 5758 C 561.11 -0.903207 2.16516 0
M  V30 5759 C 562.126 -1.32341 1.12968 0
M  V30 5760 O 563.302 -1.39507 1.45258 0
M  V30 5761 C 560.367 -2.1508 2.71922 0
M  V30 5762 C 559.428 -1.78653 3.90361 0
M  V30 5763 C 558.661 -2.97465 4.43114 0
M  V30 5764 O 558.884 -4.11638 3.94854 0
M  V30 5765 O 557.818 -2.76987 5.3438 0
M  V30 5766 H 561.644 -0.430427 3.00634 0
M  V30 5767 H 559.229 -0.146485 1.4868 0
M  V30 5768 H 561.111 -2.8823 3.07411 0
M  V30 5769 H 559.786 -2.61446 1.9086 0
M  V30 5770 H 558.693 -1.0274 3.59716 0
M  V30 5771 H 560.026 -1.37066 4.7273 0
M  V30 5772 N 561.678 -1.56367 -0.196722 0
M  V30 5773 C 563.094 -1.49916 -0.54749 0
M  V30 5774 C 563.294 -0.77659 -1.85934 0
M  V30 5775 O 562.35 -0.32644 -2.50381 0
M  V30 5776 C 563.663 -2.94577 -0.603734 0
M  V30 5777 C 565.211 -3.05239 -0.692677 0
M  V30 5778 C 565.686 -4.51308 -0.780046 0
M  V30 5779 N 567.177 -4.55453 -0.843616 0
M  V30 5780 C 567.912 -5.65786 -0.931358 0
M  V30 5781 N 567.408 -6.85812 -0.981503 0
M  V30 5782 N 569.201 -5.53695 -0.968421 0
M  V30 5783 H 561.352 -2.01761 0.663803 0
M  V30 5784 H 563.615 -0.918094 0.236238 0
M  V30 5785 H 563.321 -3.50494 0.29105 0
M  V30 5786 H 563.195 -3.47841 -1.45898 0
M  V30 5787 H 565.582 -2.49372 -1.57789 0
M  V30 5788 H 565.663 -2.55103 0.188736 0
M  V30 5789 H 565.307 -5.078 0.100811 0
M  V30 5790 H 565.237 -4.99176 -1.67724 0
M  V30 5791 H 567.728 -3.69025 -0.814176 0
M  V30 5792 H 568.041 -7.65648 -1.04892 0
M  V30 5793 H 566.386 -6.88474 -0.950208 0
M  V30 5794 H 569.577 -4.58848 -0.926072 0
M  V30 5795 H 569.75 -6.39708 -1.03334 0
M  V30 5796 N 563.156 0.464375 -1.50603 0
M  V30 5797 C 564.567 1.04507 -1.5471 0
M  V30 5798 C 564.918 1.9297 -0.354542 0
M  V30 5799 O 564.043 2.09763 0.531812 0
M  V30 5800 C 564.638 1.90207 -2.80369 0
M  V30 5801 C 563.197 2.43373 -2.87135 0
M  V30 5802 C 562.344 1.21886 -2.49076 0
M  V30 5803 H 565.295 0.246716 -1.56771 0
M  V30 5804 H 565.316 2.75353 -2.62604 0
M  V30 5805 H 564.828 1.25796 -3.67147 0
M  V30 5806 H 562.929 3.11318 -2.04724 0
M  V30 5807 H 563.042 2.7802 -3.90181 0
M  V30 5808 H 561.406 1.55575 -2.01664 0
M  V30 5809 H 562.189 0.591268 -3.3817 0
M  V30 5810 N 564.634 1.40294 0.718013 0
M  V30 5811 C 565.859 1.41941 1.5122 0
M  V30 5812 C 566.284 0.0202371 1.88089 0
M  V30 5813 O 565.642 -0.971078 1.53101 0
M  V30 5814 C 565.69 2.3141 2.76554 0
M  V30 5815 O 564.794 1.75567 3.73162 0
M  V30 5816 H 564.135 0.482644 0.456016 0
M  V30 5817 H 566.665 1.84494 0.884478 0
M  V30 5818 H 566.675 2.46513 3.25108 0
M  V30 5819 H 565.35 3.33085 2.49053 0
M  V30 5820 H 563.927 1.69798 3.31999 0
M  V30 5821 N 566.112 -0.949982 1.2575 0
M  V30 5822 C 567.359 -1.69515 1.10774 0
M  V30 5823 C 567.687 -1.91316 -0.350479 0
M  V30 5824 O 566.942 -1.48515 -1.27443 0
M  V30 5825 C 567.241 -3.08039 1.81237 0
M  V30 5826 C 566.907 -3.06023 3.31151 0
M  V30 5827 C 565.569 -3.0518 3.72047 0
M  V30 5828 C 567.921 -2.98998 4.26907 0
M  V30 5829 C 565.249 -2.95067 5.07102 0
M  V30 5830 C 567.601 -2.90426 5.61992 0
M  V30 5831 C 566.265 -2.87922 6.0221 0
M  V30 5832 H 565.535 -0.6203 0.405351 0
M  V30 5833 H 568.182 -1.10953 1.56082 0
M  V30 5834 H 566.487 -3.70172 1.28373 0
M  V30 5835 H 568.184 -3.64526 1.67098 0
M  V30 5836 H 564.774 -3.07453 2.98614 0
M  V30 5837 H 568.958 -2.98764 3.963 0
M  V30 5838 H 564.214 -2.915 5.37436 0
M  V30 5839 H 568.388 -2.83952 6.35881 0
M  V30 5840 H 566.015 -2.79841 7.06819 0
M  V30 5841 N 567.59 -1.07411 -1.15328 0
M  V30 5842 C 568.5 -0.706438 -2.23711 0
M  V30 5843 C 569.516 0.282586 -1.7169 0
M  V30 5844 O 570.692 0.129066 -2.00986 0
M  V30 5845 C 567.757 -0.11048 -3.46524 0
M  V30 5846 C 566.818 -1.15282 -4.13532 0
M  V30 5847 C 566.051 -0.585205 -5.30482 0
M  V30 5848 O 566.274 0.598549 -5.67251 0
M  V30 5849 O 565.208 -1.33039 -5.87013 0
M  V30 5850 H 569.034 -1.61031 -2.57493 0
M  V30 5851 H 566.619 -0.847113 -1.23062 0
M  V30 5852 H 568.501 0.21957 -4.20828 0
M  V30 5853 H 567.176 0.766703 -3.14489 0
M  V30 5854 H 566.083 -1.53523 -3.41147 0
M  V30 5855 H 567.416 -2.00192 -4.49649 0
M  V30 5856 N 569.068 1.32177 -0.85831 0
M  V30 5857 C 570.001 2.26823 -0.25035 0
M  V30 5858 C 570.979 1.50571 0.61378 0
M  V30 5859 O 572.163 1.79682 0.569777 0
M  V30 5860 C 569.29 3.32472 0.646556 0
M  V30 5861 C 568.336 4.26255 -0.144675 0
M  V30 5862 S 569.169 5.13608 -1.5155 0
M  V30 5863 C 570.325 6.22778 -0.624408 0
M  V30 5864 H 570.558 2.7804 -1.05267 0
M  V30 5865 H 568.091 1.39764 -0.656152 0
M  V30 5866 H 570.049 3.93817 1.15837 0
M  V30 5867 H 568.71 2.80031 1.42272 0
M  V30 5868 H 567.903 5.01114 0.538613 0
M  V30 5869 H 567.505 3.69346 -0.588198 0
M  V30 5870 H 569.797 6.77287 0.169846 0
M  V30 5871 H 570.74 6.95233 -1.34376 0
M  V30 5872 H 571.148 5.64156 -0.197128 0
M  V30 5873 N 570.547 0.616602 1.45037 0
M  V30 5874 C 571.793 0.115501 2.02471 0
M  V30 5875 C 572.126 -1.25406 1.4828 0
M  V30 5876 O 571.401 -1.82922 0.661051 0
M  V30 5877 C 571.684 0.0863588 3.59996 0
M  V30 5878 C 571.537 1.48723 4.24501 0
M  V30 5879 C 572.856 -0.596762 4.36035 0
M  V30 5880 H 569.975 0.0434461 0.735718 0
M  V30 5881 H 572.617 0.7903 1.72784 0
M  V30 5882 H 570.767 -0.488277 3.85419 0
M  V30 5883 H 572.439 2.10964 4.10234 0
M  V30 5884 H 570.682 2.04534 3.82555 0
M  V30 5885 H 571.353 1.419 5.3345 0
M  V30 5886 H 573.829 -0.10824 4.15959 0
M  V30 5887 H 572.705 -0.586289 5.4576 0
M  V30 5888 H 572.966 -1.66451 4.09569 0
M  V30 5889 N 572.025 -1.5352 0.356285 0
M  V30 5890 C 572.988 -2.24071 -0.482182 0
M  V30 5891 C 573.988 -1.24531 -1.01729 0
M  V30 5892 O 575.178 -1.48876 -0.904513 0
M  V30 5893 C 572.31 -2.97025 -1.67299 0
M  V30 5894 H 573.503 -2.99596 0.135031 0
M  V30 5895 H 571.056 -1.55928 0.107825 0
M  V30 5896 H 571.791 -2.25719 -2.32855 0
M  V30 5897 H 571.576 -3.7005 -1.29636 0
M  V30 5898 H 573.066 -3.50683 -2.26741 0
M  V30 5899 N 573.503 -0.0852151 -1.57369 0
M  V30 5900 C 574.78 0.622534 -1.85429 0
M  V30 5901 C 575.16 1.86962 -0.980229 0
M  V30 5902 O 574.508 2.28445 -0.0500219 0
M  V30 5903 C 574.718 0.947374 -3.35896 0
M  V30 5904 C 576.066 1.31509 -4.03721 0
M  V30 5905 O 577.09 1.03869 -3.40719 0
M  V30 5906 O 575.949 1.83231 -5.14868 0
M  V30 5907 H 573.043 0.310513 -0.766492 0
M  V30 5908 H 575.589 -0.117164 -1.69295 0
M  V30 5909 H 574.361 0.0622264 -3.91251 0
M  V30 5910 H 573.984 1.74338 -3.5734 0
M  V30 5911 N 574.981 1.5647 0.188427 0
M  V30 5912 C 575.928 1.95073 1.23349 0
M  V30 5913 C 576.898 0.812238 1.44886 0
M  V30 5914 O 578.083 1.07095 1.57909 0
M  V30 5915 C 575.223 2.30124 2.57171 0
M  V30 5916 C 574.336 3.57069 2.43157 0
M  V30 5917 C 573.471 3.81411 3.69729 0
M  V30 5918 C 572.51 5.0176 3.50575 0
M  V30 5919 N 571.647 5.22321 4.69175 0
M  V30 5920 H 576.487 2.84171 0.89728 0
M  V30 5921 H 574.024 1.40623 0.431683 0
M  V30 5922 H 575.982 2.48463 3.35145 0
M  V30 5923 H 574.612 1.44159 2.88822 0
M  V30 5924 H 573.664 3.4674 1.56447 0
M  V30 5925 H 574.976 4.452 2.24942 0
M  V30 5926 H 574.13 4.00026 4.56141 0
M  V30 5927 H 572.869 2.91624 3.90905 0
M  V30 5928 H 571.874 4.83061 2.62549 0
M  V30 5929 H 573.099 5.93063 3.30837 0
M  V30 5930 H 571.045 4.35483 4.90602 0
M  V30 5931 H 570.962 6.04643 4.53809 0
M  V30 5932 H 572.23 5.45401 5.56919 0
M  V30 5933 N 576.459 -0.456382 1.50847 0
M  V30 5934 C 577.406 -1.55249 1.70782 0
M  V30 5935 C 578.376 -1.56757 0.549231 0
M  V30 5936 O 579.561 -1.74061 0.7815 0
M  V30 5937 C 576.701 -2.93118 1.82143 0
M  V30 5938 C 575.814 -3.01285 3.09598 0
M  V30 5939 C 574.949 -4.30159 3.11667 0
M  V30 5940 C 573.988 -4.32124 4.33515 0
M  V30 5941 N 573.125 -5.52492 4.3324 0
M  V30 5942 H 577.965 -1.37555 2.64353 0
M  V30 5943 H 575.502 -0.668543 1.3103 0
M  V30 5944 H 577.46 -3.73088 1.86711 0
M  V30 5945 H 576.09 -3.09413 0.919978 0
M  V30 5946 H 575.142 -2.14096 3.14431 0
M  V30 5947 H 576.454 -2.98597 3.99551 0
M  V30 5948 H 575.608 -5.18489 3.15046 0
M  V30 5949 H 574.347 -4.35477 2.1957 0
M  V30 5950 H 573.352 -3.42189 4.30333 0
M  V30 5951 H 574.577 -4.28485 5.26856 0
M  V30 5952 H 572.523 -5.58567 3.44004 0
M  V30 5953 H 572.44 -5.51605 5.16979 0
M  V30 5954 H 573.708 -6.42906 4.40786 0
M  V30 5955 N 577.937 -1.40673 -0.710563 0
M  V30 5956 C 579.186 -1.38525 -1.46607 0
M  V30 5957 C 579.499 0.0077024 -1.95598 0
M  V30 5958 O 580.705 0.151792 -2.71075 0
M  V30 5959 C 579.161 -2.43489 -2.6503 0
M  V30 5960 C 578.769 -3.88619 -2.22888 0
M  V30 5961 C 580.513 -2.50456 -3.42742 0
M  V30 5962 C 578.42 -4.85168 -3.3818 0
M  V30 5963 H 577.35 -0.515092 -0.550632 0
M  V30 5964 H 580.001 -1.66431 -0.772846 0
M  V30 5965 H 578.383 -2.0869 -3.36548 0
M  V30 5966 H 579.557 -4.32588 -1.58758 0
M  V30 5967 H 577.872 -3.85174 -1.58208 0
M  V30 5968 H 580.469 -3.19776 -4.28541 0
M  V30 5969 H 580.812 -1.53665 -3.86902 0
M  V30 5970 H 581.345 -2.84271 -2.78271 0
M  V30 5971 H 578.084 -5.8331 -2.99047 0
M  V30 5972 H 577.604 -4.4586 -4.01209 0
M  V30 5973 H 579.283 -5.05225 -4.04174 0
M  V30 5974 N 579.415 0.9433 -1.26252 0
M  V30 5975 C 580.325 2.07532 -1.09397 0
M  V30 5976 C 581.341 1.73977 -0.0280449 0
M  V30 5977 O 582.517 2.00067 -0.231337 0
M  V30 5978 C 579.582 3.39002 -0.726523 0
M  V30 5979 C 578.643 3.86353 -1.87163 0
M  V30 5980 C 577.876 5.11549 -1.52162 0
M  V30 5981 O 578.099 5.68834 -0.422385 0
M  V30 5982 O 577.033 5.53889 -2.35565 0
M  V30 5983 H 580.859 2.24658 -2.04359 0
M  V30 5984 H 578.444 1.05988 -1.05295 0
M  V30 5985 H 580.326 4.18 -0.534236 0
M  V30 5986 H 579.001 3.2312 0.193721 0
M  V30 5987 H 577.908 3.0831 -2.11886 0
M  V30 5988 H 579.241 4.06752 -2.77152 0
M  V30 5989 N 580.893 1.08022 1.14757 0
M  V30 5990 C 581.84 0.706657 2.19716 0
M  V30 5991 C 582.81 -0.30525 1.63271 0
M  V30 5992 O 583.995 -0.19015 1.8985 0
M  V30 5993 C 581.135 0.117914 3.44898 0
M  V30 5994 C 580.248 1.18212 4.15512 0
M  V30 5995 C 579.383 0.557659 5.28265 0
M  V30 5996 C 578.422 1.60418 5.90705 0
M  V30 5997 N 577.559 1.0018 6.94916 0
M  V30 5998 H 582.399 1.60603 2.51019 0
M  V30 5999 H 579.936 0.802664 1.23271 0
M  V30 6000 H 581.894 -0.241112 4.16503 0
M  V30 6001 H 580.524 -0.744788 3.1409 0
M  V30 6002 H 579.576 1.65863 3.42335 0
M  V30 6003 H 580.888 1.97533 4.5802 0
M  V30 6004 H 580.042 0.146654 6.06523 0
M  V30 6005 H 578.781 -0.267249 4.86967 0
M  V30 6006 H 577.786 2.02489 5.11154 0
M  V30 6007 H 579.011 2.43149 6.34078 0
M  V30 6008 H 576.957 0.197917 6.55701 0
M  V30 6009 H 576.874 1.73216 7.35889 0
M  V30 6010 H 578.142 0.616523 7.77058 0
M  V30 6011 N 582.371 -1.3172 0.865308 0
M  V30 6012 C 583.334 -2.26918 0.322627 0
M  V30 6013 C 584.334 -1.52031 -0.523751 0
M  V30 6014 O 585.524 -1.70973 -0.333727 0
M  V30 6015 C 582.656 -3.36558 -0.542338 0
M  V30 6016 H 583.849 -2.76432 1.16298 0
M  V30 6017 H 581.402 -1.42573 0.640512 0
M  V30 6018 H 582.137 -2.92329 -1.40407 0
M  V30 6019 H 581.922 -3.92048 0.0636395 0
M  V30 6020 H 583.412 -4.07465 -0.91446 0
M  V30 6021 N 583.85 -0.624285 -1.44708 0
M  V30 6022 C 585.096 -0.126051 -2.02107 0
M  V30 6023 C 585.425 1.2496 -1.49048 0
M  V30 6024 O 584.68 1.84163 -0.662005 0
M  V30 6025 C 584.979 -0.0546353 -3.57358 0
M  V30 6026 C 584.644 -1.36815 -4.29642 0
M  V30 6027 C 583.307 -1.72792 -4.49106 0
M  V30 6028 C 585.659 -2.23549 -4.70824 0
M  V30 6029 C 582.986 -2.95222 -5.07012 0
M  V30 6030 C 585.339 -3.45243 -5.30085 0
M  V30 6031 C 584.003 -3.81452 -5.47769 0
M  V30 6032 H 583.273 -0.0461252 -0.739563 0
M  V30 6033 H 585.92 -0.809236 -1.73562 0
M  V30 6034 H 584.225 0.711891 -3.85278 0
M  V30 6035 H 585.922 0.347282 -3.99493 0
M  V30 6036 H 582.512 -1.07817 -4.14817 0
M  V30 6037 H 586.696 -1.9705 -4.55505 0
M  V30 6038 H 581.952 -3.23361 -5.18891 0
M  V30 6039 H 586.125 -4.12689 -5.60946 0
M  V30 6040 H 583.753 -4.76403 -5.92405 0
M  V30 6041 N 585.328 1.53329 -0.364422 0
M  V30 6042 C 586.575 2.01239 0.225634 0
M  V30 6043 C 586.903 1.25172 1.48869 0
M  V30 6044 O 586.158 0.333289 1.92841 0
M  V30 6045 C 586.457 3.52911 0.564661 0
M  V30 6046 C 586.123 4.46837 -0.603936 0
M  V30 6047 C 584.785 4.72234 -0.924585 0
M  V30 6048 C 587.137 5.02409 -1.38691 0
M  V30 6049 C 584.465 5.50454 -2.0302 0
M  V30 6050 C 586.817 5.81836 -2.48293 0
M  V30 6051 C 585.481 6.0552 -2.80894 0
M  V30 6052 H 584.751 0.736386 0.0825654 0
M  V30 6053 H 587.398 1.84948 -0.496645 0
M  V30 6054 H 585.703 3.67144 1.36794 0
M  V30 6055 H 587.4 3.87455 1.03344 0
M  V30 6056 H 583.99 4.27217 -0.343983 0
M  V30 6057 H 588.174 4.82735 -1.15243 0
M  V30 6058 H 583.43 5.67024 -2.28678 0
M  V30 6059 H 587.604 6.23905 -3.0938 0
M  V30 6060 H 585.231 6.65916 -3.66688 0
M  V30 6061 N 586.806 0.0935595 1.57322 0
M  V30 6062 C 587.736 -0.863062 2.16964 0
M  V30 6063 C 588.717 -1.29528 1.10256 0
M  V30 6064 O 589.902 -1.36245 1.38387 0
M  V30 6065 C 587.032 -2.12276 2.74875 0
M  V30 6066 C 585.986 -1.82921 3.86942 0
M  V30 6067 C 585.312 -3.15707 4.31548 0
M  V30 6068 C 586.612 -1.11737 5.10208 0
M  V30 6069 H 588.306 -0.366145 2.97153 0
M  V30 6070 H 585.852 -0.174673 1.42937 0
M  V30 6071 H 587.805 -2.79634 3.1525 0
M  V30 6072 H 586.529 -2.64248 1.91938 0
M  V30 6073 H 585.188 -1.17961 3.47103 0
M  V30 6074 H 584.836 -3.65563 3.45504 0
M  V30 6075 H 584.536 -2.96849 5.07104 0
M  V30 6076 H 586.06 -3.84226 4.74555 0
M  V30 6077 H 587.474 -1.69203 5.47762 0
M  V30 6078 H 585.871 -1.03064 5.91183 0
M  V30 6079 H 586.941 -0.0998818 4.84797 0
M  V30 6080 N 588.284 -1.56567 -0.180126 0
M  V30 6081 C 589.231 -1.95725 -1.22313 0
M  V30 6082 C 590.201 -0.819911 -1.44453 0
M  V30 6083 O 591.386 -1.07931 -1.57339 0
M  V30 6084 C 588.526 -2.31484 -2.55947 0
M  V30 6085 C 587.639 -3.58354 -2.4126 0
M  V30 6086 C 586.774 -3.83366 -3.67701 0
M  V30 6087 C 585.813 -5.03612 -3.47909 0
M  V30 6088 N 584.95 -5.24802 -4.66398 0
M  V30 6089 H 589.79 -2.84642 -0.882198 0
M  V30 6090 H 587.327 -1.4085 -0.42422 0
M  V30 6091 H 589.285 -2.50237 -3.33822 0
M  V30 6092 H 587.915 -1.45689 -2.88053 0
M  V30 6093 H 586.967 -3.47565 -1.54606 0
M  V30 6094 H 588.279 -4.46386 -2.22577 0
M  V30 6095 H 587.433 -4.02439 -4.54013 0
M  V30 6096 H 586.172 -2.93692 -3.89353 0
M  V30 6097 H 585.177 -4.84447 -2.59983 0
M  V30 6098 H 586.402 -5.94809 -3.27688 0
M  V30 6099 H 584.348 -4.38079 -4.88286 0
M  V30 6100 H 584.265 -6.07041 -4.50596 0
M  V30 6101 H 585.533 -5.48346 -5.54019 0
M  V30 6102 N 589.762 0.448376 -1.51087 0
M  V30 6103 C 591.008 1.20049 -1.6345 0
M  V30 6104 C 591.341 1.91121 -0.344444 0
M  V30 6105 O 590.616 1.83125 0.655396 0
M  V30 6106 C 590.899 2.22624 -2.83038 0
M  V30 6107 C 590.752 1.55708 -4.21989 0
M  V30 6108 C 592.071 3.23718 -2.98152 0
M  V30 6109 H 589.19 0.435085 -0.59487 0
M  V30 6110 H 591.832 0.491183 -1.83541 0
M  V30 6111 H 589.982 2.83117 -2.66039 0
M  V30 6112 H 591.654 0.986367 -4.50631 0
M  V30 6113 H 589.897 0.859647 -4.25197 0
M  V30 6114 H 590.568 2.30357 -5.01637 0
M  V30 6115 H 593.044 2.73269 -3.13788 0
M  V30 6116 H 591.92 3.92795 -3.83411 0
M  V30 6117 H 592.181 3.89179 -2.09743 0
M  V30 6118 N 591.24 1.41047 0.703093 0
M  V30 6119 C 592.486 1.41209 1.46396 0
M  V30 6120 C 592.841 0.0180188 1.92392 0
M  V30 6121 O 592.134 -0.954739 1.66118 0
M  V30 6122 C 592.328 2.34686 2.6955 0
M  V30 6123 C 592.157 3.83044 2.35601 0
M  V30 6124 C 590.927 4.51777 2.26331 0
M  V30 6125 C 593.125 4.74215 1.9906 0
M  V30 6126 N 591.107 5.85302 1.85188 0
M  V30 6127 C 592.478 5.96631 1.68616 0
M  V30 6128 C 594.533 4.61932 1.85805 0
M  V30 6129 C 593.236 7.08134 1.26249 0
M  V30 6130 C 595.262 5.73389 1.44842 0
M  V30 6131 C 594.624 6.94899 1.15304 0
M  V30 6132 H 590.723 0.571951 0.533288 0
M  V30 6133 H 593.307 1.76859 0.814179 0
M  V30 6134 H 591.478 2.01143 3.32259 0
M  V30 6135 H 593.21 2.25618 3.35974 0
M  V30 6136 H 589.965 4.05618 2.44482 0
M  V30 6137 H 590.389 6.56049 1.67119 0
M  V30 6138 H 595.031 3.68494 2.07298 0
M  V30 6139 H 592.749 8.01445 1.035 0
M  V30 6140 H 596.335 5.65886 1.35146 0
M  V30 6141 H 595.215 7.79679 0.840854 0
M  V30 6142 N 592.718 -0.936591 1.26751 0
M  V30 6143 C 593.964 -1.68625 1.13741 0
M  V30 6144 C 594.319 -1.898 -0.315221 0
M  V30 6145 O 593.612 -1.47088 -1.22783 0
M  V30 6146 C 593.806 -3.06099 1.84494 0
M  V30 6147 C 593.635 -2.98338 3.36488 0
M  V30 6148 C 592.405 -3.01104 4.05789 0
M  V30 6149 C 594.603 -2.78128 4.32608 0
M  V30 6150 N 592.585 -2.8369 5.4442 0
M  V30 6151 C 593.956 -2.69329 5.58446 0
M  V30 6152 C 596.011 -2.62946 4.22804 0
M  V30 6153 C 594.714 -2.46899 6.75598 0
M  V30 6154 C 596.74 -2.41892 5.39669 0
M  V30 6155 C 596.102 -2.33829 6.64457 0
M  V30 6156 H 592.201 -0.624227 0.471025 0
M  V30 6157 H 594.785 -1.10798 1.601 0
M  V30 6158 H 592.956 -3.62057 1.40604 0
M  V30 6159 H 594.688 -3.69951 1.64067 0
M  V30 6160 H 591.443 -3.10992 3.57185 0
M  V30 6161 H 591.867 -2.78138 6.17226 0
M  V30 6162 H 596.509 -2.67944 3.27056 0
M  V30 6163 H 594.227 -2.40642 7.71438 0
M  V30 6164 H 597.813 -2.31043 5.33957 0
M  V30 6165 H 596.693 -2.17754 7.53361 0
M  V30 6166 N 594.196 -1.08629 -1.14182 0
M  V30 6167 C 595.144 -0.71284 -2.21408 0
M  V30 6168 C 596.138 0.282457 -1.67029 0
M  V30 6169 O 597.344 0.144783 -1.79417 0
M  V30 6170 H 593.719 -0.212497 -0.721352 0
M  V30 6171 H 595.69 -1.6265 -2.50175 0
M  V30 6172 C 594.439 -0.140704 -3.47415 0
M  V30 6173 H 593.762 -0.897739 -3.8959 0
M  V30 6174 H 595.202 0.0827677 -4.23919 0
M  V30 6175 C 593.661 1.122 -3.17668 0
M  V30 6176 O 594.191 2.20652 -3.35672 0
M  V30 6177 N 592.397 1.03328 -2.71609 0
M  V30 6178 H 591.944 0.150666 -2.57159 0
M  V30 6179 H 591.902 1.8789 -2.52081 0
M  V30 6180 N 595.674 1.31259 -0.872281 0
M  V30 6181 C 596.606 2.27396 -0.28697 0
M  V30 6182 C 597.619 1.53181 0.551297 0
M  V30 6183 O 598.808 1.74561 0.372914 0
M  V30 6184 C 595.908 3.33335 0.611617 0
M  V30 6185 C 595.081 4.36966 -0.194729 0
M  V30 6186 C 594.14 5.22387 0.632358 0
M  V30 6187 O 593.166 5.69169 0.0595691 0
M  V30 6188 N 594.368 5.46985 1.94391 0
M  V30 6189 H 597.133 2.78261 -1.11314 0
M  V30 6190 H 594.694 1.44306 -0.733994 0
M  V30 6191 H 596.686 3.87398 1.17068 0
M  V30 6192 H 595.256 2.82496 1.33846 0
M  V30 6193 H 594.476 3.82945 -0.935241 0
M  V30 6194 H 595.764 5.03273 -0.747935 0
M  V30 6195 H 595.162 5.10737 2.43237 0
M  V30 6196 H 593.719 6.03973 2.45071 0
M  V30 6197 N 597.152 0.631951 1.44375 0
M  V30 6198 C 598.399 0.136767 2.02038 0
M  V30 6199 C 598.727 -1.24168 1.49709 0
M  V30 6200 O 597.982 -1.83809 0.671763 0
M  V30 6201 C 598.281 0.0735861 3.57324 0
M  V30 6202 C 597.947 1.39092 4.28911 0
M  V30 6203 C 596.609 1.75171 4.48184 0
M  V30 6204 C 598.961 2.26042 4.69632 0
M  V30 6205 C 596.289 2.97907 5.05439 0
M  V30 6206 C 598.641 3.4805 5.28246 0
M  V30 6207 C 597.305 3.84351 5.45738 0
M  V30 6208 H 596.575 0.0500466 0.739308 0
M  V30 6209 H 599.222 0.818429 1.7313 0
M  V30 6210 H 597.527 -0.691449 3.8565 0
M  V30 6211 H 599.224 -0.326091 3.99672 0
M  V30 6212 H 595.814 1.10015 4.1424 0
M  V30 6213 H 599.998 1.99463 4.54454 0
M  V30 6214 H 595.254 3.26108 5.17169 0
M  V30 6215 H 599.428 4.15658 5.5875 0
M  V30 6216 H 597.055 4.79538 5.8987 0
M  V30 6217 N 598.631 -1.53133 0.372548 0
M  V30 6218 C 599.877 -2.01654 -0.215277 0
M  V30 6219 C 600.21 -1.25914 -1.47849 0
M  V30 6220 O 599.485 -0.3548 -1.91237 0
M  V30 6221 C 599.768 -3.56609 -0.500187 0
M  V30 6222 C 599.621 -4.43036 0.777145 0
M  V30 6223 C 600.94 -4.20528 -1.29786 0
M  V30 6224 H 598.059 -0.732991 -0.0767686 0
M  V30 6225 H 600.701 -1.83335 0.498814 0
M  V30 6226 H 598.851 -3.7235 -1.10852 0
M  V30 6227 H 600.523 -4.39079 1.41447 0
M  V30 6228 H 598.766 -4.10723 1.39604 0
M  V30 6229 H 599.437 -5.49424 0.532662 0
M  V30 6230 H 601.913 -4.08663 -0.783198 0
M  V30 6231 H 600.789 -5.28962 -1.46596 0
M  V30 6232 H 601.05 -3.77051 -2.30836 0
M  V30 6233 N 600.109 -0.101901 -1.5727 0
M  V30 6234 C 601.525 0.254739 -1.57554 0
M  V30 6235 C 601.725 1.67937 -1.11352 0
M  V30 6236 O 600.781 2.39722 -0.793081 0
M  V30 6237 C 602.094 0.036975 -3.00677 0
M  V30 6238 C 603.642 0.104199 -3.12827 0
M  V30 6239 C 604.117 -0.0856565 -4.5792 0
M  V30 6240 N 605.608 -0.0310498 -4.6319 0
M  V30 6241 C 606.343 -0.153099 -5.73196 0
M  V30 6242 N 605.839 -0.330364 -6.92012 0
M  V30 6243 N 607.632 -0.0938854 -5.62022 0
M  V30 6244 H 599.783 -1.03263 -1.85609 0
M  V30 6245 H 602.046 -0.405251 -0.857016 0
M  V30 6246 H 601.752 -0.947254 -3.38703 0
M  V30 6247 H 601.626 0.776335 -3.69124 0
M  V30 6248 H 604.013 1.07894 -2.74669 0
M  V30 6249 H 604.094 -0.666762 -2.46957 0
M  V30 6250 H 603.738 -1.05729 -4.96773 0
M  V30 6251 H 603.668 0.705082 -5.21858 0
M  V30 6252 H 606.159 0.103141 -3.77759 0
M  V30 6253 H 606.472 -0.41482 -7.71686 0
M  V30 6254 H 604.817 -0.366119 -6.94035 0
M  V30 6255 H 608.008 0.0435168 -4.6808 0
M  V30 6256 H 608.181 -0.19245 -6.47714 0
M  V30 6257 N 601.587 1.56661 0.17182 0
M  V30 6258 C 602.834 1.81965 0.888529 0
M  V30 6259 C 603.162 0.6789 1.82267 0
M  V30 6260 O 602.417 -0.333875 1.92831 0
M  V30 6261 C 602.716 3.13435 1.71736 0
M  V30 6262 C 602.382 4.41159 0.932184 0
M  V30 6263 C 601.044 4.75851 0.715481 0
M  V30 6264 C 603.396 5.19803 0.381387 0
M  V30 6265 C 600.724 5.86666 -0.063126 0
M  V30 6266 C 603.076 6.31433 -0.384129 0
M  V30 6267 C 601.74 6.64692 -0.611637 0
M  V30 6268 H 601.01 0.665859 0.325136 0
M  V30 6269 H 603.657 1.90884 0.153495 0
M  V30 6270 H 601.962 2.99857 2.52177 0
M  V30 6271 H 603.659 3.30224 2.27493 0
M  V30 6272 H 600.249 4.13947 1.11112 0
M  V30 6273 H 604.433 4.93396 0.536148 0
M  V30 6274 H 599.689 6.10892 -0.249136 0
M  V30 6275 H 603.863 6.91577 -0.818185 0
M  V30 6276 H 601.49 7.50398 -1.21684 0
M  V30 6277 N 603.065 -0.440357 1.51323 0
M  V30 6278 C 604.311 -1.19181 1.64085 0
M  V30 6279 C 604.644 -1.90936 0.354575 0
M  V30 6280 O 603.919 -1.8347 -0.645675 0
M  V30 6281 C 604.202 -2.2112 2.84215 0
M  V30 6282 C 604.055 -1.53468 4.22809 0
M  V30 6283 C 605.374 -3.22133 2.99864 0
M  V30 6284 H 602.493 -0.431924 0.597169 0
M  V30 6285 H 605.135 -0.481443 1.83799 0
M  V30 6286 H 603.285 -2.81703 2.67537 0
M  V30 6287 H 604.957 -0.962455 4.51148 0
M  V30 6288 H 603.2 -0.837086 4.25647 0
M  V30 6289 H 603.871 -2.27694 5.02852 0
M  V30 6290 H 606.347 -2.71601 3.15233 0
M  V30 6291 H 605.223 -3.90756 3.85488 0
M  V30 6292 H 605.484 -3.88061 2.11804 0
M  V30 6293 N 604.543 -1.41418 -0.695603 0
M  V30 6294 C 605.491 -1.43467 -1.83084 0
M  V30 6295 C 606.485 -0.312719 -1.66489 0
M  V30 6296 O 607.691 -0.484744 -1.7335 0
M  V30 6297 H 604.066 -0.448891 -0.603325 0
M  V30 6298 H 606.037 -2.39144 -1.78473 0
M  V30 6299 C 604.786 -1.3337 -3.21104 0
M  V30 6300 H 604.109 -2.18989 -3.3449 0
M  V30 6301 H 605.549 -1.38865 -4.00615 0
M  V30 6302 C 604.008 -0.0460484 -3.36869 0
M  V30 6303 O 604.538 0.909258 -3.91274 0
M  V30 6304 N 602.744 0.0300222 -2.90584 0
M  V30 6305 H 602.291 -0.748129 -2.46497 0
M  V30 6306 H 602.249 0.890991 -3.01511 0
M  V30 6307 N 606.021 0.929856 -1.27246 0
M  V30 6308 C 606.931 2.0636 -1.11592 0
M  V30 6309 C 607.947 1.73938 -0.046496 0
M  V30 6310 O 609.123 1.9981 -0.252544 0
M  V30 6311 C 606.188 3.38213 -0.762437 0
M  V30 6312 C 605.249 3.84346 -1.9125 0
M  V30 6313 C 604.482 5.09906 -1.57579 0
M  V30 6314 O 604.705 5.68354 -0.482694 0
M  V30 6315 O 603.639 5.51359 -2.41426 0
M  V30 6316 H 607.465 2.22478 -2.0673 0
M  V30 6317 H 605.05 1.04865 -1.06413 0
M  V30 6318 H 606.932 4.1741 -0.57854 0
M  V30 6319 H 605.607 3.23307 0.159439 0
M  V30 6320 H 604.514 3.06045 -2.15144 0
M  V30 6321 H 605.847 4.0379 -2.81451 0
M  V30 6322 N 607.499 1.09233 1.13605 0
M  V30 6323 C 608.446 0.729921 2.18954 0
M  V30 6324 C 609.416 -0.287916 1.63586 0
M  V30 6325 O 610.601 -0.170003 1.90041 0
M  V30 6326 C 607.741 0.154489 3.44754 0
M  V30 6327 C 606.854 1.22613 4.14234 0
M  V30 6328 C 605.989 0.613657 5.27644 0
M  V30 6329 C 605.028 1.66674 5.8897 0
M  V30 6330 N 604.165 1.07545 6.93814 0
M  V30 6331 H 609.005 1.63257 2.49302 0
M  V30 6332 H 606.542 0.815693 1.22413 0
M  V30 6333 H 608.5 -0.196923 4.16735 0
M  V30 6334 H 607.13 -0.711433 3.14863 0
M  V30 6335 H 606.182 1.69485 3.40557 0
M  V30 6336 H 607.494 2.0238 4.55899 0
M  V30 6337 H 606.648 0.210976 6.06333 0
M  V30 6338 H 605.387 -0.215584 4.87223 0
M  V30 6339 H 604.392 2.07899 5.08978 0
M  V30 6340 H 605.617 2.49861 6.31464 0
M  V30 6341 H 603.563 0.267451 6.55455 0
M  V30 6342 H 603.48 1.81011 7.3401 0
M  V30 6343 H 604.748 0.698906 7.7636 0
M  V30 6344 N 608.977 -1.30795 0.87923 0
M  V30 6345 C 609.907 -2.30742 0.357796 0
M  V30 6346 C 610.888 -1.60747 -0.556283 0
M  V30 6347 O 612.073 -1.88393 -0.47135 0
M  V30 6348 C 609.203 -3.44583 -0.433555 0
M  V30 6349 C 608.157 -4.26235 0.388251 0
M  V30 6350 C 607.483 -5.32073 -0.529352 0
M  V30 6351 C 608.783 -4.96303 1.62729 0
M  V30 6352 H 610.477 -2.74605 1.19299 0
M  V30 6353 H 608.023 -1.32017 0.575104 0
M  V30 6354 H 609.976 -4.13563 -0.808934 0
M  V30 6355 H 608.7 -2.99511 -1.30234 0
M  V30 6356 H 607.359 -3.58936 0.745695 0
M  V30 6357 H 607.007 -4.83249 -1.39569 0
M  V30 6358 H 606.707 -5.87598 0.0166741 0
M  V30 6359 H 608.231 -6.0391 -0.901373 0
M  V30 6360 H 609.645 -5.5783 1.32283 0
M  V30 6361 H 608.042 -5.61666 2.11309 0
M  V30 6362 H 609.112 -4.22758 2.37494 0
M  V30 6363 O 610.494 -0.779418 -1.41447 0
M  V30 6364 H 611.185 -0.346083 -1.90583 0
M  V30 END ATOM
M  V30 BEGIN BOND
M  V30 END BOND
M  V30 END CTAB
M  END
$$$$
