drugbank_target|P22413 Ectonucleotide pyrophosphatase/phosphodiesterase family member 1 (DB06408; DB11077)
 OpenBabel12092119323D

  0  0  0     0  0            999 V3000
M  V30 BEGIN CTAB
M  V30 COUNTS 14565 14763 0 0 0
M  V30 BEGIN ATOM
M  V30 1 H -0.908 1.98254 -0.117106 0
M  V30 2 N 0 1.576 0 0
M  V30 3 C 0.933 2.03868 1.02534 0
M  V30 4 C 1.911 0.928543 1.3348 0
M  V30 5 O 3.095 1.19667 1.45644 0
M  V30 6 C 0.222 2.43627 2.35294 0
M  V30 7 C -0.732 3.65373 2.2001 0
M  V30 8 S 0.101 5.13292 1.52614 0
M  V30 9 C 1.257 5.56322 2.86805 0
M  V30 10 H 1.49 2.90518 0.631377 0
M  V30 11 H -0.977 1.52953 0.210867 0
M  V30 12 H 0.981 2.67203 3.11629 0
M  V30 13 H -0.358 1.57376 2.7183 0
M  V30 14 H -1.165 3.90944 3.18086 0
M  V30 15 H -1.563 3.418 1.51819 0
M  V30 16 H 0.729 5.58782 3.83104 0
M  V30 17 H 1.672 6.56266 2.65933 0
M  V30 18 H 2.08 4.83886 2.90714 0
M  V30 19 N 1.4781 -0.272755 1.55222 0
M  V30 20 C 2.3881 -1.35918 1.91216 0
M  V30 21 C 3.4041 -1.54026 0.809436 0
M  V30 22 O 4.5801 -1.68148 1.10852 0
M  V30 23 C 1.6451 -2.69834 2.17693 0
M  V30 24 C 0.7061 -2.6047 3.41253 0
M  V30 25 C -0.0609 -3.88 3.66458 0
M  V30 26 O 0.1621 -4.88693 2.94169 0
M  V30 27 O -0.9039 -3.88189 4.59992 0
M  V30 28 H 2.9221 -1.0839 2.83699 0
M  V30 29 H 0.5071 -0.471301 1.41771 0
M  V30 30 H 2.3891 -3.49017 2.36147 0
M  V30 31 H 1.0641 -2.97148 1.28392 0
M  V30 32 H -0.0289 -1.79663 3.28134 0
M  V30 33 H 1.3041 -2.38106 4.30774 0
M  V30 34 N 2.9562 -1.48159 -0.537278 0
M  V30 35 C 4.3722 -1.34118 -0.865129 0
M  V30 36 C 4.5722 -0.346678 -1.98495 0
M  V30 37 O 3.6282 0.234715 -2.51407 0
M  V30 38 C 4.9412 -2.73963 -1.23954 0
M  V30 39 C 6.4892 -2.82397 -1.34984 0
M  V30 40 C 6.9642 -4.22928 -1.75772 0
M  V30 41 N 8.4552 -4.25566 -1.82887 0
M  V30 42 C 9.1902 -5.31235 -2.15817 0
M  V30 43 N 8.6862 -6.47189 -2.47222 0
M  V30 44 N 10.4792 -5.18624 -2.16761 0
M  V30 45 H 2.6302 -2.1144 0.201715 0
M  V30 46 H 4.8932 -0.947598 0.0275949 0
M  V30 47 H 4.5992 -3.48264 -0.490381 0
M  V30 48 H 4.4732 -3.0702 -2.19132 0
M  V30 49 H 6.8602 -2.08356 -2.08978 0
M  V30 50 H 6.9412 -2.5297 -0.379448 0
M  V30 51 H 6.5852 -4.97482 -1.02341 0
M  V30 52 H 6.5152 -4.49794 -2.73848 0
M  V30 53 H 9.0062 -3.41924 -1.60924 0
M  V30 54 H 9.3192 -7.23564 -2.71433 0
M  V30 55 H 7.6642 -6.50476 -2.44757 0
M  V30 56 H 10.8552 -4.27056 -1.91679 0
M  V30 57 H 11.0282 -6.01078 -2.42093 0
M  V30 58 N 4.4343 0.785586 -1.36625 0
M  V30 59 C 5.7113 1.53198 -1.21613 0
M  V30 60 C 6.0913 2.10187 0.196113 0
M  V30 61 O 5.4393 1.94318 1.20219 0
M  V30 62 C 5.6493 2.62388 -2.30116 0
M  V30 63 C 6.9973 3.30167 -2.66974 0
M  V30 64 O 8.0213 2.72674 -2.29188 0
M  V30 65 O 6.8803 4.34077 -3.32023 0
M  V30 66 H 3.9743 0.677865 -0.473738 0
M  V30 67 H 6.5203 0.823739 -1.48367 0
M  V30 68 H 5.2923 2.18299 -3.24748 0
M  V30 69 H 4.9153 3.40827 -2.0475 0
M  V30 70 N 5.9124 1.20967 1.01018 0
M  V30 71 C 7.1604 1.02172 1.74371 0
M  V30 72 C 7.4814 -0.446414 1.89821 0
M  V30 73 O 6.7514 -1.32234 1.44537 0
M  V30 74 H 5.3314 0.375066 0.646014 0
M  V30 75 H 7.9934 1.52187 1.21758 0
M  V30 76 H 7.0894 1.48538 2.74487 0
M  V30 77 N 7.3905 -1.2043 1.01659 0
M  V30 78 C 8.6305 -1.91507 0.714456 0
M  V30 79 C 8.9945 -1.77073 -0.742237 0
M  V30 80 O 10.1955 -2.42631 -1.15688 0
M  V30 81 C 8.4665 -3.38795 1.13809 0
M  V30 82 S 10.0255 -4.28216 0.957925 0
M  V30 83 H 6.8435 -0.661571 0.260471 0
M  V30 84 H 9.4455 -1.45671 1.30384 0
M  V30 85 H 8.1495 -3.46822 2.19415 0
M  V30 86 H 7.6805 -3.89656 0.541474 0
M  V30 87 H 9.6955 -4.96007 -0.138531 0
M  V30 88 N 8.8686 -0.792821 -1.36206 0
M  V30 89 C 9.8316 -0.199459 -2.2833 0
M  V30 90 C 10.8316 0.605189 -1.48977 0
M  V30 91 O 12.0216 0.425685 -1.68919 0
M  V30 92 C 9.1536 0.723523 -3.33134 0
M  V30 93 H 10.3466 -1.01181 -2.82316 0
M  V30 94 H 7.8996 -0.562485 -1.45828 0
M  V30 95 H 8.6346 1.56008 -2.84309 0
M  V30 96 H 8.4196 0.148436 -3.91819 0
M  V30 97 H 9.9096 1.13344 -4.01924 0
M  V30 98 N 10.3467 1.47872 -0.545128 0
M  V30 99 C 11.5947 2.02093 -0.016553 0
M  V30 100 C 11.9157 1.42305 1.3332 0
M  V30 101 O 11.1857 0.593853 1.86682 0
M  V30 102 H 9.7657 0.746993 -0.00313038 0
M  V30 103 H 12.4277 1.81414 -0.712397 0
M  V30 104 H 11.5237 3.11996 0.0805422 0
M  V30 105 N 11.8248 0.280983 1.55075 0
M  V30 106 C 13.0728 -0.333455 1.9933 0
M  V30 107 C 13.3938 -1.55937 1.17085 0
M  V30 108 O 12.6638 -1.94143 0.261805 0
M  V30 109 H 11.2438 -0.126197 0.736263 0
M  V30 110 H 13.9058 0.387678 1.91005 0
M  V30 111 H 13.0018 -0.619292 3.05894 0
M  V30 112 N 13.3029 -1.57598 0.00835791 0
M  V30 113 C 14.5509 -1.90551 -0.6734 0
M  V30 114 C 14.8719 -0.883301 -1.73847 0
M  V30 115 O 14.1419 0.0781442 -1.95744 0
M  V30 116 H 12.7219 -0.703312 -0.251717 0
M  V30 117 H 15.3839 -1.94833 0.0512592 0
M  V30 118 H 14.4799 -2.9056 -1.13935 0
M  V30 119 N 14.781 0.264519 -1.55364 0
M  V30 120 C 16.006 1.01726 -1.80739 0
M  V30 121 C 16.431 1.78836 -0.583044 0
M  V30 122 O 15.789 1.75167 0.467566 0
M  V30 123 C 15.837 1.94482 -3.03659 0
M  V30 124 O 14.941 3.03386 -2.7934 0
M  V30 125 H 14.282 0.290395 -0.597132 0
M  V30 126 H 16.812 0.290854 -2.02522 0
M  V30 127 H 16.822 2.36278 -3.32621 0
M  V30 128 H 15.497 1.37772 -3.92418 0
M  V30 129 H 14.074 2.65844 -2.61498 0
M  V30 130 N 16.2591 1.48442 0.529413 0
M  V30 131 C 17.6751 1.34575 0.858004 0
M  V30 132 C 17.8751 0.3572 1.98309 0
M  V30 133 O 16.9311 -0.221379 2.51528 0
M  V30 134 C 18.2441 2.74617 1.22499 0
M  V30 135 C 19.7921 2.83109 1.33484 0
M  V30 136 C 20.2671 4.23854 1.73526 0
M  V30 137 N 21.7581 4.2653 1.80628 0
M  V30 138 C 22.4931 5.32372 2.12997 0
M  V30 139 N 21.9891 6.48491 2.43786 0
M  V30 140 N 23.7821 5.19766 2.14008 0
M  V30 141 H 15.9331 2.1133 -0.212925 0
M  V30 142 H 18.1961 0.947439 -0.0326199 0
M  V30 143 H 17.9021 3.4852 0.471905 0
M  V30 144 H 17.7761 3.08177 2.17501 0
M  V30 145 H 20.1631 2.09462 2.0787 0
M  V30 146 H 20.2441 2.53168 0.366027 0
M  V30 147 H 19.8881 4.98018 0.997013 0
M  V30 148 H 19.8181 4.5124 2.71459 0
M  V30 149 H 22.3091 3.42772 1.59108 0
M  V30 150 H 22.6221 7.24993 2.67592 0
M  V30 151 H 20.9671 6.51765 2.41304 0
M  V30 152 H 24.1581 4.28066 1.89412 0
M  V30 153 H 24.3311 6.02354 2.38902 0
M  V30 154 N 17.7372 -0.778329 1.37039 0
M  V30 155 C 18.9852 -1.53361 1.31623 0
M  V30 156 C 19.3062 -1.94739 -0.100831 0
M  V30 157 O 18.5762 -1.65797 -1.04347 0
M  V30 158 H 17.1562 -0.568794 0.484234 0
M  V30 159 H 19.8182 -0.926742 1.71457 0
M  V30 160 H 18.9142 -2.43606 1.95096 0
M  V30 161 N 19.2153 -1.21501 -1.00376 0
M  V30 162 C 20.4633 -1.03095 -1.73827 0
M  V30 163 C 20.7843 0.436341 -1.90055 0
M  V30 164 O 20.0543 1.31466 -1.45236 0
M  V30 165 H 18.6343 -0.378487 -0.644016 0
M  V30 166 H 21.2963 -1.52831 -1.20949 0
M  V30 167 H 20.3923 -1.49991 -2.73695 0
M  V30 168 N 20.6934 1.19889 -1.02296 0
M  V30 169 C 21.6034 2.26571 -0.608508 0
M  V30 170 C 22.6194 1.70299 0.356964 0
M  V30 171 O 23.7954 2.00235 0.216326 0
M  V30 172 C 20.8604 3.46677 0.0402814 0
M  V30 173 C 19.9214 4.18153 -0.97194 0
M  V30 174 C 19.1544 5.32525 -0.354016 0
M  V30 175 O 19.3774 5.64112 0.844604 0
M  V30 176 O 18.3114 5.92242 -1.07391 0
M  V30 177 H 22.1374 2.64251 -1.49684 0
M  V30 178 H 19.7224 1.26629 -0.792809 0
M  V30 179 H 21.6044 4.19475 0.402324 0
M  V30 180 H 20.2794 3.10858 0.902707 0
M  V30 181 H 19.1864 3.47499 -1.38546 0
M  V30 182 H 20.5194 4.57927 -1.80454 0
M  V30 183 N 22.1715 0.800033 1.35784 0
M  V30 184 C 23.4195 0.376597 1.9856 0
M  V30 185 C 23.7405 -1.05812 1.63795 0
M  V30 186 O 23.0105 -1.73103 0.917171 0
M  V30 187 H 21.5905 0.136261 0.734467 0
M  V30 188 H 24.2525 1.02442 1.65806 0
M  V30 189 H 23.3485 0.477002 3.08433 0
M  V30 190 N 23.6496 -1.47581 0.552962 0
M  V30 191 C 24.8976 -2.02082 0.0272703 0
M  V30 192 C 25.2186 -1.4301 -1.32563 0
M  V30 193 O 24.4886 -0.603745 -1.86365 0
M  V30 194 H 23.0686 -0.746966 0.00709182 0
M  V30 195 H 25.7306 -1.81033 0.722008 0
M  V30 196 H 24.8266 -3.12034 -0.0639951 0
M  V30 197 N 25.1277 -0.289203 -1.54924 0
M  V30 198 C 26.5437 0.0645403 -1.59469 0
M  V30 199 C 26.7437 1.53419 -1.30632 0
M  V30 200 O 25.7997 2.2852 -1.074 0
M  V30 201 C 27.1127 -0.32278 -2.98963 0
M  V30 202 C 28.6607 -0.270564 -3.11828 0
M  V30 203 C 29.1357 -0.632532 -4.53611 0
M  V30 204 N 30.6267 -0.584617 -4.59496 0
M  V30 205 C 31.3617 -0.837314 -5.67254 0
M  V30 206 N 30.8577 -1.15536 -6.83098 0
M  V30 207 N 32.6507 -0.765166 -5.56868 0
M  V30 208 H 24.8017 -1.24714 -1.71931 0
M  V30 209 H 27.0647 -0.504809 -0.802416 0
M  V30 210 H 26.7707 -1.34541 -3.24948 0
M  V30 211 H 26.6447 0.32944 -3.75759 0
M  V30 212 H 29.0317 0.742805 -2.85598 0
M  V30 213 H 29.1127 -0.957242 -2.37214 0
M  V30 214 H 28.7567 -1.64365 -4.80569 0
M  V30 215 H 28.6867 0.07609 -5.26545 0
M  V30 216 H 31.1777 -0.349248 -3.76283 0
M  V30 217 H 31.4907 -1.33447 -7.61191 0
M  V30 218 H 29.8357 -1.19328 -6.84679 0
M  V30 219 H 33.0267 -0.516432 -4.65243 0
M  V30 220 H 33.1997 -0.965477 -6.40767 0
M  V30 221 N 26.6058 1.57591 -0.0167156 0
M  V30 222 C 27.5688 2.08393 0.954204 0
M  V30 223 C 28.5688 0.996531 1.26198 0
M  V30 224 O 29.7588 1.25858 1.20438 0
M  V30 225 C 26.8908 2.5394 2.27436 0
M  V30 226 H 28.0838 2.95455 0.514451 0
M  V30 227 H 25.6368 1.54582 0.231089 0
M  V30 228 H 26.3718 1.70171 2.76066 0
M  V30 229 H 26.1568 3.33371 2.06412 0
M  V30 230 H 27.6468 2.93512 2.97053 0
M  V30 231 N 28.0839 -0.256276 1.55502 0
M  V30 232 C 29.4949 -0.826068 1.67431 0
M  V30 233 C 29.8459 -1.86396 0.612446 0
M  V30 234 O 28.9709 -2.15031 -0.243025 0
M  V30 235 C 29.5659 -1.50512 3.03532 0
M  V30 236 C 28.1249 -2.02273 3.17431 0
M  V30 237 C 27.2719 -0.870548 2.63281 0
M  V30 238 H 30.2229 -0.0322728 1.58667 0
M  V30 239 H 30.2439 -2.37279 2.97454 0
M  V30 240 H 29.7559 -0.749484 3.80794 0
M  V30 241 H 27.8569 -2.80746 2.44974 0
M  V30 242 H 27.9699 -2.22655 4.24219 0
M  V30 243 H 26.3339 -1.26851 2.20864 0
M  V30 244 H 27.1169 -0.128149 3.43061 0
M  V30 245 N 29.562 -1.4872 -0.521534 0
M  V30 246 C 30.978 -1.35028 -0.850855 0
M  V30 247 C 31.178 -0.367712 -1.98116 0
M  V30 248 O 30.234 0.208037 -2.51642 0
M  V30 249 C 31.547 -2.75263 -1.21041 0
M  V30 250 C 33.095 -2.83813 -1.31981 0
M  V30 251 C 33.57 -4.24769 -1.71276 0
M  V30 252 N 35.061 -4.27482 -1.78363 0
M  V30 253 C 35.796 -5.33494 -2.1017 0
M  V30 254 N 35.292 -6.49775 -2.40343 0
M  V30 255 N 37.085 -5.20894 -2.11248 0
M  V30 256 H 29.236 -2.11214 0.22413 0
M  V30 257 H 31.499 -0.947252 0.0376439 0
M  V30 258 H 31.205 -3.48765 -0.453415 0
M  V30 259 H 31.079 -3.09327 -2.15863 0
M  V30 260 H 33.466 -2.10561 -2.06756 0
M  V30 261 H 33.547 -2.53358 -0.352596 0
M  V30 262 H 33.191 -4.9854 -0.970588 0
M  V30 263 H 33.121 -4.52673 -2.69062 0
M  V30 264 H 35.612 -3.43611 -1.57288 0
M  V30 265 H 35.925 -7.26402 -2.63743 0
M  V30 266 H 34.27 -6.53035 -2.37844 0
M  V30 267 H 37.461 -4.29065 -1.87139 0
M  V30 268 H 37.634 -6.03612 -2.35704 0
M  V30 269 N 31.0401 0.771051 -1.3745 0
M  V30 270 C 31.9501 1.91538 -1.35464 0
M  V30 271 C 32.9661 1.72134 -0.254123 0
M  V30 272 O 34.1421 1.95358 -0.489626 0
M  V30 273 C 31.2071 3.26671 -1.16134 0
M  V30 274 C 30.2681 3.58723 -2.35831 0
M  V30 275 C 29.5011 4.87409 -2.17413 0
M  V30 276 O 29.7241 5.58506 -1.15876 0
M  V30 277 O 28.6581 5.18539 -3.05615 0
M  V30 278 H 32.4841 1.96165 -2.31847 0
M  V30 279 H 30.0691 0.9139 -1.18187 0
M  V30 280 H 31.9511 4.07499 -1.07345 0
M  V30 281 H 30.6261 3.22894 -0.228251 0
M  V30 282 H 29.5331 2.78127 -2.50192 0
M  V30 283 H 30.8661 3.67243 -3.27709 0
M  V30 284 N 32.5182 1.22032 0.997298 0
M  V30 285 C 33.7662 1.04016 1.73278 0
M  V30 286 C 34.0872 -0.426255 1.90284 0
M  V30 287 O 33.3572 -1.30694 1.45931 0
M  V30 288 H 31.9372 0.381897 0.642 0
M  V30 289 H 34.5992 1.5347 1.20137 0
M  V30 290 H 33.6952 1.51441 2.72896 0
M  V30 291 N 33.9963 -1.19345 1.0293 0
M  V30 292 C 35.4073 -1.70725 0.755633 0
M  V30 293 C 35.7583 -1.82326 -0.724676 0
M  V30 294 O 34.8833 -1.49471 -1.56484 0
M  V30 295 C 35.4783 -3.10084 1.36503 0
M  V30 296 C 34.0373 -3.58723 1.13994 0
M  V30 297 C 33.1843 -2.35577 1.46283 0
M  V30 298 H 36.1353 -1.0418 1.19718 0
M  V30 299 H 36.1563 -3.72787 0.762217 0
M  V30 300 H 35.6683 -3.01609 2.44241 0
M  V30 301 H 33.7693 -3.72512 0.0807901 0
M  V30 302 H 33.8823 -4.42816 1.82894 0
M  V30 303 H 32.2463 -2.38935 0.88217 0
M  V30 304 H 33.0293 -2.29731 2.55105 0
M  V30 305 N 35.4744 -0.807222 -1.35358 0
M  V30 306 C 36.4374 -0.223665 -2.28106 0
M  V30 307 C 37.4374 0.589354 -1.4961 0
M  V30 308 O 38.6274 0.407745 -1.69361 0
M  V30 309 C 35.7594 0.688149 -3.33882 0
M  V30 310 H 36.9524 -1.04169 -2.81227 0
M  V30 311 H 34.5054 -0.577921 -1.45223 0
M  V30 312 H 35.2404 1.52984 -2.85948 0
M  V30 313 H 35.0254 0.10687 -3.91954 0
M  V30 314 H 36.5154 1.09075 -4.03104 0
M  V30 315 N 36.9525 1.47285 -0.560781 0
M  V30 316 C 38.2005 2.02064 -0.0379868 0
M  V30 317 C 38.5215 1.43711 1.31803 0
M  V30 318 O 37.7915 0.61362 1.86042 0
M  V30 319 H 36.3715 0.746918 -0.0110531 0
M  V30 320 H 39.0335 1.80648 -0.731598 0
M  V30 321 H 38.1295 3.12064 0.0474463 0
M  V30 322 N 38.4306 0.297415 1.54768 0
M  V30 323 C 39.3786 -0.596051 2.24833 0
M  V30 324 C 40.3726 -1.13992 1.25308 0
M  V30 325 O 41.5786 -1.09098 1.4317 0
M  V30 326 H 37.9536 -0.210814 0.721846 0
M  V30 327 H 39.9246 0.0174667 2.98395 0
M  V30 328 C 38.6736 -1.75818 2.99972 0
M  V30 329 H 37.9966 -1.3489 3.76357 0
M  V30 330 H 39.4366 -2.35949 3.52284 0
M  V30 331 C 37.8956 -2.66014 2.06732 0
M  V30 332 O 38.4256 -3.67009 1.63302 0
M  V30 333 N 36.6316 -2.33669 1.72763 0
M  V30 334 H 36.1786 -1.51586 2.08277 0
M  V30 335 H 36.1366 -2.94285 1.10652 0
M  V30 336 N 39.9087 -1.5758 0.0250728 0
M  V30 337 C 41.1567 -1.91255 -0.653151 0
M  V30 338 C 41.4777 -0.901691 -1.729 0
M  V30 339 O 40.7477 0.0573785 -1.95816 0
M  V30 340 H 39.3277 -0.705942 -0.244243 0
M  V30 341 H 41.9897 -1.94767 0.0719209 0
M  V30 342 H 41.0857 -2.91752 -1.10847 0
M  V30 343 N 41.3868 0.248026 -1.55636 0
M  V30 344 C 42.8028 0.596483 -1.48035 0
M  V30 345 C 43.0028 1.88386 -0.715039 0
M  V30 346 O 42.0588 2.51319 -0.243944 0
M  V30 347 C 43.3718 0.700258 -2.92433 0
M  V30 348 C 44.9198 0.792659 -3.02797 0
M  V30 349 C 45.3948 0.928005 -4.485 0
M  V30 350 N 46.8858 0.992903 -4.52433 0
M  V30 351 C 47.6208 1.11687 -5.62418 0
M  V30 352 N 47.1168 1.20645 -6.82214 0
M  V30 353 N 48.9098 1.14994 -5.50212 0
M  V30 354 H 41.0608 -0.597109 -2.03834 0
M  V30 355 H 43.3238 -0.205925 -0.925364 0
M  V30 356 H 43.0298 -0.175658 -3.51261 0
M  V30 357 H 42.9038 1.57255 -3.42857 0
M  V30 358 H 45.2908 1.65903 -2.4405 0
M  V30 359 H 45.3718 -0.104762 -2.55585 0
M  V30 360 H 45.0158 0.0661971 -5.07857 0
M  V30 361 H 44.9458 1.84045 -4.93391 0
M  V30 362 H 47.4368 0.935064 -3.66149 0
M  V30 363 H 47.7498 1.30008 -7.61786 0
M  V30 364 H 46.0948 1.17605 -6.84977 0
M  V30 365 H 49.2858 1.07643 -4.55555 0
M  V30 366 H 49.4588 1.24311 -6.35965 0
M  V30 367 N 42.8649 1.48995 0.513639 0
M  V30 368 C 44.1419 1.48338 1.27495 0
M  V30 369 C 44.5219 0.204065 2.10111 0
M  V30 370 O 43.8699 -0.813881 2.13514 0
M  V30 371 C 44.0799 2.75498 2.14247 0
M  V30 372 C 45.4279 3.24484 2.73852 0
M  V30 373 O 46.4519 2.76528 2.24523 0
M  V30 374 O 45.3109 4.07974 3.6362 0
M  V30 375 H 42.4049 0.593149 0.576284 0
M  V30 376 H 44.9509 1.61246 0.528948 0
M  V30 377 H 43.7229 3.60109 1.53092 0
M  V30 378 H 43.3459 2.6539 2.96064 0
M  V30 379 N 44.343 -0.763751 1.37857 0
M  V30 380 C 45.759 -1.06542 1.18832 0
M  V30 381 C 45.959 -2.01478 0.0299722 0
M  V30 382 O 45.015 -2.4458 -0.627447 0
M  V30 383 C 46.328 -1.65525 2.51042 0
M  V30 384 C 47.876 -1.77745 2.57635 0
M  V30 385 C 48.351 -2.4014 3.89996 0
M  V30 386 N 49.842 -2.47582 3.91481 0
M  V30 387 C 50.577 -2.96732 4.9065 0
M  V30 388 N 50.073 -3.45993 6.00217 0
M  V30 389 N 51.866 -2.95679 4.78048 0
M  V30 390 H 44.017 -0.133556 2.1198 0
M  V30 391 H 46.28 -0.121879 0.940133 0
M  V30 392 H 45.986 -1.03236 3.36207 0
M  V30 393 H 45.86 -2.64719 2.68707 0
M  V30 394 H 48.247 -2.39164 1.72872 0
M  V30 395 H 48.328 -0.772836 2.43846 0
M  V30 396 H 47.972 -1.79358 4.75177 0
M  V30 397 H 47.902 -3.41223 4.01092 0
M  V30 398 H 50.393 -2.1273 3.12337 0
M  V30 399 H 50.706 -3.81922 6.7183 0
M  V30 400 H 49.051 -3.44077 6.03851 0
M  V30 401 H 52.242 -2.56499 3.91568 0
M  V30 402 H 52.415 -3.33672 5.55488 0
M  V30 403 N 45.8211 -1.22559 -0.990812 0
M  V30 404 C 47.0691 -1.04933 -1.72724 0
M  V30 405 C 47.3901 0.416158 -1.90508 0
M  V30 406 O 46.6601 1.29918 -1.46622 0
M  V30 407 H 45.2401 -0.385296 -0.639965 0
M  V30 408 H 47.9021 -1.54105 -1.19322 0
M  V30 409 H 46.9981 -1.52886 -2.72089 0
M  V30 410 N 47.2992 1.18797 -1.03562 0
M  V30 411 C 48.7152 1.40671 -0.753917 0
M  V30 412 C 48.9152 1.9043 0.658686 0
M  V30 413 O 47.9712 2.08538 1.42366 0
M  V30 414 C 49.2842 2.41192 -1.79574 0
M  V30 415 C 50.8322 2.54928 -1.81606 0
M  V30 416 C 51.3072 3.58709 -2.84766 0
M  V30 417 N 52.7982 3.66212 -2.83625 0
M  V30 418 C 53.5332 4.46225 -3.60098 0
M  V30 419 N 53.0292 5.29888 -4.46308 0
M  V30 420 N 54.8222 4.40939 -3.4861 0
M  V30 421 H 46.9732 0.848221 -1.94728 0
M  V30 422 H 49.2362 0.435081 -0.842264 0
M  V30 423 H 48.9422 2.11669 -2.80872 0
M  V30 424 H 48.8162 3.40467 -1.62365 0
M  V30 425 H 51.2032 2.83771 -0.809817 0
M  V30 426 H 51.2842 1.55784 -2.02891 0
M  V30 427 H 50.9282 3.30607 -3.85566 0
M  V30 428 H 50.8582 4.57519 -2.60737 0
M  V30 429 H 53.3492 3.06466 -2.21105 0
M  V30 430 H 53.6622 5.88078 -5.01382 0
M  V30 431 H 52.0072 5.29326 -4.50377 0
M  V30 432 H 55.1982 3.74624 -2.80668 0
M  V30 433 H 55.3712 5.03056 -4.08459 0
M  V30 434 N 48.7773 0.814389 1.34928 0
M  V30 435 C 50.0023 0.410097 2.03305 0
M  V30 436 C 50.4273 -0.973464 1.60951 0
M  V30 437 O 49.7853 -1.63185 0.789964 0
M  V30 438 C 49.8333 0.51049 3.56968 0
M  V30 439 O 48.9373 -0.473035 4.09678 0
M  V30 440 H 48.2783 0.170088 0.641846 0
M  V30 441 H 50.8083 1.10244 1.72358 0
M  V30 442 H 50.8183 0.383135 4.06197 0
M  V30 443 H 49.4933 1.51963 3.87144 0
M  V30 444 H 48.0703 -0.305272 3.71648 0
M  V30 445 N 50.2554 -1.46986 0.568584 0
M  V30 446 C 51.2054 -2.27179 -0.193339 0
M  V30 447 C 52.1894 -1.35035 -0.874895 0
M  V30 448 O 53.3814 -1.5931 -0.771322 0
M  V30 449 C 50.5104 -3.21063 -1.21546 0
M  V30 450 C 49.5964 -4.2069 -0.536738 0
M  V30 451 N 49.9874 -5.04218 0.399673 0
M  V30 452 C 48.2854 -4.38961 -0.789254 0
M  V30 453 C 48.9864 -5.76242 0.795017 0
M  V30 454 N 47.9624 -5.434 0.1473 0
M  V30 455 H 51.7644 -2.89146 0.526458 0
M  V30 456 H 49.2784 -1.57664 0.389342 0
M  V30 457 H 51.2754 -3.77209 -1.77536 0
M  V30 458 H 49.9354 -2.60654 -1.93623 0
M  V30 459 H 50.9464 -5.12077 0.774454 0
M  V30 460 H 47.6234 -3.89713 -1.49767 0
M  V30 461 H 49.0134 -6.53417 1.56513 0
M  V30 462 N 51.7335 -0.305618 -1.54608 0
M  V30 463 C 52.6965 0.555591 -2.22364 0
M  V30 464 C 53.6965 1.05768 -1.21119 0
M  V30 465 O 54.8865 0.952972 -1.45822 0
M  V30 466 C 52.0185 1.76974 -2.91364 0
M  V30 467 H 53.2115 -0.0364572 -2.99878 0
M  V30 468 H 50.7645 -0.0565007 -1.56198 0
M  V30 469 H 51.4995 2.40151 -2.17941 0
M  V30 470 H 51.2845 1.41732 -3.65588 0
M  V30 471 H 52.7745 2.38148 -3.43038 0
M  V30 472 N 53.2116 1.57565 -0.0334293 0
M  V30 473 C 54.1746 2.09393 0.932048 0
M  V30 474 C 55.1746 1.00986 1.25134 0
M  V30 475 O 56.3646 1.27129 1.19096 0
M  V30 476 C 53.4966 2.56338 2.2473 0
M  V30 477 H 54.6896 2.95984 0.483085 0
M  V30 478 H 52.2426 1.54819 0.21468 0
M  V30 479 H 52.9776 1.7309 2.74245 0
M  V30 480 H 52.7626 3.35542 2.02865 0
M  V30 481 H 54.2526 2.96646 2.93923 0
M  V30 482 N 54.6897 -0.239769 1.55765 0
M  V30 483 C 55.5997 -1.31831 1.94056 0
M  V30 484 C 56.6157 -1.52275 0.841925 0
M  V30 485 O 57.7917 -1.65759 1.14394 0
M  V30 486 C 54.8567 -2.65156 2.23368 0
M  V30 487 C 53.9177 -2.53173 3.46701 0
M  V30 488 C 53.1507 -3.8014 3.74606 0
M  V30 489 O 53.3737 -4.82343 3.04469 0
M  V30 490 O 52.3077 -3.78344 4.68123 0
M  V30 491 H 56.1337 -1.02347 2.85935 0
M  V30 492 H 53.7187 -0.441123 1.42739 0
M  V30 493 H 55.6007 -3.43929 2.43497 0
M  V30 494 H 54.2757 -2.94358 1.34666 0
M  V30 495 H 53.1827 -1.72662 3.31871 0
M  V30 496 H 54.5157 -2.28915 4.35728 0
M  V30 497 N 56.1678 -1.49265 -0.50573 0
M  V30 498 C 57.1308 -1.65075 -1.59006 0
M  V30 499 C 58.1308 -0.522768 -1.52065 0
M  V30 500 O 59.3208 -0.789117 -1.55302 0
M  V30 501 C 56.4528 -1.64369 -2.98656 0
M  V30 502 H 57.6458 -2.61784 -1.46319 0
M  V30 503 H 55.1988 -1.38226 -0.729616 0
M  V30 504 H 55.9338 -0.692272 -3.16825 0
M  V30 505 H 55.7188 -2.46282 -3.05103 0
M  V30 506 H 57.2088 -1.78674 -3.77446 0
M  V30 507 N 57.6459 0.756429 -1.3826 0
M  V30 508 C 59.0569 1.33359 -1.30661 0
M  V30 509 C 59.4079 1.96161 0.0388875 0
M  V30 510 O 58.5329 1.94874 0.940918 0
M  V30 511 C 59.1279 2.42477 -2.36622 0
M  V30 512 C 57.6869 2.95922 -2.3261 0
M  V30 513 C 56.8339 1.69275 -2.19639 0
M  V30 514 H 59.7849 0.55552 -1.4866 0
M  V30 515 H 59.8059 3.22345 -2.02174 0
M  V30 516 H 59.3179 1.96739 -3.34538 0
M  V30 517 H 57.4189 3.45996 -1.38267 0
M  V30 518 H 57.5319 3.50494 -3.26636 0
M  V30 519 H 55.8959 1.92793 -1.66442 0
M  V30 520 H 56.6789 1.25619 -3.19491 0
M  V30 521 N 59.124 1.23083 0.984299 0
M  V30 522 C 60.372 1.05848 1.72165 0
M  V30 523 C 60.693 -0.406049 1.90726 0
M  V30 524 O 59.963 -1.29139 1.47309 0
M  V30 525 H 58.543 0.388685 0.637913 0
M  V30 526 H 61.205 1.54736 1.18503 0
M  V30 527 H 60.301 1.54327 2.71274 0
M  V30 528 N 60.6021 -1.18246 1.0419 0
M  V30 529 C 61.8791 -1.84121 0.660208 0
M  V30 530 C 62.2591 -1.92778 -0.860221 0
M  V30 531 O 61.6071 -1.45464 -1.76217 0
M  V30 532 C 61.8171 -3.22355 1.33747 0
M  V30 533 C 63.1651 -3.98376 1.46906 0
M  V30 534 O 64.1891 -3.31799 1.29568 0
M  V30 535 O 63.0481 -5.17665 1.75171 0
M  V30 536 H 60.1421 -0.794036 0.231161 0
M  V30 537 H 62.6881 -1.25628 1.14087 0
M  V30 538 H 61.4601 -3.10964 2.37522 0
M  V30 539 H 61.0831 -3.88506 0.845515 0
M  V30 540 N 62.0802 -0.821533 -1.34494 0
M  V30 541 C 63.4912 -0.467956 -1.8074 0
M  V30 542 C 63.8422 1.01151 -1.68116 0
M  V30 543 O 62.9672 1.78707 -1.22036 0
M  V30 544 C 63.5622 -0.842627 -3.28154 0
M  V30 545 C 62.1212 -0.541439 -3.72485 0
M  V30 546 C 61.2682 -1.06028 -2.56229 0
M  V30 547 H 64.2192 -1.01183 -1.22261 0
M  V30 548 H 64.2402 -0.145876 -3.8022 0
M  V30 549 H 63.7522 -1.91945 -3.37311 0
M  V30 550 H 61.8532 0.526034 -3.68868 0
M  V30 551 H 61.9662 -1.08453 -4.66663 0
M  V30 552 H 60.3302 -0.481892 -2.501 0
M  V30 553 H 61.1132 -2.14352 -2.68157 0
M  V30 554 N 63.5583 1.46682 -0.576371 0
M  V30 555 C 64.4903 2.28341 0.198231 0
M  V30 556 C 65.5033 1.38141 0.861453 0
M  V30 557 O 66.6923 1.62797 0.732082 0
M  V30 558 C 63.7923 3.12986 1.29972 0
M  V30 559 C 62.9653 4.31271 0.729639 0
M  V30 560 C 62.0243 4.97363 1.71803 0
M  V30 561 O 61.0503 5.55156 1.25658 0
M  V30 562 N 62.2523 4.93796 3.05198 0
M  V30 563 H 65.0173 2.9546 -0.502324 0
M  V30 564 H 62.5783 1.56525 -0.413715 0
M  V30 565 H 64.5703 3.54066 1.96008 0
M  V30 566 H 63.1403 2.47984 1.90323 0
M  V30 567 H 62.3603 3.94052 -0.108012 0
M  V30 568 H 63.6483 5.07739 0.328438 0
M  V30 569 H 63.0463 4.48077 3.45317 0
M  V30 570 H 61.6033 5.38837 3.6674 0
M  V30 571 N 65.0364 0.313813 1.54444 0
M  V30 572 C 65.9994 -0.54379 2.22656 0
M  V30 573 C 66.9994 -1.05124 1.21678 0
M  V30 574 O 68.1894 -0.945225 1.46325 0
M  V30 575 C 65.3214 -1.75427 2.92298 0
M  V30 576 H 66.5144 0.0523599 2.99854 0
M  V30 577 H 64.0674 0.0647834 1.56166 0
M  V30 578 H 64.8024 -2.38991 2.19211 0
M  V30 579 H 64.5874 -1.39791 3.66334 0
M  V30 580 H 66.0774 -2.36325 3.44297 0
M  V30 581 N 66.5145 -1.57545 0.0417849 0
M  V30 582 C 67.4775 -2.09885 -0.92093 0
M  V30 583 C 68.4775 -1.01648 -1.24596 0
M  V30 584 O 69.6675 -1.27759 -1.1842 0
M  V30 585 C 66.7995 -2.57527 -2.23367 0
M  V30 586 H 67.9925 -2.96236 -0.467382 0
M  V30 587 H 65.5455 -1.5493 -0.206467 0
M  V30 588 H 66.2805 -1.74542 -2.73323 0
M  V30 589 H 66.0655 -3.36613 -2.01083 0
M  V30 590 H 67.5555 -2.98201 -2.92346 0
M  V30 591 N 67.9926 0.231505 -1.5589 0
M  V30 592 C 68.9556 1.27028 -1.90779 0
M  V30 593 C 69.9556 1.40308 -0.785507 0
M  V30 594 O 71.1456 1.38744 -1.05336 0
M  V30 595 C 68.2776 2.64566 -2.14983 0
M  V30 596 H 69.4706 0.973017 -2.83677 0
M  V30 597 H 67.0236 0.471486 -1.49019 0
M  V30 598 H 67.7586 2.99406 -1.24604 0
M  V30 599 H 67.5436 2.56305 -2.96732 0
M  V30 600 H 69.0336 3.39543 -2.43105 0
M  V30 601 N 69.4707 1.49531 0.497807 0
M  V30 602 C 70.6957 1.63159 1.28039 0
M  V30 603 C 71.1207 0.30418 1.85624 0
M  V30 604 O 70.4787 -0.728618 1.66015 0
M  V30 605 C 70.5267 2.70537 2.38416 0
M  V30 606 O 69.6307 2.29931 3.42353 0
M  V30 607 H 68.9717 0.546001 0.377861 0
M  V30 608 H 71.5017 1.9574 0.59558 0
M  V30 609 H 71.5117 2.92802 2.84132 0
M  V30 610 H 70.1867 3.6689 1.95869 0
M  V30 611 H 68.7637 2.18009 3.02533 0
M  V30 612 N 70.9488 -0.749086 1.3866 0
M  V30 613 C 71.8788 -1.8764 1.38973 0
M  V30 614 C 72.8598 -1.68178 0.255004 0
M  V30 615 O 74.0448 -1.88704 0.458754 0
M  V30 616 C 71.1748 -3.25222 1.21851 0
M  V30 617 C 70.1288 -3.59295 2.32575 0
M  V30 618 C 69.4548 -4.95663 2.00555 0
M  V30 619 C 70.7548 -3.63709 3.7485 0
M  V30 620 H 72.4488 -1.87635 2.3331 0
M  V30 621 H 69.9948 -0.901329 1.12303 0
M  V30 622 H 71.9478 -4.03746 1.20695 0
M  V30 623 H 70.6718 -3.25719 0.239775 0
M  V30 624 H 69.3308 -2.83093 2.32925 0
M  V30 625 H 68.9788 -4.92724 1.01154 0
M  V30 626 H 68.6788 -5.19429 2.74714 0
M  V30 627 H 70.2028 -5.7656 2.01024 0
M  V30 628 H 71.6168 -4.32338 3.76506 0
M  V30 629 H 70.0138 -3.98986 4.48252 0
M  V30 630 H 71.0838 -2.63834 4.06841 0
M  V30 631 N 72.4269 -1.23603 -0.977757 0
M  V30 632 C 73.3569 -1.04401 -2.0886 0
M  V30 633 C 74.3379 0.0399052 -1.70053 0
M  V30 634 O 75.5229 -0.125246 -1.93796 0
M  V30 635 C 72.6529 -0.637269 -3.41403 0
M  V30 636 C 71.6069 -1.66883 -3.94124 0
M  V30 637 C 70.9329 -1.11745 -5.22893 0
M  V30 638 C 72.2329 -3.06247 -4.23096 0
M  V30 639 H 73.9269 -1.97316 -2.25182 0
M  V30 640 H 71.4729 -0.950096 -1.08209 0
M  V30 641 H 73.4259 -0.48998 -4.18542 0
M  V30 642 H 72.1499 0.327557 -3.24953 0
M  V30 643 H 70.8089 -1.80416 -3.19133 0
M  V30 644 H 70.4569 -0.143527 -5.02795 0
M  V30 645 H 70.1569 -1.80672 -5.59134 0
M  V30 646 H 71.6809 -0.982067 -6.02651 0
M  V30 647 H 73.0949 -2.96001 -4.90975 0
M  V30 648 H 71.4919 -3.72436 -4.70544 0
M  V30 649 H 72.5619 -3.55041 -3.30263 0
M  V30 650 N 73.905 1.17692 -1.04816 0
M  V30 651 C 74.868 2.19787 -0.650117 0
M  V30 652 C 75.868 1.58044 0.296427 0
M  V30 653 O 77.058 1.74012 0.0808097 0
M  V30 654 C 74.19 3.40869 0.0456987 0
M  V30 655 H 75.383 2.56516 -1.5537 0
M  V30 656 H 72.936 1.31708 -0.841594 0
M  V30 657 H 73.671 3.09681 0.962726 0
M  V30 658 H 73.456 3.86928 -0.634727 0
M  V30 659 H 74.946 4.16445 0.310432 0
M  V30 660 N 75.3831 0.828654 1.34056 0
M  V30 661 C 76.7941 0.477534 1.8049 0
M  V30 662 C 77.1451 -1.00258 1.6865 0
M  V30 663 O 76.2701 -1.78057 1.22982 0
M  V30 664 C 76.8651 0.860018 3.27703 0
M  V30 665 C 75.4241 0.561185 3.72193 0
M  V30 666 C 74.5711 1.07385 2.55663 0
M  V30 667 H 77.5221 1.0183 1.21722 0
M  V30 668 H 77.5431 0.166038 3.80138 0
M  V30 669 H 77.0551 1.93731 3.36288 0
M  V30 670 H 75.1561 -0.506465 3.69142 0
M  V30 671 H 75.2691 1.10926 4.66082 0
M  V30 672 H 73.6331 0.495149 2.49841 0
M  V30 673 H 74.4161 2.15771 2.67016 0
M  V30 674 N 76.8612 -1.46375 0.584142 0
M  V30 675 C 77.7942 -2.27351 -0.196676 0
M  V30 676 C 78.7722 -1.35715 -0.895561 0
M  V30 677 O 79.9562 -1.65126 -0.90916 0
M  V30 678 C 77.0832 -3.13486 -1.28235 0
M  V30 679 C 76.1292 -4.20896 -0.689145 0
M  V30 680 S 76.9622 -5.33299 0.48507 0
M  V30 681 C 78.1182 -6.23 -0.601767 0
M  V30 682 H 78.3512 -2.93228 0.490395 0
M  V30 683 H 75.8842 -1.49875 0.371071 0
M  V30 684 H 77.8422 -3.63676 -1.90395 0
M  V30 685 H 76.5032 -2.4692 -1.94138 0
M  V30 686 H 75.6962 -4.80997 -1.50527 0
M  V30 687 H 75.2982 -3.73726 -0.143181 0
M  V30 688 H 77.5902 -6.60979 -1.48705 0
M  V30 689 H 78.5332 -7.0809 -0.0374799 0
M  V30 690 H 78.9412 -5.57173 -0.906557 0
M  V30 691 N 78.3393 -0.321999 -1.54275 0
M  V30 692 C 79.6163 0.335232 -1.92706 0
M  V30 693 C 79.9963 1.70006 -1.25145 0
M  V30 694 O 79.3443 2.25067 -0.394596 0
M  V30 695 C 79.5543 0.429008 -3.46353 0
M  V30 696 C 80.9023 0.690029 -4.18956 0
M  V30 697 O 81.9263 0.511992 -3.52501 0
M  V30 698 O 80.7853 1.03338 -5.36641 0
M  V30 699 H 77.8793 0.191143 -0.804608 0
M  V30 700 H 80.4253 -0.3716 -1.65581 0
M  V30 701 H 79.1973 -0.529611 -3.87699 0
M  V30 702 H 78.8203 1.18348 -3.79578 0
M  V30 703 N 79.8174 1.5752 -0.0501392 0
M  V30 704 C 81.0634 1.92936 0.624798 0
M  V30 705 C 81.3964 0.928685 1.70555 0
M  V30 706 O 80.6714 -0.0454779 1.94447 0
M  V30 707 C 80.9544 3.38737 1.22185 0
M  V30 708 C 80.8074 4.49552 0.149218 0
M  V30 709 C 82.1264 3.84913 2.13378 0
M  V30 710 H 79.2454 0.701604 0.225657 0
M  V30 711 H 81.8874 1.89671 -0.111693 0
M  V30 712 H 80.0374 3.4165 1.84953 0
M  V30 713 H 81.7094 4.58768 -0.482648 0
M  V30 714 H 79.9524 4.30638 -0.522841 0
M  V30 715 H 80.6234 5.48653 0.606966 0
M  V30 716 H 83.0994 3.8387 1.60572 0
M  V30 717 H 81.9754 4.87584 2.52097 0
M  V30 718 H 82.2364 3.21611 3.03346 0
M  V30 719 N 81.2955 -0.223234 1.56011 0
M  V30 720 C 82.5435 -0.946003 1.78592 0
M  V30 721 C 82.8645 -1.84936 0.618349 0
M  V30 722 O 82.1345 -1.92473 -0.364833 0
M  V30 723 H 80.7145 -0.352298 0.658707 0
M  V30 724 H 83.3765 -0.235494 1.93472 0
M  V30 725 H 82.4725 -1.55381 2.70672 0
M  V30 726 N 82.7736 -1.49793 -0.48987 0
M  V30 727 C 83.6836 -1.70036 -1.61632 0
M  V30 728 C 84.6996 -0.583102 -1.63939 0
M  V30 729 O 85.8756 -0.859169 -1.82154 0
M  V30 730 C 82.9406 -1.77277 -2.97949 0
M  V30 731 C 82.0016 -3.00918 -3.06181 0
M  V30 732 C 81.2346 -3.07804 -4.35996 0
M  V30 733 O 81.4576 -2.21982 -5.25433 0
M  V30 734 O 80.3916 -4.00369 -4.49431 0
M  V30 735 H 84.2176 -2.65486 -1.47482 0
M  V30 736 H 81.8026 -1.33666 -0.667362 0
M  V30 737 H 83.6846 -1.84329 -3.78947 0
M  V30 738 H 82.3596 -0.850076 -3.12339 0
M  V30 739 H 81.2666 -2.99377 -2.2433 0
M  V30 740 H 82.5996 -3.92704 -2.96723 0
M  V30 741 N 84.2517 0.741722 -1.39055 0
M  V30 742 C 85.1617 1.88621 -1.39496 0
M  V30 743 C 86.1777 1.71557 -0.290578 0
M  V30 744 O 87.3537 1.94275 -0.530954 0
M  V30 745 C 84.4187 3.24134 -1.23037 0
M  V30 746 C 83.4797 3.5364 -2.43387 0
M  V30 747 C 82.7127 4.82687 -2.27703 0
M  V30 748 O 82.9357 5.55922 -1.27696 0
M  V30 749 O 81.8697 5.1194 -3.16545 0
M  V30 750 H 85.6957 1.91203 -2.35956 0
M  V30 751 H 83.2807 0.888625 -1.20099 0
M  V30 752 H 85.1627 4.0513 -1.15964 0
M  V30 753 H 83.8377 3.22337 -0.296691 0
M  V30 754 H 82.7447 2.72758 -2.56035 0
M  V30 755 H 84.0777 3.60209 -3.35425 0
M  V30 756 N 85.7298 1.2412 0.971189 0
M  V30 757 C 87.1408 1.07236 1.52831 0
M  V30 758 C 87.4918 -0.357352 1.92918 0
M  V30 759 O 86.6168 -1.24528 1.76979 0
M  V30 760 C 87.2118 1.94043 2.77728 0
M  V30 761 C 85.7708 1.81394 3.29808 0
M  V30 762 C 84.9178 1.89189 2.02738 0
M  V30 763 H 87.8688 1.37648 0.789864 0
M  V30 764 H 87.8898 1.47066 3.5093 0
M  V30 765 H 87.4018 2.98093 2.4852 0
M  V30 766 H 85.5028 0.801634 3.63874 0
M  V30 767 H 85.6158 2.65294 3.98944 0
M  V30 768 H 83.9798 1.32877 2.17292 0
M  V30 769 H 84.7628 2.94812 1.759 0
M  V30 770 N 87.2079 -1.17134 1.05439 0
M  V30 771 C 88.1379 -2.2342 0.678649 0
M  V30 772 C 89.1189 -1.66971 -0.32476 0
M  V30 773 O 90.3039 -1.93149 -0.201802 0
M  V30 774 C 87.4339 -3.47256 0.0552099 0
M  V30 775 C 86.3879 -4.16543 0.98365 0
M  V30 776 C 85.7139 -5.34231 0.223961 0
M  V30 777 C 87.0139 -4.68495 2.3089 0
M  V30 778 H 88.7079 -2.55105 1.56722 0
M  V30 779 H 86.2539 -1.2262 0.754998 0
M  V30 780 H 88.2069 -4.20828 -0.21946 0
M  V30 781 H 86.9309 -3.14846 -0.868319 0
M  V30 782 H 85.5899 -3.44887 1.24293 0
M  V30 783 H 85.2379 -4.98071 -0.702412 0
M  V30 784 H 84.9379 -5.81527 0.842627 0
M  V30 785 H 86.4619 -6.10585 -0.0433671 0
M  V30 786 H 87.8759 -5.33691 2.09396 0
M  V30 787 H 86.2729 -5.26379 2.88176 0
M  V30 788 H 87.3429 -3.85169 2.94572 0
M  V30 789 N 88.686 -0.835752 -1.33615 0
M  V30 790 C 89.596 -0.269088 -2.33052 0
M  V30 791 C 90.612 0.603251 -1.63208 0
M  V30 792 O 91.788 0.508112 -1.94885 0
M  V30 793 C 88.853 0.549091 -3.42324 0
M  V30 794 C 87.914 -0.347156 -4.27894 0
M  V30 795 C 87.147 0.43207 -5.31948 0
M  V30 796 O 87.37 1.66409 -5.45586 0
M  V30 797 O 86.304 -0.192298 -6.01593 0
M  V30 798 H 90.13 -1.09243 -2.83372 0
M  V30 799 H 87.715 -0.598198 -1.36901 0
M  V30 800 H 89.597 1.01414 -4.09015 0
M  V30 801 H 88.272 1.34955 -2.94226 0
M  V30 802 H 87.179 -0.859979 -3.64081 0
M  V30 803 H 88.512 -1.1123 -4.79467 0
M  V30 804 N 90.1641 1.46063 -0.591896 0
M  V30 805 C 91.1111 2.30399 0.136069 0
M  V30 806 C 92.0811 1.41169 0.875238 0
M  V30 807 O 93.2661 1.70112 0.86409 0
M  V30 808 C 90.4061 3.25804 1.13781 0
M  V30 809 C 89.5191 4.30134 0.401137 0
M  V30 810 C 88.6541 5.12659 1.39121 0
M  V30 811 C 87.6931 6.0873 0.641462 0
M  V30 812 N 86.8301 6.8409 1.58004 0
M  V30 813 H 91.6701 2.92118 -0.589144 0
M  V30 814 H 89.2071 1.43959 -0.302342 0
M  V30 815 H 91.1651 3.79569 1.73156 0
M  V30 816 H 89.7951 2.65872 1.83062 0
M  V30 817 H 88.8471 3.79152 -0.307826 0
M  V30 818 H 90.1591 4.98458 -0.184565 0
M  V30 819 H 89.3131 5.70747 2.05749 0
M  V30 820 H 88.0521 4.44316 2.01084 0
M  V30 821 H 87.0571 5.49786 -0.0385419 0
M  V30 822 H 88.2821 6.79095 0.0270945 0
M  V30 823 H 86.2281 6.18449 2.18761 0
M  V30 824 H 86.1451 7.48709 1.04738 0
M  V30 825 H 87.4131 7.4673 2.23639 0
M  V30 826 N 91.6422 0.330177 1.54103 0
M  V30 827 C 92.6052 -0.520144 2.2322 0
M  V30 828 C 93.6052 -1.03828 1.22786 0
M  V30 829 O 94.7952 -0.929652 1.4732 0
M  V30 830 C 91.9272 -1.72317 2.94142 0
M  V30 831 H 93.1202 0.0841605 2.99782 0
M  V30 832 H 90.6732 0.0813433 1.56088 0
M  V30 833 H 91.4082 -2.36653 2.21734 0
M  V30 834 H 91.1932 -1.35898 3.67796 0
M  V30 835 H 92.6832 -2.3266 3.46784 0
M  V30 836 N 93.1203 -1.57491 0.0584922 0
M  V30 837 C 94.0833 -2.1085 -0.898617 0
M  V30 838 C 95.0833 -1.02964 -1.23511 0
M  V30 839 O 96.2733 -1.29007 -1.17059 0
M  V30 840 C 93.4053 -2.59881 -2.20623 0
M  V30 841 H 94.5983 -2.96715 -0.435936 0
M  V30 842 H 92.1513 -1.55141 -0.190023 0
M  V30 843 H 92.8863 -1.77431 -2.71457 0
M  V30 844 H 92.6713 -3.38727 -1.97501 0
M  V30 845 H 94.1613 -3.01285 -2.89166 0
M  V30 846 N 94.5984 0.214957 -1.56127 0
M  V30 847 C 96.0144 0.564948 -1.49267 0
M  V30 848 C 96.2144 1.86827 -0.754838 0
M  V30 849 O 95.2704 2.50745 -0.297198 0
M  V30 850 C 96.5834 0.638071 -2.93852 0
M  V30 851 C 98.1314 0.728253 -3.0441 0
M  V30 852 C 98.6064 0.832663 -4.50367 0
M  V30 853 N 100.097 0.896712 -4.54437 0
M  V30 854 C 100.832 0.997324 -5.6466 0
M  V30 855 N 100.328 1.06147 -6.8462 0
M  V30 856 N 102.121 1.03297 -5.52527 0
M  V30 857 H 94.2724 -0.640211 -2.02522 0
M  V30 858 H 96.5354 -0.225507 -0.920788 0
M  V30 859 H 96.2414 -0.250126 -3.50809 0
M  V30 860 H 96.1154 1.49947 -3.46115 0
M  V30 861 H 98.5024 1.60689 -2.47514 0
M  V30 862 H 98.5834 -0.158952 -2.55306 0
M  V30 863 H 98.2274 -0.0415417 -5.07883 0
M  V30 864 H 98.1574 1.73538 -4.97184 0
M  V30 865 H 100.648 0.857188 -3.6805 0
M  V30 866 H 100.961 1.1382 -7.64372 0
M  V30 867 H 99.3064 1.03049 -6.87318 0
M  V30 868 H 102.497 0.979558 -4.57736 0
M  V30 869 H 102.67 1.10793 -6.38458 0
M  V30 870 N 96.0765 1.50051 0.48192 0
M  V30 871 C 97.0395 1.67584 1.5636 0
M  V30 872 C 98.0395 0.546894 1.51214 0
M  V30 873 O 99.2295 0.813725 1.54026 0
M  V30 874 C 96.3615 1.691 2.96003 0
M  V30 875 H 97.5545 2.64078 1.42136 0
M  V30 876 H 95.1075 1.39369 0.707533 0
M  V30 877 H 95.8425 0.742589 3.15684 0
M  V30 878 H 95.6275 2.51105 3.01146 0
M  V30 879 H 97.1175 1.84656 3.74556 0
M  V30 880 N 97.5546 -0.734337 1.39446 0
M  V30 881 C 98.9706 -1.03997 1.21065 0
M  V30 882 C 99.1706 -2.01369 0.0727019 0
M  V30 883 O 98.2266 -2.45856 -0.575426 0
M  V30 884 C 99.5396 -1.60163 2.54496 0
M  V30 885 C 101.088 -1.7224 2.61347 0
M  V30 886 C 101.563 -2.31814 3.95002 0
M  V30 887 N 103.054 -2.39223 3.96644 0
M  V30 888 C 103.789 -2.86258 4.96834 0
M  V30 889 N 103.285 -3.33184 6.07421 0
M  V30 890 N 105.078 -2.85473 4.84213 0
M  V30 891 H 97.2286 -0.0885624 2.12215 0
M  V30 892 H 99.4916 -0.10191 0.942506 0
M  V30 893 H 99.1976 -0.960811 3.38321 0
M  V30 894 H 99.0716 -2.5896 2.74262 0
M  V30 895 H 101.459 -2.35443 1.77906 0
M  V30 896 H 101.54 -0.720939 2.4543 0
M  V30 897 H 101.184 -1.69238 4.78875 0
M  V30 898 H 101.114 -3.32638 4.08239 0
M  V30 899 H 103.605 -2.06057 3.16779 0
M  V30 900 H 103.918 -3.67586 6.7978 0
M  V30 901 H 102.263 -3.31191 6.11013 0
M  V30 902 H 105.454 -2.48136 3.96921 0
M  V30 903 H 105.627 -3.21814 5.62441 0
M  V30 904 N 99.0327 -1.24633 -0.964593 0
M  V30 905 C 100.261 -1.11501 -1.74285 0
M  V30 906 C 100.676 0.332165 -1.85855 0
M  V30 907 O 100.033 1.22903 -1.34911 0
M  V30 908 C 100.084 -1.75258 -3.16175 0
M  V30 909 O 99.8047 -3.14318 -3.05182 0
M  V30 910 C 101.306 -1.67776 -4.10324 0
M  V30 911 H 98.5257 -0.389407 -0.546446 0
M  V30 912 H 101.07 -1.64801 -1.21083 0
M  V30 913 H 99.2247 -1.25954 -3.66353 0
M  V30 914 H 99.6387 -3.4551 -3.94618 0
M  V30 915 H 101.113 -2.17064 -5.0753 0
M  V30 916 H 101.59 -0.639584 -4.34518 0
M  V30 917 H 102.196 -2.16522 -3.66058 0
M  V30 918 N 100.511 1.16574 -1.06058 0
M  V30 919 C 101.474 2.19085 -0.673392 0
M  V30 920 C 102.474 1.5835 0.279648 0
M  V30 921 O 103.664 1.74088 0.0623488 0
M  V30 922 C 100.796 3.40899 0.00954234 0
M  V30 923 H 101.989 2.54853 -1.58081 0
M  V30 924 H 99.5418 1.30808 -0.855516 0
M  V30 925 H 100.277 3.10684 0.929826 0
M  V30 926 H 100.062 3.86233 -0.67573 0
M  V30 927 H 101.552 4.1675 0.266245 0
M  V30 928 N 101.989 0.842826 1.3317 0
M  V30 929 C 102.936 0.276885 2.29133 0
M  V30 930 C 103.906 -0.609527 1.54512 0
M  V30 931 O 105.091 -0.546955 1.82792 0
M  V30 932 C 102.231 -0.538707 3.40869 0
M  V30 933 C 101.344 0.372169 4.30394 0
M  V30 934 C 100.479 -0.454908 5.29249 0
M  V30 935 C 99.5179 0.45411 6.10413 0
M  V30 936 N 98.6549 -0.335075 7.013 0
M  V30 937 H 103.495 1.10052 2.76934 0
M  V30 938 H 101.032 0.554161 1.36262 0
M  V30 939 H 102.99 -1.02709 4.0436 0
M  V30 940 H 101.62 -1.32727 2.9425 0
M  V30 941 H 100.672 0.97888 3.6759 0
M  V30 942 H 101.984 1.0703 4.87182 0
M  V30 943 H 101.138 -1.00695 5.98285 0
M  V30 944 H 99.8769 -1.18646 4.73048 0
M  V30 945 H 98.8819 1.01813 5.40291 0
M  V30 946 H 100.107 1.18409 6.68697 0
M  V30 947 H 98.0529 -1.04994 6.47543 0
M  V30 948 H 97.9699 0.304262 7.55387 0
M  V30 949 H 99.2379 -0.869224 7.74638 0
M  V30 950 N 103.467 -1.45747 0.599634 0
M  V30 951 C 104.744 -1.95585 0.0240846 0
M  V30 952 C 105.124 -1.54217 -1.44154 0
M  V30 953 O 104.472 -0.800903 -2.14004 0
M  V30 954 C 104.682 -3.48344 0.21385 0
M  V30 955 C 106.03 -4.24504 0.0904902 0
M  V30 956 O 107.054 -3.55911 0.143558 0
M  V30 957 O 105.913 -5.46491 -0.0310766 0
M  V30 958 H 103.007 -0.82602 -0.0402478 0
M  V30 959 H 105.553 -1.55951 0.669139 0
M  V30 960 H 104.325 -3.71397 1.23206 0
M  V30 961 H 103.948 -3.9485 -0.466842 0
M  V30 962 N 104.945 -0.338344 -1.53925 0
M  V30 963 C 106.356 0.146651 -1.86123 0
M  V30 964 C 106.707 1.5042 -1.2597 0
M  V30 965 O 105.832 2.08723 -0.571294 0
M  V30 966 C 106.427 0.272879 -3.37699 0
M  V30 967 C 104.986 0.702103 -3.69794 0
M  V30 968 C 104.133 -0.167304 -2.76795 0
M  V30 969 H 107.084 -0.558123 -1.48562 0
M  V30 970 H 107.105 1.10128 -3.64214 0
M  V30 971 H 106.617 -0.715307 -3.81451 0
M  V30 972 H 104.718 1.6995 -3.31584 0
M  V30 973 H 104.831 0.495604 -4.7653 0
M  V30 974 H 103.195 0.359527 -2.5215 0
M  V30 975 H 103.978 -1.15253 -3.23375 0
M  V30 976 N 106.423 1.57458 -0.0668435 0
M  V30 977 C 107.371 2.13639 0.919851 0
M  V30 978 C 108.365 1.07204 1.31163 0
M  V30 979 O 109.571 1.25591 1.28945 0
M  V30 980 H 105.946 0.683048 0.314562 0
M  V30 981 H 107.917 2.95415 0.421047 0
M  V30 982 C 106.666 2.70892 2.17975 0
M  V30 983 H 105.989 3.5246 1.88711 0
M  V30 984 H 107.429 3.13803 2.85138 0
M  V30 985 C 105.888 1.65414 2.93496 0
M  V30 986 O 106.418 1.07619 3.87015 0
M  V30 987 N 104.624 1.36564 2.56512 0
M  V30 988 H 104.171 1.83751 1.80536 0
M  V30 989 H 104.129 0.66223 3.07347 0
M  V30 990 N 107.901 -0.206675 1.56239 0
M  V30 991 C 109.129 -0.945345 1.8404 0
M  V30 992 C 109.544 -1.77336 0.647885 0
M  V30 993 O 108.901 -1.78425 -0.383511 0
M  V30 994 C 108.952 -1.8509 3.10522 0
M  V30 995 O 108.673 -1.05634 4.25174 0
M  V30 996 C 110.174 -2.70222 3.51418 0
M  V30 997 H 107.394 -0.276372 0.61144 0
M  V30 998 H 109.938 -0.217417 2.03341 0
M  V30 999 H 108.093 -2.53259 2.93153 0
M  V30 1000 H 108.507 -1.67238 4.97124 0
M  V30 1001 H 109.981 -3.29438 4.42916 0
M  V30 1002 H 110.458 -3.43358 2.73864 0
M  V30 1003 H 111.064 -2.07443 3.71278 0
M  V30 1004 N 109.379 -1.50304 -0.473955 0
M  V30 1005 C 110.609 -1.64663 -1.24778 0
M  V30 1006 C 111.017 -0.328174 -1.86332 0
M  V30 1007 O 110.36 0.699536 -1.69859 0
M  V30 1008 C 110.422 -2.6778 -2.39863 0
M  V30 1009 C 110.086 -4.11413 -1.98969 0
M  V30 1010 C 111.083 -4.97372 -1.51385 0
M  V30 1011 C 108.768 -4.57312 -2.07777 0
M  V30 1012 C 110.762 -6.27277 -1.13148 0
M  V30 1013 C 108.449 -5.87223 -1.69152 0
M  V30 1014 C 109.447 -6.72031 -1.21915 0
M  V30 1015 O 109.135 -7.99518 -0.838237 0
M  V30 1016 H 108.867 -0.556602 -0.383627 0
M  V30 1017 H 111.421 -1.9726 -0.572491 0
M  V30 1018 H 109.651 -2.30419 -3.10554 0
M  V30 1019 H 111.34 -2.71388 -3.01833 0
M  V30 1020 H 112.106 -4.63128 -1.44004 0
M  V30 1021 H 107.985 -3.91449 -2.43493 0
M  V30 1022 H 111.529 -6.93425 -0.762077 0
M  V30 1023 H 107.426 -6.20989 -1.76191 0
M  V30 1024 H 108.194 -8.12764 -0.967339 0
M  V30 1025 N 110.857 0.726932 -1.39834 0
M  V30 1026 C 111.804 1.841 -1.39197 0
M  V30 1027 C 112.774 1.642 -0.250502 0
M  V30 1028 O 113.959 1.85494 -0.446846 0
M  V30 1029 C 111.099 3.21697 -1.24919 0
M  V30 1030 C 110.212 3.53247 -2.48678 0
M  V30 1031 C 109.347 4.80289 -2.26928 0
M  V30 1032 C 108.386 5.04707 -3.4632 0
M  V30 1033 N 107.523 6.22956 -3.23836 0
M  V30 1034 H 112.363 1.83979 -2.34427 0
M  V30 1035 H 109.9 0.898876 -1.16442 0
M  V30 1036 H 111.858 4.01137 -1.1465 0
M  V30 1037 H 110.488 3.21076 -0.333153 0
M  V30 1038 H 109.54 2.68447 -2.69519 0
M  V30 1039 H 110.852 3.67205 -3.37582 0
M  V30 1040 H 110.006 5.67725 -2.13947 0
M  V30 1041 H 108.745 4.68519 -1.35431 0
M  V30 1042 H 107.75 4.1573 -3.5979 0
M  V30 1043 H 108.975 5.18357 -4.38729 0
M  V30 1044 H 106.921 6.12459 -2.35011 0
M  V30 1045 H 106.838 6.37539 -4.063 0
M  V30 1046 H 108.106 7.1321 -3.14566 0
M  V30 1047 N 112.336 1.25143 0.95797 0
M  V30 1048 C 113.582 1.09855 1.70469 0
M  V30 1049 C 113.915 -0.360187 1.90831 0
M  V30 1050 O 113.19 -1.26568 1.47685 0
M  V30 1051 C 113.473 1.8497 3.08963 0
M  V30 1052 C 113.326 3.38652 2.96032 0
M  V30 1053 C 114.645 1.63016 4.08795 0
M  V30 1054 H 111.764 0.400465 0.618706 0
M  V30 1055 H 114.406 1.53933 1.11376 0
M  V30 1056 H 112.556 1.47505 3.59409 0
M  V30 1057 H 114.228 3.85772 2.52938 0
M  V30 1058 H 112.471 3.66534 2.32025 0
M  V30 1059 H 113.142 3.8642 3.94187 0
M  V30 1060 H 115.618 1.95625 3.67247 0
M  V30 1061 H 114.494 2.18015 5.03747 0
M  V30 1062 H 114.755 0.570692 4.38401 0
M  V30 1063 N 113.814 -1.1601 1.06675 0
M  V30 1064 C 114.744 -2.22688 0.702307 0
M  V30 1065 C 115.725 -1.67306 -0.307032 0
M  V30 1066 O 116.91 -1.93352 -0.181305 0
M  V30 1067 C 114.04 -3.47178 0.092038 0
M  V30 1068 C 112.994 -4.15477 1.02777 0
M  V30 1069 C 112.32 -5.33963 0.28061 0
M  V30 1070 C 113.62 -4.66019 2.35846 0
M  V30 1071 H 115.314 -2.53429 1.59419 0
M  V30 1072 H 112.86 -1.21813 0.767961 0
M  V30 1073 H 114.813 -4.21037 -0.174814 0
M  V30 1074 H 113.537 -3.15749 -0.834877 0
M  V30 1075 H 112.196 -3.43549 1.27944 0
M  V30 1076 H 111.844 -4.98788 -0.649545 0
M  V30 1077 H 111.544 -5.806 0.904258 0
M  V30 1078 H 113.068 -6.10596 0.021396 0
M  V30 1079 H 114.482 -5.3144 2.15045 0
M  V30 1080 H 112.879 -5.23293 2.93743 0
M  V30 1081 H 113.949 -3.82023 2.98641 0
M  V30 1082 N 115.292 -0.849877 -1.32721 0
M  V30 1083 C 116.517 -0.463856 -2.02146 0
M  V30 1084 C 116.942 0.930449 -1.63476 0
M  V30 1085 O 116.3 1.61033 -0.832952 0
M  V30 1086 C 116.348 -0.604955 -3.55489 0
M  V30 1087 O 115.452 0.36425 -4.10788 0
M  V30 1088 H 114.793 -0.187046 -0.637111 0
M  V30 1089 H 117.323 -1.14775 -1.69375 0
M  V30 1090 H 117.333 -0.490696 -4.05038 0
M  V30 1091 H 116.008 -1.62174 -3.82978 0
M  V30 1092 H 114.585 0.206628 -3.72327 0
M  V30 1093 N 116.77 1.45427 -0.607355 0
M  V30 1094 C 117.7 2.3329 0.0989352 0
M  V30 1095 C 118.681 1.46816 0.859007 0
M  V30 1096 O 119.866 1.75588 0.829604 0
M  V30 1097 C 116.996 3.29518 1.09705 0
M  V30 1098 C 115.95 4.25626 0.450206 0
M  V30 1099 C 115.276 5.11542 1.55655 0
M  V30 1100 C 116.576 5.18505 -0.628455 0
M  V30 1101 H 118.27 2.92595 -0.634716 0
M  V30 1102 H 115.816 1.40696 -0.306681 0
M  V30 1103 H 117.769 3.89855 1.59971 0
M  V30 1104 H 116.493 2.68372 1.86129 0
M  V30 1105 H 115.152 3.66586 -0.0315886 0
M  V30 1106 H 114.8 4.46765 2.31107 0
M  V30 1107 H 114.5 5.76647 1.12925 0
M  V30 1108 H 116.024 5.74748 2.06148 0
M  V30 1109 H 117.438 5.72916 -0.209877 0
M  V30 1110 H 115.835 5.92085 -0.977489 0
M  V30 1111 H 116.905 4.60948 -1.50514 0
M  V30 1112 N 118.248 0.346503 1.53744 0
M  V30 1113 C 119.494 -0.249473 2.0126 0
M  V30 1114 C 119.827 -1.49965 1.23386 0
M  V30 1115 O 119.102 -1.91811 0.32229 0
M  V30 1116 C 119.385 -0.560643 3.55709 0
M  V30 1117 C 119.238 0.701836 4.44291 0
M  V30 1118 C 120.557 -1.36905 4.18264 0
M  V30 1119 H 117.676 -0.0891987 0.731582 0
M  V30 1120 H 120.318 0.467624 1.84156 0
M  V30 1121 H 118.468 -1.17156 3.70414 0
M  V30 1122 H 120.14 1.33974 4.41417 0
M  V30 1123 H 118.383 1.32612 4.13033 0
M  V30 1124 H 119.054 0.43933 5.50249 0
M  V30 1125 H 121.53 -0.852448 4.07275 0
M  V30 1126 H 120.406 -1.55553 5.26398 0
M  V30 1127 H 120.667 -2.37203 3.73078 0
M  V30 1128 N 119.726 -1.57421 0.075193 0
M  V30 1129 C 120.656 -2.15942 -0.888324 0
M  V30 1130 C 121.637 -1.08737 -1.30806 0
M  V30 1131 O 122.822 -1.36787 -1.37851 0
M  V30 1132 C 119.952 -2.72379 -2.1547 0
M  V30 1133 C 118.906 -3.8478 -1.87425 0
M  V30 1134 C 118.232 -4.27834 -3.20721 0
M  V30 1135 C 119.532 -5.08869 -1.17684 0
M  V30 1136 H 121.226 -2.96705 -0.400799 0
M  V30 1137 H 118.772 -1.42723 -0.191342 0
M  V30 1138 H 120.725 -3.11965 -2.83295 0
M  V30 1139 H 119.449 -1.88841 -2.6647 0
M  V30 1140 H 118.108 -3.45703 -1.22004 0
M  V30 1141 H 117.756 -3.41214 -3.6957 0
M  V30 1142 H 117.456 -5.03605 -3.02746 0
M  V30 1143 H 118.98 -4.70039 -3.89738 0
M  V30 1144 H 120.394 -5.4575 -1.75584 0
M  V30 1145 H 118.791 -5.8994 -1.09956 0
M  V30 1146 H 119.861 -4.84648 -0.156453 0
M  V30 1147 N 121.204 0.198386 -1.56346 0
M  V30 1148 C 122.429 0.939682 -1.84891 0
M  V30 1149 C 122.854 1.76202 -0.658369 0
M  V30 1150 O 122.212 1.76993 0.392851 0
M  V30 1151 C 122.26 1.81428 -3.11635 0
M  V30 1152 O 121.364 2.91265 -2.91956 0
M  V30 1153 H 120.705 0.264807 -0.608912 0
M  V30 1154 H 123.235 0.204695 -2.03573 0
M  V30 1155 H 123.245 2.21958 -3.42343 0
M  V30 1156 H 121.92 1.21004 -3.97908 0
M  V30 1157 H 120.497 2.54514 -2.72538 0
M  V30 1158 N 122.682 1.50554 0.465978 0
M  V30 1159 C 123.928 1.62038 1.21949 0
M  V30 1160 C 124.261 0.322116 1.9151 0
M  V30 1161 O 123.536 -0.676723 1.82348 0
M  V30 1162 C 123.819 2.80421 2.25912 0
M  V30 1163 C 123.672 4.20144 1.60622 0
M  V30 1164 C 124.991 2.94354 3.27176 0
M  V30 1165 H 122.11 0.589752 0.441998 0
M  V30 1166 H 124.752 1.82956 0.51257 0
M  V30 1167 H 122.902 2.62717 2.86203 0
M  V30 1168 H 124.574 4.49449 1.03889 0
M  V30 1169 H 122.817 4.24165 0.909211 0
M  V30 1170 H 123.488 4.98914 2.36196 0
M  V30 1171 H 125.964 3.10578 2.76913 0
M  V30 1172 H 124.84 3.788 3.97242 0
M  V30 1173 H 125.101 2.05186 3.916 0
M  V30 1174 N 124.16 -0.719506 1.40217 0
M  V30 1175 C 125.4 -1.49181 1.39729 0
M  V30 1176 C 125.764 -1.92 -0.00250614 0
M  V30 1177 O 126.965 -2.68473 -0.132479 0
M  V30 1178 C 125.236 -2.68767 2.35582 0
M  V30 1179 S 126.795 -3.58224 2.53418 0
M  V30 1180 H 123.613 -0.510091 0.495307 0
M  V30 1181 H 126.215 -0.841724 1.76452 0
M  V30 1182 H 124.919 -2.35475 3.36124 0
M  V30 1183 H 124.45 -3.38691 2.0013 0
M  V30 1184 H 126.465 -4.63033 1.78367 0
M  V30 1185 N 125.638 -1.25649 -0.95132 0
M  V30 1186 C 126.884 -1.10757 -1.69884 0
M  V30 1187 C 127.217 0.350061 -1.91019 0
M  V30 1188 O 126.492 1.25783 -1.48354 0
M  V30 1189 C 126.775 -1.86606 -3.07978 0
M  V30 1190 C 126.628 -3.40217 -2.94232 0
M  V30 1191 C 127.947 -1.65182 -4.07925 0
M  V30 1192 H 125.066 -0.40374 -0.616574 0
M  V30 1193 H 127.708 -1.54521 -1.10558 0
M  V30 1194 H 125.858 -1.49409 -3.58621 0
M  V30 1195 H 127.53 -3.87108 -2.50889 0
M  V30 1196 H 125.773 -3.67759 -2.30078 0
M  V30 1197 H 126.444 -3.88505 -3.92133 0
M  V30 1198 H 128.92 -1.9757 -3.66204 0
M  V30 1199 H 127.796 -2.20683 -5.02583 0
M  V30 1200 H 128.057 -0.593933 -4.38092 0
M  V30 1201 N 127.117 1.15442 -1.07289 0
M  V30 1202 C 128.047 2.22312 -0.714107 0
M  V30 1203 C 129.028 1.67467 0.298155 0
M  V30 1204 O 130.213 1.93445 0.171048 0
M  V30 1205 C 127.343 3.47124 -0.110448 0
M  V30 1206 C 126.297 4.14926 -1.04979 0
M  V30 1207 C 125.623 5.33807 -0.308924 0
M  V30 1208 C 126.923 4.64762 -2.38314 0
M  V30 1209 H 128.617 2.5258 -1.6076 0
M  V30 1210 H 126.163 1.21404 -0.77441 0
M  V30 1211 H 128.116 4.21124 0.152482 0
M  V30 1212 H 126.84 3.16187 0.81812 0
M  V30 1213 H 125.499 3.42866 -1.29764 0
M  V30 1214 H 125.147 4.99126 0.623084 0
M  V30 1215 H 124.847 5.80113 -0.935036 0
M  V30 1216 H 126.371 6.10576 -0.0537771 0
M  V30 1217 H 127.785 5.30292 -2.1786 0
M  V30 1218 H 126.182 5.21728 -2.96514 0
M  V30 1219 H 127.252 3.80434 -3.00663 0
M  V30 1220 N 128.595 0.856903 1.32268 0
M  V30 1221 C 129.823 0.475439 2.01363 0
M  V30 1222 C 130.238 -0.928486 1.64392 0
M  V30 1223 O 129.595 -1.60624 0.866387 0
M  V30 1224 C 129.646 0.607545 3.56358 0
M  V30 1225 O 129.367 1.95617 3.92002 0
M  V30 1226 C 130.868 0.225382 4.42727 0
M  V30 1227 H 128.088 0.186636 0.644521 0
M  V30 1228 H 130.632 1.15446 1.68797 0
M  V30 1229 H 128.787 -0.0237719 3.87393 0
M  V30 1230 H 129.201 1.95455 4.86721 0
M  V30 1231 H 130.675 0.368813 5.50767 0
M  V30 1232 H 131.152 -0.834369 4.31202 0
M  V30 1233 H 131.758 0.831864 4.17085 0
M  V30 1234 N 130.073 -1.45103 0.615059 0
M  V30 1235 C 131.301 -2.06553 0.11977 0
M  V30 1236 C 131.716 -1.45842 -1.19898 0
M  V30 1237 O 131.073 -0.575325 -1.73194 0
M  V30 1238 C 131.124 -3.61495 -0.018364 0
M  V30 1239 O 130.845 -4.19942 1.24822 0
M  V30 1240 C 132.346 -4.39947 -0.544237 0
M  V30 1241 H 129.566 -0.667096 0.0722739 0
M  V30 1242 H 132.11 -1.8623 0.84491 0
M  V30 1243 H 130.265 -3.81135 -0.693865 0
M  V30 1244 H 130.679 -5.13204 1.0827 0
M  V30 1245 H 132.153 -5.48838 -0.589953 0
M  V30 1246 H 132.63 -4.10255 -1.56805 0
M  V30 1247 H 133.236 -4.25188 0.0974703 0
M  V30 1248 N 131.551 -0.354651 -1.53558 0
M  V30 1249 C 132.8 0.239504 -2.00273 0
M  V30 1250 C 133.113 1.50759 -1.24623 0
M  V30 1251 O 134.319 2.17968 -1.61871 0
M  V30 1252 C 132.775 0.477341 -3.5672 0
M  V30 1253 C 132.383 -0.775488 -4.41237 0
M  V30 1254 C 134.127 1.02975 -4.11821 0
M  V30 1255 C 132.034 -0.507838 -5.89216 0
M  V30 1256 H 130.964 0.0932743 -0.748208 0
M  V30 1257 H 133.615 -0.471701 -1.77334 0
M  V30 1258 H 131.997 1.24953 -3.7577 0
M  V30 1259 H 133.171 -1.54963 -4.33962 0
M  V30 1260 H 131.486 -1.25033 -3.97185 0
M  V30 1261 H 134.083 1.24513 -5.2 0
M  V30 1262 H 134.426 1.98862 -3.65731 0
M  V30 1263 H 134.959 0.317994 -3.96527 0
M  V30 1264 H 131.698 -1.43674 -6.39561 0
M  V30 1265 H 131.218 0.228011 -5.99366 0
M  V30 1266 H 132.897 -0.129238 -6.46871 0
M  V30 1267 N 133.029 1.57378 -0.0835403 0
M  V30 1268 C 133.959 2.1641 0.87686 0
M  V30 1269 C 134.94 1.09429 1.30228 0
M  V30 1270 O 136.125 1.37516 1.37124 0
M  V30 1271 C 133.255 2.73517 2.14022 0
M  V30 1272 C 132.209 3.85769 1.85381 0
M  V30 1273 C 131.535 4.29529 3.18448 0
M  V30 1274 C 132.835 5.09486 1.14984 0
M  V30 1275 H 134.529 2.96914 0.385059 0
M  V30 1276 H 132.075 1.42823 0.18377 0
M  V30 1277 H 134.028 3.13463 2.81636 0
M  V30 1278 H 132.752 1.90252 2.65465 0
M  V30 1279 H 131.411 3.46345 1.20169 0
M  V30 1280 H 131.059 3.43169 3.67755 0
M  V30 1281 H 130.759 5.05204 3.00071 0
M  V30 1282 H 132.283 4.72099 3.8724 0
M  V30 1283 H 133.697 5.46674 1.72687 0
M  V30 1284 H 132.094 5.90515 1.06826 0
M  V30 1285 H 133.164 4.84724 0.130749 0
M  V30 1286 N 134.507 -0.190092 1.56449 0
M  V30 1287 C 135.755 -0.907908 1.80559 0
M  V30 1288 C 136.076 -1.83583 0.657438 0
M  V30 1289 O 135.346 -1.93203 -0.323924 0
M  V30 1290 H 133.926 -0.338247 0.666032 0
M  V30 1291 H 136.588 -0.194403 1.93928 0
M  V30 1292 H 135.684 -1.49604 2.73907 0
M  V30 1293 N 135.985 -1.50799 -0.457987 0
M  V30 1294 C 137.225 -1.64088 -1.21879 0
M  V30 1295 C 137.589 -0.339848 -1.88968 0
M  V30 1296 O 138.79 -0.348301 -2.66534 0
M  V30 1297 C 137.061 -2.79726 -2.2246 0
M  V30 1298 S 138.62 -3.13225 -3.07303 0
M  V30 1299 H 135.438 -0.578314 -0.41361 0
M  V30 1300 H 138.04 -1.88632 -0.513645 0
M  V30 1301 H 136.744 -3.72722 -1.71775 0
M  V30 1302 H 136.275 -2.57308 -2.97584 0
M  V30 1303 H 138.29 -2.58062 -4.23814 0
M  V30 1304 N 137.463 0.71206 -1.40597 0
M  V30 1305 C 138.712 1.46754 -1.38369 0
M  V30 1306 C 139.025 1.95598 0.0097839 0
M  V30 1307 O 140.231 2.71059 0.154677 0
M  V30 1308 C 138.687 2.65289 -2.43207 0
M  V30 1309 C 138.295 2.23301 -3.88382 0
M  V30 1310 C 140.039 3.43008 -2.50091 0
M  V30 1311 C 137.946 3.38696 -4.84808 0
M  V30 1312 H 136.876 0.55118 -0.514506 0
M  V30 1313 H 139.527 0.774616 -1.66349 0
M  V30 1314 H 137.909 3.36769 -2.08332 0
M  V30 1315 H 139.083 1.59218 -4.32419 0
M  V30 1316 H 137.398 1.58618 -3.85006 0
M  V30 1317 H 139.995 4.28881 -3.1932 0
M  V30 1318 H 140.338 3.87065 -1.53253 0
M  V30 1319 H 140.871 2.78574 -2.83974 0
M  V30 1320 H 137.61 2.99668 -5.82992 0
M  V30 1321 H 137.13 4.01683 -4.45433 0
M  V30 1322 H 138.809 4.04712 -5.04794 0
M  V30 1323 N 138.941 1.26152 0.944643 0
M  V30 1324 C 140.188 1.11492 1.69044 0
M  V30 1325 C 140.516 -0.342366 1.91463 0
M  V30 1326 O 139.771 -1.26812 1.49054 0
M  V30 1327 C 140.07 1.82541 3.07268 0
M  V30 1328 C 139.736 3.32445 3.04616 0
M  V30 1329 C 138.398 3.73337 3.036 0
M  V30 1330 C 140.75 4.28171 2.97185 0
M  V30 1331 C 138.078 5.08348 2.92915 0
M  V30 1332 C 140.43 5.63218 2.88041 0
M  V30 1333 C 139.094 6.03426 2.85366 0
M  V30 1334 H 138.364 0.407977 0.618576 0
M  V30 1335 H 141.011 1.56551 1.10291 0
M  V30 1336 H 139.316 1.29941 3.69625 0
M  V30 1337 H 141.013 1.68642 3.63815 0
M  V30 1338 H 137.603 2.99915 3.06185 0
M  V30 1339 H 141.787 3.97563 2.97081 0
M  V30 1340 H 137.043 5.38667 2.89219 0
M  V30 1341 H 141.217 6.37078 2.81254 0
M  V30 1342 H 138.844 7.07999 2.76842 0
M  V30 1343 N 140.419 -1.14872 1.07899 0
M  V30 1344 C 141.667 -1.85422 0.803941 0
M  V30 1345 C 141.988 -1.83051 -0.67211 0
M  V30 1346 O 141.258 -1.27532 -1.48703 0
M  V30 1347 H 139.838 -0.686537 0.294408 0
M  V30 1348 H 142.5 -1.39226 1.3639 0
M  V30 1349 H 141.596 -2.90399 1.14346 0
M  V30 1350 N 141.898 -0.863906 -1.31812 0
M  V30 1351 C 142.828 -0.330843 -2.31144 0
M  V30 1352 C 143.809 0.575005 -1.60087 0
M  V30 1353 O 144.994 0.493304 -1.8783 0
M  V30 1354 C 142.124 0.47374 -3.44054 0
M  V30 1355 C 141.078 -0.338481 -4.26659 0
M  V30 1356 C 140.404 0.591412 -5.31419 0
M  V30 1357 C 141.704 -1.56926 -4.98168 0
M  V30 1358 H 143.398 -1.16086 -2.75979 0
M  V30 1359 H 140.944 -0.559657 -1.32679 0
M  V30 1360 H 142.897 0.857143 -4.12591 0
M  V30 1361 H 141.621 1.33721 -2.9797 0
M  V30 1362 H 140.28 -0.703754 -3.59782 0
M  V30 1363 H 139.928 1.45199 -4.81587 0
M  V30 1364 H 139.628 0.0519022 -5.87577 0
M  V30 1365 H 141.152 0.97179 -6.02817 0
M  V30 1366 H 142.566 -1.25764 -5.59336 0
M  V30 1367 H 140.963 -2.04739 -5.64094 0
M  V30 1368 H 142.033 -2.32544 -4.25501 0
M  V30 1369 N 143.376 1.44774 -0.622745 0
M  V30 1370 C 144.323 2.30635 0.0871679 0
M  V30 1371 C 145.293 1.42994 0.845097 0
M  V30 1372 O 146.478 1.71907 0.827812 0
M  V30 1373 C 143.618 3.28144 1.06844 0
M  V30 1374 C 142.731 4.30888 0.309809 0
M  V30 1375 C 141.866 5.15494 1.28215 0
M  V30 1376 C 140.905 6.09953 0.512198 0
M  V30 1377 N 140.042 6.87287 1.43458 0
M  V30 1378 H 144.882 2.90803 -0.650974 0
M  V30 1379 H 142.419 1.43286 -0.33281 0
M  V30 1380 H 144.377 3.83157 1.65066 0
M  V30 1381 H 143.007 2.69695 1.77382 0
M  V30 1382 H 142.059 3.78414 -0.388181 0
M  V30 1383 H 143.371 4.97955 -0.290254 0
M  V30 1384 H 142.525 5.74983 1.93596 0
M  V30 1385 H 141.264 4.48481 1.91614 0
M  V30 1386 H 140.269 5.49581 -0.155151 0
M  V30 1387 H 141.494 6.78999 -0.116958 0
M  V30 1388 H 139.44 6.2295 2.05594 0
M  V30 1389 H 139.357 7.50763 0.888335 0
M  V30 1390 H 140.625 7.51306 2.07749 0
M  V30 1391 N 144.854 0.36279 1.53368 0
M  V30 1392 C 146.265 -0.117022 1.86333 0
M  V30 1393 C 146.616 -1.48397 1.28347 0
M  V30 1394 O 145.741 -2.07787 0.604428 0
M  V30 1395 C 146.336 -0.21912 3.38091 0
M  V30 1396 C 144.895 -0.643184 3.70864 0
M  V30 1397 C 144.042 0.211318 2.76494 0
M  V30 1398 H 146.993 0.581687 1.47655 0
M  V30 1399 H 147.014 -1.04319 3.6592 0
M  V30 1400 H 146.526 0.775902 3.80265 0
M  V30 1401 H 144.627 -1.64654 3.34245 0
M  V30 1402 H 144.74 -0.41973 4.77258 0
M  V30 1403 H 143.104 -0.319367 2.5269 0
M  V30 1404 H 143.887 1.20383 3.21501 0
M  V30 1405 N 146.332 -1.57332 0.0918853 0
M  V30 1406 C 147.557 -1.98995 -0.584442 0
M  V30 1407 C 147.982 -0.970528 -1.61128 0
M  V30 1408 O 147.34 0.0613904 -1.81196 0
M  V30 1409 C 147.388 -3.39636 -1.21161 0
M  V30 1410 O 146.492 -3.40447 -2.32744 0
M  V30 1411 H 145.833 -0.647165 -0.148572 0
M  V30 1412 H 148.363 -2.03873 0.172347 0
M  V30 1413 H 148.373 -3.7726 -1.55367 0
M  V30 1414 H 147.048 -4.13356 -0.459313 0
M  V30 1415 H 145.625 -3.14614 -2.0018 0
M  V30 1416 N 147.81 0.181792 -1.56548 0
M  V30 1417 C 149.05 0.906711 -1.83189 0
M  V30 1418 C 149.414 1.79882 -0.671312 0
M  V30 1419 O 150.615 2.56054 -0.81792 0
M  V30 1420 C 148.886 1.69023 -3.14906 0
M  V30 1421 S 150.445 2.46535 -3.62996 0
M  V30 1422 H 147.263 0.303877 -0.642791 0
M  V30 1423 H 149.865 0.169107 -1.94767 0
M  V30 1424 H 148.569 1.02571 -3.97376 0
M  V30 1425 H 148.1 2.46941 -3.06241 0
M  V30 1426 H 150.115 3.71014 -3.29489 0
M  V30 1427 N 149.288 1.51039 0.449983 0
M  V30 1428 C 150.251 1.70863 1.5277 0
M  V30 1429 C 151.251 0.578846 1.5002 0
M  V30 1430 O 152.441 0.846213 1.52266 0
M  V30 1431 C 149.573 1.75341 2.9235 0
M  V30 1432 H 150.766 2.67034 1.36502 0
M  V30 1433 H 148.319 1.40838 0.677812 0
M  V30 1434 H 149.054 0.809383 3.14037 0
M  V30 1435 H 148.839 2.57436 2.95752 0
M  V30 1436 H 150.329 1.92559 3.70555 0
M  V30 1437 N 150.766 -0.704594 1.40972 0
M  V30 1438 C 151.713 -1.81862 1.42109 0
M  V30 1439 C 152.683 -1.63781 0.276593 0
M  V30 1440 O 153.868 -1.84759 0.4763 0
M  V30 1441 C 151.008 -3.19669 1.30022 0
M  V30 1442 C 150.121 -3.49246 2.54267 0
M  V30 1443 C 149.256 -4.76618 2.3454 0
M  V30 1444 C 148.295 -4.99133 3.54306 0
M  V30 1445 N 147.432 -6.17726 3.33706 0
M  V30 1446 H 152.272 -1.80226 2.37324 0
M  V30 1447 H 149.809 -0.880238 1.17857 0
M  V30 1448 H 151.767 -3.99263 1.21018 0
M  V30 1449 H 150.397 -3.20506 0.384192 0
M  V30 1450 H 149.449 -2.64125 2.73756 0
M  V30 1451 H 150.761 -3.61788 3.43381 0
M  V30 1452 H 149.915 -5.64249 2.22952 0
M  V30 1453 H 148.654 -4.66305 1.42867 0
M  V30 1454 H 147.659 -4.09953 3.66359 0
M  V30 1455 H 148.884 -5.11311 4.4692 0
M  V30 1456 H 146.83 -6.08642 2.44725 0
M  V30 1457 H 146.747 -6.30995 4.16391 0
M  V30 1458 H 148.015 -7.08115 3.25873 0
M  V30 1459 N 152.244 -1.26651 -0.937939 0
M  V30 1460 C 153.154 -1.10276 -2.07066 0
M  V30 1461 C 154.17 -0.0354197 -1.73964 0
M  V30 1462 O 155.346 -0.239816 -1.99967 0
M  V30 1463 C 152.411 -0.740887 -3.38691 0
M  V30 1464 C 151.472 -1.88799 -3.85556 0
M  V30 1465 C 150.705 -1.54329 -5.10899 0
M  V30 1466 O 150.928 -0.446494 -5.6865 0
M  V30 1467 O 149.862 -2.37911 -5.52885 0
M  V30 1468 H 153.688 -2.05309 -2.23789 0
M  V30 1469 H 151.273 -1.05743 -1.0554 0
M  V30 1470 H 153.155 -0.55195 -4.1777 0
M  V30 1471 H 151.83 0.180022 -3.23199 0
M  V30 1472 H 150.737 -2.13191 -3.07409 0
M  V30 1473 H 152.07 -2.78874 -4.05574 0
M  V30 1474 N 153.722 1.14298 -1.08507 0
M  V30 1475 C 154.968 1.85633 -0.816581 0
M  V30 1476 C 155.301 1.82784 0.656021 0
M  V30 1477 O 154.576 1.25926 1.48233 0
M  V30 1478 C 154.859 3.34223 -1.34041 0
M  V30 1479 C 154.712 3.45639 -2.87843 0
M  V30 1480 C 156.031 4.29356 -0.9665 0
M  V30 1481 H 153.15 0.67402 -0.298104 0
M  V30 1482 H 155.792 1.34214 -1.34487 0
M  V30 1483 H 153.942 3.78144 -0.89104 0
M  V30 1484 H 155.614 3.10498 -3.41158 0
M  V30 1485 H 153.857 2.86817 -3.25451 0
M  V30 1486 H 154.528 4.50089 -3.19569 0
M  V30 1487 H 157.004 3.93457 -1.35391 0
M  V30 1488 H 155.88 5.3178 -1.3602 0
M  V30 1489 H 156.141 4.41919 0.126362 0
M  V30 1490 N 155.201 0.870884 1.31352 0
M  V30 1491 C 156.148 0.325425 2.28494 0
M  V30 1492 C 157.118 -0.576615 1.5577 0
M  V30 1493 O 158.303 -0.508059 1.83911 0
M  V30 1494 C 155.443 -0.466283 3.41935 0
M  V30 1495 C 154.556 0.463378 4.29508 0
M  V30 1496 C 153.691 -0.342544 5.30094 0
M  V30 1497 C 152.73 0.583486 6.09313 0
M  V30 1498 N 151.867 -0.186244 7.01853 0
M  V30 1499 H 156.707 1.15901 2.74538 0
M  V30 1500 H 154.244 0.58294 1.35056 0
M  V30 1501 H 156.202 -0.941085 4.06447 0
M  V30 1502 H 154.832 -1.26456 2.97 0
M  V30 1503 H 153.884 1.05663 3.65431 0
M  V30 1504 H 155.196 1.1734 4.84802 0
M  V30 1505 H 154.35 -0.879816 6.00287 0
M  V30 1506 H 153.089 -1.08585 4.75458 0
M  V30 1507 H 152.094 1.13251 5.3801 0
M  V30 1508 H 153.319 1.32566 6.66035 0
M  V30 1509 H 151.265 -0.912348 6.49625 0
M  V30 1510 H 151.182 0.464422 7.54572 0
M  V30 1511 H 152.45 -0.704716 7.76308 0
M  V30 1512 N 156.679 -1.44442 0.630414 0
M  V30 1513 C 157.904 -2.06927 0.139944 0
M  V30 1514 C 158.329 -1.46795 -1.17613 0
M  V30 1515 O 157.687 -0.569144 -1.72135 0
M  V30 1516 C 157.735 -3.6058 0.0379581 0
M  V30 1517 O 156.839 -3.99937 -1.0062 0
M  V30 1518 H 156.18 -0.658608 0.0844483 0
M  V30 1519 H 158.71 -1.85327 0.866891 0
M  V30 1520 H 158.72 -4.07714 -0.152856 0
M  V30 1521 H 157.395 -4.03728 0.998809 0
M  V30 1522 H 155.972 -3.64436 -0.79001 0
M  V30 1523 N 158.157 -0.370918 -1.53173 0
M  V30 1524 C 159.397 0.217106 -2.03244 0
M  V30 1525 C 159.761 1.45558 -1.25207 0
M  V30 1526 O 160.962 2.11957 -1.65311 0
M  V30 1527 C 159.233 0.496664 -3.53932 0
M  V30 1528 S 160.792 1.0576 -4.25864 0
M  V30 1529 H 157.61 0.0627827 -0.708223 0
M  V30 1530 H 160.212 -0.515019 -1.88594 0
M  V30 1531 H 158.916 -0.412096 -4.08326 0
M  V30 1532 H 158.447 1.25772 -3.72753 0
M  V30 1533 H 160.462 2.34145 -4.37482 0
M  V30 1534 N 159.635 1.57281 -0.100228 0
M  V30 1535 C 160.582 2.14305 0.856858 0
M  V30 1536 C 161.552 1.06296 1.27634 0
M  V30 1537 O 162.737 1.34109 1.35718 0
M  V30 1538 C 159.877 2.73184 2.10866 0
M  V30 1539 C 158.99 3.95442 1.73925 0
M  V30 1540 C 158.125 4.42468 2.93931 0
M  V30 1541 C 157.164 5.57303 2.5314 0
M  V30 1542 N 156.301 5.99158 3.65997 0
M  V30 1543 H 161.141 2.95772 0.363726 0
M  V30 1544 H 158.678 1.46139 0.167858 0
M  V30 1545 H 160.636 3.05442 2.84185 0
M  V30 1546 H 159.266 1.94437 2.57671 0
M  V30 1547 H 158.318 3.69464 0.905554 0
M  V30 1548 H 159.63 4.78769 1.39935 0
M  V30 1549 H 158.784 4.76537 3.75496 0
M  V30 1550 H 157.523 3.58052 3.31134 0
M  V30 1551 H 156.528 5.22857 1.70003 0
M  V30 1552 H 157.753 6.43471 2.17075 0
M  V30 1553 H 155.699 5.17687 4.02909 0
M  V30 1554 H 155.616 6.77295 3.35869 0
M  V30 1555 H 156.884 6.3786 4.48057 0
M  V30 1556 N 161.113 -0.173488 1.56642 0
M  V30 1557 C 162.361 -0.888706 1.81512 0
M  V30 1558 C 162.682 -1.82875 0.676872 0
M  V30 1559 O 161.952 -1.93536 -0.303414 0
M  V30 1560 H 160.532 -0.331164 0.669582 0
M  V30 1561 H 163.194 -0.173823 1.94123 0
M  V30 1562 H 162.29 -1.46691 2.75478 0
M  V30 1563 N 162.591 -1.51276 -0.441967 0
M  V30 1564 C 164.007 -1.39349 -0.778083 0
M  V30 1565 C 164.207 -0.472212 -1.95889 0
M  V30 1566 O 163.263 0.0743551 -2.5239 0
M  V30 1567 C 164.576 -2.81292 -1.0628 0
M  V30 1568 C 166.124 -2.9041 -1.16751 0
M  V30 1569 C 166.599 -4.33251 -1.48519 0
M  V30 1570 N 168.09 -4.36336 -1.55453 0
M  V30 1571 C 168.825 -5.43885 -1.81596 0
M  V30 1572 N 168.321 -6.61601 -2.05562 0
M  V30 1573 N 170.114 -5.3136 -1.8334 0
M  V30 1574 H 162.265 -2.09729 0.335774 0
M  V30 1575 H 164.528 -0.943925 0.0878028 0
M  V30 1576 H 164.234 -3.50678 -0.267905 0
M  V30 1577 H 164.108 -3.20334 -1.99163 0
M  V30 1578 H 166.495 -2.21225 -1.95304 0
M  V30 1579 H 166.576 -2.54871 -0.217801 0
M  V30 1580 H 166.22 -5.02984 -0.704958 0
M  V30 1581 H 166.15 -4.66299 -2.44689 0
M  V30 1582 H 168.641 -3.51466 -1.38853 0
M  V30 1583 H 168.954 -7.39361 -2.24867 0
M  V30 1584 H 167.299 -6.64725 -2.02894 0
M  V30 1585 H 170.49 -4.38382 -1.64132 0
M  V30 1586 H 170.663 -6.15258 -2.03377 0
M  V30 1587 N 164.069 0.697108 -1.41344 0
M  V30 1588 C 165.309 1.46939 -1.42085 0
M  V30 1589 C 165.673 1.9198 -0.0280397 0
M  V30 1590 O 166.874 2.6865 0.0897504 0
M  V30 1591 C 165.145 2.64985 -2.39828 0
M  V30 1592 S 166.704 3.54147 -2.59085 0
M  V30 1593 H 163.522 0.502146 -0.503359 0
M  V30 1594 H 166.124 0.813546 -1.77769 0
M  V30 1595 H 164.828 2.30098 -3.39828 0
M  V30 1596 H 164.359 3.35464 -2.05493 0
M  V30 1597 H 166.374 4.60137 -1.85711 0
M  V30 1598 N 165.547 1.27147 0.931209 0
M  V30 1599 C 166.794 1.13278 1.67852 0
M  V30 1600 C 167.122 -0.32204 1.91815 0
M  V30 1601 O 166.377 -1.25224 1.50391 0
M  V30 1602 C 166.676 1.8579 3.05314 0
M  V30 1603 C 166.342 3.35657 3.01073 0
M  V30 1604 C 165.004 3.76536 2.99623 0
M  V30 1605 C 167.356 4.31299 2.92627 0
M  V30 1606 C 164.684 5.11426 2.87506 0
M  V30 1607 C 167.036 5.66242 2.82051 0
M  V30 1608 C 165.7 6.06418 2.7895 0
M  V30 1609 H 164.97 0.414515 0.614214 0
M  V30 1610 H 167.617 1.57712 1.08624 0
M  V30 1611 H 165.922 1.33854 3.68226 0
M  V30 1612 H 167.619 1.72491 3.62005 0
M  V30 1613 H 164.209 3.03146 3.02986 0
M  V30 1614 H 168.393 4.00692 2.92848 0
M  V30 1615 H 163.649 5.41705 2.83489 0
M  V30 1616 H 167.823 6.40026 2.74481 0
M  V30 1617 H 165.45 7.10895 2.69318 0
M  V30 1618 N 167.025 -1.13721 1.09112 0
M  V30 1619 C 167.935 -2.22638 0.73957 0
M  V30 1620 C 168.951 -1.72091 -0.257068 0
M  V30 1621 O 170.127 -2.01155 -0.0992154 0
M  V30 1622 C 167.192 -3.46322 0.16191 0
M  V30 1623 C 166.253 -4.11775 1.21408 0
M  V30 1624 C 165.486 -5.29555 0.663891 0
M  V30 1625 O 165.709 -5.68077 -0.514274 0
M  V30 1626 O 164.643 -5.84973 1.41738 0
M  V30 1627 H 168.469 -2.55074 1.64836 0
M  V30 1628 H 166.054 -1.21791 0.865289 0
M  V30 1629 H 167.936 -4.21107 -0.157073 0
M  V30 1630 H 166.611 -3.15593 -0.719932 0
M  V30 1631 H 165.518 -3.3883 1.58571 0
M  V30 1632 H 166.851 -4.46627 2.06845 0
M  V30 1633 N 168.503 -0.877838 -1.30888 0
M  V30 1634 C 169.919 -0.570844 -1.49042 0
M  V30 1635 C 170.119 0.893159 -1.80624 0
M  V30 1636 O 169.175 1.67485 -1.88958 0
M  V30 1637 C 170.488 -1.47784 -2.61878 0
M  V30 1638 C 172.036 -1.48071 -2.75761 0
M  V30 1639 C 172.511 -2.37347 -3.91702 0
M  V30 1640 N 174.002 -2.35271 -3.99001 0
M  V30 1641 C 174.737 -3.01063 -4.88004 0
M  V30 1642 N 174.233 -3.76055 -5.81854 0
M  V30 1643 N 176.026 -2.90332 -4.81315 0
M  V30 1644 H 168.177 -1.82502 -1.0866 0
M  V30 1645 H 170.44 -0.780797 -0.537644 0
M  V30 1646 H 170.146 -2.51993 -2.45341 0
M  V30 1647 H 170.02 -1.18215 -3.58197 0
M  V30 1648 H 172.407 -0.446166 -2.91708 0
M  V30 1649 H 172.488 -1.81668 -1.80085 0
M  V30 1650 H 172.132 -3.40883 -3.76512 0
M  V30 1651 H 172.062 -2.01071 -4.86701 0
M  V30 1652 H 174.553 -1.80768 -3.3186 0
M  V30 1653 H 174.866 -4.23366 -6.46514 0
M  V30 1654 H 173.211 -3.80163 -5.81808 0
M  V30 1655 H 176.402 -2.31278 -4.06974 0
M  V30 1656 H 176.575 -3.41885 -5.50471 0
M  V30 1657 N 169.982 1.44106 -0.638065 0
M  V30 1658 C 171.21 2.06336 -0.152615 0
M  V30 1659 C 171.625 1.47731 1.17563 0
M  V30 1660 O 170.982 0.602806 1.72257 0
M  V30 1661 C 171.033 3.61479 -0.0391491 0
M  V30 1662 O 170.754 4.17903 -1.31487 0
M  V30 1663 C 172.255 4.40757 0.474176 0
M  V30 1664 H 169.475 0.665862 -0.0828776 0
M  V30 1665 H 172.019 1.84862 -0.87443 0
M  V30 1666 H 170.174 3.82191 0.633142 0
M  V30 1667 H 170.588 5.11416 -1.16421 0
M  V30 1668 H 172.062 5.49707 0.502562 0
M  V30 1669 H 172.539 4.12697 1.50258 0
M  V30 1670 H 173.145 4.24979 -0.165102 0
M  V30 1671 N 171.46 0.379036 1.52974 0
M  V30 1672 C 172.707 -0.206421 2.01445 0
M  V30 1673 C 173.035 -1.47668 1.26587 0
M  V30 1674 O 172.29 -1.92514 0.351675 0
M  V30 1675 C 172.589 -0.53096 3.53434 0
M  V30 1676 C 172.255 0.646546 4.46241 0
M  V30 1677 C 170.917 0.969604 4.7133 0
M  V30 1678 C 173.269 1.43479 5.01062 0
M  V30 1679 C 170.597 2.08263 5.48492 0
M  V30 1680 C 172.949 2.53834 5.7944 0
M  V30 1681 C 171.613 2.86659 6.02812 0
M  V30 1682 H 170.883 -0.0755349 0.73714 0
M  V30 1683 H 173.53 0.514271 1.84465 0
M  V30 1684 H 171.835 -1.33285 3.68432 0
M  V30 1685 H 173.532 -0.996417 3.88423 0
M  V30 1686 H 170.122 0.384734 4.2687 0
M  V30 1687 H 174.306 1.19844 4.81613 0
M  V30 1688 H 169.562 2.34078 5.64816 0
M  V30 1689 H 173.736 3.15319 6.20924 0
M  V30 1690 H 171.363 3.73026 6.62387 0
M  V30 1691 N 172.938 -1.57226 0.108567 0
M  V30 1692 C 174.186 -1.94448 -0.550853 0
M  V30 1693 C 174.507 -0.992074 -1.67878 0
M  V30 1694 O 173.777 -0.0465 -1.95845 0
M  V30 1695 H 172.357 -0.717897 -0.206479 0
M  V30 1696 H 175.019 -1.94112 0.175062 0
M  V30 1697 H 174.115 -2.97218 -0.952259 0
M  V30 1698 N 174.416 0.165178 -1.56732 0
M  V30 1699 C 175.364 1.22369 -1.97809 0
M  V30 1700 C 176.358 1.45488 -0.867741 0
M  V30 1701 O 177.564 1.45995 -1.05288 0
M  V30 1702 H 173.939 0.411486 -0.629431 0
M  V30 1703 H 175.91 0.850425 -2.86025 0
M  V30 1704 C 174.659 2.55403 -2.35934 0
M  V30 1705 H 173.982 2.38438 -3.20916 0
M  V30 1706 H 175.422 3.2814 -2.68514 0
M  V30 1707 C 173.881 3.14611 -1.20506 0
M  V30 1708 O 174.411 3.98626 -0.496016 0
M  V30 1709 N 172.617 2.7379 -0.97403 0
M  V30 1710 H 172.164 2.0557 -1.55238 0
M  V30 1711 H 172.122 3.1374 -0.203573 0
M  V30 1712 N 175.894 1.51508 0.433938 0
M  V30 1713 C 177.134 1.66006 1.19253 0
M  V30 1714 C 177.498 0.369868 1.88404 0
M  V30 1715 O 178.699 0.39066 2.65946 0
M  V30 1716 C 176.97 2.83229 2.17981 0
M  V30 1717 S 178.529 3.18075 3.02281 0
M  V30 1718 H 175.347 0.584821 0.404358 0
M  V30 1719 H 177.949 1.89425 0.48357 0
M  V30 1720 H 176.653 3.75407 1.65824 0
M  V30 1721 H 176.184 2.6201 2.93453 0
M  V30 1722 H 178.199 2.64772 4.19655 0
M  V30 1723 N 177.372 -0.689602 1.41712 0
M  V30 1724 C 178.788 -1.00093 1.24312 0
M  V30 1725 C 178.988 -2.01036 0.136729 0
M  V30 1726 O 178.044 -2.47562 -0.496918 0
M  V30 1727 C 179.357 -1.51985 2.59463 0
M  V30 1728 C 180.905 -1.63838 2.66695 0
M  V30 1729 C 181.38 -2.1913 4.02177 0
M  V30 1730 N 182.871 -2.26483 4.04054 0
M  V30 1731 C 183.606 -2.70306 5.0569 0
M  V30 1732 N 183.102 -3.13691 6.17713 0
M  V30 1733 N 184.895 -2.69923 4.9305 0
M  V30 1734 H 177.046 -0.0210029 2.1239 0
M  V30 1735 H 179.309 -0.0718733 0.945272 0
M  V30 1736 H 179.015 -0.85269 3.41207 0
M  V30 1737 H 178.889 -2.50103 2.82362 0
M  V30 1738 H 181.276 -2.29664 1.85306 0
M  V30 1739 H 181.357 -0.642492 2.476 0
M  V30 1740 H 181.001 -1.53918 4.84016 0
M  V30 1741 H 180.931 -3.19482 4.18615 0
M  V30 1742 H 183.422 -1.95874 3.23174 0
M  V30 1743 H 183.735 -3.45773 6.9113 0
M  V30 1744 H 182.08 -3.11585 6.21241 0
M  V30 1745 H 185.271 -2.35382 4.04614 0
M  V30 1746 H 185.444 -3.03758 5.72394 0
M  V30 1747 N 178.85 -1.27639 -0.924453 0
M  V30 1748 C 180.09 -1.15407 -1.68703 0
M  V30 1749 C 180.454 0.294581 -1.89727 0
M  V30 1750 O 181.655 0.539385 -2.63333 0
M  V30 1751 C 179.926 -1.9195 -3.0148 0
M  V30 1752 S 181.485 -1.95969 -3.92609 0
M  V30 1753 H 178.303 -0.411937 -0.579507 0
M  V30 1754 H 180.905 -1.61592 -1.10038 0
M  V30 1755 H 179.609 -2.96387 -2.83871 0
M  V30 1756 H 179.14 -1.46272 -3.65196 0
M  V30 1757 H 181.155 -1.05846 -4.84779 0
M  V30 1758 N 180.328 1.1314 -1.09713 0
M  V30 1759 C 181.605 1.80762 -0.747302 0
M  V30 1760 C 181.985 1.96663 0.767265 0
M  V30 1761 O 181.333 1.53706 1.69076 0
M  V30 1762 C 181.543 3.15606 -1.48975 0
M  V30 1763 C 182.891 3.90914 -1.65746 0
M  V30 1764 O 183.915 3.25239 -1.45251 0
M  V30 1765 O 182.774 5.08718 -1.9967 0
M  V30 1766 H 179.868 0.782103 -0.268782 0
M  V30 1767 H 182.414 1.20041 -1.19951 0
M  V30 1768 H 181.186 2.99278 -2.52088 0
M  V30 1769 H 180.809 3.84029 -1.02991 0
M  V30 1770 N 181.806 0.884767 1.30421 0
M  V30 1771 C 182.769 0.356277 2.26414 0
M  V30 1772 C 183.769 -0.501124 1.52792 0
M  V30 1773 O 184.959 -0.30831 1.7145 0
M  V30 1774 C 182.091 -0.492316 3.37326 0
M  V30 1775 H 183.284 1.20389 2.74675 0
M  V30 1776 H 180.837 0.661607 1.41607 0
M  V30 1777 H 181.572 -1.36052 2.94381 0
M  V30 1778 H 181.357 0.121832 3.91911 0
M  V30 1779 H 182.847 -0.853871 4.08777 0
M  V30 1780 N 183.284 -1.43765 0.645699 0
M  V30 1781 C 184.247 -2.29163 -0.0409488 0
M  V30 1782 C 185.247 -1.41813 -0.757996 0
M  V30 1783 O 186.437 -1.63527 -0.600382 0
M  V30 1784 C 183.569 -3.23716 -1.06869 0
M  V30 1785 H 184.762 -2.91366 0.710345 0
M  V30 1786 H 182.315 -1.5092 0.406547 0
M  V30 1787 H 183.05 -2.66393 -1.84947 0
M  V30 1788 H 182.835 -3.88105 -0.558277 0
M  V30 1789 H 184.325 -3.87831 -1.54845 0
M  V30 1790 N 184.763 -0.387143 -1.52771 0
M  V30 1791 C 186.003 0.195537 -2.03463 0
M  V30 1792 C 186.367 1.44222 -1.26744 0
M  V30 1793 O 187.568 2.10192 -1.67549 0
M  V30 1794 C 185.839 0.459097 -3.54439 0
M  V30 1795 S 187.398 1.01237 -4.26962 0
M  V30 1796 H 184.216 0.0552675 -0.708849 0
M  V30 1797 H 186.818 -0.534992 -1.88037 0
M  V30 1798 H 185.522 -0.455382 -4.07866 0
M  V30 1799 H 185.053 1.21811 -3.74066 0
M  V30 1800 H 187.068 2.29492 -4.39941 0
M  V30 1801 N 186.241 1.57166 -0.116904 0
M  V30 1802 C 187.487 1.95412 0.542405 0
M  V30 1803 C 187.82 1.00019 1.66463 0
M  V30 1804 O 187.095 0.0370346 1.94465 0
M  V30 1805 C 187.378 3.43615 1.07708 0
M  V30 1806 C 187.231 4.49781 -0.0415868 0
M  V30 1807 C 188.55 3.93616 1.96861 0
M  V30 1808 H 185.669 0.710543 0.195696 0
M  V30 1809 H 188.311 1.89027 -0.192038 0
M  V30 1810 H 186.461 3.49187 1.70296 0
M  V30 1811 H 188.133 4.56308 -0.676793 0
M  V30 1812 H 186.376 4.28033 -0.705019 0
M  V30 1813 H 187.047 5.50733 0.373717 0
M  V30 1814 H 189.523 3.90335 1.44146 0
M  V30 1815 H 188.399 4.97838 2.3119 0
M  V30 1816 H 188.66 3.34188 2.89432 0
M  V30 1817 N 187.719 -0.156864 1.56817 0
M  V30 1818 C 188.629 -1.2136 2.00771 0
M  V30 1819 C 189.645 -1.47598 0.921459 0
M  V30 1820 O 190.821 -1.59462 1.2302 0
M  V30 1821 C 187.886 -2.52943 2.37109 0
M  V30 1822 C 186.947 -2.34439 3.59634 0
M  V30 1823 C 186.18 -3.59748 3.94229 0
M  V30 1824 O 186.403 -4.65526 3.29609 0
M  V30 1825 O 185.337 -3.52998 4.8752 0
M  V30 1826 H 189.163 -0.870468 2.90958 0
M  V30 1827 H 186.748 -0.36484 1.44877 0
M  V30 1828 H 188.63 -3.30538 2.61386 0
M  V30 1829 H 187.305 -2.86806 1.5008 0
M  V30 1830 H 186.212 -1.54828 3.40557 0
M  V30 1831 H 187.545 -2.05496 4.4725 0
M  V30 1832 N 189.197 -1.51736 -0.425897 0
M  V30 1833 C 190.127 -1.76827 -1.52494 0
M  V30 1834 C 191.108 -0.618524 -1.58456 0
M  V30 1835 O 192.293 -0.862416 -1.74 0
M  V30 1836 C 189.423 -1.90374 -2.90474 0
M  V30 1837 C 188.377 -3.0588 -2.99369 0
M  V30 1838 C 187.703 -3.04625 -4.3944 0
M  V30 1839 C 189.003 -4.45644 -2.72394 0
M  V30 1840 H 190.697 -2.68855 -1.31748 0
M  V30 1841 H 188.243 -1.29372 -0.632362 0
M  V30 1842 H 190.196 -2.0651 -3.6733 0
M  V30 1843 H 188.92 -0.95004 -3.12477 0
M  V30 1844 H 187.579 -2.89467 -2.24954 0
M  V30 1845 H 187.227 -2.0701 -4.58428 0
M  V30 1846 H 186.927 -3.82195 -4.46319 0
M  V30 1847 H 188.451 -3.22869 -5.18255 0
M  V30 1848 H 189.865 -4.62348 -3.38979 0
M  V30 1849 H 188.262 -5.25006 -2.9067 0
M  V30 1850 H 189.332 -4.54893 -1.67929 0
M  V30 1851 N 190.675 0.682077 -1.42076 0
M  V30 1852 C 191.923 1.4393 -1.41876 0
M  V30 1853 C 192.244 1.94971 -0.0335599 0
M  V30 1854 O 191.514 1.72591 0.926773 0
M  V30 1855 H 190.094 0.534085 -0.522267 0
M  V30 1856 H 192.756 0.806427 -1.77434 0
M  V30 1857 H 191.852 2.29588 -2.11414 0
M  V30 1858 N 192.153 1.28127 0.917671 0
M  V30 1859 C 193.101 1.11569 2.04096 0
M  V30 1860 C 194.095 0.0360242 1.69362 0
M  V30 1861 O 195.301 0.194501 1.78946 0
M  V30 1862 H 191.676 0.344097 0.668656 0
M  V30 1863 H 193.647 2.06711 2.15205 0
M  V30 1864 C 192.396 0.790197 3.38602 0
M  V30 1865 H 191.719 1.61293 3.6582 0
M  V30 1866 H 193.159 0.714271 4.1794 0
M  V30 1867 C 191.618 -0.505897 3.3308 0
M  V30 1868 O 192.148 -1.53736 3.71117 0
M  V30 1869 N 190.354 -0.505193 2.86175 0
M  V30 1870 H 189.901 0.334621 2.55417 0
M  V30 1871 H 189.859 -1.37243 2.82863 0
M  V30 1872 N 193.631 -1.12557 1.10312 0
M  V30 1873 C 194.871 -1.8568 0.854543 0
M  V30 1874 C 195.235 -1.82091 -0.608843 0
M  V30 1875 O 196.436 -2.50544 -0.973717 0
M  V30 1876 C 194.707 -3.2942 1.38626 0
M  V30 1877 S 196.266 -4.19931 1.27293 0
M  V30 1878 H 193.084 -0.640427 0.308827 0
M  V30 1879 H 195.686 -1.35599 1.40831 0
M  V30 1880 H 194.39 -3.2959 2.44537 0
M  V30 1881 H 193.921 -3.84566 0.82902 0
M  V30 1882 H 195.936 -4.95668 0.229776 0
M  V30 1883 N 195.109 -0.891671 -1.2995 0
M  V30 1884 C 196.349 -0.520296 -1.97667 0
M  V30 1885 C 196.713 0.914797 -1.68806 0
M  V30 1886 O 197.914 1.39263 -2.29911 0
M  V30 1887 C 196.185 -0.795222 -3.48441 0
M  V30 1888 S 197.744 -0.526953 -4.35624 0
M  V30 1889 H 194.562 -0.19333 -0.684211 0
M  V30 1890 H 197.164 -1.15238 -1.57926 0
M  V30 1891 H 195.868 -1.83805 -3.66938 0
M  V30 1892 H 195.399 -0.15095 -3.9311 0
M  V30 1893 H 197.414 0.631533 -4.92165 0
M  V30 1894 N 196.587 1.43421 -0.653314 0
M  V30 1895 C 197.517 2.33487 0.0246656 0
M  V30 1896 C 198.498 1.49475 0.811863 0
M  V30 1897 O 199.683 1.78139 0.773322 0
M  V30 1898 C 196.813 3.32841 0.99166 0
M  V30 1899 C 195.767 4.26842 0.314568 0
M  V30 1900 C 195.093 5.16236 1.39302 0
M  V30 1901 C 196.393 5.16243 -0.793095 0
M  V30 1902 H 198.087 2.90427 -0.727481 0
M  V30 1903 H 195.633 1.39649 -0.351287 0
M  V30 1904 H 197.586 3.94747 1.47487 0
M  V30 1905 H 196.31 2.74158 1.77497 0
M  V30 1906 H 194.969 3.663 -0.148199 0
M  V30 1907 H 194.617 4.53891 2.16776 0
M  V30 1908 H 194.317 5.79948 0.945223 0
M  V30 1909 H 195.841 5.81015 1.87759 0
M  V30 1910 H 197.255 5.71958 -0.392039 0
M  V30 1911 H 195.652 5.88676 -1.16536 0
M  V30 1912 H 196.722 4.55927 -1.65103 0
M  V30 1913 N 198.065 0.39524 1.52563 0
M  V30 1914 C 199.342 -0.242908 1.94086 0
M  V30 1915 C 199.722 -1.63841 1.33114 0
M  V30 1916 O 199.07 -2.22928 0.501529 0
M  V30 1917 C 199.28 -0.26327 3.48006 0
M  V30 1918 C 200.628 -0.489354 4.21771 0
M  V30 1919 O 201.652 -0.343226 3.54543 0
M  V30 1920 O 200.511 -0.776169 5.4096 0
M  V30 1921 H 197.605 -0.152536 0.812811 0
M  V30 1922 H 200.151 0.450178 1.6362 0
M  V30 1923 H 198.923 0.713985 3.84731 0
M  V30 1924 H 198.546 -1.00103 3.84792 0
M  V30 1925 N 199.544 -1.57102 0.125237 0
M  V30 1926 C 200.774 -1.99472 -0.538015 0
M  V30 1927 C 201.182 -1.00395 -1.60366 0
M  V30 1928 O 200.525 0.0103875 -1.83697 0
M  V30 1929 C 200.587 -3.38262 -1.21734 0
M  V30 1930 C 200.251 -4.56021 -0.298897 0
M  V30 1931 C 201.248 -5.17817 0.464943 0
M  V30 1932 C 198.933 -5.01869 -0.208149 0
M  V30 1933 C 200.927 -6.23852 1.3072 0
M  V30 1934 C 198.614 -6.07763 0.637736 0
M  V30 1935 C 199.612 -6.68622 1.39403 0
M  V30 1936 O 199.3 -7.7247 2.22586 0
M  V30 1937 H 199.032 -0.659934 -0.146501 0
M  V30 1938 H 201.586 -2.04321 0.210267 0
M  V30 1939 H 199.816 -3.30185 -2.01282 0
M  V30 1940 H 201.505 -3.6488 -1.77813 0
M  V30 1941 H 202.271 -4.83308 0.404741 0
M  V30 1942 H 198.15 -4.54241 -0.786522 0
M  V30 1943 H 201.694 -6.71284 1.898 0
M  V30 1944 H 197.591 -6.41701 0.699309 0
M  V30 1945 H 198.359 -7.89595 2.15596 0
M  V30 1946 N 201.022 0.148545 -1.56898 0
M  V30 1947 C 201.954 1.20852 -1.9475 0
M  V30 1948 C 202.967 1.39265 -0.843152 0
M  V30 1949 O 204.156 1.38864 -1.12156 0
M  V30 1950 C 201.256 2.57362 -2.20495 0
M  V30 1951 C 200.429 2.59947 -3.51776 0
M  V30 1952 C 199.488 3.77984 -3.6608 0
M  V30 1953 O 198.514 3.62929 -4.38487 0
M  V30 1954 N 199.716 4.95375 -3.02629 0
M  V30 1955 H 202.481 0.886804 -2.86279 0
M  V30 1956 H 200.042 0.338121 -1.5833 0
M  V30 1957 H 202.034 3.34833 -2.27307 0
M  V30 1958 H 200.604 2.81832 -1.35238 0
M  V30 1959 H 199.824 1.68403 -3.56419 0
M  V30 1960 H 201.112 2.58704 -4.38121 0
M  V30 1961 H 200.51 5.10509 -2.43715 0
M  V30 1962 H 199.067 5.70627 -3.15004 0
M  V30 1963 N 202.5 1.5196 0.417844 0
M  V30 1964 C 203.41 1.77554 1.53336 0
M  V30 1965 C 204.426 0.660655 1.6097 0
M  V30 1966 O 205.602 0.945099 1.77848 0
M  V30 1967 C 202.667 1.91291 2.89152 0
M  V30 1968 C 201.728 3.15183 2.91475 0
M  V30 1969 C 200.961 3.28256 4.20813 0
M  V30 1970 O 201.184 2.46798 5.14244 0
M  V30 1971 O 200.118 4.21356 4.29817 0
M  V30 1972 H 203.944 2.7222 1.34647 0
M  V30 1973 H 201.529 1.36698 0.602828 0
M  V30 1974 H 203.411 2.02199 3.69721 0
M  V30 1975 H 202.086 0.998129 3.07927 0
M  V30 1976 H 200.993 3.09739 2.09791 0
M  V30 1977 H 202.326 4.06414 2.77648 0
M  V30 1978 N 203.978 -0.674533 1.42435 0
M  V30 1979 C 205.206 -1.46283 1.46317 0
M  V30 1980 C 205.621 -1.88653 0.0745836 0
M  V30 1981 O 204.978 -1.58151 -0.91074 0
M  V30 1982 C 205.029 -2.71178 2.3905 0
M  V30 1983 O 204.75 -2.30586 3.72507 0
M  V30 1984 C 206.251 -3.64738 2.51955 0
M  V30 1985 H 203.471 -0.450104 0.497642 0
M  V30 1986 H 206.015 -0.828792 1.86953 0
M  V30 1987 H 204.17 -3.3077 2.01667 0
M  V30 1988 H 204.584 -3.11241 4.22172 0
M  V30 1989 H 206.058 -4.49096 3.20962 0
M  V30 1990 H 206.535 -4.10656 1.55752 0
M  V30 1991 H 207.141 -3.11038 2.90061 0
M  V30 1992 N 205.456 -1.28612 -0.910864 0
M  V30 1993 C 206.696 -1.1719 -1.67469 0
M  V30 1994 C 207.06 0.274441 -1.90028 0
M  V30 1995 O 208.261 0.511425 -2.6389 0
M  V30 1996 C 206.532 -1.95137 -2.99427 0
M  V30 1997 S 208.091 -2.00122 -3.90508 0
M  V30 1998 H 204.909 -0.41806 -0.575106 0
M  V30 1999 H 207.511 -1.6275 -1.08317 0
M  V30 2000 H 206.215 -2.99381 -2.80712 0
M  V30 2001 H 205.746 -1.50137 -3.63624 0
M  V30 2002 H 207.761 -1.10981 -4.8363 0
M  V30 2003 N 206.934 1.1197 -1.10907 0
M  V30 2004 C 208.183 1.82947 -0.849302 0
M  V30 2005 C 208.496 1.85275 0.627112 0
M  V30 2006 O 209.702 2.52296 1.00295 0
M  V30 2007 C 208.158 3.28529 -1.46959 0
M  V30 2008 C 207.766 3.34546 -2.97965 0
M  V30 2009 C 209.51 4.04443 -1.28942 0
M  V30 2010 C 207.417 4.74491 -3.53004 0
M  V30 2011 H 206.347 0.685477 -0.314065 0
M  V30 2012 H 208.998 1.2604 -1.33365 0
M  V30 2013 H 207.38 3.85333 -0.912917 0
M  V30 2014 H 208.554 2.87654 -3.59989 0
M  V30 2015 H 206.869 2.72108 -3.15192 0
M  V30 2016 H 209.466 5.07787 -1.67502 0
M  V30 2017 H 209.809 4.15656 -0.231456 0
M  V30 2018 H 210.342 3.5401 -1.81443 0
M  V30 2019 H 207.081 4.68474 -4.58489 0
M  V30 2020 H 206.601 5.21816 -2.9575 0
M  V30 2021 H 208.28 5.4344 -3.51115 0
M  V30 2022 N 208.412 0.89855 1.29475 0
M  V30 2023 C 209.322 0.379974 2.31502 0
M  V30 2024 C 210.338 -0.524695 1.659 0
M  V30 2025 O 211.514 -0.414551 1.97087 0
M  V30 2026 C 208.579 -0.385138 3.44554 0
M  V30 2027 C 207.64 0.550914 4.2575 0
M  V30 2028 C 206.873 -0.177778 5.33404 0
M  V30 2029 O 207.096 -1.40189 5.52904 0
M  V30 2030 O 206.03 0.479106 5.9999 0
M  V30 2031 H 209.856 1.22639 2.77837 0
M  V30 2032 H 207.441 0.662834 1.33891 0
M  V30 2033 H 209.323 -0.817841 4.13388 0
M  V30 2034 H 207.998 -1.20763 3.0033 0
M  V30 2035 H 206.905 1.03271 3.59564 0
M  V30 2036 H 208.238 1.33979 4.73614 0
M  V30 2037 N 209.89 -1.43072 0.660911 0
M  V30 2038 C 211.301 -1.84932 0.256348 0
M  V30 2039 C 211.652 -1.55325 -1.19868 0
M  V30 2040 O 210.777 -1.00607 -1.91591 0
M  V30 2041 C 211.372 -3.35684 0.458475 0
M  V30 2042 C 209.931 -3.76245 0.108161 0
M  V30 2043 C 209.078 -2.66749 0.757641 0
M  V30 2044 H 212.029 -1.33116 0.864051 0
M  V30 2045 H 212.05 -3.79365 -0.293683 0
M  V30 2046 H 211.562 -3.572 1.51755 0
M  V30 2047 H 209.663 -3.60338 -0.948014 0
M  V30 2048 H 209.776 -4.76058 0.538992 0
M  V30 2049 H 208.14 -2.53989 0.190185 0
M  V30 2050 H 208.923 -2.91092 1.81989 0
M  V30 2051 N 211.368 -0.403325 -1.52352 0
M  V30 2052 C 212.278 0.432009 -2.30588 0
M  V30 2053 C 213.294 1.05884 -1.38075 0
M  V30 2054 O 214.47 1.06161 -1.71148 0
M  V30 2055 C 211.535 1.53669 -3.10784 0
M  V30 2056 C 210.596 0.933525 -4.19027 0
M  V30 2057 C 209.829 1.98557 -4.9539 0
M  V30 2058 O 210.052 3.20283 -4.71991 0
M  V30 2059 O 208.986 1.59504 -5.80381 0
M  V30 2060 H 212.812 -0.205739 -3.03002 0
M  V30 2061 H 210.397 -0.166675 -1.48467 0
M  V30 2062 H 212.279 2.17814 -3.60742 0
M  V30 2063 H 210.954 2.15915 -2.41169 0
M  V30 2064 H 209.861 0.254954 -3.7323 0
M  V30 2065 H 211.194 0.35508 -4.90918 0
M  V30 2066 N 212.846 1.57033 -0.133567 0
M  V30 2067 C 213.796 2.12641 0.822671 0
M  V30 2068 C 214.78 1.05081 1.21847 0
M  V30 2069 O 215.972 1.31287 1.18713 0
M  V30 2070 C 213.101 2.74094 2.06706 0
M  V30 2071 C 212.187 3.88757 1.69497 0
M  V30 2072 N 212.578 4.95194 1.03037 0
M  V30 2073 C 210.876 3.99213 1.98859 0
M  V30 2074 C 211.577 5.75414 0.852873 0
M  V30 2075 N 210.553 5.25726 1.3825 0
M  V30 2076 H 214.355 2.92308 0.305537 0
M  V30 2077 H 211.869 1.62256 0.0684276 0
M  V30 2078 H 213.866 3.12285 2.76195 0
M  V30 2079 H 212.526 1.95896 2.5895 0
M  V30 2080 H 213.537 5.13247 0.692669 0
M  V30 2081 H 210.214 3.32075 2.53047 0
M  V30 2082 H 211.604 6.71089 0.330091 0
M  V30 2083 N 214.325 -0.140222 1.56975 0
M  V30 2084 C 215.574 -0.850152 1.82908 0
M  V30 2085 C 215.887 -1.82028 0.715892 0
M  V30 2086 O 217.093 -2.57485 0.861016 0
M  V30 2087 C 215.549 -1.5625 3.24213 0
M  V30 2088 C 215.157 -0.63443 4.43485 0
M  V30 2089 C 216.901 -2.25881 3.59413 0
M  V30 2090 C 214.808 -1.34879 5.75814 0
M  V30 2091 H 213.738 -0.321221 0.682153 0
M  V30 2092 H 216.389 -0.102874 1.83211 0
M  V30 2093 H 214.771 -2.35565 3.18316 0
M  V30 2094 H 215.945 0.12398 4.60633 0
M  V30 2095 H 214.26 -0.0461836 4.16374 0
M  V30 2096 H 216.857 -2.79978 4.5554 0
M  V30 2097 H 217.2 -3.02693 2.85802 0
M  V30 2098 H 217.733 -1.53477 3.67001 0
M  V30 2099 H 214.472 -0.622385 6.52539 0
M  V30 2100 H 213.992 -2.07974 5.6259 0
M  V30 2101 H 215.671 -1.88784 6.18845 0
M  V30 2102 N 215.803 -1.52179 -0.40978 0
M  V30 2103 C 217.049 -1.67408 -1.15525 0
M  V30 2104 C 217.404 -0.398746 -1.88223 0
M  V30 2105 O 216.697 0.60678 -1.81738 0
M  V30 2106 C 216.891 -2.83428 -2.17723 0
M  V30 2107 C 216.72 -4.22121 -1.55061 0
M  V30 2108 C 215.49 -4.87657 -1.3236 0
M  V30 2109 C 217.688 -5.04248 -1.01185 0
M  V30 2110 N 215.67 -6.10387 -0.655834 0
M  V30 2111 C 217.041 -6.18209 -0.470963 0
M  V30 2112 C 219.096 -4.89583 -0.906252 0
M  V30 2113 C 217.799 -7.1911 0.165172 0
M  V30 2114 C 219.825 -5.90718 -0.28397 0
M  V30 2115 C 219.187 -7.03969 0.246243 0
M  V30 2116 H 215.286 -0.666251 -0.409431 0
M  V30 2117 H 217.87 -1.89482 -0.447729 0
M  V30 2118 H 216.041 -2.6297 -2.85834 0
M  V30 2119 H 217.773 -2.87697 -2.84627 0
M  V30 2120 H 214.528 -4.46007 -1.59294 0
M  V30 2121 H 214.952 -6.76153 -0.338596 0
M  V30 2122 H 219.594 -4.02253 -1.302 0
M  V30 2123 H 217.312 -8.06066 0.572986 0
M  V30 2124 H 220.898 -5.81443 -0.203792 0
M  V30 2125 H 219.778 -7.80886 0.720173 0
M  V30 2126 N 217.281 0.66697 -1.42791 0
M  V30 2127 C 218.509 1.45505 -1.47091 0
M  V30 2128 C 218.924 1.8861 -0.0845873 0
M  V30 2129 O 218.281 1.58632 0.90234 0
M  V30 2130 C 218.332 2.69906 -2.40485 0
M  V30 2131 O 218.053 2.28608 -3.73725 0
M  V30 2132 C 219.554 3.63396 -2.53886 0
M  V30 2133 H 216.774 0.447459 -0.500022 0
M  V30 2134 H 219.318 0.818866 -1.8739 0
M  V30 2135 H 217.473 3.29696 -2.03419 0
M  V30 2136 H 217.887 3.08997 -4.23817 0
M  V30 2137 H 219.361 4.47387 -3.2334 0
M  V30 2138 H 219.838 4.09824 -1.57927 0
M  V30 2139 H 220.444 3.09495 -2.91706 0
M  V30 2140 N 218.759 1.29093 0.90403 0
M  V30 2141 C 219.999 1.18076 1.66845 0
M  V30 2142 C 220.363 -0.26436 1.90171 0
M  V30 2143 O 221.564 -0.497423 2.64157 0
M  V30 2144 C 219.835 1.96722 2.98388 0
M  V30 2145 S 221.394 2.0219 3.89441 0
M  V30 2146 H 218.212 0.421104 0.572881 0
M  V30 2147 H 220.814 1.63322 1.07453 0
M  V30 2148 H 219.518 3.00866 2.7912 0
M  V30 2149 H 219.049 1.52064 3.62823 0
M  V30 2150 H 221.064 1.13545 4.83034 0
M  V30 2151 N 220.237 -1.11381 1.11499 0
M  V30 2152 C 221.185 -2.19522 0.768956 0
M  V30 2153 C 222.179 -1.67693 -0.239857 0
M  V30 2154 O 223.385 -1.79727 -0.0990755 0
M  V30 2155 H 219.76 -0.715711 0.230786 0
M  V30 2156 H 221.731 -2.45954 1.68964 0
M  V30 2157 C 220.48 -3.46945 0.229073 0
M  V30 2158 H 219.803 -3.8718 0.996596 0
M  V30 2159 H 221.243 -4.23993 0.0251441 0
M  V30 2160 C 219.702 -3.2042 -1.04079 0
M  V30 2161 O 220.232 -3.41178 -2.12038 0
M  V30 2162 N 218.438 -2.74151 -0.963823 0
M  V30 2163 H 217.985 -2.57459 -0.0851722 0
M  V30 2164 H 217.943 -2.56781 -1.81414 0
M  V30 2165 N 221.715 -0.905404 -1.28997 0
M  V30 2166 C 222.662 -0.385892 -2.27551 0
M  V30 2167 C 223.632 0.535113 -1.57244 0
M  V30 2168 O 224.817 0.459119 -1.85194 0
M  V30 2169 C 221.957 0.375461 -3.43051 0
M  V30 2170 C 221.07 -0.577092 -4.28128 0
M  V30 2171 C 220.205 0.201879 -5.30816 0
M  V30 2172 C 219.244 -0.744829 -6.07551 0
M  V30 2173 N 218.381 9.42587e-05 -7.021 0
M  V30 2174 H 223.221 -1.23139 -2.71368 0
M  V30 2175 H 220.758 -0.618542 -1.33463 0
M  V30 2176 H 222.716 0.832992 -4.088 0
M  V30 2177 H 221.346 1.18537 -3.00248 0
M  V30 2178 H 220.398 -1.15315 -3.62501 0
M  V30 2179 H 221.71 -1.30152 -4.8152 0
M  V30 2180 H 220.864 0.720351 -6.02408 0
M  V30 2181 H 219.603 0.959413 -4.7817 0
M  V30 2182 H 218.608 -1.27475 -5.34818 0
M  V30 2183 H 219.833 -1.50178 -6.62286 0
M  V30 2184 H 217.779 0.739791 -6.51815 0
M  V30 2185 H 217.696 -0.664321 -7.53076 0
M  V30 2186 H 218.964 0.498644 -7.77903 0
M  V30 2187 N 223.193 1.4272 -0.668489 0
M  V30 2188 C 224.44 2.01624 -0.18814 0
M  V30 2189 C 224.768 1.5282 1.20317 0
M  V30 2190 O 224.023 0.718323 1.8204 0
M  V30 2191 C 224.322 3.57021 -0.164499 0
M  V30 2192 C 223.988 4.25232 -1.49962 0
M  V30 2193 C 222.65 4.4358 -1.8652 0
M  V30 2194 C 225.002 4.63727 -2.37921 0
M  V30 2195 C 222.33 4.97694 -3.10674 0
M  V30 2196 C 224.682 5.19218 -3.6138 0
M  V30 2197 C 223.346 5.3578 -3.98115 0
M  V30 2198 H 222.616 0.737795 -0.0688454 0
M  V30 2199 H 225.263 1.70991 -0.862225 0
M  V30 2200 H 223.568 3.87285 0.593079 0
M  V30 2201 H 225.265 4.00372 0.224271 0
M  V30 2202 H 221.855 4.11306 -1.20522 0
M  V30 2203 H 226.039 4.4923 -2.10964 0
M  V30 2204 H 221.295 5.08702 -3.39164 0
M  V30 2205 H 225.469 5.4799 -4.29743 0
M  V30 2206 H 223.096 5.77475 -4.94395 0
M  V30 2207 N 224.671 0.411399 1.52136 0
M  V30 2208 C 226.087 0.0623865 1.59478 0
M  V30 2209 C 226.287 -1.42554 1.4241 0
M  V30 2210 O 225.343 -2.19263 1.2522 0
M  V30 2211 C 226.656 0.559331 2.95452 0
M  V30 2212 C 228.204 0.517503 3.08692 0
M  V30 2213 C 228.679 0.990994 4.4715 0
M  V30 2214 N 230.17 0.947908 4.53397 0
M  V30 2215 C 230.905 1.28544 5.58806 0
M  V30 2216 N 230.401 1.69454 6.71757 0
M  V30 2217 N 232.194 1.20526 5.49026 0
M  V30 2218 H 224.345 1.37982 1.61477 0
M  V30 2219 H 226.608 0.566977 0.759764 0
M  V30 2220 H 226.314 1.59938 3.1323 0
M  V30 2221 H 226.188 -0.0298014 3.77188 0
M  V30 2222 H 228.575 -0.513505 2.90598 0
M  V30 2223 H 228.656 1.14272 2.28857 0
M  V30 2224 H 228.3 2.02034 4.65988 0
M  V30 2225 H 228.23 0.34257 5.25485 0
M  V30 2226 H 230.721 0.647157 3.72317 0
M  V30 2227 H 231.034 1.93513 7.48179 0
M  V30 2228 H 229.379 1.73359 6.73032 0
M  V30 2229 H 232.57 0.884505 4.59667 0
M  V30 2230 H 232.743 1.47161 6.31069 0
M  V30 2231 N 226.149 -1.5696 0.141893 0
M  V30 2232 C 227.389 -1.9785 -0.513304 0
M  V30 2233 C 227.753 -1.02467 -1.62371 0
M  V30 2234 O 228.954 -1.32382 -2.33941 0
M  V30 2235 C 227.225 -3.42797 -1.01118 0
M  V30 2236 S 228.784 -4.05709 -1.67169 0
M  V30 2237 H 225.602 -0.691318 -0.166135 0
M  V30 2238 H 228.204 -1.94114 0.232398 0
M  V30 2239 H 226.908 -4.0995 -0.192179 0
M  V30 2240 H 226.439 -3.50235 -1.79162 0
M  V30 2241 H 228.454 -3.98342 -2.95868 0
M  V30 2242 N 227.627 0.131896 -1.57047 0
M  V30 2243 C 228.875 0.840269 -1.83804 0
M  V30 2244 C 229.196 1.81017 -0.72512 0
M  V30 2245 O 228.466 1.94272 0.251995 0
M  V30 2246 H 227.046 0.313294 -0.678127 0
M  V30 2247 H 229.708 0.122294 -1.94516 0
M  V30 2248 H 228.804 1.39335 -2.79271 0
M  V30 2249 N 229.106 1.52395 0.401703 0
M  V30 2250 C 230.016 1.7917 1.51444 0
M  V30 2251 C 231.032 0.677691 1.6026 0
M  V30 2252 O 232.208 0.963909 1.76835 0
M  V30 2253 C 229.273 1.94347 2.87107 0
M  V30 2254 C 228.334 3.18257 2.88116 0
M  V30 2255 C 227.567 3.32701 4.17308 0
M  V30 2256 O 227.79 2.52238 5.11598 0
M  V30 2257 O 226.724 4.25891 4.25324 0
M  V30 2258 H 230.55 2.73633 1.31752 0
M  V30 2259 H 228.135 1.3733 0.588296 0
M  V30 2260 H 230.017 2.06109 3.67555 0
M  V30 2261 H 228.692 1.03073 3.06851 0
M  V30 2262 H 227.599 3.11947 2.06494 0
M  V30 2263 H 228.932 4.09336 2.73322 0
M  V30 2264 N 230.584 -0.659388 1.43143 0
M  V30 2265 C 231.531 -1.77249 1.47822 0
M  V30 2266 C 232.501 -1.62818 0.328558 0
M  V30 2267 O 233.686 -1.83151 0.534838 0
M  V30 2268 C 230.826 -3.15371 1.40126 0
M  V30 2269 C 229.939 -3.4098 2.65249 0
M  V30 2270 C 229.074 -4.68915 2.49584 0
M  V30 2271 C 228.113 -4.87608 3.70006 0
M  V30 2272 N 227.25 -6.06796 3.53189 0
M  V30 2273 H 232.09 -1.72584 2.42938 0
M  V30 2274 H 229.627 -0.842297 1.20598 0
M  V30 2275 H 231.585 -3.9521 1.33659 0
M  V30 2276 H 230.215 -3.19121 0.485964 0
M  V30 2277 H 229.267 -2.55282 2.8202 0
M  V30 2278 H 230.579 -3.50681 3.54717 0
M  V30 2279 H 229.733 -5.56871 2.4079 0
M  V30 2280 H 228.472 -4.61524 1.5763 0
M  V30 2281 H 227.477 -3.9809 3.79215 0
M  V30 2282 H 228.702 -4.96834 4.62961 0
M  V30 2283 H 226.648 -6.00549 2.63965 0
M  V30 2284 H 226.565 -6.17428 4.36255 0
M  V30 2285 H 227.833 -6.9739 3.48236 0
M  V30 2286 N 232.062 -1.29571 -0.897171 0
M  V30 2287 C 233.478 -1.07637 -1.17841 0
M  V30 2288 C 233.678 0.170713 -2.00776 0
M  V30 2289 O 232.734 0.867768 -2.3712 0
M  V30 2290 C 234.047 -2.3332 -1.8969 0
M  V30 2291 C 235.595 -2.38664 -2.02505 0
M  V30 2292 C 236.07 -3.64157 -2.77765 0
M  V30 2293 N 237.561 -3.64894 -2.85318 0
M  V30 2294 C 238.296 -4.58679 -3.44094 0
M  V30 2295 N 237.792 -5.62799 -4.04017 0
M  V30 2296 N 239.585 -4.46245 -3.41793 0
M  V30 2297 H 231.736 -2.09598 -0.343883 0
M  V30 2298 H 233.999 -0.923333 -0.214848 0
M  V30 2299 H 233.705 -3.24262 -1.36187 0
M  V30 2300 H 233.579 -2.41025 -2.9015 0
M  V30 2301 H 235.966 -1.48208 -2.55183 0
M  V30 2302 H 236.047 -2.34943 -1.01171 0
M  V30 2303 H 235.691 -4.54965 -2.25763 0
M  V30 2304 H 235.621 -3.65137 -3.7945 0
M  V30 2305 H 238.112 -2.89613 -2.42761 0
M  V30 2306 H 238.425 -6.3048 -4.46895 0
M  V30 2307 H 236.77 -5.66605 -4.02472 0
M  V30 2308 H 239.961 -3.64094 -2.94199 0
M  V30 2309 H 240.134 -5.19518 -3.87304 0
M  V30 2310 N 233.54 1.10788 -1.12088 0
M  V30 2311 C 234.47 2.19083 -0.807755 0
M  V30 2312 C 235.451 1.6858 0.226859 0
M  V30 2313 O 236.636 1.93997 0.0888475 0
M  V30 2314 C 233.766 3.46344 -0.257576 0
M  V30 2315 C 232.72 4.101 -1.22483 0
M  V30 2316 C 232.046 5.32016 -0.535052 0
M  V30 2317 C 233.346 4.54236 -2.57811 0
M  V30 2318 H 235.04 2.45534 -1.71328 0
M  V30 2319 H 232.586 1.1801 -0.825205 0
M  V30 2320 H 234.539 4.21392 -0.0262679 0
M  V30 2321 H 233.263 3.19373 0.683278 0
M  V30 2322 H 231.922 3.37054 -1.44189 0
M  V30 2323 H 231.57 5.01319 0.410827 0
M  V30 2324 H 231.27 5.75625 -1.18024 0
M  V30 2325 H 232.794 6.09799 -0.312695 0
M  V30 2326 H 234.208 5.20575 -2.40155 0
M  V30 2327 H 232.605 5.08682 -3.18375 0
M  V30 2328 H 233.675 3.6734 -3.16528 0
M  V30 2329 N 235.018 0.912232 1.28515 0
M  V30 2330 C 236.246 0.560416 1.99166 0
M  V30 2331 C 236.661 -0.857927 1.68182 0
M  V30 2332 O 236.018 -1.56805 0.933733 0
M  V30 2333 C 236.069 0.758142 3.53461 0
M  V30 2334 O 235.79 2.12067 3.83352 0
M  V30 2335 C 237.291 0.412954 4.41372 0
M  V30 2336 H 234.511 0.213805 0.636026 0
M  V30 2337 H 237.055 1.22502 1.63749 0
M  V30 2338 H 235.21 0.140556 3.87145 0
M  V30 2339 H 235.624 2.15923 4.77993 0
M  V30 2340 H 237.098 0.60208 5.48707 0
M  V30 2341 H 237.575 -0.65073 4.34353 0
M  V30 2342 H 238.181 1.00802 4.13182 0
M  V30 2343 N 236.496 -1.42363 0.676048 0
M  V30 2344 C 237.912 -1.55811 0.345718 0
M  V30 2345 C 238.112 -1.65544 -1.14879 0
M  V30 2346 O 237.168 -1.62306 -1.93424 0
M  V30 2347 C 238.481 -2.80746 1.07713 0
M  V30 2348 C 240.029 -2.9452 1.05958 0
M  V30 2349 C 240.504 -4.22318 1.77233 0
M  V30 2350 N 241.995 -4.29233 1.74108 0
M  V30 2351 C 242.73 -5.26935 2.26113 0
M  V30 2352 N 242.226 -6.30783 2.86505 0
M  V30 2353 N 244.019 -5.18741 2.1648 0
M  V30 2354 H 236.17 -1.34289 1.6456 0
M  V30 2355 H 238.433 -0.646506 0.69335 0
M  V30 2356 H 238.139 -2.79696 2.13221 0
M  V30 2357 H 238.013 -3.71676 0.64316 0
M  V30 2358 H 240.4 -2.95097 0.0128255 0
M  V30 2359 H 240.481 -2.04817 1.53244 0
M  V30 2360 H 240.125 -4.22502 2.81877 0
M  V30 2361 H 240.055 -5.10958 1.27396 0
M  V30 2362 H 242.546 -3.54814 1.30059 0
M  V30 2363 H 242.859 -7.01691 3.23805 0
M  V30 2364 H 241.204 -6.31341 2.90575 0
M  V30 2365 H 244.395 -4.36533 1.68987 0
M  V30 2366 H 244.568 -5.94721 2.57316 0
M  V30 2367 N 237.974 -0.419461 -1.51915 0
M  V30 2368 C 239.199 0.154572 -2.06823 0
M  V30 2369 C 239.624 1.3722 -1.28656 0
M  V30 2370 O 238.982 1.78461 -0.319583 0
M  V30 2371 C 239.03 0.473172 -3.57482 0
M  V30 2372 O 238.134 1.56255 -3.81652 0
M  V30 2373 H 237.475 0.0096924 -0.663929 0
M  V30 2374 H 240.005 -0.595642 -1.95738 0
M  V30 2375 H 240.015 0.728825 -4.01438 0
M  V30 2376 H 238.69 -0.416873 -4.13805 0
M  V30 2377 H 237.267 1.29825 -3.49571 0
M  V30 2378 N 239.452 1.56882 -0.150215 0
M  V30 2379 C 240.382 2.19935 0.784284 0
M  V30 2380 C 241.363 1.14854 1.25469 0
M  V30 2381 O 242.548 1.43209 1.31168 0
M  V30 2382 C 239.678 2.82349 2.02229 0
M  V30 2383 C 238.632 3.93285 1.68853 0
M  V30 2384 C 237.958 4.42649 2.99944 0
M  V30 2385 C 239.258 5.13904 0.932714 0
M  V30 2386 H 240.952 2.9828 0.258781 0
M  V30 2387 H 238.498 1.43473 0.123029 0
M  V30 2388 H 240.451 3.25126 2.68088 0
M  V30 2389 H 239.175 2.0134 2.57157 0
M  V30 2390 H 237.834 3.5113 1.05371 0
M  V30 2391 H 237.482 3.58458 3.52869 0
M  V30 2392 H 237.182 5.17476 2.78374 0
M  V30 2393 H 238.706 4.88099 3.66868 0
M  V30 2394 H 240.12 5.53506 1.49345 0
M  V30 2395 H 238.517 5.94515 0.81684 0
M  V30 2396 H 239.587 4.84842 -0.0749568 0
M  V30 2397 N 240.93 -0.123565 1.57115 0
M  V30 2398 C 242.17 -0.838097 1.86428 0
M  V30 2399 C 242.534 -1.77266 0.737611 0
M  V30 2400 O 243.735 -2.52842 0.912389 0
M  V30 2401 C 242.006 -1.57219 3.20962 0
M  V30 2402 S 243.565 -2.32893 3.71896 0
M  V30 2403 H 240.383 -0.279811 0.653626 0
M  V30 2404 H 242.985 -0.0967034 1.95261 0
M  V30 2405 H 241.689 -0.877522 4.00909 0
M  V30 2406 H 241.22 -2.35405 3.15195 0
M  V30 2407 H 243.235 -3.5853 3.43032 0
M  V30 2408 N 242.408 -1.52605 -0.393616 0
M  V30 2409 C 243.371 -1.76415 -1.46323 0
M  V30 2410 C 244.371 -0.634126 -1.47768 0
M  V30 2411 O 245.561 -0.902142 -1.4902 0
M  V30 2412 C 242.693 -1.8607 -2.85641 0
M  V30 2413 H 243.886 -2.71916 -1.26498 0
M  V30 2414 H 241.439 -1.43257 -0.625073 0
M  V30 2415 H 242.174 -0.925378 -3.10817 0
M  V30 2416 H 241.959 -2.68235 -2.85993 0
M  V30 2417 H 243.449 -2.06179 -3.63153 0
M  V30 2418 N 243.887 0.651787 -1.4349 0
M  V30 2419 C 245.127 1.42345 -1.46688 0
M  V30 2420 C 245.491 1.91793 -0.0891023 0
M  V30 2421 O 246.692 2.688 0.00423594 0
M  V30 2422 C 244.963 2.57221 -2.48137 0
M  V30 2423 S 246.522 3.45725 -2.70221 0
M  V30 2424 H 243.34 0.485878 -0.51908 0
M  V30 2425 H 245.942 0.756578 -1.80267 0
M  V30 2426 H 244.646 2.1917 -3.46976 0
M  V30 2427 H 244.177 3.28757 -2.16061 0
M  V30 2428 H 246.192 4.53996 -2.00255 0
M  V30 2429 N 245.365 1.30045 0.890287 0
M  V30 2430 C 246.59 1.21598 1.68014 0
M  V30 2431 C 247.015 -0.218678 1.86825 0
M  V30 2432 O 246.373 -1.15756 1.39536 0
M  V30 2433 C 246.421 1.94434 3.03691 0
M  V30 2434 O 245.525 1.2678 3.92429 0
M  V30 2435 H 244.866 0.420856 0.513592 0
M  V30 2436 H 247.396 1.71775 1.11151 0
M  V30 2437 H 247.406 2.03251 3.5377 0
M  V30 2438 H 246.081 2.98777 2.89318 0
M  V30 2439 H 244.658 1.26282 3.50866 0
M  V30 2440 N 246.843 -1.10192 1.12674 0
M  V30 2441 C 248.12 -1.78717 0.794965 0
M  V30 2442 C 248.5 -1.98628 -0.714853 0
M  V30 2443 O 247.848 -1.58135 -1.64941 0
M  V30 2444 C 248.058 -3.11546 1.5729 0
M  V30 2445 C 249.406 -3.86382 1.76052 0
M  V30 2446 O 250.43 -3.21274 1.53823 0
M  V30 2447 O 249.289 -5.03246 2.13087 0
M  V30 2448 H 246.383 -0.774702 0.289423 0
M  V30 2449 H 248.929 -1.16819 1.23091 0
M  V30 2450 H 247.701 -2.92489 2.59935 0
M  V30 2451 H 247.324 -3.81164 1.13137 0
M  V30 2452 N 248.321 -0.919034 -1.28029 0
M  V30 2453 C 249.598 -0.473668 -1.89778 0
M  V30 2454 C 249.978 1.04783 -1.83259 0
M  V30 2455 O 249.326 1.8982 -1.27202 0
M  V30 2456 C 249.536 -1.00998 -3.34066 0
M  V30 2457 C 250.884 -1.06525 -4.1102 0
M  V30 2458 O 251.908 -0.958996 -3.43048 0
M  V30 2459 O 250.767 -1.22776 -5.3253 0
M  V30 2460 H 247.861 -0.15098 -0.813101 0
M  V30 2461 H 250.407 -1.01016 -1.36359 0
M  V30 2462 H 249.179 -2.05392 -3.33061 0
M  V30 2463 H 248.802 -0.454626 -3.94992 0
M  V30 2464 N 249.799 1.42003 -0.683588 0
M  V30 2465 C 251.039 2.03282 -0.213513 0
M  V30 2466 C 251.403 1.52924 1.16097 0
M  V30 2467 O 252.604 2.06048 1.7262 0
M  V30 2468 C 250.875 3.56483 -0.255856 0
M  V30 2469 S 252.434 4.3857 0.14193 0
M  V30 2470 H 249.252 0.705659 -0.0869853 0
M  V30 2471 H 251.854 1.73619 -0.8987 0
M  V30 2472 H 250.558 3.90631 -1.25841 0
M  V30 2473 H 250.089 3.90831 0.448875 0
M  V30 2474 H 252.104 4.76828 1.37295 0
M  V30 2475 N 251.277 0.427512 1.51691 0
M  V30 2476 C 252.224 -0.388867 2.275 0
M  V30 2477 C 253.194 -1.02532 1.30677 0
M  V30 2478 O 254.379 -1.0461 1.59566 0
M  V30 2479 C 251.519 -1.48954 3.11298 0
M  V30 2480 C 250.632 -0.872194 4.23104 0
M  V30 2481 C 249.767 -1.94709 4.94228 0
M  V30 2482 C 248.806 -1.30766 5.97969 0
M  V30 2483 N 247.943 -2.32349 6.62539 0
M  V30 2484 H 252.783 0.263997 2.96828 0
M  V30 2485 H 250.32 0.142033 1.46413 0
M  V30 2486 H 252.278 -2.13887 3.58201 0
M  V30 2487 H 250.908 -2.11217 2.44105 0
M  V30 2488 H 249.96 -0.111419 3.80237 0
M  V30 2489 H 251.272 -0.365264 4.97461 0
M  V30 2490 H 250.426 -2.67327 5.44629 0
M  V30 2491 H 249.165 -2.48773 4.1948 0
M  V30 2492 H 248.17 -0.566902 5.4687 0
M  V30 2493 H 249.395 -0.774483 6.74669 0
M  V30 2494 H 247.341 -2.85511 5.90609 0
M  V30 2495 H 247.258 -1.8652 7.3263 0
M  V30 2496 H 248.526 -3.04481 7.17574 0
M  V30 2497 N 252.755 -1.56801 0.158532 0
M  V30 2498 C 254.032 -1.88131 -0.535357 0
M  V30 2499 C 254.412 -1.06638 -1.82186 0
M  V30 2500 O 253.76 -0.156533 -2.27963 0
M  V30 2501 C 253.97 -3.39949 -0.789653 0
M  V30 2502 C 255.318 -4.09416 -1.12533 0
M  V30 2503 O 256.342 -3.45194 -0.878622 0
M  V30 2504 O 255.201 -5.22855 -1.59014 0
M  V30 2505 H 252.295 -0.780143 -0.27442 0
M  V30 2506 H 254.841 -1.68564 0.19601 0
M  V30 2507 H 253.613 -3.91115 0.120353 0
M  V30 2508 H 253.236 -3.65084 -1.57479 0
M  V30 2509 N 254.233 0.115231 -1.57178 0
M  V30 2510 C 255.18 1.14115 -2.00615 0
M  V30 2511 C 256.15 1.40939 -0.878941 0
M  V30 2512 O 257.335 1.52741 -1.14345 0
M  V30 2513 C 254.475 2.46156 -2.4187 0
M  V30 2514 C 253.588 2.26236 -3.68024 0
M  V30 2515 C 252.723 3.51534 -3.98243 0
M  V30 2516 C 251.762 3.26787 -5.17568 0
M  V30 2517 N 250.899 4.44298 -5.43639 0
M  V30 2518 H 255.739 0.763743 -2.88047 0
M  V30 2519 H 253.276 0.365615 -1.42484 0
M  V30 2520 H 255.234 3.23189 -2.63827 0
M  V30 2521 H 253.864 2.81783 -1.57475 0
M  V30 2522 H 252.916 1.40102 -3.5366 0
M  V30 2523 H 254.228 2.03929 -4.55208 0
M  V30 2524 H 253.382 4.36984 -4.20868 0
M  V30 2525 H 252.121 3.76876 -3.09541 0
M  V30 2526 H 251.126 2.39729 -4.94783 0
M  V30 2527 H 252.351 3.02812 -6.0785 0
M  V30 2528 H 250.297 4.69754 -4.57895 0
M  V30 2529 H 250.214 4.25109 -6.25154 0
M  V30 2530 H 251.482 5.3087 -5.70786 0
M  V30 2531 N 255.711 1.52812 0.385517 0
M  V30 2532 C 256.959 1.67694 1.12797 0
M  V30 2533 C 257.28 0.421115 1.90399 0
M  V30 2534 O 256.55 -0.564551 1.87589 0
M  V30 2535 H 255.13 0.618155 0.419396 0
M  V30 2536 H 257.792 1.89938 0.436972 0
M  V30 2537 H 256.888 2.52896 1.82894 0
M  V30 2538 N 257.189 -0.644168 1.43834 0
M  V30 2539 C 258.466 -1.40188 1.36406 0
M  V30 2540 C 258.846 -2.11094 0.0163124 0
M  V30 2541 O 258.194 -2.05426 -1.00062 0
M  V30 2542 C 258.404 -2.3791 2.55343 0
M  V30 2543 C 259.752 -3.01637 2.98832 0
M  V30 2544 O 260.776 -2.48237 2.55455 0
M  V30 2545 O 259.635 -3.98477 3.74003 0
M  V30 2546 H 256.729 -0.626773 0.539523 0
M  V30 2547 H 259.275 -0.670317 1.559 0
M  V30 2548 H 258.047 -1.84525 3.4506 0
M  V30 2549 H 257.67 -3.18503 2.37995 0
M  V30 2550 N 258.668 -1.30515 -0.883378 0
M  V30 2551 C 259.908 -1.20716 -1.64946 0
M  V30 2552 C 260.272 0.234072 -1.90568 0
M  V30 2553 O 261.473 0.455335 -2.64915 0
M  V30 2554 C 259.744 -2.01444 -2.9522 0
M  V30 2555 S 261.303 -2.0836 -3.86175 0
M  V30 2556 H 258.121 -0.430165 -0.566109 0
M  V30 2557 H 260.723 -1.65011 -1.04841 0
M  V30 2558 H 259.427 -3.05268 -2.74298 0
M  V30 2559 H 258.958 -1.57817 -3.60357 0
M  V30 2560 H 260.973 -1.21215 -4.81167 0
M  V30 2561 N 260.146 1.09593 -1.13257 0
M  V30 2562 C 261.386 1.83349 -0.903472 0
M  V30 2563 C 261.75 1.83641 0.560351 0
M  V30 2564 O 262.951 2.53037 0.906947 0
M  V30 2565 C 261.222 3.25629 -1.47311 0
M  V30 2566 S 262.781 4.16408 -1.38382 0
M  V30 2567 H 259.599 0.632014 -0.325699 0
M  V30 2568 H 262.201 1.31817 -1.44376 0
M  V30 2569 H 260.905 3.22991 -2.53189 0
M  V30 2570 H 260.436 3.82233 -0.930689 0
M  V30 2571 H 262.451 4.94884 -0.361113 0
M  V30 2572 N 261.624 0.925811 1.2754 0
M  V30 2573 C 262.873 0.561084 1.93739 0
M  V30 2574 C 263.186 -0.901685 1.73577 0
M  V30 2575 O 264.392 -1.37511 2.34101 0
M  V30 2576 C 262.848 0.952668 3.47062 0
M  V30 2577 C 262.456 2.43599 3.75983 0
M  V30 2578 C 264.2 0.659103 4.19352 0
M  V30 2579 C 262.107 2.76707 5.22673 0
M  V30 2580 H 261.037 0.206122 0.725279 0
M  V30 2581 H 263.688 1.12637 1.44863 0
M  V30 2582 H 262.07 0.316053 3.94737 0
M  V30 2583 H 263.244 3.12035 3.39073 0
M  V30 2584 H 261.559 2.70125 3.16893 0
M  V30 2585 H 264.156 0.882985 5.27359 0
M  V30 2586 H 264.499 -0.403607 4.14339 0
M  V30 2587 H 265.032 1.25473 3.77494 0
M  V30 2588 H 261.771 3.8188 5.32774 0
M  V30 2589 H 261.291 2.12919 5.60737 0
M  V30 2590 H 262.97 2.6435 5.90532 0
M  V30 2591 N 263.102 -1.41638 0.69111 0
M  V30 2592 C 264.05 -2.32597 0.0115199 0
M  V30 2593 C 265.044 -1.5072 -0.773296 0
M  V30 2594 O 266.25 -1.66685 -0.67942 0
M  V30 2595 H 262.625 -0.751849 -0.0150746 0
M  V30 2596 H 264.596 -2.87593 0.795791 0
M  V30 2597 C 263.345 -3.35467 -0.914172 0
M  V30 2598 H 262.668 -3.9852 -0.319687 0
M  V30 2599 H 264.108 -4.01662 -1.35808 0
M  V30 2600 C 262.567 -2.69004 -2.02826 0
M  V30 2601 O 263.097 -2.53444 -3.11655 0
M  V30 2602 N 261.303 -2.2777 -1.80469 0
M  V30 2603 H 260.85 -2.40626 -0.919615 0
M  V30 2604 H 260.808 -1.83635 -2.55197 0
M  V30 2605 N 264.58 -0.43555 -1.51462 0
M  V30 2606 C 265.81 0.130053 -2.0619 0
M  V30 2607 C 266.218 1.37164 -1.30317 0
M  V30 2608 O 265.561 1.80225 -0.355598 0
M  V30 2609 C 265.623 0.519418 -3.55728 0
M  V30 2610 C 265.287 -0.615119 -4.52841 0
M  V30 2611 C 266.284 -1.48671 -4.9819 0
M  V30 2612 C 263.969 -0.795341 -4.95963 0
M  V30 2613 C 265.963 -2.52324 -5.8533 0
M  V30 2614 C 263.65 -1.83514 -5.82894 0
M  V30 2615 C 264.648 -2.69748 -6.27475 0
M  V30 2616 O 264.336 -3.71944 -7.1268 0
M  V30 2617 H 264.068 0.0121612 -0.675891 0
M  V30 2618 H 266.622 -0.6129 -1.96043 0
M  V30 2619 H 264.852 1.31505 -3.63653 0
M  V30 2620 H 266.541 1.01597 -3.92979 0
M  V30 2621 H 267.307 -1.359 -4.65571 0
M  V30 2622 H 263.186 -0.133713 -4.60806 0
M  V30 2623 H 266.73 -3.19665 -6.20048 0
M  V30 2624 H 262.627 -1.96306 -6.14926 0
M  V30 2625 H 263.395 -3.68503 -7.30854 0
M  V30 2626 N 266.058 1.56714 -0.166846 0
M  V30 2627 C 267.283 2.01557 0.488833 0
M  V30 2628 C 267.708 1.0463 1.56314 0
M  V30 2629 O 267.066 0.0251304 1.81283 0
M  V30 2630 C 267.114 3.4503 1.04818 0
M  V30 2631 O 266.218 3.51163 2.16236 0
M  V30 2632 H 265.559 0.653516 0.117526 0
M  V30 2633 H 268.089 2.02818 -0.269421 0
M  V30 2634 H 268.099 3.84243 1.37191 0
M  V30 2635 H 266.774 4.15077 0.261572 0
M  V30 2636 H 265.351 3.23807 1.84942 0
M  V30 2637 N 267.536 -0.106894 1.57237 0
M  V30 2638 C 268.761 -0.830287 1.90055 0
M  V30 2639 C 269.186 -1.72064 0.75998 0
M  V30 2640 O 268.544 -1.78982 -0.288991 0
M  V30 2641 C 268.592 -1.6295 3.21683 0
M  V30 2642 O 267.696 -2.73748 3.08441 0
M  V30 2643 H 267.037 -0.228855 0.623315 0
M  V30 2644 H 269.567 -0.085658 2.04421 0
M  V30 2645 H 269.577 -2.01621 3.54701 0
M  V30 2646 H 268.252 -0.975989 4.04286 0
M  V30 2647 H 266.829 -2.38192 2.86913 0
M  V30 2648 N 269.014 -1.53014 -0.377408 0
M  V30 2649 C 270.26 -1.68872 -1.12294 0
M  V30 2650 C 270.593 -0.433224 -1.89306 0
M  V30 2651 O 269.868 0.569258 -1.85983 0
M  V30 2652 C 270.151 -2.93115 -2.09179 0
M  V30 2653 C 270.004 -4.28794 -1.35853 0
M  V30 2654 C 271.323 -3.12928 -3.09458 0
M  V30 2655 H 268.442 -0.614518 -0.406862 0
M  V30 2656 H 271.084 -1.85633 -0.40503 0
M  V30 2657 H 269.234 -2.78956 -2.70399 0
M  V30 2658 H 270.906 -4.54742 -0.775082 0
M  V30 2659 H 269.149 -4.28744 -0.660364 0
M  V30 2660 H 269.82 -5.11837 -2.06706 0
M  V30 2661 H 272.296 -3.26194 -2.58334 0
M  V30 2662 H 271.172 -4.01316 -3.74482 0
M  V30 2663 H 271.433 -2.27669 -3.78971 0
M  V30 2664 N 270.492 0.636531 -1.44174 0
M  V30 2665 C 271.732 1.40781 -1.48189 0
M  V30 2666 C 272.096 1.91688 -0.10944 0
M  V30 2667 O 273.297 2.68789 -0.0242741 0
M  V30 2668 C 271.568 2.54575 -2.50851 0
M  V30 2669 S 273.127 3.4284 -2.73873 0
M  V30 2670 H 269.945 0.480345 -0.524204 0
M  V30 2671 H 272.547 0.737416 -1.81059 0
M  V30 2672 H 271.251 2.15478 -3.49281 0
M  V30 2673 H 270.782 3.26447 -2.19536 0
M  V30 2674 H 272.797 4.51846 -2.05059 0
M  V30 2675 N 271.97 1.30982 0.876444 0
M  V30 2676 C 272.902 1.13902 1.98894 0
M  V30 2677 C 273.915 0.0798815 1.62604 0
M  V30 2678 O 275.104 0.326743 1.75484 0
M  V30 2679 C 272.204 0.716699 3.31235 0
M  V30 2680 C 271.377 1.85945 3.95908 0
M  V30 2681 C 270.436 1.42426 5.06558 0
M  V30 2682 O 269.462 2.13287 5.27729 0
M  V30 2683 N 270.664 0.308025 5.79682 0
M  V30 2684 H 273.429 2.09724 2.14094 0
M  V30 2685 H 270.99 1.2323 1.05004 0
M  V30 2686 H 272.982 0.408403 4.02634 0
M  V30 2687 H 271.552 -0.149719 3.12241 0
M  V30 2688 H 270.772 2.33541 3.17573 0
M  V30 2689 H 272.06 2.62503 4.35855 0
M  V30 2690 H 271.458 -0.282241 5.64995 0
M  V30 2691 H 270.015 0.0592282 6.51773 0
M  V30 2692 N 273.449 -1.08991 1.13837 0
M  V30 2693 C 274.697 -1.80899 0.901098 0
M  V30 2694 C 275.018 -1.86356 -0.574134 0
M  V30 2695 O 274.288 -1.35235 -1.41733 0
M  V30 2696 H 272.868 -0.669966 0.330386 0
M  V30 2697 H 275.53 -1.318 1.43578 0
M  V30 2698 H 274.626 -2.83929 1.29578 0
M  V30 2699 N 274.927 -0.932562 -1.27047 0
M  V30 2700 C 275.837 -0.441219 -2.30414 0
M  V30 2701 C 276.853 0.480525 -1.67233 0
M  V30 2702 O 278.029 0.362151 -1.98117 0
M  V30 2703 C 275.094 0.293651 -3.45454 0
M  V30 2704 C 274.155 -0.663601 -4.2414 0
M  V30 2705 C 273.388 0.0362932 -5.33688 0
M  V30 2706 O 273.611 1.2548 -5.56427 0
M  V30 2707 O 272.545 -0.638015 -5.98509 0
M  V30 2708 H 276.371 -1.29962 -2.74488 0
M  V30 2709 H 273.956 -0.6981 -1.32087 0
M  V30 2710 H 275.838 0.707951 -4.15411 0
M  V30 2711 H 274.513 1.12758 -3.03426 0
M  V30 2712 H 273.42 -1.12768 -3.56699 0
M  V30 2713 H 274.753 -1.46489 -4.69896 0
M  V30 2714 N 276.405 1.4127 -0.698611 0
M  V30 2715 C 277.352 2.30773 -0.0352094 0
M  V30 2716 C 278.322 1.47273 0.768111 0
M  V30 2717 O 279.507 1.76053 0.735524 0
M  V30 2718 C 276.647 3.33346 0.893 0
M  V30 2719 C 275.76 4.31924 0.0809695 0
M  V30 2720 C 274.895 5.21566 1.0071 0
M  V30 2721 C 273.934 6.11811 0.188155 0
M  V30 2722 N 273.071 6.93926 1.06825 0
M  V30 2723 H 277.911 2.86943 -0.804207 0
M  V30 2724 H 275.448 1.4132 -0.408294 0
M  V30 2725 H 277.406 3.91368 1.44523 0
M  V30 2726 H 276.036 2.78719 1.62836 0
M  V30 2727 H 275.088 3.75825 -0.588224 0
M  V30 2728 H 276.4 4.95716 -0.553801 0
M  V30 2729 H 275.554 5.84437 1.62845 0
M  V30 2730 H 274.293 4.58008 1.67572 0
M  V30 2731 H 273.298 5.47986 -0.446254 0
M  V30 2732 H 274.523 6.77425 -0.476716 0
M  V30 2733 H 272.469 6.32973 1.72283 0
M  V30 2734 H 272.386 7.54416 0.489123 0
M  V30 2735 H 273.654 7.61262 1.67632 0
M  V30 2736 N 277.883 0.443576 1.51229 0
M  V30 2737 C 279.108 -0.121648 2.07043 0
M  V30 2738 C 279.533 -1.35156 1.30823 0
M  V30 2739 O 278.891 -1.7793 0.347934 0
M  V30 2740 C 278.939 -0.41624 3.5819 0
M  V30 2741 O 278.043 -1.50163 3.8409 0
M  V30 2742 H 277.384 0.000871367 0.663999 0
M  V30 2743 H 279.914 0.626706 1.94765 0
M  V30 2744 H 279.924 -0.664867 4.02546 0
M  V30 2745 H 278.599 0.482653 4.1309 0
M  V30 2746 H 277.176 -1.24248 3.51592 0
M  V30 2747 N 279.361 -1.56624 0.175154 0
M  V30 2748 C 280.607 -1.98061 -0.462976 0
M  V30 2749 C 280.962 -1.05949 -1.60601 0
M  V30 2750 O 280.255 -0.0999027 -1.91339 0
M  V30 2751 C 280.449 -3.43419 -0.989864 0
M  V30 2752 C 280.278 -4.49587 0.100583 0
M  V30 2753 C 279.048 -5.02281 0.551539 0
M  V30 2754 C 281.246 -5.06322 0.902369 0
M  V30 2755 N 279.228 -5.92088 1.62189 0
M  V30 2756 C 280.599 -5.92607 1.82256 0
M  V30 2757 C 282.654 -4.88811 0.947019 0
M  V30 2758 C 281.357 -6.63254 2.78364 0
M  V30 2759 C 283.383 -5.60182 1.89606 0
M  V30 2760 C 282.745 -6.46197 2.80372 0
M  V30 2761 H 278.844 -0.769833 -0.137409 0
M  V30 2762 H 281.428 -1.9273 0.276256 0
M  V30 2763 H 279.599 -3.49288 -1.6986 0
M  V30 2764 H 281.331 -3.7186 -1.59694 0
M  V30 2765 H 278.086 -4.73367 0.148537 0
M  V30 2766 H 278.51 -6.41696 2.15767 0
M  V30 2767 H 283.152 -4.22004 0.259304 0
M  V30 2768 H 280.87 -7.29271 3.48122 0
M  V30 2769 H 284.456 -5.48617 1.93676 0
M  V30 2770 H 283.336 -7.00453 3.52612 0
M  V30 2771 N 280.839 0.0985539 -1.57292 0
M  V30 2772 C 282.085 0.803867 -1.86188 0
M  V30 2773 C 282.418 1.78549 -0.763794 0
M  V30 2774 O 281.693 1.93153 0.22855 0
M  V30 2775 C 281.976 1.53568 -3.25713 0
M  V30 2776 C 281.829 0.572277 -4.46145 0
M  V30 2777 C 283.148 2.48708 -3.63087 0
M  V30 2778 H 280.267 0.290781 -0.677211 0
M  V30 2779 H 282.909 0.0675783 -1.8988 0
M  V30 2780 H 281.059 2.16332 -3.22696 0
M  V30 2781 H 282.731 -0.0480894 -4.61275 0
M  V30 2782 H 280.974 -0.114618 -4.33649 0
M  V30 2783 H 281.645 1.12139 -5.40489 0
M  V30 2784 H 284.121 1.96039 -3.67026 0
M  V30 2785 H 282.997 2.96932 -4.61652 0
M  V30 2786 H 283.258 3.32309 -2.91588 0
M  V30 2787 N 282.317 1.53212 0.369288 0
M  V30 2788 C 283.227 1.82342 1.47609 0
M  V30 2789 C 284.243 0.711532 1.58787 0
M  V30 2790 O 285.419 1.0012 1.74751 0
M  V30 2791 C 282.484 2.00393 2.8292 0
M  V30 2792 C 281.545 3.24297 2.81301 0
M  V30 2793 C 280.778 3.41478 4.10157 0
M  V30 2794 O 281.001 2.63033 5.06132 0
M  V30 2795 O 279.935 4.34817 4.16194 0
M  V30 2796 H 283.761 2.76366 1.25918 0
M  V30 2797 H 281.346 1.38547 0.559034 0
M  V30 2798 H 283.228 2.13859 3.63101 0
M  V30 2799 H 281.903 1.09559 3.04596 0
M  V30 2800 H 280.81 3.16257 1.99831 0
M  V30 2801 H 282.143 4.15041 2.64578 0
M  V30 2802 N 283.795 -0.628877 1.44509 0
M  V30 2803 C 284.705 -1.7694 1.54044 0
M  V30 2804 C 285.721 -1.68705 0.425987 0
M  V30 2805 O 286.897 -1.89442 0.683656 0
M  V30 2806 C 283.962 -3.13332 1.48405 0
M  V30 2807 C 283.023 -3.33181 2.70719 0
M  V30 2808 C 282.256 -4.63067 2.6534 0
M  V30 2809 O 282.479 -5.44017 1.71469 0
M  V30 2810 O 281.413 -4.85167 3.56226 0
M  V30 2811 H 285.239 -1.71848 2.50403 0
M  V30 2812 H 282.824 -0.790378 1.26781 0
M  V30 2813 H 284.706 -3.94634 1.47791 0
M  V30 2814 H 283.381 -3.1896 0.551898 0
M  V30 2815 H 282.288 -2.51549 2.769 0
M  V30 2816 H 283.621 -3.32416 3.62988 0
M  V30 2817 N 285.273 -1.31445 -0.869486 0
M  V30 2818 C 286.684 -1.19042 -1.43826 0
M  V30 2819 C 287.035 0.202919 -1.95148 0
M  V30 2820 O 286.16 1.10071 -1.86315 0
M  V30 2821 C 286.755 -2.15499 -2.6143 0
M  V30 2822 C 285.314 -2.07028 -3.14351 0
M  V30 2823 C 284.461 -2.04701 -1.87063 0
M  V30 2824 H 287.412 -1.43489 -0.677984 0
M  V30 2825 H 287.433 -1.74488 -3.38134 0
M  V30 2826 H 286.945 -3.16899 -2.24046 0
M  V30 2827 H 285.046 -1.08825 -3.56354 0
M  V30 2828 H 285.159 -2.96157 -3.766 0
M  V30 2829 H 283.523 -1.49724 -2.06046 0
M  V30 2830 H 284.306 -3.07857 -1.51917 0
M  V30 2831 N 286.751 1.08385 -1.14413 0
M  V30 2832 C 287.991 1.8238 -0.922868 0
M  V30 2833 C 288.355 1.84225 0.540842 0
M  V30 2834 O 289.556 2.53985 0.880058 0
M  V30 2835 C 287.827 3.24048 -1.50757 0
M  V30 2836 S 289.386 4.14917 -1.4279 0
M  V30 2837 H 286.204 0.628524 -0.332384 0
M  V30 2838 H 288.806 1.30278 -1.45766 0
M  V30 2839 H 287.51 3.20288 -2.56601 0
M  V30 2840 H 287.041 3.81224 -0.971178 0
M  V30 2841 H 289.056 4.94473 -0.413582 0
M  V30 2842 N 288.23 0.939286 1.26551 0
M  V30 2843 C 289.14 0.453432 2.30176 0
M  V30 2844 C 290.156 -0.471649 1.67486 0
M  V30 2845 O 291.332 -0.35164 1.98306 0
M  V30 2846 C 288.397 -0.275326 3.45605 0
M  V30 2847 C 287.458 0.686084 4.23782 0
M  V30 2848 C 286.691 -0.00798994 5.33699 0
M  V30 2849 O 286.914 -1.22528 5.57085 0
M  V30 2850 O 285.848 0.669746 5.98162 0
M  V30 2851 H 289.674 1.31416 2.73795 0
M  V30 2852 H 287.259 0.705095 1.31715 0
M  V30 2853 H 289.141 -0.685911 4.1578 0
M  V30 2854 H 287.816 -1.11147 3.0402 0
M  V30 2855 H 286.723 1.14658 3.56096 0
M  V30 2856 H 288.056 1.48979 4.69112 0
M  V30 2857 N 289.708 -1.40897 0.706093 0
M  V30 2858 C 290.933 -2.05895 0.249435 0
M  V30 2859 C 291.358 -1.52823 -1.09666 0
M  V30 2860 O 290.716 -0.659589 -1.68876 0
M  V30 2861 C 290.764 -3.59872 0.22904 0
M  V30 2862 O 289.868 -4.04708 -0.792784 0
M  V30 2863 H 289.209 -0.653206 0.119241 0
M  V30 2864 H 291.739 -1.80471 0.96391 0
M  V30 2865 H 291.749 -4.07951 0.0634791 0
M  V30 2866 H 290.424 -3.97866 1.21141 0
M  V30 2867 H 289.001 -3.68111 -0.59572 0
M  V30 2868 N 291.186 -0.45159 -1.50991 0
M  V30 2869 C 292.435 0.111653 -2.01391 0
M  V30 2870 C 292.748 1.42529 -1.33959 0
M  V30 2871 O 293.954 2.07232 -1.75405 0
M  V30 2872 C 292.41 0.249514 -3.59034 0
M  V30 2873 C 292.018 -1.05453 -4.35412 0
M  V30 2874 C 293.762 0.765762 -4.17536 0
M  V30 2875 C 291.669 -0.881529 -5.84793 0
M  V30 2876 H 290.599 0.0455022 -0.752626 0
M  V30 2877 H 293.25 -0.583524 -1.73975 0
M  V30 2878 H 291.632 1.00803 -3.82955 0
M  V30 2879 H 292.806 -1.82248 -4.23229 0
M  V30 2880 H 291.121 -1.50039 -3.88429 0
M  V30 2881 H 293.718 0.911913 -5.26866 0
M  V30 2882 H 294.061 1.75201 -3.77638 0
M  V30 2883 H 294.594 0.0651744 -3.97747 0
M  V30 2884 H 291.333 -1.84057 -6.29129 0
M  V30 2885 H 290.853 -0.153625 -5.99603 0
M  V30 2886 H 292.532 -0.540363 -6.4474 0
M  V30 2887 N 292.664 1.56529 -0.183458 0
M  V30 2888 C 293.612 2.19873 0.758845 0
M  V30 2889 C 294.606 1.16638 1.22849 0
M  V30 2890 O 295.812 1.3481 1.19274 0
M  V30 2891 H 292.187 0.7045 0.263029 0
M  V30 2892 H 294.158 2.97724 0.200755 0
M  V30 2893 C 292.907 2.86314 1.9728 0
M  V30 2894 H 292.23 3.65487 1.62047 0
M  V30 2895 H 293.67 3.3409 2.61075 0
M  V30 2896 C 292.129 1.86729 2.80418 0
M  V30 2897 O 292.659 1.36031 3.77966 0
M  V30 2898 N 290.865 1.55216 2.45675 0
M  V30 2899 H 290.412 1.96636 1.66409 0
M  V30 2900 H 290.37 0.888388 3.01588 0
M  V30 2901 N 294.142 -0.090211 1.57342 0
M  V30 2902 C 295.052 -1.12735 2.05738 0
M  V30 2903 C 296.068 -1.43557 0.983231 0
M  V30 2904 O 297.244 -1.54101 1.29672 0
M  V30 2905 C 294.309 -2.42659 2.47624 0
M  V30 2906 C 293.37 -2.18975 3.69254 0
M  V30 2907 C 292.603 -3.42704 4.09133 0
M  V30 2908 O 292.826 -4.51127 3.49057 0
M  V30 2909 O 291.76 -3.32003 5.02053 0
M  V30 2910 H 295.586 -0.746279 2.94388 0
M  V30 2911 H 293.171 -0.303064 1.46294 0
M  V30 2912 H 295.053 -3.19155 2.7517 0
M  V30 2913 H 293.728 -2.80182 1.62109 0
M  V30 2914 H 292.635 -1.40244 3.46818 0
M  V30 2915 H 293.968 -1.86342 4.55563 0
M  V30 2916 N 295.62 -1.53406 -0.361157 0
M  V30 2917 C 297.031 -1.61442 -0.937728 0
M  V30 2918 C 297.382 -0.48461 -1.90121 0
M  V30 2919 O 296.507 0.388312 -2.12888 0
M  V30 2920 C 297.102 -2.92624 -1.70753 0
M  V30 2921 C 295.661 -3.02981 -2.23337 0
M  V30 2922 C 294.808 -2.5677 -1.04712 0
M  V30 2923 H 297.759 -1.58083 -0.139816 0
M  V30 2924 H 297.78 -2.80675 -2.56908 0
M  V30 2925 H 297.292 -3.74834 -1.00604 0
M  V30 2926 H 295.393 -2.25368 -2.96715 0
M  V30 2927 H 295.506 -4.0814 -2.50916 0
M  V30 2928 H 293.87 -2.11752 -1.41539 0
M  V30 2929 H 294.653 -3.41402 -0.360539 0
M  V30 2930 N 297.098 0.621204 -1.44841 0
M  V30 2931 C 298.03 1.74615 -1.48466 0
M  V30 2932 C 299.043 1.58377 -0.37691 0
M  V30 2933 O 300.232 1.66508 -0.643215 0
M  V30 2934 C 297.332 3.12459 -1.31236 0
M  V30 2935 C 296.505 3.55064 -2.55438 0
M  V30 2936 C 295.564 4.71821 -2.32963 0
M  V30 2937 O 294.59 4.79628 -3.06505 0
M  V30 2938 N 295.792 5.64186 -1.36654 0
M  V30 2939 H 298.557 1.71973 -2.45449 0
M  V30 2940 H 296.118 0.806077 -1.40407 0
M  V30 2941 H 298.11 3.88302 -1.14032 0
M  V30 2942 H 296.68 3.09686 -0.4258 0
M  V30 2943 H 295.9 2.69324 -2.87851 0
M  V30 2944 H 297.188 3.80284 -3.38026 0
M  V30 2945 H 296.586 5.6058 -0.759344 0
M  V30 2946 H 295.143 6.39618 -1.25425 0
M  V30 2947 N 298.576 1.31904 0.862503 0
M  V30 2948 C 299.816 1.23324 1.63004 0
M  V30 2949 C 300.18 -0.203724 1.90916 0
M  V30 2950 O 301.381 -0.413132 2.65606 0
M  V30 2951 C 299.652 2.06116 2.91978 0
M  V30 2952 S 301.211 2.14478 3.82812 0
M  V30 2953 H 298.029 0.439117 0.559193 0
M  V30 2954 H 300.631 1.66658 1.02202 0
M  V30 2955 H 299.335 3.09593 2.69407 0
M  V30 2956 H 298.866 1.6353 3.57801 0
M  V30 2957 H 300.881 1.28855 4.79177 0
M  V30 2958 N 300.054 -1.07777 1.14986 0
M  V30 2959 C 301.465 -1.61766 0.932127 0
M  V30 2960 C 301.816 -1.88974 -0.527581 0
M  V30 2961 O 300.941 -1.65198 -1.39781 0
M  V30 2962 C 301.536 -2.93891 1.68563 0
M  V30 2963 C 300.095 -3.44639 1.5133 0
M  V30 2964 C 299.242 -2.18767 1.704 0
M  V30 2965 H 302.193 -0.909201 1.30074 0
M  V30 2966 H 302.214 -3.62623 1.15259 0
M  V30 2967 H 301.726 -2.74057 2.74799 0
M  V30 2968 H 299.827 -3.69564 0.474702 0
M  V30 2969 H 299.94 -4.20966 2.28746 0
M  V30 2970 H 298.304 -2.28253 1.13016 0
M  V30 2971 H 299.087 -2.01433 2.77992 0
M  V30 2972 N 301.532 -0.945985 -1.26051 0
M  V30 2973 C 302.495 -0.463897 -2.24456 0
M  V30 2974 C 303.495 0.427655 -1.55009 0
M  V30 2975 O 304.685 0.226157 -1.72726 0
M  V30 2976 C 301.817 0.330812 -3.39291 0
M  V30 2977 H 303.01 -1.33357 -2.68619 0
M  V30 2978 H 300.563 -0.728416 -1.38289 0
M  V30 2979 H 301.298 1.21852 -3.00537 0
M  V30 2980 H 301.083 -0.308679 -3.90883 0
M  V30 2981 H 302.573 0.657865 -4.12386 0
M  V30 2982 N 303.011 1.40521 -0.713556 0
M  V30 2983 C 304.259 2.00527 -0.251692 0
M  V30 2984 C 304.58 1.56857 1.15848 0
M  V30 2985 O 303.85 0.807127 1.785 0
M  V30 2986 H 302.43 0.741551 -0.0900646 0
M  V30 2987 H 305.092 1.71887 -0.918733 0
M  V30 2988 H 304.188 3.10813 -0.283192 0
M  V30 2989 N 304.489 0.459591 1.5075 0
M  V30 2990 C 305.736 -0.0993495 2.02256 0
M  V30 2991 C 306.064 -1.40751 1.34237 0
M  V30 2992 O 305.319 -1.90379 0.453228 0
M  V30 2993 C 305.618 -0.342866 3.55752 0
M  V30 2994 C 305.284 0.88218 4.42186 0
M  V30 2995 C 303.946 1.21808 4.65528 0
M  V30 2996 C 306.298 1.69837 4.92752 0
M  V30 2997 C 303.626 2.37045 5.36681 0
M  V30 2998 C 305.978 2.84192 5.65171 0
M  V30 2999 C 304.642 3.1821 5.8677 0
M  V30 3000 H 303.912 -0.0363545 0.740108 0
M  V30 3001 H 306.559 0.611329 1.8148 0
M  V30 3002 H 304.864 -1.13567 3.7498 0
M  V30 3003 H 306.561 -0.789121 3.93159 0
M  V30 3004 H 303.151 0.610467 4.2423 0
M  V30 3005 H 307.335 1.45205 4.74583 0
M  V30 3006 H 302.591 2.63689 5.51614 0
M  V30 3007 H 306.765 3.4779 6.03337 0
M  V30 3008 H 304.392 4.07613 6.41682 0
M  V30 3009 N 305.967 -1.56429 0.191757 0
M  V30 3010 C 306.877 -2.22541 -0.742481 0
M  V30 3011 C 307.893 -1.22342 -1.23727 0
M  V30 3012 O 309.069 -1.55069 -1.28513 0
M  V30 3013 C 306.134 -2.8692 -1.94623 0
M  V30 3014 C 305.195 -4.02378 -1.49633 0
M  V30 3015 C 304.428 -4.63678 -2.6427 0
M  V30 3016 O 304.651 -4.23895 -3.81666 0
M  V30 3017 O 303.585 -5.53202 -2.37174 0
M  V30 3018 H 307.411 -3.02977 -0.209462 0
M  V30 3019 H 304.996 -1.49353 -0.0373832 0
M  V30 3020 H 306.878 -3.27663 -2.64982 0
M  V30 3021 H 305.553 -2.09466 -2.46791 0
M  V30 3022 H 304.46 -3.66265 -0.761636 0
M  V30 3023 H 305.793 -4.81487 -1.02134 0
M  V30 3024 N 307.445 0.0818655 -1.57387 0
M  V30 3025 C 308.673 0.796108 -1.9097 0
M  V30 3026 C 309.088 1.71626 -0.786757 0
M  V30 3027 O 308.445 1.80908 0.240513 0
M  V30 3028 C 308.496 1.59829 -3.24248 0
M  V30 3029 O 308.217 0.715131 -4.32224 0
M  V30 3030 C 309.718 2.41442 -3.7178 0
M  V30 3031 H 306.938 0.22691 -0.631469 0
M  V30 3032 H 309.482 0.0551439 -2.04426 0
M  V30 3033 H 307.637 2.29163 -3.12351 0
M  V30 3034 H 308.051 1.27205 -5.08841 0
M  V30 3035 H 309.525 2.932 -4.67694 0
M  V30 3036 H 310.002 3.2051 -3.00283 0
M  V30 3037 H 310.608 1.77283 -3.86589 0
M  V30 3038 N 308.923 1.53595 0.353017 0
M  V30 3039 C 310.334 1.61937 0.929153 0
M  V30 3040 C 310.685 0.494686 1.89861 0
M  V30 3041 O 309.81 -0.377017 2.1309 0
M  V30 3042 C 310.405 2.93526 1.69199 0
M  V30 3043 C 308.964 3.04161 2.21727 0
M  V30 3044 C 308.111 2.57322 1.03348 0
M  V30 3045 H 311.062 1.58155 0.131431 0
M  V30 3046 H 311.083 2.82034 2.55416 0
M  V30 3047 H 310.595 3.75362 0.986144 0
M  V30 3048 H 308.696 2.26938 2.95516 0
M  V30 3049 H 308.809 4.09465 2.48748 0
M  V30 3050 H 307.173 2.12499 1.40414 0
M  V30 3051 H 307.956 3.41588 0.342428 0
M  V30 3052 N 310.401 -0.613514 1.45168 0
M  V30 3053 C 311.812 -1.19539 1.43413 0
M  V30 3054 C 312.163 -1.95558 0.158632 0
M  V30 3055 O 311.288 -2.0335 -0.740119 0
M  V30 3056 C 311.883 -2.17445 2.59813 0
M  V30 3057 C 310.442 -2.71022 2.61197 0
M  V30 3058 C 309.589 -1.46323 2.35552 0
M  V30 3059 H 312.54 -0.403163 1.53494 0
M  V30 3060 H 312.561 -3.00373 2.33574 0
M  V30 3061 H 312.073 -1.62089 3.52631 0
M  V30 3062 H 310.174 -3.30332 1.7237 0
M  V30 3063 H 310.287 -3.15859 3.60236 0
M  V30 3064 H 308.651 -1.75072 1.84992 0
M  V30 3065 H 309.434 -0.92844 3.30507 0
M  V30 3066 N 311.879 -1.3236 -0.855495 0
M  V30 3067 C 313.107 -1.2587 -1.64208 0
M  V30 3068 C 313.522 0.173457 -1.88002 0
M  V30 3069 O 312.879 1.11027 -1.44842 0
M  V30 3070 C 312.93 -2.01424 -3.00184 0
M  V30 3071 O 312.651 -3.39051 -2.77445 0
M  V30 3072 C 314.152 -2.01948 -3.94629 0
M  V30 3073 H 311.372 -0.434318 -0.511477 0
M  V30 3074 H 313.916 -1.74469 -1.0668 0
M  V30 3075 H 312.071 -1.56549 -3.5436 0
M  V30 3076 H 312.485 -3.77711 -3.63916 0
M  V30 3077 H 313.959 -2.59297 -4.87308 0
M  V30 3078 H 314.436 -1.00554 -4.27534 0
M  V30 3079 H 315.042 -2.46767 -3.4639 0
M  V30 3080 N 313.357 1.07166 -1.15556 0
M  V30 3081 C 314.287 2.16403 -0.877046 0
M  V30 3082 C 315.268 1.69217 0.173111 0
M  V30 3083 O 316.453 1.94181 0.027084 0
M  V30 3084 C 313.583 3.45349 -0.367632 0
M  V30 3085 C 312.537 4.05995 -1.35468 0
M  V30 3086 C 311.863 5.30045 -0.704038 0
M  V30 3087 C 313.163 4.45804 -2.72132 0
M  V30 3088 H 314.857 2.39959 -1.79053 0
M  V30 3089 H 312.403 1.15325 -0.862331 0
M  V30 3090 H 314.356 4.21095 -0.160317 0
M  V30 3091 H 313.08 3.21385 0.581326 0
M  V30 3092 H 311.739 3.32296 -1.54839 0
M  V30 3093 H 311.387 5.02373 0.251128 0
M  V30 3094 H 311.087 5.71579 -1.36277 0
M  V30 3095 H 312.611 6.08495 -0.50654 0
M  V30 3096 H 314.025 5.12671 -2.56595 0
M  V30 3097 H 312.422 4.98296 -3.34397 0
M  V30 3098 H 313.492 3.57083 -3.28054 0
M  V30 3099 N 314.835 0.952656 1.25548 0
M  V30 3100 C 315.765 0.489287 2.28316 0
M  V30 3101 C 316.746 -0.463359 1.63667 0
M  V30 3102 O 317.931 -0.36274 1.90782 0
M  V30 3103 C 315.061 -0.235603 3.465 0
M  V30 3104 C 314.015 0.631593 4.23314 0
M  V30 3105 C 313.341 -0.223923 5.34231 0
M  V30 3106 C 314.641 1.90871 4.86174 0
M  V30 3107 H 316.335 1.34822 2.67326 0
M  V30 3108 H 313.881 0.649728 1.28509 0
M  V30 3109 H 315.834 -0.570882 4.17515 0
M  V30 3110 H 314.558 -1.12877 3.06474 0
M  V30 3111 H 313.217 0.949929 3.54079 0
M  V30 3112 H 312.865 -1.11678 4.90446 0
M  V30 3113 H 312.565 0.35299 5.86539 0
M  V30 3114 H 314.089 -0.554214 6.0808 0
M  V30 3115 H 315.503 1.63997 5.49343 0
M  V30 3116 H 313.9 2.43112 5.4865 0
M  V30 3117 H 314.97 2.61304 4.08471 0
M  V30 3118 N 316.313 -1.40141 0.720998 0
M  V30 3119 C 317.56 -2.00787 0.262842 0
M  V30 3120 C 317.888 -1.5718 -1.14563 0
M  V30 3121 O 317.143 -0.785391 -1.79249 0
M  V30 3122 C 317.442 -3.56165 0.296892 0
M  V30 3123 C 317.108 -4.19373 1.65641 0
M  V30 3124 C 315.77 -4.36352 2.02855 0
M  V30 3125 C 318.122 -4.54578 2.54968 0
M  V30 3126 C 315.45 -4.8582 3.28931 0
M  V30 3127 C 317.802 -5.05447 3.80402 0
M  V30 3128 C 316.466 -5.20635 4.17726 0
M  V30 3129 H 315.736 -0.734731 0.0961807 0
M  V30 3130 H 318.383 -1.67673 0.925093 0
M  V30 3131 H 316.688 -3.8922 -0.448932 0
M  V30 3132 H 318.385 -4.00929 -0.0755208 0
M  V30 3133 H 314.975 -4.06549 1.35704 0
M  V30 3134 H 319.159 -4.41091 2.27491 0
M  V30 3135 H 314.415 -4.95764 3.57811 0
M  V30 3136 H 318.589 -5.31663 4.49786 0
M  V30 3137 H 316.216 -5.58728 5.15487 0
M  V30 3138 N 317.792 -0.46758 -1.50504 0
M  V30 3139 C 319.017 0.0886943 -2.0721 0
M  V30 3140 C 319.442 1.33057 -1.32956 0
M  V30 3141 O 318.8 1.77354 -0.376197 0
M  V30 3142 C 318.848 0.359202 -3.58806 0
M  V30 3143 O 317.952 1.44034 -3.8643 0
M  V30 3144 H 317.293 -0.0114349 -0.663902 0
M  V30 3145 H 319.823 -0.657613 -1.93744 0
M  V30 3146 H 319.833 0.600742 -4.03553 0
M  V30 3147 H 318.508 -0.548311 -4.1227 0
M  V30 3148 H 317.085 1.18638 -3.53524 0
M  V30 3149 N 319.27 1.56325 -0.20005 0
M  V30 3150 C 320.2 2.22318 0.713916 0
M  V30 3151 C 321.181 1.18788 1.21752 0
M  V30 3152 O 322.366 1.47309 1.26545 0
M  V30 3153 C 319.496 2.88639 1.93144 0
M  V30 3154 C 318.45 3.98457 1.56255 0
M  V30 3155 C 317.776 4.51967 2.85709 0
M  V30 3156 C 319.076 5.16612 0.768747 0
M  V30 3157 H 320.77 2.98952 0.163755 0
M  V30 3158 H 318.316 1.43792 0.0773219 0
M  V30 3159 H 320.269 3.33491 2.57608 0
M  V30 3160 H 318.993 2.09419 2.50621 0
M  V30 3161 H 317.652 3.54305 0.941471 0
M  V30 3162 H 317.3 3.69503 3.41287 0
M  V30 3163 H 317 5.26071 2.6177 0
M  V30 3164 H 318.524 4.99523 3.51154 0
M  V30 3165 H 319.938 5.57977 1.3166 0
M  V30 3166 H 318.335 5.96812 0.627286 0
M  V30 3167 H 319.405 4.84358 -0.229168 0
M  V30 3168 N 320.748 -0.0735177 1.57428 0
M  V30 3169 C 322.025 -0.805903 1.78226 0
M  V30 3170 C 322.405 -1.95874 0.787189 0
M  V30 3171 O 321.753 -2.2779 -0.180029 0
M  V30 3172 C 321.963 -1.28045 3.24662 0
M  V30 3173 C 323.311 -1.71453 3.88444 0
M  V30 3174 O 324.335 -1.37616 3.28543 0
M  V30 3175 O 323.194 -2.34093 4.93825 0
M  V30 3176 H 320.288 -0.386041 0.73137 0
M  V30 3177 H 322.834 -0.0537269 1.69615 0
M  V30 3178 H 321.606 -0.455476 3.8864 0
M  V30 3179 H 321.229 -2.094 3.37991 0
M  V30 3180 N 322.226 -1.5378 -0.344866 0
M  V30 3181 C 323.474 -1.70625 -1.08311 0
M  V30 3182 C 323.795 -0.471447 -1.89215 0
M  V30 3183 O 323.065 0.514616 -1.8902 0
M  V30 3184 H 321.645 -0.629058 -0.402859 0
M  V30 3185 H 324.307 -1.9103 -0.386459 0
M  V30 3186 H 323.403 -2.57656 -1.76124 0
M  V30 3187 N 323.704 0.605807 -1.45491 0
M  V30 3188 C 324.951 1.36476 -1.49601 0
M  V30 3189 C 325.279 1.94007 -0.138452 0
M  V30 3190 O 324.534 1.75638 0.863114 0
M  V30 3191 C 324.833 2.53012 -2.52428 0
M  V30 3192 C 324.499 2.13617 -3.97087 0
M  V30 3193 C 323.161 2.02587 -4.36477 0
M  V30 3194 C 325.513 1.82899 -4.88055 0
M  V30 3195 C 322.841 1.59064 -5.64726 0
M  V30 3196 C 325.193 1.40861 -6.16718 0
M  V30 3197 C 323.857 1.28391 -6.55036 0
M  V30 3198 H 323.127 0.499402 -0.547429 0
M  V30 3199 H 325.774 0.684546 -1.78847 0
M  V30 3200 H 324.079 3.26379 -2.16758 0
M  V30 3201 H 325.776 3.1124 -2.52845 0
M  V30 3202 H 322.366 2.23129 -3.65939 0
M  V30 3203 H 326.55 1.90317 -4.58359 0
M  V30 3204 H 321.806 1.48034 -5.93208 0
M  V30 3205 H 325.98 1.16138 -6.86648 0
M  V30 3206 H 323.607 0.944403 -7.54311 0
M  V30 3207 N 325.182 1.32811 0.848464 0
M  V30 3208 C 326.598 1.11937 1.13764 0
M  V30 3209 C 326.798 -0.0960789 2.01271 0
M  V30 3210 O 325.854 -0.779165 2.40178 0
M  V30 3211 C 327.167 2.402 1.809 0
M  V30 3212 C 328.715 2.46016 1.93508 0
M  V30 3213 C 329.19 3.74215 2.64059 0
M  V30 3214 N 330.681 3.75232 2.71579 0
M  V30 3215 C 331.416 4.71134 3.26833 0
M  V30 3216 N 330.912 5.77406 3.8285 0
M  V30 3217 N 332.705 4.58623 3.24995 0
M  V30 3218 H 324.856 2.1073 0.265855 0
M  V30 3219 H 327.119 0.930671 0.180431 0
M  V30 3220 H 326.825 3.29093 1.24058 0
M  V30 3221 H 326.699 2.51628 2.81004 0
M  V30 3222 H 329.086 1.57577 2.49506 0
M  V30 3223 H 329.167 2.38536 0.923811 0
M  V30 3224 H 328.811 4.63031 2.08722 0
M  V30 3225 H 328.741 3.78968 3.65637 0
M  V30 3226 H 331.232 2.98423 2.31845 0
M  V30 3227 H 331.545 6.46632 4.23187 0
M  V30 3228 H 329.89 5.81152 3.81165 0
M  V30 3229 H 333.081 3.74762 2.80484 0
M  V30 3230 H 333.254 5.33535 3.67756 0
M  V30 3231 N 326.66 -1.06551 1.16123 0
M  V30 3232 C 327.623 -2.12132 0.867906 0
M  V30 3233 C 328.623 -1.60224 -0.135944 0
M  V30 3234 O 329.813 -1.73943 0.0946422 0
M  V30 3235 C 326.945 -3.396 0.297419 0
M  V30 3236 H 328.138 -2.39586 1.80385 0
M  V30 3237 H 325.691 -1.22574 0.969812 0
M  V30 3238 H 326.426 -3.17794 -0.64633 0
M  V30 3239 H 326.211 -3.78581 1.02073 0
M  V30 3240 H 327.701 -4.17455 0.110052 0
M  V30 3241 N 328.138 -0.959301 -1.25041 0
M  V30 3242 C 329.048 -0.489994 -2.29426 0
M  V30 3243 C 330.064 0.444944 -1.68215 0
M  V30 3244 O 331.24 0.320046 -1.98841 0
M  V30 3245 C 328.305 0.220309 -3.45999 0
M  V30 3246 C 327.366 -0.753418 -4.22637 0
M  V30 3247 C 326.599 -0.076918 -5.33645 0
M  V30 3248 O 326.822 1.13649 -5.58963 0
M  V30 3249 O 325.756 -0.764824 -5.97021 0
M  V30 3250 H 329.582 -1.35755 -2.71669 0
M  V30 3251 H 327.167 -0.725961 -1.30576 0
M  V30 3252 H 329.049 0.619677 -4.16819 0
M  V30 3253 H 327.724 1.06296 -3.0575 0
M  V30 3254 H 326.631 -1.20308 -3.54227 0
M  V30 3255 H 327.964 -1.56423 -4.66683 0
M  V30 3256 N 329.616 1.39756 -0.72842 0
M  V30 3257 C 330.846 2.04651 -0.283117 0
M  V30 3258 C 331.254 1.5502 1.08469 0
M  V30 3259 O 330.597 0.707343 1.69536 0
M  V30 3260 C 330.659 3.58947 -0.199309 0
M  V30 3261 C 330.323 4.31525 -1.5045 0
M  V30 3262 C 331.32 4.5861 -2.44894 0
M  V30 3263 C 329.005 4.70195 -1.76698 0
M  V30 3264 C 330.999 5.23366 -3.63822 0
M  V30 3265 C 328.686 5.3468 -2.95906 0
M  V30 3266 C 329.684 5.61198 -3.89289 0
M  V30 3267 O 329.372 6.24347 -5.06404 0
M  V30 3268 H 329.104 0.664777 -0.122666 0
M  V30 3269 H 331.658 1.79913 -0.990987 0
M  V30 3270 H 329.888 3.82556 0.56461 0
M  V30 3271 H 331.577 4.0534 0.213125 0
M  V30 3272 H 332.343 4.29187 -2.25883 0
M  V30 3273 H 328.222 4.48916 -1.04859 0
M  V30 3274 H 331.766 5.4398 -4.36728 0
M  V30 3275 H 327.663 5.63524 -3.14819 0
M  V30 3276 H 328.431 6.42842 -5.06652 0
M  V30 3277 N 331.094 0.475555 1.50254 0
M  V30 3278 C 332.024 -0.30611 2.31485 0
M  V30 3279 C 333.005 -0.986228 1.38591 0
M  V30 3280 O 334.19 -0.982541 1.67511 0
M  V30 3281 C 331.32 -1.38588 3.1845 0
M  V30 3282 C 330.274 -0.827115 4.19932 0
M  V30 3283 C 329.6 -2.00551 4.95665 0
M  V30 3284 C 330.9 0.16463 5.2204 0
M  V30 3285 H 332.594 0.371866 2.97082 0
M  V30 3286 H 330.14 0.180282 1.42867 0
M  V30 3287 H 332.093 -1.94023 3.74076 0
M  V30 3288 H 330.817 -2.09269 2.50747 0
M  V30 3289 H 329.476 -0.294702 3.65414 0
M  V30 3290 H 329.124 -2.6994 4.2443 0
M  V30 3291 H 328.824 -1.63784 5.64313 0
M  V30 3292 H 330.348 -2.56468 5.54127 0
M  V30 3293 H 331.762 -0.300699 5.72511 0
M  V30 3294 H 330.159 0.446813 5.98434 0
M  V30 3295 H 331.229 1.08905 4.72512 0
M  V30 3296 N 332.573 -1.56217 0.208337 0
M  V30 3297 C 333.523 -2.16324 -0.720281 0
M  V30 3298 C 334.507 -1.10775 -1.16695 0
M  V30 3299 O 335.699 -1.36801 -1.12314 0
M  V30 3300 C 332.828 -2.83644 -1.93393 0
M  V30 3301 C 331.914 -3.96401 -1.50755 0
M  V30 3302 N 332.305 -4.99546 -0.792937 0
M  V30 3303 C 330.603 -4.08246 -1.79585 0
M  V30 3304 C 331.304 -5.78828 -0.577364 0
M  V30 3305 N 330.28 -5.31723 -1.1301 0
M  V30 3306 H 334.082 -2.93432 -0.165725 0
M  V30 3307 H 331.596 -1.62397 0.00906463 0
M  V30 3308 H 333.593 -3.25107 -2.60981 0
M  V30 3309 H 332.253 -2.08027 -2.49308 0
M  V30 3310 H 333.264 -5.15967 -0.447004 0
M  V30 3311 H 329.941 -3.4377 -2.36915 0
M  V30 3312 H 331.331 -6.71899 -0.00952956 0
M  V30 3313 N 334.051 0.0651679 -1.57465 0
M  V30 3314 C 335.279 0.775808 -1.91804 0
M  V30 3315 C 335.694 1.70782 -0.804916 0
M  V30 3316 O 335.051 1.81153 0.221311 0
M  V30 3317 C 335.102 1.56381 -3.25925 0
M  V30 3318 O 334.823 0.669248 -4.32958 0
M  V30 3319 C 336.324 2.37485 -3.7432 0
M  V30 3320 H 333.544 0.2202 -0.63384 0
M  V30 3321 H 336.088 0.0334587 -2.04473 0
M  V30 3322 H 334.243 2.25837 -3.14764 0
M  V30 3323 H 334.657 1.21801 -5.10162 0
M  V30 3324 H 336.131 2.88223 -4.70778 0
M  V30 3325 H 336.608 3.17307 -3.03666 0
M  V30 3326 H 337.214 1.73173 -3.88447 0
M  V30 3327 N 335.529 1.53961 0.336706 0
M  V30 3328 C 336.775 1.7273 1.07406 0
M  V30 3329 C 337.13 0.488095 1.86106 0
M  V30 3330 O 336.423 -0.519379 1.84426 0
M  V30 3331 C 336.617 2.93493 2.03953 0
M  V30 3332 C 336.446 4.29039 1.34744 0
M  V30 3333 C 335.216 4.93416 1.08942 0
M  V30 3334 C 337.414 5.08501 0.770115 0
M  V30 3335 N 335.396 6.12821 0.363864 0
M  V30 3336 C 336.767 6.19752 0.175472 0
M  V30 3337 C 338.822 4.93349 0.671633 0
M  V30 3338 C 337.525 7.17503 -0.508081 0
M  V30 3339 C 339.551 5.914 0.0018076 0
M  V30 3340 C 338.913 7.01993 -0.581835 0
M  V30 3341 H 335.012 0.685026 0.377177 0
M  V30 3342 H 337.596 1.91403 0.356815 0
M  V30 3343 H 335.767 2.76308 2.72962 0
M  V30 3344 H 337.499 3.00949 2.70577 0
M  V30 3345 H 334.254 4.53099 1.37833 0
M  V30 3346 H 334.678 6.76998 0.0156092 0
M  V30 3347 H 339.32 4.08007 1.1086 0
M  V30 3348 H 337.038 8.02414 -0.956918 0
M  V30 3349 H 340.624 5.81753 -0.0738538 0
M  V30 3350 H 339.504 7.76561 -1.09192 0
M  V30 3351 N 337.007 -0.598083 1.45811 0
M  V30 3352 C 338.255 -1.35413 1.50026 0
M  V30 3353 C 338.576 -1.94444 0.147177 0
M  V30 3354 O 337.846 -1.77701 -0.824571 0
M  V30 3355 H 336.426 -0.502727 0.552517 0
M  V30 3356 H 339.088 -0.701606 1.81834 0
M  V30 3357 H 338.184 -2.16871 2.2444 0
M  V30 3358 N 338.485 -1.33259 -0.841409 0
M  V30 3359 C 339.733 -1.24326 -1.59334 0
M  V30 3360 C 340.054 0.191564 -1.94057 0
M  V30 3361 O 339.324 1.11967 -1.60749 0
M  V30 3362 H 337.904 -0.457174 -0.590763 0
M  V30 3363 H 340.566 -1.66947 -1.00571 0
M  V30 3364 H 339.662 -1.8352 -2.52442 0
M  V30 3365 N 339.963 1.05934 -1.16686 0
M  V30 3366 C 340.893 2.1546 -0.899949 0
M  V30 3367 C 341.874 1.69391 0.155154 0
M  V30 3368 O 343.059 1.94199 0.00648693 0
M  V30 3369 C 340.189 3.44939 -0.404241 0
M  V30 3370 C 339.143 4.04536 -1.39767 0
M  V30 3371 C 338.469 5.29268 -0.760216 0
M  V30 3372 C 339.769 4.42893 -2.76845 0
M  V30 3373 H 341.463 2.38046 -1.81588 0
M  V30 3374 H 339.009 1.14404 -0.874514 0
M  V30 3375 H 340.962 4.20901 -0.204971 0
M  V30 3376 H 339.686 3.21983 0.547206 0
M  V30 3377 H 338.345 3.30635 -1.58355 0
M  V30 3378 H 337.993 5.02611 0.197831 0
M  V30 3379 H 337.693 5.70101 -1.42332 0
M  V30 3380 H 339.217 6.07924 -0.57105 0
M  V30 3381 H 340.631 5.09921 -2.62019 0
M  V30 3382 H 339.028 4.94721 -3.39663 0
M  V30 3383 H 340.098 3.53584 -3.31823 0
M  V30 3384 N 341.441 0.965919 1.2453 0
M  V30 3385 C 342.371 0.513476 2.27784 0
M  V30 3386 C 343.352 -0.445974 1.6415 0
M  V30 3387 O 344.537 -0.342485 1.91156 0
M  V30 3388 C 341.667 -0.198839 3.4673 0
M  V30 3389 C 340.621 0.676456 4.2262 0
M  V30 3390 C 339.947 -0.167248 5.34438 0
M  V30 3391 C 341.247 1.96017 4.84123 0
M  V30 3392 H 342.941 1.3765 2.65881 0
M  V30 3393 H 340.487 0.663321 1.27813 0
M  V30 3394 H 342.44 -0.526567 4.18097 0
M  V30 3395 H 341.164 -1.0962 3.07654 0
M  V30 3396 H 339.823 0.98743 3.53052 0
M  V30 3397 H 339.471 -1.0647 4.91603 0
M  V30 3398 H 339.171 0.415181 5.86131 0
M  V30 3399 H 340.695 -0.489688 6.08633 0
M  V30 3400 H 342.109 1.69814 5.47573 0
M  V30 3401 H 340.506 2.48918 5.4604 0
M  V30 3402 H 341.576 2.65622 4.05676 0
M  V30 3403 N 342.919 -1.39368 0.735821 0
M  V30 3404 C 344.33 -1.83313 0.354015 0
M  V30 3405 C 344.681 -1.61461 -1.11466 0
M  V30 3406 O 343.806 -1.10621 -1.85989 0
M  V30 3407 C 344.401 -3.32781 0.635769 0
M  V30 3408 C 342.96 -3.75142 0.307448 0
M  V30 3409 C 342.107 -2.62358 0.897974 0
M  V30 3410 H 345.058 -1.28349 0.933398 0
M  V30 3411 H 345.079 -3.80388 -0.0921773 0
M  V30 3412 H 344.591 -3.48654 1.70476 0
M  V30 3413 H 342.692 -3.64857 -0.755674 0
M  V30 3414 H 342.805 -4.72532 0.790583 0
M  V30 3415 H 341.169 -2.52624 0.324551 0
M  V30 3416 H 341.952 -2.81036 1.97164 0
M  V30 3417 N 344.397 -0.483516 -1.5 0
M  V30 3418 C 345.643 0.0672592 -2.02688 0
M  V30 3419 C 345.976 1.38247 -1.36387 0
M  V30 3420 O 345.251 1.88131 -0.493675 0
M  V30 3421 C 345.534 0.238109 -3.59312 0
M  V30 3422 C 345.387 -1.099 -4.36168 0
M  V30 3423 C 346.706 0.986916 -4.28892 0
M  V30 3424 H 343.825 0.0229696 -0.736642 0
M  V30 3425 H 346.467 -0.631527 -1.79197 0
M  V30 3426 H 344.617 0.8333 -3.79458 0
M  V30 3427 H 346.289 -1.73172 -4.27562 0
M  V30 3428 H 344.532 -1.69261 -3.99416 0
M  V30 3429 H 345.203 -0.932954 -5.44059 0
M  V30 3430 H 347.679 0.482302 -4.13295 0
M  V30 3431 H 346.555 1.07527 -5.38265 0
M  V30 3432 H 346.816 2.0265 -3.92919 0
M  V30 3433 N 345.875 1.56104 -0.216619 0
M  V30 3434 C 347.124 1.97348 0.416744 0
M  V30 3435 C 347.437 1.10715 1.6125 0
M  V30 3436 O 348.643 1.41836 2.31506 0
M  V30 3437 C 347.099 3.51059 0.792835 0
M  V30 3438 C 346.707 4.46387 -0.379828 0
M  V30 3439 C 348.451 4.01026 1.39208 0
M  V30 3440 C 346.358 5.91397 0.0184223 0
M  V30 3441 H 345.288 0.736942 0.159475 0
M  V30 3442 H 347.939 1.80827 -0.31205 0
M  V30 3443 H 346.321 3.63162 1.57891 0
M  V30 3444 H 347.495 4.46029 -1.15737 0
M  V30 3445 H 345.81 4.06734 -0.891979 0
M  V30 3446 H 348.407 5.0686 1.70286 0
M  V30 3447 H 348.75 3.46587 2.30614 0
M  V30 3448 H 349.283 3.92125 0.669537 0
M  V30 3449 H 346.022 6.49807 -0.862002 0
M  V30 3450 H 345.542 5.94961 0.760384 0
M  V30 3451 H 347.221 6.45455 0.446818 0
M  V30 3452 N 347.353 -0.0568162 1.57498 0
M  V30 3453 C 348.578 -0.769402 1.92601 0
M  V30 3454 C 349.003 -1.69559 0.814336 0
M  V30 3455 O 348.361 -1.79811 -0.231903 0
M  V30 3456 C 348.409 -1.52634 3.26704 0
M  V30 3457 O 347.513 -2.63797 3.16994 0
M  V30 3458 H 346.854 -0.208909 0.63028 0
M  V30 3459 H 349.384 -0.0205798 2.0459 0
M  V30 3460 H 349.394 -1.90234 3.60936 0
M  V30 3461 H 348.069 -0.846875 4.07186 0
M  V30 3462 H 346.646 -2.28943 2.94346 0
M  V30 3463 N 348.832 -1.54138 -0.328536 0
M  V30 3464 C 349.779 -1.83176 -1.40411 0
M  V30 3465 C 350.749 -0.678494 -1.5161 0
M  V30 3466 O 351.934 -0.92443 -1.6691 0
M  V30 3467 C 349.074 -2.06035 -2.76846 0
M  V30 3468 C 348.187 -3.33727 -2.74318 0
M  V30 3469 C 347.322 -3.46574 -4.02567 0
M  V30 3470 C 346.361 -4.68159 -3.94327 0
M  V30 3471 N 345.498 -4.77959 -5.14296 0
M  V30 3472 H 350.338 -2.74938 -1.14948 0
M  V30 3473 H 347.875 -1.36166 -0.556538 0
M  V30 3474 H 349.833 -2.1728 -3.56153 0
M  V30 3475 H 348.463 -1.1757 -3.00628 0
M  V30 3476 H 347.515 -3.31246 -1.8703 0
M  V30 3477 H 348.827 -4.23139 -2.64111 0
M  V30 3478 H 347.981 -3.57333 -4.90304 0
M  V30 3479 H 346.72 -2.55245 -4.15574 0
M  V30 3480 H 345.725 -4.57461 -3.04974 0
M  V30 3481 H 346.95 -5.60868 -3.82889 0
M  V30 3482 H 344.896 -3.89544 -5.27818 0
M  V30 3483 H 344.813 -5.6133 -5.06404 0
M  V30 3484 H 346.081 -4.93044 -6.03761 0
M  V30 3485 N 350.31 0.590341 -1.46126 0
M  V30 3486 C 351.24 1.71032 -1.58966 0
M  V30 3487 C 352.221 1.64302 -0.440335 0
M  V30 3488 O 353.406 1.82436 -0.665634 0
M  V30 3489 C 350.536 3.09665 -1.57241 0
M  V30 3490 C 349.49 3.31221 -2.71066 0
M  V30 3491 C 348.816 4.70303 -2.54399 0
M  V30 3492 C 350.116 3.19796 -4.1295 0
M  V30 3493 H 351.81 1.60543 -2.52718 0
M  V30 3494 H 349.356 0.770933 -1.21625 0
M  V30 3495 H 351.309 3.87831 -1.64819 0
M  V30 3496 H 350.033 3.21036 -0.600289 0
M  V30 3497 H 348.692 2.55452 -2.62944 0
M  V30 3498 H 348.34 4.78429 -1.55288 0
M  V30 3499 H 348.04 4.85679 -3.30741 0
M  V30 3500 H 349.564 5.50647 -2.63857 0
M  V30 3501 H 350.978 3.87815 -4.22223 0
M  V30 3502 H 349.375 3.46696 -4.89818 0
M  V30 3503 H 350.445 2.16983 -4.33643 0
M  V30 3504 N 351.788 1.33704 0.83433 0
M  V30 3505 C 352.735 1.24335 1.94447 0
M  V30 3506 C 353.705 0.120991 1.65659 0
M  V30 3507 O 354.89 0.300035 1.88426 0
M  V30 3508 C 352.03 0.993124 3.30501 0
M  V30 3509 C 351.143 2.20217 3.71657 0
M  V30 3510 C 350.278 1.88572 4.96602 0
M  V30 3511 C 349.317 3.05683 5.30306 0
M  V30 3512 N 348.454 2.73997 6.46429 0
M  V30 3513 H 353.294 2.1928 2.01792 0
M  V30 3514 H 350.831 1.09035 0.987404 0
M  V30 3515 H 352.789 0.828467 4.08892 0
M  V30 3516 H 351.419 0.0803902 3.227 0
M  V30 3517 H 350.471 2.47642 2.88752 0
M  V30 3518 H 351.783 3.07752 3.92543 0
M  V30 3519 H 350.937 1.68776 5.82752 0
M  V30 3520 H 349.676 0.982799 4.77695 0
M  V30 3521 H 348.681 3.26088 4.42659 0
M  V30 3522 H 349.906 3.96737 5.51159 0
M  V30 3523 H 347.852 1.86268 6.28999 0
M  V30 3524 H 347.769 3.55064 6.67432 0
M  V30 3525 H 349.037 2.57679 7.35678 0
M  V30 3526 N 353.266 -1.05314 1.17247 0
M  V30 3527 C 354.213 -2.13031 0.888058 0
M  V30 3528 C 355.183 -1.65253 -0.167537 0
M  V30 3529 O 356.368 -1.90775 -0.0305974 0
M  V30 3530 C 353.508 -3.42702 0.406147 0
M  V30 3531 C 352.621 -4.04161 1.52572 0
M  V30 3532 C 351.756 -5.21744 0.997808 0
M  V30 3533 C 350.795 -5.75207 2.09291 0
M  V30 3534 N 349.932 -6.84094 1.57986 0
M  V30 3535 H 354.772 -2.36698 1.81048 0
M  V30 3536 H 352.309 -1.16121 0.903013 0
M  V30 3537 H 354.267 -4.17059 0.108305 0
M  V30 3538 H 352.897 -3.19222 -0.479313 0
M  V30 3539 H 351.949 -3.27253 1.93931 0
M  V30 3540 H 353.261 -4.39881 2.35172 0
M  V30 3541 H 352.415 -6.03168 0.653739 0
M  V30 3542 H 351.154 -4.87495 0.141232 0
M  V30 3543 H 350.159 -4.92414 2.44557 0
M  V30 3544 H 351.384 -6.11505 2.95362 0
M  V30 3545 H 349.33 -6.51745 0.74598 0
M  V30 3546 H 349.247 -7.18811 2.34195 0
M  V30 3547 H 350.515 -7.69172 1.26468 0
M  V30 3548 N 354.744 -0.972509 -1.24016 0
M  V30 3549 C 355.984 -0.644951 -1.93958 0
M  V30 3550 C 356.348 0.80559 -1.74282 0
M  V30 3551 O 357.549 1.2436 -2.38302 0
M  V30 3552 C 355.82 -1.01521 -3.42678 0
M  V30 3553 S 357.379 -0.802927 -4.31391 0
M  V30 3554 H 354.197 -0.236452 -0.670531 0
M  V30 3555 H 356.799 -1.25048 -1.50277 0
M  V30 3556 H 355.503 -2.06769 -3.54506 0
M  V30 3557 H 355.034 -0.400648 -3.91355 0
M  V30 3558 H 357.049 0.317256 -4.95185 0
M  V30 3559 N 356.222 1.38976 -0.743202 0
M  V30 3560 C 357.47 1.99948 -0.29417 0
M  V30 3561 C 357.791 1.59279 1.12495 0
M  V30 3562 O 357.061 0.844808 1.76748 0
M  V30 3563 H 355.641 0.739473 -0.105774 0
M  V30 3564 H 358.303 1.699 -0.954986 0
M  V30 3565 H 357.399 3.10142 -0.349056 0
M  V30 3566 N 357.7 0.491464 1.49741 0
M  V30 3567 C 358.928 -0.0535151 2.06831 0
M  V30 3568 C 359.343 -1.31683 1.35296 0
M  V30 3569 O 358.7 -1.77402 0.42836 0
M  V30 3570 C 358.751 -0.320835 3.60073 0
M  V30 3571 O 358.472 0.892394 4.28915 0
M  V30 3572 C 359.973 -0.910519 4.33848 0
M  V30 3573 H 357.193 0.0161909 0.670805 0
M  V30 3574 H 359.737 0.68609 1.92647 0
M  V30 3575 H 357.892 -1.0104 3.73991 0
M  V30 3576 H 358.306 0.649401 5.20464 0
M  V30 3577 H 359.78 -1.04721 5.41976 0
M  V30 3578 H 360.257 -1.90589 3.95692 0
M  V30 3579 H 360.863 -0.258712 4.24512 0
M  V30 3580 N 359.178 -1.55987 0.224894 0
M  V30 3581 C 360.408 -2.02489 -0.41007 0
M  V30 3582 C 360.816 -1.10391 -1.53657 0
M  V30 3583 O 360.159 -0.106458 -1.83391 0
M  V30 3584 C 360.221 -3.45319 -0.999757 0
M  V30 3585 C 359.885 -4.56999 -0.00827976 0
M  V30 3586 C 360.882 -5.13812 0.793314 0
M  V30 3587 C 358.567 -5.02176 0.111442 0
M  V30 3588 C 360.561 -6.14276 1.7013 0
M  V30 3589 C 358.248 -6.02477 1.02296 0
M  V30 3590 C 359.246 -6.58403 1.81643 0
M  V30 3591 O 358.934 -7.56751 2.71262 0
M  V30 3592 H 358.666 -0.667915 -0.104235 0
M  V30 3593 H 361.22 -2.0257 0.339782 0
M  V30 3594 H 359.45 -3.42318 -1.79876 0
M  V30 3595 H 361.139 -3.7545 -1.54248 0
M  V30 3596 H 361.905 -4.79756 0.711288 0
M  V30 3597 H 357.784 -4.58323 -0.49605 0
M  V30 3598 H 361.328 -6.57854 2.32107 0
M  V30 3599 H 357.225 -6.35954 1.10599 0
M  V30 3600 H 357.993 -7.74286 2.65375 0
M  V30 3601 N 360.656 0.0484629 -1.57525 0
M  V30 3602 C 361.884 0.755421 -1.92616 0
M  V30 3603 C 362.299 1.69919 -0.822984 0
M  V30 3604 O 361.656 1.81378 0.202085 0
M  V30 3605 C 361.707 1.52915 -3.27566 0
M  V30 3606 O 361.428 0.62329 -4.33644 0
M  V30 3607 C 362.929 2.33502 -3.76818 0
M  V30 3608 H 360.149 0.213465 -0.63614 0
M  V30 3609 H 362.693 0.0117698 -2.04497 0
M  V30 3610 H 360.848 2.22486 -3.17142 0
M  V30 3611 H 361.262 1.16383 -5.11425 0
M  V30 3612 H 362.736 2.83214 -4.73808 0
M  V30 3613 H 363.213 3.14068 -3.07014 0
M  V30 3614 H 363.819 1.69043 -3.90262 0
M  V30 3615 N 362.134 1.5431 0.320358 0
M  V30 3616 C 363.081 1.83918 1.39438 0
M  V30 3617 C 364.051 0.686525 1.51248 0
M  V30 3618 O 365.236 0.933269 1.66417 0
M  V30 3619 C 362.376 2.075 2.75749 0
M  V30 3620 C 361.489 3.35177 2.72544 0
M  V30 3621 C 360.624 3.48704 4.00723 0
M  V30 3622 C 359.663 4.70244 3.91838 0
M  V30 3623 N 358.8 4.80679 5.11754 0
M  V30 3624 H 363.64 2.75544 1.13489 0
M  V30 3625 H 361.177 1.36459 0.549309 0
M  V30 3626 H 363.135 2.19166 3.54996 0
M  V30 3627 H 361.765 1.19163 3 0
M  V30 3628 H 360.817 3.32233 1.85271 0
M  V30 3629 H 362.129 4.24534 2.61863 0
M  V30 3630 H 361.283 3.59928 4.88402 0
M  V30 3631 H 360.022 2.57445 4.14214 0
M  V30 3632 H 359.027 4.59072 3.02544 0
M  V30 3633 H 360.252 5.6289 3.7991 0
M  V30 3634 H 358.198 3.92337 5.25745 0
M  V30 3635 H 358.115 5.64007 5.0342 0
M  V30 3636 H 359.383 4.96239 6.01138 0
M  V30 3637 N 363.613 -0.582584 1.46437 0
M  V30 3638 C 364.561 -1.71272 1.5738 0
M  V30 3639 C 365.555 -1.63524 0.44229 0
M  V30 3640 O 366.761 -1.69016 0.619166 0
M  V30 3641 H 363.136 -0.566273 0.494813 0
M  V30 3642 H 365.107 -1.59174 2.52401 0
M  V30 3643 C 363.856 -3.09658 1.58136 0
M  V30 3644 H 363.179 -3.16291 2.44541 0
M  V30 3645 H 364.619 -3.88494 1.69847 0
M  V30 3646 C 363.078 -3.3547 0.310026 0
M  V30 3647 O 363.608 -3.97199 -0.599683 0
M  V30 3648 N 361.814 -2.89925 0.197901 0
M  V30 3649 H 361.361 -2.39873 0.93909 0
M  V30 3650 H 361.319 -3.07568 -0.65185 0
M  V30 3651 N 365.091 -1.34144 -0.827227 0
M  V30 3652 C 366.024 -1.19707 -1.94282 0
M  V30 3653 C 367.002 -0.0897256 -1.62352 0
M  V30 3654 O 368.186 -0.254095 -1.8678 0
M  V30 3655 C 365.313 -0.838646 -3.28153 0
M  V30 3656 C 364.359 -1.95514 -3.79047 0
M  V30 3657 S 365.192 -3.56793 -3.99323 0
M  V30 3658 C 366.348 -3.22983 -5.36127 0
M  V30 3659 H 366.581 -2.1414 -2.06231 0
M  V30 3660 H 364.114 -1.19121 -0.982321 0
M  V30 3661 H 366.072 -0.638637 -4.05502 0
M  V30 3662 H 364.733 0.0872776 -3.13979 0
M  V30 3663 H 363.926 -1.658 -4.75948 0
M  V30 3664 H 363.528 -2.11241 -3.08631 0
M  V30 3665 H 365.82 -2.74531 -6.19386 0
M  V30 3666 H 366.763 -4.19008 -5.70822 0
M  V30 3667 H 367.171 -2.59276 -5.01434 0
M  V30 3668 N 366.569 1.04691 -1.17803 0
M  V30 3669 C 367.985 1.29963 -0.926379 0
M  V30 3670 C 368.185 1.97251 0.411635 0
M  V30 3671 O 367.241 2.24922 1.14744 0
M  V30 3672 C 368.554 2.16447 -2.08737 0
M  V30 3673 C 370.102 2.29814 -2.12496 0
M  V30 3674 C 370.577 3.19661 -3.27995 0
M  V30 3675 N 372.068 3.27247 -3.27816 0
M  V30 3676 C 372.803 3.96906 -4.13827 0
M  V30 3677 N 372.299 4.6895 -5.09959 0
M  V30 3678 N 374.092 3.93122 -4.01761 0
M  V30 3679 H 366.243 0.594182 -2.0392 0
M  V30 3680 H 368.506 0.324649 -0.890678 0
M  V30 3681 H 368.212 1.74304 -3.05469 0
M  V30 3682 H 368.086 3.17103 -2.04268 0
M  V30 3683 H 370.473 2.71196 -1.16347 0
M  V30 3684 H 370.554 1.2877 -2.21025 0
M  V30 3685 H 370.198 2.78991 -4.24413 0
M  V30 3686 H 370.128 4.20722 -3.16703 0
M  V30 3687 H 372.619 2.75921 -2.58217 0
M  V30 3688 H 372.932 5.19679 -5.71974 0
M  V30 3689 H 371.277 4.67875 -5.13924 0
M  V30 3690 H 374.468 3.35967 -3.2595 0
M  V30 3691 H 374.641 4.47139 -4.6901 0
M  V30 3692 N 368.047 0.979072 1.23499 0
M  V30 3693 C 369.458 0.684391 1.73704 0
M  V30 3694 C 369.809 -0.799448 1.79174 0
M  V30 3695 O 368.934 -1.62531 1.42873 0
M  V30 3696 C 369.529 1.23564 3.15464 0
M  V30 3697 C 368.088 0.99063 3.6313 0
M  V30 3698 C 367.235 1.36416 2.41425 0
M  V30 3699 H 370.186 1.15307 1.09041 0
M  V30 3700 H 370.207 0.607417 3.7562 0
M  V30 3701 H 369.719 2.31561 3.1145 0
M  V30 3702 H 367.82 -0.0733136 3.72528 0
M  V30 3703 H 367.933 1.64427 4.5 0
M  V30 3704 H 366.297 0.782616 2.42378 0
M  V30 3705 H 367.08 2.45387 2.40083 0
M  V30 3706 N 369.525 -1.3858 0.750561 0
M  V30 3707 C 370.771 -2.00481 0.305825 0
M  V30 3708 C 371.104 -1.5944 -1.10872 0
M  V30 3709 O 370.379 -0.83052 -1.75877 0
M  V30 3710 C 370.662 -3.5758 0.425287 0
M  V30 3711 C 370.515 -4.08594 1.88072 0
M  V30 3712 C 371.834 -4.39719 -0.183122 0
M  V30 3713 H 368.953 -0.728348 0.112598 0
M  V30 3714 H 371.595 -1.64566 0.949638 0
M  V30 3715 H 369.745 -3.88306 -0.122828 0
M  V30 3716 H 371.417 -3.88523 2.48691 0
M  V30 3717 H 369.66 -3.61574 2.39681 0
M  V30 3718 H 370.331 -5.177 1.91548 0
M  V30 3719 H 372.807 -4.15128 0.284303 0
M  V30 3720 H 371.683 -5.48856 -0.0692757 0
M  V30 3721 H 371.944 -4.23434 -1.27106 0
M  V30 3722 N 371.003 -0.499398 -1.49478 0
M  V30 3723 C 372.233 0.0424839 -2.06556 0
M  V30 3724 C 372.641 1.31514 -1.36018 0
M  V30 3725 O 371.984 1.78555 -0.431718 0
M  V30 3726 C 372.046 0.368074 -3.57611 0
M  V30 3727 C 371.71 -0.806631 -4.49825 0
M  V30 3728 C 372.707 -1.69667 -4.91436 0
M  V30 3729 C 370.392 -1.00498 -4.92144 0
M  V30 3730 C 372.386 -2.76923 -5.74101 0
M  V30 3731 C 370.073 -2.08072 -5.74586 0
M  V30 3732 C 371.071 -2.96119 -6.15469 0
M  V30 3733 O 370.759 -4.01836 -6.96264 0
M  V30 3734 H 370.491 -0.0165165 -0.675798 0
M  V30 3735 H 373.045 -0.695497 -1.93267 0
M  V30 3736 H 371.275 1.15963 -3.68903 0
M  V30 3737 H 372.964 0.848381 -3.96935 0
M  V30 3738 H 373.73 -1.55524 -4.59388 0
M  V30 3739 H 369.609 -0.329036 -4.59824 0
M  V30 3740 H 373.153 -3.45676 -6.05932 0
M  V30 3741 H 369.05 -2.22211 -6.06047 0
M  V30 3742 H 369.818 -3.9917 -7.14567 0
M  V30 3743 N 372.481 1.55866 -0.233164 0
M  V30 3744 C 373.892 1.847 0.272554 0
M  V30 3745 C 374.243 1.15477 1.58617 0
M  V30 3746 O 373.368 0.42841 2.12117 0
M  V30 3747 C 373.963 3.35071 0.501299 0
M  V30 3748 C 372.522 3.6418 0.951304 0
M  V30 3749 C 371.669 2.77292 0.0208209 0
M  V30 3750 H 374.62 1.52005 -0.456074 0
M  V30 3751 H 374.641 3.55906 1.34577 0
M  V30 3752 H 374.153 3.85424 -0.454936 0
M  V30 3753 H 372.254 3.19293 1.92049 0
M  V30 3754 H 372.367 4.72071 0.817675 0
M  V30 3755 H 370.731 2.49131 0.529723 0
M  V30 3756 H 371.514 3.30448 -0.93054 0
M  V30 3757 N 373.959 -0.0401083 1.57549 0
M  V30 3758 C 375.187 -0.745196 1.93014 0
M  V30 3759 C 375.602 -1.6948 0.831984 0
M  V30 3760 O 374.959 -1.81482 -0.192463 0
M  V30 3761 C 375.01 -1.51176 3.28372 0
M  V30 3762 O 374.731 -0.600284 4.33968 0
M  V30 3763 C 376.232 -2.315 3.78051 0
M  V30 3764 H 373.452 -0.210088 0.637263 0
M  V30 3765 H 375.996 -0.000924689 2.045 0
M  V30 3766 H 374.151 -2.20801 3.18317 0
M  V30 3767 H 374.565 -1.13669 5.12035 0
M  V30 3768 H 376.039 -2.80697 4.75303 0
M  V30 3769 H 376.516 -3.12436 3.08675 0
M  V30 3770 H 377.122 -1.66971 3.91153 0
M  V30 3771 N 375.437 -1.54477 -0.31217 0
M  V30 3772 C 376.384 -1.84655 -1.38461 0
M  V30 3773 C 377.354 -0.694536 -1.50882 0
M  V30 3774 O 378.539 -0.942081 -1.6592 0
M  V30 3775 C 375.679 -2.0896 -2.74645 0
M  V30 3776 C 374.792 -3.36618 -2.70763 0
M  V30 3777 C 373.927 -3.50824 -3.98868 0
M  V30 3778 C 372.966 -4.72315 -3.89339 0
M  V30 3779 N 372.103 -4.83387 -5.09197 0
M  V30 3780 H 376.943 -2.76142 -1.12026 0
M  V30 3781 H 374.48 -1.36748 -0.542065 0
M  V30 3782 H 376.438 -2.21045 -3.53829 0
M  V30 3783 H 375.068 -1.20752 -2.99364 0
M  V30 3784 H 374.12 -3.33211 -1.83506 0
M  V30 3785 H 375.432 -4.25917 -2.59608 0
M  V30 3786 H 374.586 -3.62513 -4.86486 0
M  V30 3787 H 373.325 -2.59638 -4.12843 0
M  V30 3788 H 372.33 -4.6067 -3.00105 0
M  V30 3789 H 373.555 -5.64897 -3.76919 0
M  V30 3790 H 371.501 -3.9512 -5.23657 0
M  V30 3791 H 371.418 -5.66669 -5.00422 0
M  V30 3792 H 372.686 -4.9942 -5.98498 0
M  V30 3793 N 376.915 0.57481 -1.46744 0
M  V30 3794 C 378.143 1.35856 -1.56047 0
M  V30 3795 C 378.558 1.87691 -0.204365 0
M  V30 3796 O 377.915 1.64049 0.79963 0
M  V30 3797 C 377.966 2.54066 -2.57163 0
M  V30 3798 O 377.687 2.04377 -3.87507 0
M  V30 3799 C 379.188 3.46514 -2.76483 0
M  V30 3800 H 376.408 0.414754 -0.527466 0
M  V30 3801 H 378.952 0.698035 -1.92218 0
M  V30 3802 H 377.107 3.16092 -2.23974 0
M  V30 3803 H 377.521 2.81419 -4.4261 0
M  V30 3804 H 378.995 4.25919 -3.51137 0
M  V30 3805 H 379.472 3.98951 -1.83671 0
M  V30 3806 H 380.078 2.90318 -3.10799 0
M  V30 3807 N 378.394 1.34581 0.820102 0
M  V30 3808 C 379.641 1.27096 1.57648 0
M  V30 3809 C 379.969 -0.158317 1.93855 0
M  V30 3810 O 379.224 -1.12028 1.60463 0
M  V30 3811 C 379.523 2.10997 2.8847 0
M  V30 3812 C 379.189 3.59966 2.71543 0
M  V30 3813 C 377.851 4.00575 2.66634 0
M  V30 3814 C 380.203 4.54548 2.55021 0
M  V30 3815 C 377.531 5.33953 2.43128 0
M  V30 3816 C 379.883 5.88109 2.33047 0
M  V30 3817 C 378.547 6.27878 2.26552 0
M  V30 3818 H 377.817 0.465078 0.576874 0
M  V30 3819 H 380.464 1.6635 0.948671 0
M  V30 3820 H 378.769 1.6458 3.55557 0
M  V30 3821 H 380.466 2.0255 3.46084 0
M  V30 3822 H 377.056 3.27733 2.76205 0
M  V30 3823 H 381.24 4.24069 2.57835 0
M  V30 3824 H 376.496 5.63781 2.3656 0
M  V30 3825 H 380.67 6.60985 2.19251 0
M  V30 3826 H 378.297 7.31162 2.081 0
M  V30 3827 N 379.872 -1.04064 1.18357 0
M  V30 3828 C 381.283 -1.58719 0.98312 0
M  V30 3829 C 381.634 -1.90556 -0.467193 0
M  V30 3830 O 380.759 -1.69561 -1.34454 0
M  V30 3831 C 381.354 -2.88379 1.77828 0
M  V30 3832 C 379.913 -3.3965 1.62218 0
M  V30 3833 C 379.06 -2.13235 1.77274 0
M  V30 3834 H 382.011 -0.867359 1.32901 0
M  V30 3835 H 382.032 -3.58773 1.26737 0
M  V30 3836 H 381.544 -2.65176 2.83379 0
M  V30 3837 H 379.645 -3.67866 0.592036 0
M  V30 3838 H 379.758 -4.13475 2.42023 0
M  V30 3839 H 378.122 -2.24542 1.20221 0
M  V30 3840 H 378.905 -1.92487 2.8426 0
M  V30 3841 N 381.35 -0.985608 -1.22978 0
M  V30 3842 C 382.298 -0.522631 -2.26652 0
M  V30 3843 C 383.292 0.422998 -1.64034 0
M  V30 3844 O 384.498 0.296319 -1.77544 0
M  V30 3845 H 380.873 -0.150597 -0.736766 0
M  V30 3846 H 382.844 -1.40863 -2.63059 0
M  V30 3847 C 381.593 0.154238 -3.47358 0
M  V30 3848 H 380.916 -0.564329 -3.95797 0
M  V30 3849 H 382.356 0.441744 -4.21693 0
M  V30 3850 C 380.815 1.38719 -3.07016 0
M  V30 3851 O 381.345 2.48307 -3.15764 0
M  V30 3852 N 379.551 1.25975 -2.61875 0
M  V30 3853 H 379.098 0.368068 -2.54957 0
M  V30 3854 H 379.056 2.08578 -2.3525 0
M  V30 3855 N 382.828 1.3818 -0.7579 0
M  V30 3856 C 383.778 2.27741 -0.108674 0
M  V30 3857 C 384.762 1.45415 0.688709 0
M  V30 3858 O 385.954 1.68108 0.553956 0
M  V30 3859 C 383.083 3.34313 0.780367 0
M  V30 3860 C 382.169 4.24093 -0.0240977 0
M  V30 3861 N 382.56 4.9451 -1.06271 0
M  V30 3862 C 380.858 4.45542 0.202049 0
M  V30 3863 C 381.559 5.60675 -1.54979 0
M  V30 3864 N 380.535 5.36684 -0.864348 0
M  V30 3865 H 384.337 2.79649 -0.904071 0
M  V30 3866 H 381.851 1.51133 -0.594346 0
M  V30 3867 H 383.848 3.97368 1.26114 0
M  V30 3868 H 382.508 2.83962 1.57467 0
M  V30 3869 H 383.519 4.97345 -1.44459 0
M  V30 3870 H 380.196 4.06091 0.96935 0
M  V30 3871 H 381.586 6.26992 -2.41517 0
M  V30 3872 N 384.306 0.507319 1.49211 0
M  V30 3873 C 385.536 -0.0315292 2.06576 0
M  V30 3874 C 385.944 -1.30791 1.36713 0
M  V30 3875 O 385.287 -1.78324 0.441181 0
M  V30 3876 C 385.349 -0.349104 3.57801 0
M  V30 3877 C 385.013 0.830475 4.49391 0
M  V30 3878 C 386.01 1.72271 4.90529 0
M  V30 3879 C 383.695 1.03107 4.91604 0
M  V30 3880 C 385.689 2.79964 5.72625 0
M  V30 3881 C 383.376 2.11116 5.73475 0
M  V30 3882 C 384.374 2.99379 6.1389 0
M  V30 3883 O 384.062 4.05523 6.94123 0
M  V30 3884 H 383.794 0.0201002 0.675701 0
M  V30 3885 H 386.348 0.705737 1.92895 0
M  V30 3886 H 384.578 -1.14005 3.69513 0
M  V30 3887 H 386.267 -0.827319 3.97379 0
M  V30 3888 H 387.033 1.57958 4.58557 0
M  V30 3889 H 382.912 0.353417 4.59643 0
M  V30 3890 H 386.456 3.48884 6.04091 0
M  V30 3891 H 382.353 2.25421 6.0486 0
M  V30 3892 H 383.121 4.02953 7.1244 0
M  V30 3893 N 385.784 -1.5574 0.241426 0
M  V30 3894 C 387.009 -2.0366 -0.392111 0
M  V30 3895 C 387.434 -1.11969 -1.51144 0
M  V30 3896 O 386.792 -0.111594 -1.80956 0
M  V30 3897 C 386.84 -3.49638 -0.882371 0
M  V30 3898 O 385.944 -3.6108 -1.99235 0
M  V30 3899 H 385.285 -0.658379 -0.0862122 0
M  V30 3900 H 387.815 -2.01302 0.365881 0
M  V30 3901 H 387.825 -3.90351 -1.18702 0
M  V30 3902 H 386.5 -4.15852 -0.0632361 0
M  V30 3903 H 385.077 -3.32262 -1.69282 0
M  V30 3904 N 387.262 0.0317525 -1.57568 0
M  V30 3905 C 388.511 0.722131 -1.8833 0
M  V30 3906 C 388.824 1.76664 -0.839587 0
M  V30 3907 O 390.03 2.50942 -1.03635 0
M  V30 3908 C 388.486 1.33544 -3.34207 0
M  V30 3909 C 388.094 0.327415 -4.46802 0
M  V30 3910 C 389.838 2.00585 -3.7412 0
M  V30 3911 C 387.745 0.948915 -5.83738 0
M  V30 3912 H 386.675 0.273466 -0.702661 0
M  V30 3913 H 389.326 -0.0235811 -1.83485 0
M  V30 3914 H 387.708 2.13077 -3.33788 0
M  V30 3915 H 388.882 -0.441006 -4.58685 0
M  V30 3916 H 387.197 -0.240758 -4.15703 0
M  V30 3917 H 389.794 2.47932 -4.73744 0
M  V30 3918 H 390.137 2.82285 -3.05975 0
M  V30 3919 H 390.67 1.27831 -3.76702 0
M  V30 3920 H 387.409 0.171387 -6.55276 0
M  V30 3921 H 386.929 1.68724 -5.7558 0
M  V30 3922 H 388.608 1.45705 -6.3038 0
M  V30 3923 N 388.74 1.54641 0.303973 0
M  V30 3924 C 389.986 1.74038 1.04109 0
M  V30 3925 C 390.319 0.523051 1.87024 0
M  V30 3926 O 389.594 -0.479874 1.88487 0
M  V30 3927 C 389.877 3.02761 1.94955 0
M  V30 3928 C 389.73 4.34787 1.1524 0
M  V30 3929 C 391.049 3.27336 2.94175 0
M  V30 3930 H 388.168 0.63323 0.377079 0
M  V30 3931 H 390.81 1.87354 0.316001 0
M  V30 3932 H 388.96 2.9154 2.56782 0
M  V30 3933 H 390.632 4.57922 0.557236 0
M  V30 3934 H 388.875 4.31407 0.455053 0
M  V30 3935 H 389.546 5.21116 1.8205 0
M  V30 3936 H 392.022 3.38148 2.42477 0
M  V30 3937 H 390.898 4.18726 3.54908 0
M  V30 3938 H 391.159 2.45491 3.67677 0
M  V30 3939 N 390.218 -0.567019 1.47046 0
M  V30 3940 C 391.446 -1.35027 1.56765 0
M  V30 3941 C 391.861 -1.8758 0.214316 0
M  V30 3942 O 391.218 -1.64471 -0.790919 0
M  V30 3943 C 391.269 -2.52698 2.58507 0
M  V30 3944 O 390.99 -2.0232 3.88585 0
M  V30 3945 C 392.491 -3.45043 2.78316 0
M  V30 3946 H 389.711 -0.41195 0.529658 0
M  V30 3947 H 392.255 -0.687832 1.92585 0
M  V30 3948 H 390.41 -3.149 2.25648 0
M  V30 3949 H 390.824 -2.79068 4.44096 0
M  V30 3950 H 392.298 -4.2405 3.53391 0
M  V30 3951 H 392.775 -3.97971 1.85784 0
M  V30 3952 H 393.381 -2.88665 3.12334 0
M  V30 3953 N 391.696 -1.35014 -0.812953 0
M  V30 3954 C 392.944 -1.27678 -1.56661 0
M  V30 3955 C 393.265 0.150359 -1.94419 0
M  V30 3956 O 392.535 1.08532 -1.63088 0
M  V30 3957 H 391.115 -0.469602 -0.580933 0
M  V30 3958 H 393.777 -1.69043 -0.970076 0
M  V30 3959 H 392.873 -1.88833 -2.48492 0
M  V30 3960 N 393.175 1.03435 -1.18907 0
M  V30 3961 C 394.105 2.13503 -0.945448 0
M  V30 3962 C 395.086 1.69682 0.119189 0
M  V30 3963 O 396.271 1.94169 -0.034707 0
M  V30 3964 C 393.401 3.44004 -0.477316 0
M  V30 3965 C 392.355 4.0148 -1.48316 0
M  V30 3966 C 391.681 5.27537 -0.872311 0
M  V30 3967 C 392.981 4.36921 -2.86177 0
M  V30 3968 H 394.675 2.34141 -1.86597 0
M  V30 3969 H 392.221 1.12523 -0.898584 0
M  V30 3970 H 394.174 4.20372 -0.294204 0
M  V30 3971 H 392.898 3.23072 0.478786 0
M  V30 3972 H 391.557 3.27201 -1.65332 0
M  V30 3973 H 391.205 5.02917 0.0911752 0
M  V30 3974 H 390.905 5.66954 -1.54393 0
M  V30 3975 H 392.429 6.06576 -0.699871 0
M  V30 3976 H 393.843 5.04248 -2.72776 0
M  V30 3977 H 392.24 4.87405 -3.50081 0
M  V30 3978 H 393.31 3.46466 -3.39248 0
M  V30 3979 N 394.653 0.992116 1.22453 0
M  V30 3980 C 395.883 0.684949 1.94915 0
M  V30 3981 C 396.291 -0.754292 1.73514 0
M  V30 3982 O 395.634 -1.52056 1.03076 0
M  V30 3983 C 395.696 0.910054 3.47791 0
M  V30 3984 C 395.36 2.33363 3.92926 0
M  V30 3985 C 396.357 3.31308 4.00663 0
M  V30 3986 C 394.042 2.66785 4.25595 0
M  V30 3987 C 396.036 4.6075 4.40441 0
M  V30 3988 C 393.723 3.96446 4.65053 0
M  V30 3989 C 394.721 4.9324 4.72444 0
M  V30 3990 O 394.409 6.20584 5.1101 0
M  V30 3991 H 394.141 0.25258 0.62704 0
M  V30 3992 H 396.695 1.32939 1.56577 0
M  V30 3993 H 394.925 0.208443 3.86138 0
M  V30 3994 H 396.614 0.598257 4.01467 0
M  V30 3995 H 397.38 3.0682 3.75615 0
M  V30 3996 H 393.259 1.92148 4.19047 0
M  V30 3997 H 396.803 5.363 4.46126 0
M  V30 3998 H 392.7 4.20724 4.89552 0
M  V30 3999 H 393.468 6.24509 5.29085 0
M  V30 4000 N 396.131 -1.37776 0.765217 0
M  V30 4001 C 397.542 -1.82521 0.392819 0
M  V30 4002 C 397.893 -1.63789 -1.08017 0
M  V30 4003 O 397.018 -1.14542 -1.83601 0
M  V30 4004 C 397.613 -3.31358 0.706214 0
M  V30 4005 C 396.172 -3.74406 0.386952 0
M  V30 4006 C 395.319 -2.60394 0.953422 0
M  V30 4007 H 398.27 -1.2634 0.960412 0
M  V30 4008 H 398.291 -3.80498 -0.0114706 0
M  V30 4009 H 397.803 -3.44959 1.77833 0
M  V30 4010 H 395.904 -3.66377 -0.678112 0
M  V30 4011 H 396.017 -4.70749 0.890636 0
M  V30 4012 H 394.381 -2.51878 0.378064 0
M  V30 4013 H 395.164 -2.76791 2.03081 0
M  V30 4014 N 397.609 -0.515225 -1.4894 0
M  V30 4015 C 398.519 0.259774 -2.33157 0
M  V30 4016 C 399.535 0.953501 -1.45548 0
M  V30 4017 O 400.711 0.931735 -1.78552 0
M  V30 4018 C 397.776 1.30193 -3.21326 0
M  V30 4019 C 396.837 0.620129 -4.24797 0
M  V30 4020 C 396.07 1.61263 -5.08753 0
M  V30 4021 O 396.293 2.84389 -4.94448 0
M  V30 4022 O 395.227 1.16013 -5.90614 0
M  V30 4023 H 399.053 -0.429932 -3.00641 0
M  V30 4024 H 396.638 -0.276346 -1.46822 0
M  V30 4025 H 398.52 1.90455 -3.75905 0
M  V30 4026 H 397.195 1.97431 -2.56521 0
M  V30 4027 H 396.102 -0.0226019 -3.74093 0
M  V30 4028 H 397.435 -0.0100493 -4.92199 0
M  V30 4029 N 399.087 1.5561 -0.249682 0
M  V30 4030 C 400.312 2.03865 0.381305 0
M  V30 4031 C 400.737 1.12769 1.50548 0
M  V30 4032 O 400.095 0.121189 1.80895 0
M  V30 4033 C 400.143 3.50101 0.863816 0
M  V30 4034 O 399.247 3.62132 1.97318 0
M  V30 4035 H 398.588 0.658827 0.0827194 0
M  V30 4036 H 401.118 2.01105 -0.376552 0
M  V30 4037 H 401.128 3.90975 1.1663 0
M  V30 4038 H 399.803 4.1588 0.0411816 0
M  V30 4039 H 398.38 3.33155 1.67517 0
M  V30 4040 N 400.565 -0.0233959 1.57583 0
M  V30 4041 C 401.515 -1.03023 2.03397 0
M  V30 4042 C 402.499 -1.31701 0.924315 0
M  V30 4043 O 403.691 -1.31191 1.18819 0
M  V30 4044 C 400.82 -2.32961 2.52159 0
M  V30 4045 C 399.906 -2.07349 3.69956 0
M  V30 4046 N 400.297 -1.51814 4.82479 0
M  V30 4047 C 398.595 -2.37606 3.77438 0
M  V30 4048 C 399.296 -1.42136 5.64068 0
M  V30 4049 N 398.272 -1.89891 5.09355 0
M  V30 4050 H 402.074 -0.594962 2.87815 0
M  V30 4051 H 399.588 -0.229586 1.60769 0
M  V30 4052 H 401.585 -3.05906 2.83244 0
M  V30 4053 H 400.245 -2.77162 1.69149 0
M  V30 4054 H 401.256 -1.20008 5.03804 0
M  V30 4055 H 397.933 -2.84842 3.05239 0
M  V30 4056 H 399.323 -0.996405 6.64471 0
M  V30 4057 N 402.043 -1.548 -0.295768 0
M  V30 4058 C 403.291 -1.73985 -1.02828 0
M  V30 4059 C 403.612 -0.531406 -1.87619 0
M  V30 4060 O 402.882 0.454221 -1.90561 0
M  V30 4061 H 401.462 -0.641556 -0.382642 0
M  V30 4062 H 404.124 -1.92163 -0.325489 0
M  V30 4063 H 403.22 -2.63129 -1.67838 0
M  V30 4064 N 403.521 0.559213 -1.47345 0
M  V30 4065 C 404.77 1.31281 -1.53128 0
M  V30 4066 C 405.083 1.94602 -0.197344 0
M  V30 4067 O 406.289 2.71173 -0.133154 0
M  V30 4068 C 404.745 2.38051 -2.69925 0
M  V30 4069 C 404.353 1.8093 -4.0984 0
M  V30 4070 C 406.097 3.14604 -2.84999 0
M  V30 4071 C 404.004 2.85468 -5.1794 0
M  V30 4072 H 402.934 0.493614 -0.569966 0
M  V30 4073 H 405.585 0.594155 -1.73615 0
M  V30 4074 H 403.967 3.12822 -2.42814 0
M  V30 4075 H 405.141 1.12544 -4.46845 0
M  V30 4076 H 403.456 1.16967 -3.99634 0
M  V30 4077 H 406.053 3.92666 -3.62929 0
M  V30 4078 H 406.396 3.68665 -1.93369 0
M  V30 4079 H 406.929 2.46945 -3.1187 0
M  V30 4080 H 403.668 2.36264 -6.1144 0
M  V30 4081 H 403.188 3.52269 -4.85455 0
M  V30 4082 H 404.867 3.48996 -5.44803 0
M  V30 4083 N 404.999 1.35443 0.805782 0
M  V30 4084 C 406.248 1.28097 1.55801 0
M  V30 4085 C 406.561 -0.142428 1.95081 0
M  V30 4086 O 407.767 -0.33817 2.69386 0
M  V30 4087 C 406.223 2.24653 2.81174 0
M  V30 4088 C 405.831 3.72342 2.49129 0
M  V30 4089 C 407.575 2.2625 3.59181 0
M  V30 4090 C 405.482 4.60719 3.70799 0
M  V30 4091 H 404.412 0.475937 0.584808 0
M  V30 4092 H 407.063 1.60712 0.885661 0
M  V30 4093 H 405.445 1.85011 3.50124 0
M  V30 4094 H 406.619 4.20624 1.88181 0
M  V30 4095 H 404.934 3.73361 1.84366 0
M  V30 4096 H 407.531 2.89495 4.49552 0
M  V30 4097 H 407.874 1.26647 3.96568 0
M  V30 4098 H 408.407 2.64426 2.97193 0
M  V30 4099 H 405.146 5.61324 3.3852 0
M  V30 4100 H 404.666 4.17163 4.3097 0
M  V30 4101 H 406.345 4.76182 4.38018 0
M  V30 4102 N 406.477 -1.02803 1.19454 0
M  V30 4103 C 407.754 -1.73299 0.907013 0
M  V30 4104 C 408.134 -2.02772 -0.587086 0
M  V30 4105 O 407.482 -1.68304 -1.54551 0
M  V30 4106 C 407.692 -3.00912 1.76785 0
M  V30 4107 C 409.04 -3.74403 2.00268 0
M  V30 4108 O 410.064 -3.10841 1.73943 0
M  V30 4109 O 408.923 -4.88675 2.4466 0
M  V30 4110 H 406.017 -0.754727 0.338106 0
M  V30 4111 H 408.563 -1.08754 1.30271 0
M  V30 4112 H 407.335 -2.75366 2.7801 0
M  V30 4113 H 406.958 -3.73197 1.37149 0
M  V30 4114 N 407.956 -0.998596 -1.21925 0
M  V30 4115 C 408.904 -0.546641 -2.26085 0
M  V30 4116 C 409.898 0.405576 -1.64473 0
M  V30 4117 O 411.104 0.277471 -1.77849 0
M  V30 4118 H 407.479 -0.158403 -0.735127 0
M  V30 4119 H 409.45 -1.43645 -2.61551 0
M  V30 4120 C 408.199 0.117388 -3.47502 0
M  V30 4121 H 407.522 -0.606277 -3.95176 0
M  V30 4122 H 408.962 0.396993 -4.22137 0
M  V30 4123 C 407.421 1.35455 -3.0847 0
M  V30 4124 O 407.951 2.44944 -3.18379 0
M  V30 4125 N 406.157 1.23191 -2.63196 0
M  V30 4126 H 405.704 0.341006 -2.55333 0
M  V30 4127 H 405.662 2.06071 -2.37449 0
M  V30 4128 N 409.434 1.37368 -0.772513 0
M  V30 4129 C 410.381 2.30262 -0.157488 0
M  V30 4130 C 411.351 1.51137 0.688965 0
M  V30 4131 O 412.536 1.79704 0.641168 0
M  V30 4132 C 409.676 3.37611 0.715045 0
M  V30 4133 C 408.789 4.31746 -0.148098 0
M  V30 4134 C 407.924 5.26171 0.729213 0
M  V30 4135 C 406.963 6.11948 -0.136418 0
M  V30 4136 N 406.1 6.98613 0.698914 0
M  V30 4137 H 410.94 2.82277 -0.955179 0
M  V30 4138 H 408.477 1.38957 -0.482631 0
M  V30 4139 H 410.435 3.98479 1.23575 0
M  V30 4140 H 409.065 2.86959 1.47833 0
M  V30 4141 H 408.117 3.72178 -0.786613 0
M  V30 4142 H 409.429 4.92084 -0.81579 0
M  V30 4143 H 408.583 5.92247 1.31637 0
M  V30 4144 H 407.322 4.66246 1.43059 0
M  V30 4145 H 406.327 5.4485 -0.736102 0
M  V30 4146 H 407.552 6.73945 -0.835134 0
M  V30 4147 H 405.498 6.41215 1.38489 0
M  V30 4148 H 405.415 7.55948 0.0885358 0
M  V30 4149 H 406.683 7.69077 1.27044 0
M  V30 4150 N 410.912 0.523116 1.48665 0
M  V30 4151 C 411.845 -0.290518 2.26343 0
M  V30 4152 C 412.823 -0.950913 1.31895 0
M  V30 4153 O 414.007 -0.976662 1.61225 0
M  V30 4154 C 411.134 -1.41088 3.07915 0
M  V30 4155 C 410.18 -0.862597 4.17686 0
M  V30 4156 S 411.013 0.264135 5.34848 0
M  V30 4157 C 412.169 -0.858864 6.19979 0
M  V30 4158 H 412.402 0.368726 2.95005 0
M  V30 4159 H 409.935 0.30878 1.51281 0
M  V30 4160 H 411.893 -2.0527 3.55492 0
M  V30 4161 H 410.554 -2.04182 2.38681 0
M  V30 4162 H 409.747 -1.70287 4.74361 0
M  V30 4163 H 409.349 -0.297595 3.72814 0
M  V30 4164 H 411.641 -1.7591 6.54264 0
M  V30 4165 H 412.584 -0.330244 7.07329 0
M  V30 4166 H 412.992 -1.13617 5.52948 0
M  V30 4167 N 412.39 -1.55475 0.257931 0
M  V30 4168 C 413.62 -2.03314 -0.367026 0
M  V30 4169 C 414.028 -1.13625 -1.51281 0
M  V30 4170 O 413.371 -0.145334 -1.83124 0
M  V30 4171 C 413.433 -3.47362 -0.926284 0
M  V30 4172 C 413.097 -4.56914 0.0886584 0
M  V30 4173 C 414.094 -5.12013 0.902123 0
M  V30 4174 C 411.779 -5.01827 0.217936 0
M  V30 4175 C 413.773 -6.10529 1.83122 0
M  V30 4176 C 411.46 -6.00172 1.15052 0
M  V30 4177 C 412.458 -6.54402 1.95568 0
M  V30 4178 O 412.146 -7.50827 2.87253 0
M  V30 4179 H 411.878 -0.669976 -0.0900443 0
M  V30 4180 H 414.432 -2.01804 0.382673 0
M  V30 4181 H 412.662 -3.46056 -1.72575 0
M  V30 4182 H 414.351 -3.78637 -1.46249 0
M  V30 4183 H 415.117 -4.78139 0.812891 0
M  V30 4184 H 410.996 -4.59272 -0.398721 0
M  V30 4185 H 414.54 -6.52783 2.46008 0
M  V30 4186 H 410.437 -6.33465 1.24064 0
M  V30 4187 H 411.205 -7.68483 2.81739 0
M  V30 4188 N 413.868 0.0150385 -1.57593 0
M  V30 4189 C 415.145 0.7392 -1.81094 0
M  V30 4190 C 415.525 1.92817 -0.859344 0
M  V30 4191 O 414.873 2.28301 0.095362 0
M  V30 4192 C 415.083 1.15907 -3.29191 0
M  V30 4193 C 416.431 1.56918 -3.9454 0
M  V30 4194 O 417.455 1.25328 -3.33424 0
M  V30 4195 O 416.314 2.15604 -5.02173 0
M  V30 4196 H 413.408 0.358631 -0.745193 0
M  V30 4197 H 415.954 -0.00926156 -1.69697 0
M  V30 4198 H 414.726 0.310921 -3.90063 0
M  V30 4199 H 414.349 1.96711 -3.45529 0
M  V30 4200 N 415.346 1.54954 0.287554 0
M  V30 4201 C 416.757 1.65732 0.859634 0
M  V30 4202 C 417.108 0.574767 1.87592 0
M  V30 4203 O 416.233 -0.286299 2.14498 0
M  V30 4204 C 416.828 3.00438 1.56597 0
M  V30 4205 C 415.387 3.13292 2.08627 0
M  V30 4206 C 414.534 2.61473 0.923416 0
M  V30 4207 H 417.485 1.5857 0.0642338 0
M  V30 4208 H 417.506 2.92613 2.43224 0
M  V30 4209 H 417.018 3.79207 0.826053 0
M  V30 4210 H 415.119 2.39268 2.85625 0
M  V30 4211 H 415.232 4.19647 2.31157 0
M  V30 4212 H 413.596 2.18264 1.31275 0
M  V30 4213 H 414.379 3.42733 0.197241 0
M  V30 4214 N 416.824 -0.551391 1.4764 0
M  V30 4215 C 417.771 -1.65796 1.60563 0
M  V30 4216 C 418.741 -1.59932 0.448428 0
M  V30 4217 O 419.926 -1.78679 0.669222 0
M  V30 4218 C 417.066 -3.04108 1.63133 0
M  V30 4219 C 416.179 -3.20365 2.89811 0
M  V30 4220 C 415.314 -4.49109 2.8368 0
M  V30 4221 C 414.353 -4.58819 4.05156 0
M  V30 4222 N 413.49 -5.78926 3.97227 0
M  V30 4223 H 418.33 -1.54088 2.5507 0
M  V30 4224 H 415.867 -0.75052 1.26513 0
M  V30 4225 H 417.825 -3.84207 1.62606 0
M  V30 4226 H 416.455 -3.14637 0.721341 0
M  V30 4227 H 415.507 -2.33659 3.00179 0
M  V30 4228 H 416.819 -3.23402 3.79753 0
M  V30 4229 H 415.973 -5.37475 2.81434 0
M  V30 4230 H 414.712 -4.4856 1.91431 0
M  V30 4231 H 413.717 -3.68864 4.077 0
M  V30 4232 H 414.942 -4.61124 4.98539 0
M  V30 4233 H 412.888 -5.79314 3.07785 0
M  V30 4234 H 412.805 -5.83367 4.80853 0
M  V30 4235 H 414.073 -6.69637 3.99007 0
M  V30 4236 N 418.302 -1.35869 -0.798587 0
M  V30 4237 C 419.235 -1.23801 -1.91699 0
M  V30 4238 C 420.213 -0.124143 -1.62125 0
M  V30 4239 O 421.397 -0.293656 -1.86199 0
M  V30 4240 C 418.524 -0.908063 -3.263 0
M  V30 4241 C 417.57 -2.0351 -3.74815 0
M  V30 4242 S 418.403 -3.65183 -3.91665 0
M  V30 4243 C 419.559 -3.34283 -5.29156 0
M  V30 4244 H 419.792 -2.18466 -2.01643 0
M  V30 4245 H 417.325 -1.21178 -0.956833 0
M  V30 4246 H 419.283 -0.724506 -4.04056 0
M  V30 4247 H 417.944 0.0206584 -3.14093 0
M  V30 4248 H 417.137 -1.75858 -4.72324 0
M  V30 4249 H 416.739 -2.1774 -3.04081 0
M  V30 4250 H 419.031 -2.87607 -6.13424 0
M  V30 4251 H 419.974 -4.31022 -5.61806 0
M  V30 4252 H 420.382 -2.69854 -4.95822 0
M  V30 4253 N 419.78 1.02168 -1.19998 0
M  V30 4254 C 420.728 2.12717 -0.940967 0
M  V30 4255 C 421.722 1.69069 0.105841 0
M  V30 4256 O 422.928 1.79946 -0.0440583 0
M  V30 4257 H 419.303 0.695108 -0.28693 0
M  V30 4258 H 421.274 2.3175 -1.87975 0
M  V30 4259 C 420.023 3.44027 -0.504049 0
M  V30 4260 H 419.346 3.78036 -1.30112 0
M  V30 4261 H 420.786 4.22452 -0.361991 0
M  V30 4262 C 419.245 3.27678 0.782878 0
M  V30 4263 O 419.775 3.56949 1.84256 0
M  V30 4264 N 417.981 2.80943 0.742921 0
M  V30 4265 H 417.528 2.57322 -0.119687 0
M  V30 4266 H 417.486 2.70385 1.60435 0
M  V30 4267 N 421.258 1.00505 1.21394 0
M  V30 4268 C 422.221 0.570459 2.21987 0
M  V30 4269 C 423.221 -0.353211 1.56873 0
M  V30 4270 O 424.411 -0.14349 1.73608 0
M  V30 4271 C 421.543 -0.168555 3.40483 0
M  V30 4272 H 422.736 1.46021 2.6195 0
M  V30 4273 H 420.289 0.793565 1.34656 0
M  V30 4274 H 421.024 -1.07374 3.06009 0
M  V30 4275 H 420.809 0.494823 3.88965 0
M  V30 4276 H 422.299 -0.460362 4.15055 0
M  V30 4277 N 422.737 -1.36956 0.779787 0
M  V30 4278 C 423.962 -2.04283 0.358224 0
M  V30 4279 C 424.387 -1.58422 -1.01411 0
M  V30 4280 O 423.745 -0.748179 -1.65142 0
M  V30 4281 C 423.793 -3.58152 0.419479 0
M  V30 4282 O 422.897 -4.08342 -0.577142 0
M  V30 4283 H 422.238 -0.645967 0.153698 0
M  V30 4284 H 424.768 -1.75108 1.05822 0
M  V30 4285 H 424.778 -4.07041 0.279636 0
M  V30 4286 H 423.453 -3.90886 1.42061 0
M  V30 4287 H 422.03 -3.70751 -0.399755 0
M  V30 4288 N 424.215 -0.530993 -1.48385 0
M  V30 4289 C 425.462 0.0027373 -2.025 0
M  V30 4290 C 425.79 1.34186 -1.40799 0
M  V30 4291 O 425.045 1.88 -0.543544 0
M  V30 4292 C 425.344 0.172742 -3.56982 0
M  V30 4293 C 425.01 -1.09215 -4.37473 0
M  V30 4294 C 423.672 -1.43881 -4.59186 0
M  V30 4295 C 426.024 -1.93153 -4.84088 0
M  V30 4296 C 423.352 -2.62381 -5.2476 0
M  V30 4297 C 425.704 -3.10833 -5.50968 0
M  V30 4298 C 424.368 -3.45843 -5.70919 0
M  V30 4299 H 423.638 0.00100165 -0.740999 0
M  V30 4300 H 426.285 -0.697219 -1.78357 0
M  V30 4301 H 424.59 0.955473 -3.79971 0
M  V30 4302 H 426.287 0.600642 -3.96476 0
M  V30 4303 H 422.877 -0.812177 -4.20834 0
M  V30 4304 H 427.061 -1.67683 -4.67115 0
M  V30 4305 H 422.317 -2.89707 -5.38405 0
M  V30 4306 H 426.491 -3.7618 -5.86056 0
M  V30 4307 H 424.118 -4.37764 -6.21503 0
M  V30 4308 N 425.693 1.55336 -0.266172 0
M  V30 4309 C 426.918 2.04258 0.359661 0
M  V30 4310 C 427.343 1.14359 1.49344 0
M  V30 4311 O 426.701 0.140369 1.80756 0
M  V30 4312 C 426.749 3.50997 0.826635 0
M  V30 4313 O 425.853 3.64204 1.93466 0
M  V30 4314 H 425.194 0.659668 0.075727 0
M  V30 4315 H 427.724 2.00694 -0.39786 0
M  V30 4316 H 427.734 3.9219 1.12477 0
M  V30 4317 H 426.409 4.159 -0.00293032 0
M  V30 4318 H 424.986 3.34913 1.63974 0
M  V30 4319 N 427.171 -0.0066808 1.57599 0
M  V30 4320 C 428.101 -0.999296 2.11036 0
M  V30 4321 C 429.082 -1.36278 1.01795 0
M  V30 4322 O 430.267 -1.4477 1.29442 0
M  V30 4323 C 427.397 -2.29328 2.60818 0
M  V30 4324 C 426.351 -2.07159 3.74525 0
M  V30 4325 C 425.677 -3.42512 4.10596 0
M  V30 4326 C 426.977 -1.43959 5.02069 0
M  V30 4327 H 428.671 -0.554382 2.94223 0
M  V30 4328 H 426.217 -0.265221 1.41536 0
M  V30 4329 H 428.17 -2.99117 2.96828 0
M  V30 4330 H 426.894 -2.7592 1.74745 0
M  V30 4331 H 425.553 -1.39797 3.38899 0
M  V30 4332 H 425.201 -3.86795 3.21556 0
M  V30 4333 H 424.901 -3.28498 4.87199 0
M  V30 4334 H 426.425 -4.13628 4.4916 0
M  V30 4335 H 427.839 -2.03696 5.35893 0
M  V30 4336 H 426.236 -1.40452 5.83432 0
M  V30 4337 H 427.306 -0.407992 4.83181 0
M  V30 4338 N 428.649 -1.55105 -0.279332 0
M  V30 4339 C 429.596 -1.8755 -1.34513 0
M  V30 4340 C 430.566 -0.726384 -1.49375 0
M  V30 4341 O 431.751 -0.977063 -1.63884 0
M  V30 4342 C 428.891 -2.14738 -2.70151 0
M  V30 4343 C 428.004 -3.42285 -2.63562 0
M  V30 4344 C 427.139 -3.59206 -3.91337 0
M  V30 4345 C 426.178 -4.80467 -3.79233 0
M  V30 4346 N 425.315 -4.94079 -4.98829 0
M  V30 4347 H 430.155 -2.78456 -1.06143 0
M  V30 4348 H 427.692 -1.37867 -0.512936 0
M  V30 4349 H 429.65 -2.28501 -3.49061 0
M  V30 4350 H 428.28 -1.27075 -2.96735 0
M  V30 4351 H 427.332 -3.37029 -1.76397 0
M  V30 4352 H 428.644 -4.31328 -2.50515 0
M  V30 4353 H 427.798 -3.72751 -4.78687 0
M  V30 4354 H 426.537 -2.68337 -4.07243 0
M  V30 4355 H 425.542 -4.66932 -2.90266 0
M  V30 4356 H 426.767 -5.72765 -3.64852 0
M  V30 4357 H 424.713 -4.06139 -5.15158 0
M  V30 4358 H 424.63 -5.77156 -4.8829 0
M  V30 4359 H 425.898 -5.12003 -5.8777 0
M  V30 4360 N 430.127 0.543554 -1.4793 0
M  V30 4361 C 431.352 1.32995 -1.59145 0
M  V30 4362 C 431.777 1.86472 -0.246956 0
M  V30 4363 O 431.135 1.63696 0.779324 0
M  V30 4364 C 431.183 2.46623 -2.63077 0
M  V30 4365 O 430.287 3.49261 -2.19295 0
M  V30 4366 H 429.628 0.394472 -0.534124 0
M  V30 4367 H 432.158 0.655489 -1.93816 0
M  V30 4368 H 432.168 2.93001 -2.83926 0
M  V30 4369 H 430.843 2.07059 -3.60693 0
M  V30 4370 H 429.42 3.09094 -2.08603 0
M  V30 4371 N 431.605 1.3629 0.791371 0
M  V30 4372 C 432.552 1.30458 1.90393 0
M  V30 4373 C 433.522 0.173632 1.6519 0
M  V30 4374 O 434.707 0.35983 1.87376 0
M  V30 4375 C 431.847 1.09777 3.27174 0
M  V30 4376 C 430.96 2.31929 3.64462 0
M  V30 4377 C 430.095 2.04276 4.90352 0
M  V30 4378 C 429.134 3.224 5.20312 0
M  V30 4379 N 428.271 2.94424 6.37385 0
M  V30 4380 H 433.111 2.25589 1.94714 0
M  V30 4381 H 430.648 1.12122 0.952216 0
M  V30 4382 H 432.606 0.958133 4.06049 0
M  V30 4383 H 431.236 0.183014 3.22281 0
M  V30 4384 H 430.288 2.56703 2.80727 0
M  V30 4385 H 431.6 3.20085 3.82553 0
M  V30 4386 H 430.754 1.87231 5.77087 0
M  V30 4387 H 429.493 1.13428 4.74326 0
M  V30 4388 H 428.498 3.40005 4.32061 0
M  V30 4389 H 429.723 4.14071 5.38258 0
M  V30 4390 H 427.669 2.06185 6.22755 0
M  V30 4391 H 427.586 3.76118 6.55798 0
M  V30 4392 H 428.854 2.80953 7.27108 0
M  V30 4393 N 433.083 -1.0153 1.20538 0
M  V30 4394 C 433.993 -2.13557 0.971113 0
M  V30 4395 C 435.009 -1.73845 -0.0734366 0
M  V30 4396 O 436.185 -2.01075 0.114299 0
M  V30 4397 C 433.25 -3.42661 0.527639 0
M  V30 4398 C 432.311 -3.96608 1.64319 0
M  V30 4399 C 431.544 -5.1955 1.22078 0
M  V30 4400 O 431.767 -5.70329 0.0900198 0
M  V30 4401 O 430.701 -5.66681 2.02871 0
M  V30 4402 H 434.527 -2.3619 1.90913 0
M  V30 4403 H 432.112 -1.11946 0.989362 0
M  V30 4404 H 433.994 -4.20404 0.289621 0
M  V30 4405 H 432.669 -3.21441 -0.381779 0
M  V30 4406 H 431.576 -3.20139 1.93551 0
M  V30 4407 H 432.909 -4.22219 2.52966 0
M  V30 4408 N 434.561 -1.01147 -1.20859 0
M  V30 4409 C 435.508 -0.577354 -2.23462 0
M  V30 4410 C 436.478 0.399922 -1.61214 0
M  V30 4411 O 437.663 0.300515 -1.88419 0
M  V30 4412 C 434.803 0.083372 -3.44999 0
M  V30 4413 C 433.916 -0.937856 -4.21697 0
M  V30 4414 C 433.051 -0.248717 -5.30617 0
M  V30 4415 C 432.09 -1.25705 -5.99053 0
M  V30 4416 N 431.227 -0.594939 -6.99575 0
M  V30 4417 H 436.067 -1.45695 -2.59956 0
M  V30 4418 H 433.604 -0.729428 -1.27741 0
M  V30 4419 H 435.562 0.483535 -4.14388 0
M  V30 4420 H 434.192 0.926645 -3.09214 0
M  V30 4421 H 433.244 -1.45622 -3.51423 0
M  V30 4422 H 434.556 -1.70493 -4.68757 0
M  V30 4423 H 433.71 0.207215 -6.06346 0
M  V30 4424 H 432.449 0.55071 -4.84581 0
M  V30 4425 H 431.454 -1.72343 -5.2209 0
M  V30 4426 H 432.679 -2.05767 -6.47176 0
M  V30 4427 H 430.625 0.184713 -6.5574 0
M  V30 4428 H 430.542 -1.30017 -7.44736 0
M  V30 4429 H 431.81 -0.162427 -7.79331 0
M  V30 4430 N 436.039 1.36541 -0.78704 0
M  V30 4431 C 437.286 1.99304 -0.358341 0
M  V30 4432 C 437.614 1.62467 1.06933 0
M  V30 4433 O 436.869 0.870019 1.75297 0
M  V30 4434 C 437.168 3.54343 -0.466485 0
M  V30 4435 C 436.834 4.10993 -1.85461 0
M  V30 4436 C 435.496 4.26177 -2.23443 0
M  V30 4437 C 437.848 4.41895 -2.76366 0
M  V30 4438 C 435.176 4.69573 -3.51736 0
M  V30 4439 C 437.528 4.86722 -4.04084 0
M  V30 4440 C 436.192 5.00112 -4.42091 0
M  V30 4441 H 435.462 0.729306 -0.131126 0
M  V30 4442 H 438.109 1.63068 -1.00404 0
M  V30 4443 H 436.414 3.90918 0.262719 0
M  V30 4444 H 438.111 4.00833 -0.115854 0
M  V30 4445 H 434.701 3.99612 -1.54946 0
M  V30 4446 H 438.885 4.29735 -2.48277 0
M  V30 4447 H 434.141 4.78127 -3.81057 0
M  V30 4448 H 438.315 5.09598 -4.7464 0
M  V30 4449 H 435.942 5.33498 -5.41557 0
M  V30 4450 N 437.518 0.538854 1.48102 0
M  V30 4451 C 438.466 -0.232325 2.31437 0
M  V30 4452 C 439.46 -0.927004 1.41785 0
M  V30 4453 O 440.666 -0.850378 1.58646 0
M  V30 4454 H 437.041 -0.0937916 0.746128 0
M  V30 4455 H 439.012 0.489986 2.9435 0
M  V30 4456 C 437.761 -1.26074 3.24038 0
M  V30 4457 H 437.084 -0.735609 3.92974 0
M  V30 4458 H 438.524 -1.77157 3.85216 0
M  V30 4459 C 436.983 -2.29902 2.46265 0
M  V30 4460 O 437.513 -3.36502 2.19384 0
M  V30 4461 N 435.719 -2.03348 2.07601 0
M  V30 4462 H 435.266 -1.16675 2.29662 0
M  V30 4463 H 435.224 -2.73038 1.55877 0
M  V30 4464 N 438.996 -1.55193 0.274407 0
M  V30 4465 C 440.407 -1.85358 -0.223488 0
M  V30 4466 C 440.758 -1.19642 -1.555 0
M  V30 4467 O 439.883 -0.484498 -2.10907 0
M  V30 4468 C 440.478 -3.36282 -0.412285 0
M  V30 4469 C 439.037 -3.66574 -0.854413 0
M  V30 4470 C 438.184 -2.7725 0.0527056 0
M  V30 4471 H 441.135 -1.50743 0.496215 0
M  V30 4472 H 441.156 -3.59349 -1.25094 0
M  V30 4473 H 440.668 -3.84083 0.556965 0
M  V30 4474 H 438.769 -3.24273 -1.83516 0
M  V30 4475 H 438.882 -4.74073 -0.692226 0
M  V30 4476 H 437.246 -2.50447 -0.463484 0
M  V30 4477 H 438.029 -3.27865 1.01783 0
M  V30 4478 N 440.474 -0.00167713 -1.576 0
M  V30 4479 C 441.384 1.00548 -2.1196 0
M  V30 4480 C 442.4 1.3758 -1.06526 0
M  V30 4481 O 443.576 1.46278 -1.38436 0
M  V30 4482 C 440.641 2.27809 -2.6135 0
M  V30 4483 C 439.702 1.97074 -3.81393 0
M  V30 4484 C 438.935 3.18267 -4.28417 0
M  V30 4485 O 439.158 4.30009 -3.74765 0
M  V30 4486 O 438.092 3.02167 -5.20556 0
M  V30 4487 H 441.918 0.573373 -2.98238 0
M  V30 4488 H 439.503 0.217255 -1.47812 0
M  V30 4489 H 441.385 3.02568 -2.93309 0
M  V30 4490 H 440.06 2.70254 -1.78169 0
M  V30 4491 H 438.967 1.19785 -3.54404 0
M  V30 4492 H 440.3 1.59464 -4.65652 0
M  V30 4493 N 441.952 1.55251 0.271103 0
M  V30 4494 C 443.198 1.7713 0.999832 0
M  V30 4495 C 443.553 0.56659 1.83868 0
M  V30 4496 O 442.846 -0.44069 1.86463 0
M  V30 4497 C 443.04 3.01879 1.91321 0
M  V30 4498 C 442.869 4.34368 1.16426 0
M  V30 4499 C 441.639 4.97593 0.879169 0
M  V30 4500 C 443.837 5.1131 0.553749 0
M  V30 4501 N 441.819 6.13813 0.103618 0
M  V30 4502 C 443.19 6.19938 -0.0875442 0
M  V30 4503 C 445.245 4.95754 0.461782 0
M  V30 4504 C 443.948 7.14703 -0.811942 0
M  V30 4505 C 445.974 5.90875 -0.249027 0
M  V30 4506 C 445.336 6.98893 -0.879051 0
M  V30 4507 H 441.435 0.700407 0.347784 0
M  V30 4508 H 444.019 1.92744 0.275314 0
M  V30 4509 H 442.19 2.87637 2.60997 0
M  V30 4510 H 443.922 3.12154 2.57569 0
M  V30 4511 H 440.677 4.58538 1.18491 0
M  V30 4512 H 441.101 6.76455 -0.271543 0
M  V30 4513 H 445.743 4.12342 0.934552 0
M  V30 4514 H 443.461 7.97634 -1.29639 0
M  V30 4515 H 447.047 5.80916 -0.320529 0
M  V30 4516 H 445.927 7.71231 -1.42031 0
M  V30 4517 N 443.43 -0.535701 1.48216 0
M  V30 4518 C 444.66 -1.3148 1.59363 0
M  V30 4519 C 445.068 -1.8753 0.250844 0
M  V30 4520 O 444.411 -1.66821 -0.769174 0
M  V30 4521 C 444.473 -2.50731 2.57632 0
M  V30 4522 C 444.137 -2.15811 4.02833 0
M  V30 4523 C 445.134 -1.71822 4.90686 0
M  V30 4524 C 442.819 -2.26509 4.48329 0
M  V30 4525 C 444.813 -1.3899 6.22062 0
M  V30 4526 C 442.5 -1.93289 5.79726 0
M  V30 4527 C 443.498 -1.49599 6.66415 0
M  V30 4528 O 443.186 -1.16812 7.95368 0
M  V30 4529 H 442.918 -0.406315 0.540263 0
M  V30 4530 H 445.472 -0.653569 1.94725 0
M  V30 4531 H 443.702 -3.19817 2.1738 0
M  V30 4532 H 445.391 -3.12797 2.58675 0
M  V30 4533 H 446.157 -1.63031 4.56778 0
M  V30 4534 H 442.036 -2.59471 3.81045 0
M  V30 4535 H 445.58 -1.04816 6.89681 0
M  V30 4536 H 441.477 -2.01718 6.13172 0
M  V30 4537 H 442.245 -1.30259 8.08069 0
M  V30 4538 N 444.908 -1.36708 -0.784132 0
M  V30 4539 C 445.855 -1.31466 -1.89698 0
M  V30 4540 C 446.825 -0.18239 -1.65096 0
M  V30 4541 O 448.01 -0.369762 -1.87183 0
M  V30 4542 C 445.15 -1.1151 -3.26588 0
M  V30 4543 C 444.263 -2.33859 -3.63227 0
M  V30 4544 C 443.398 -2.06873 -4.89262 0
M  V30 4545 C 442.437 -3.25154 -5.18595 0
M  V30 4546 N 441.574 -2.978 -6.35814 0
M  V30 4547 H 446.414 -2.26619 -1.93515 0
M  V30 4548 H 443.951 -1.12625 -0.946256 0
M  V30 4549 H 445.909 -0.979653 -4.05535 0
M  V30 4550 H 444.539 -0.200103 -3.22179 0
M  V30 4551 H 443.591 -2.58188 -2.79362 0
M  V30 4552 H 444.903 -3.22109 -3.8085 0
M  V30 4553 H 444.057 -1.90289 -5.76086 0
M  V30 4554 H 442.796 -1.15942 -4.73718 0
M  V30 4555 H 441.801 -3.42292 -4.30251 0
M  V30 4556 H 443.026 -4.1692 -5.36055 0
M  V30 4557 H 440.972 -2.09485 -6.21653 0
M  V30 4558 H 440.889 -3.7959 -6.53794 0
M  V30 4559 H 442.157 -2.84805 -7.25607 0
M  V30 4560 N 446.386 1.0089 -1.21074 0
M  V30 4561 C 447.634 1.74262 -1.02358 0
M  V30 4562 C 447.955 1.89869 0.444393 0
M  V30 4563 O 447.225 1.44677 1.32081 0
M  V30 4564 H 445.805 0.645615 -0.375754 0
M  V30 4565 H 448.467 1.21596 -1.52317 0
M  V30 4566 H 447.563 2.74328 -1.4883 0
M  V30 4567 N 447.864 1.01787 1.20321 0
M  V30 4568 C 448.774 0.598898 2.26827 0
M  V30 4569 C 449.79 -0.36418 1.70146 0
M  V30 4570 O 450.966 -0.224812 2.00141 0
M  V30 4571 C 448.031 -0.0549769 3.46656 0
M  V30 4572 C 447.092 0.954205 4.18561 0
M  V30 4573 C 446.325 0.331439 5.3267 0
M  V30 4574 O 446.548 -0.86851 5.63749 0
M  V30 4575 O 445.482 1.0488 5.92692 0
M  V30 4576 H 449.308 1.48562 2.64883 0
M  V30 4577 H 446.893 0.787434 1.26964 0
M  V30 4578 H 448.775 -0.420102 4.19301 0
M  V30 4579 H 447.45 -0.915876 3.10473 0
M  V30 4580 H 446.357 1.37072 3.48083 0
M  V30 4581 H 447.69 1.78511 4.58688 0
M  V30 4582 N 449.342 -1.36122 0.79427 0
M  V30 4583 C 450.753 -1.81646 0.431446 0
M  V30 4584 C 451.104 -1.66043 -1.04518 0
M  V30 4585 O 450.229 -1.1841 -1.8113 0
M  V30 4586 C 450.824 -3.29785 0.776341 0
M  V30 4587 C 449.383 -3.73501 0.466282 0
M  V30 4588 C 448.53 -2.58313 1.00844 0
M  V30 4589 H 451.481 -1.24274 0.986995 0
M  V30 4590 H 451.502 -3.80437 0.0692413 0
M  V30 4591 H 451.014 -3.4111 1.8511 0
M  V30 4592 H 449.115 -3.67733 -0.600245 0
M  V30 4593 H 449.228 -4.68754 0.990288 0
M  V30 4594 H 447.592 -2.5102 0.431406 0
M  V30 4595 H 448.375 -2.72421 2.08906 0
M  V30 4596 N 450.82 -0.546701 -1.47814 0
M  V30 4597 C 452.069 -0.0166497 -2.01693 0
M  V30 4598 C 452.382 1.33721 -1.42752 0
M  V30 4599 O 453.588 1.95658 -1.8823 0
M  V30 4600 C 452.044 0.0206769 -3.59894 0
M  V30 4601 C 451.652 -1.3293 -4.27824 0
M  V30 4602 C 453.396 0.498674 -4.21561 0
M  V30 4603 C 451.303 -1.25165 -5.78003 0
M  V30 4604 H 450.233 -0.0024541 -0.753996 0
M  V30 4605 H 452.884 -0.692984 -1.69912 0
M  V30 4606 H 451.266 0.76244 -3.88591 0
M  V30 4607 H 452.44 -2.08795 -4.10781 0
M  V30 4608 H 450.755 -1.74438 -3.78101 0
M  V30 4609 H 453.352 0.575 -5.31599 0
M  V30 4610 H 453.695 1.5083 -3.88016 0
M  V30 4611 H 454.228 -0.18791 -3.97356 0
M  V30 4612 H 450.967 -2.23695 -6.1615 0
M  V30 4613 H 450.487 -0.53464 -5.97412 0
M  V30 4614 H 452.166 -0.949299 -6.39998 0
M  V30 4615 N 452.299 1.55045 -0.282633 0
M  V30 4616 C 453.545 2.0078 0.325436 0
M  V30 4617 C 453.9 1.1676 1.52921 0
M  V30 4618 O 453.193 0.231475 1.90197 0
M  V30 4619 C 453.387 3.49422 0.750938 0
M  V30 4620 C 453.216 4.47827 -0.410056 0
M  V30 4621 C 451.986 4.97288 -0.896239 0
M  V30 4622 C 454.184 4.98903 -1.24902 0
M  V30 4623 N 452.166 5.79508 -2.02591 0
M  V30 4624 C 453.537 5.78644 -2.22646 0
M  V30 4625 C 455.592 4.81126 -1.2815 0
M  V30 4626 C 454.295 6.42502 -3.23393 0
M  V30 4627 C 456.321 5.45789 -2.27745 0
M  V30 4628 C 455.683 6.25348 -3.24222 0
M  V30 4629 H 451.782 0.77747 0.08405 0
M  V30 4630 H 454.366 1.90369 -0.408368 0
M  V30 4631 H 452.537 3.60159 1.45395 0
M  V30 4632 H 454.269 3.81978 1.33698 0
M  V30 4633 H 451.024 4.71219 -0.474277 0
M  V30 4634 H 451.448 6.25308 -2.59459 0
M  V30 4635 H 456.09 4.19215 -0.549397 0
M  V30 4636 H 453.808 7.03558 -3.97533 0
M  V30 4637 H 457.394 5.33972 -2.31009 0
M  V30 4638 H 456.274 6.74498 -4.00027 0
M  V30 4639 N 453.777 0.010035 1.57597 0
M  V30 4640 C 455.023 -0.673697 1.91283 0
M  V30 4641 C 455.356 -1.72863 0.884979 0
M  V30 4642 O 454.631 -1.94268 -0.0949487 0
M  V30 4643 C 454.914 -1.30766 3.35518 0
M  V30 4644 C 454.767 -0.263578 4.49027 0
M  V30 4645 C 456.086 -2.23105 3.79358 0
M  V30 4646 H 453.205 -0.243439 0.695634 0
M  V30 4647 H 455.847 0.0633864 1.89894 0
M  V30 4648 H 453.997 -1.93588 3.36832 0
M  V30 4649 H 455.669 0.365738 4.59848 0
M  V30 4650 H 453.912 0.413077 4.31829 0
M  V30 4651 H 454.583 -0.746398 5.4693 0
M  V30 4652 H 457.059 -1.70289 3.79659 0
M  V30 4653 H 455.935 -2.64424 4.81011 0
M  V30 4654 H 456.196 -3.11433 3.13787 0
M  V30 4655 N 455.255 -1.55392 -0.262866 0
M  V30 4656 C 456.483 -1.80513 -1.01108 0
M  V30 4657 C 456.898 -0.583533 -1.79556 0
M  V30 4658 O 456.255 0.447585 -1.76926 0
M  V30 4659 C 456.306 -3.03648 -1.96164 0
M  V30 4660 O 456.027 -4.2109 -1.20893 0
M  V30 4661 C 457.528 -3.41448 -2.82715 0
M  V30 4662 H 454.748 -0.601079 -0.298236 0
M  V30 4663 H 457.292 -2.02425 -0.290582 0
M  V30 4664 H 455.447 -2.83832 -2.63663 0
M  V30 4665 H 455.861 -4.90771 -1.85051 0
M  V30 4666 H 457.335 -4.30751 -3.45192 0
M  V30 4667 H 457.812 -2.61308 -3.53008 0
M  V30 4668 H 458.418 -3.63559 -2.20693 0
M  V30 4669 N 456.733 0.527833 -1.48498 0
M  V30 4670 C 457.696 1.61439 -1.62696 0
M  V30 4671 C 458.696 1.52824 -0.500136 0
M  V30 4672 O 459.886 1.56456 -0.765976 0
M  V30 4673 C 457.018 3.01063 -1.59918 0
M  V30 4674 H 458.211 1.50189 -2.59583 0
M  V30 4675 H 455.764 0.750055 -1.37127 0
M  V30 4676 H 456.499 3.17818 -0.645163 0
M  V30 4677 H 456.284 3.08725 -2.41726 0
M  V30 4678 H 457.774 3.80057 -1.73051 0
M  V30 4679 N 458.211 1.37122 0.776871 0
M  V30 4680 C 459.158 1.3247 1.88998 0
M  V30 4681 C 460.128 0.191143 1.64997 0
M  V30 4682 O 461.313 0.379683 1.86984 0
M  V30 4683 C 458.453 1.13241 3.25992 0
M  V30 4684 C 457.566 2.35782 3.61982 0
M  V30 4685 C 456.701 2.09465 4.88158 0
M  V30 4686 C 455.74 3.279 5.16864 0
M  V30 4687 N 454.877 3.01167 6.34226 0
M  V30 4688 H 459.717 2.27642 1.9231 0
M  V30 4689 H 457.254 1.13125 0.94027 0
M  V30 4690 H 459.212 1.00115 4.0501 0
M  V30 4691 H 457.842 0.217186 3.22069 0
M  V30 4692 H 456.894 2.59666 2.77989 0
M  V30 4693 H 458.206 3.24125 3.79137 0
M  V30 4694 H 457.36 1.93341 5.75069 0
M  V30 4695 H 456.099 1.18452 4.73097 0
M  V30 4696 H 455.104 3.44569 4.2843 0
M  V30 4697 H 456.329 4.19757 5.33836 0
M  V30 4698 H 454.275 2.12779 6.20533 0
M  V30 4699 H 454.192 3.83052 6.51772 0
M  V30 4700 H 455.46 2.88649 7.24087 0
M  V30 4701 N 459.689 -1.00246 1.21608 0
M  V30 4702 C 460.919 -1.77373 1.05935 0
M  V30 4703 C 461.327 -1.85059 -0.393686 0
M  V30 4704 O 460.67 -1.31289 -1.28487 0
M  V30 4705 C 460.732 -3.22705 1.58435 0
M  V30 4706 C 460.396 -3.38591 3.06929 0
M  V30 4707 C 461.393 -3.2667 4.04454 0
M  V30 4708 C 459.078 -3.6395 3.46187 0
M  V30 4709 C 461.072 -3.39877 5.39224 0
M  V30 4710 C 458.759 -3.768 4.81108 0
M  V30 4711 C 459.757 -3.6477 5.77436 0
M  V30 4712 O 459.445 -3.77206 7.09909 0
M  V30 4713 H 459.177 -0.56419 0.372378 0
M  V30 4714 H 461.731 -1.26971 1.61454 0
M  V30 4715 H 459.961 -3.74255 0.973147 0
M  V30 4716 H 461.65 -3.81515 1.38568 0
M  V30 4717 H 462.416 -3.06999 3.75468 0
M  V30 4718 H 458.295 -3.72395 2.71741 0
M  V30 4719 H 461.839 -3.30404 6.14393 0
M  V30 4720 H 457.736 -3.95975 5.09779 0
M  V30 4721 H 458.504 -3.94138 7.17355 0
M  V30 4722 N 461.167 -1.02423 -1.1978 0
M  V30 4723 C 462.099 -0.559152 -2.22275 0
M  V30 4724 C 463.112 0.36251 -1.58713 0
M  V30 4725 O 464.301 0.159641 -1.77785 0
M  V30 4726 C 461.401 0.205094 -3.38279 0
M  V30 4727 C 460.574 -0.720361 -4.31427 0
M  V30 4728 C 459.633 -0.00234368 -5.262 0
M  V30 4729 O 458.659 -0.627378 -5.65732 0
M  V30 4730 N 459.861 1.26996 -5.66438 0
M  V30 4731 H 462.626 -1.44064 -2.62804 0
M  V30 4732 H 460.187 -0.902692 -1.34399 0
M  V30 4733 H 462.179 0.694868 -3.9869 0
M  V30 4734 H 460.749 0.987947 -2.96578 0
M  V30 4735 H 459.969 -1.39031 -3.68869 0
M  V30 4736 H 461.257 -1.3495 -4.90577 0
M  V30 4737 H 460.655 1.79858 -5.36347 0
M  V30 4738 H 459.212 1.70432 -6.29123 0
M  V30 4739 N 462.645 1.35699 -0.801477 0
M  V30 4740 C 463.893 1.9852 -0.37871 0
M  V30 4741 C 464.214 1.63907 1.05638 0
M  V30 4742 O 463.484 0.919013 1.73006 0
M  V30 4743 H 462.064 0.734322 -0.137042 0
M  V30 4744 H 464.726 1.65697 -1.02619 0
M  V30 4745 H 463.822 3.08382 -0.480284 0
M  V30 4746 N 464.123 0.554532 1.47522 0
M  V30 4747 C 465.053 -0.182974 2.32782 0
M  V30 4748 C 466.034 -0.911377 1.43624 0
M  V30 4749 O 467.219 -0.892366 1.72483 0
M  V30 4750 C 464.349 -1.21513 3.25349 0
M  V30 4751 C 463.303 -0.603355 4.23726 0
M  V30 4752 C 462.629 -1.73995 5.05598 0
M  V30 4753 C 463.929 0.441121 5.20434 0
M  V30 4754 H 465.623 0.52882 2.94693 0
M  V30 4755 H 463.169 0.255759 1.41711 0
M  V30 4756 H 465.122 -1.73922 3.83835 0
M  V30 4757 H 463.846 -1.95683 2.61487 0
M  V30 4758 H 462.505 -0.10059 3.66462 0
M  V30 4759 H 462.153 -2.47063 4.38143 0
M  V30 4760 H 461.853 -1.3364 5.72201 0
M  V30 4761 H 463.377 -2.26735 5.66942 0
M  V30 4762 H 464.791 0.00319931 5.733 0
M  V30 4763 H 463.188 0.763402 5.95224 0
M  V30 4764 H 464.258 1.33799 4.66075 0
M  V30 4765 N 465.601 -1.54893 0.290851 0
M  V30 4766 C 466.548 -2.23138 -0.58974 0
M  V30 4767 C 467.518 -1.21036 -1.13752 0
M  V30 4768 O 468.703 -1.49626 -1.18392 0
M  V30 4769 C 465.843 -2.96811 -1.76061 0
M  V30 4770 C 464.956 -4.13665 -1.24519 0
M  V30 4771 C 464.091 -4.74944 -2.3791 0
M  V30 4772 C 463.13 -5.83963 -1.83451 0
M  V30 4773 N 462.267 -6.39239 -2.90376 0
M  V30 4774 H 467.107 -2.98 -0.00114915 0
M  V30 4775 H 464.644 -1.47096 0.0112006 0
M  V30 4776 H 466.602 -3.37751 -2.44909 0
M  V30 4777 H 465.232 -2.24344 -2.32098 0
M  V30 4778 H 464.284 -3.77737 -0.449288 0
M  V30 4779 H 465.596 -4.92238 -0.806424 0
M  V30 4780 H 464.75 -5.18684 -3.14724 0
M  V30 4781 H 463.489 -3.95682 -2.85109 0
M  V30 4782 H 462.494 -5.39657 -1.05122 0
M  V30 4783 H 463.719 -6.65103 -1.37169 0
M  V30 4784 H 461.665 -5.62864 -3.36927 0
M  V30 4785 H 461.582 -7.13129 -2.50965 0
M  V30 4786 H 462.85 -6.87637 -3.67118 0
M  V30 4787 N 467.08 -0.0183926 -1.57589 0
M  V30 4788 C 468.305 0.676634 -1.96052 0
M  V30 4789 C 468.73 1.6548 -0.894307 0
M  V30 4790 O 468.088 1.80712 0.145849 0
M  V30 4791 C 468.136 1.36872 -3.33614 0
M  V30 4792 O 467.24 2.48372 -3.29219 0
M  V30 4793 H 466.581 0.1786 -0.63953 0
M  V30 4794 H 469.111 -0.077056 -2.04455 0
M  V30 4795 H 469.121 1.72797 -3.69601 0
M  V30 4796 H 467.796 0.651636 -4.10763 0
M  V30 4797 H 466.373 2.14639 -3.04934 0
M  V30 4798 N 468.558 1.5553 0.254621 0
M  V30 4799 C 469.806 1.7665 0.981793 0
M  V30 4800 C 470.127 0.580963 1.86145 0
M  V30 4801 O 469.397 -0.403537 1.91699 0
M  V30 4802 H 467.977 0.651475 0.365498 0
M  V30 4803 H 470.639 1.92958 0.274426 0
M  V30 4804 H 469.735 2.67486 1.60802 0
M  V30 4805 N 470.036 -0.519951 1.48776 0
M  V30 4806 C 471.264 -1.29971 1.60982 0
M  V30 4807 C 471.679 -1.86803 0.273885 0
M  V30 4808 O 471.036 -1.66904 -0.738193 0
M  V30 4809 C 471.087 -2.44346 2.66415 0
M  V30 4810 O 470.808 -1.89855 3.94825 0
M  V30 4811 C 472.309 -3.36014 2.89153 0
M  V30 4812 H 469.529 -0.394891 0.542496 0
M  V30 4813 H 472.073 -0.626214 1.94676 0
M  V30 4814 H 470.228 -3.07562 2.35552 0
M  V30 4815 H 470.642 -2.64798 4.5275 0
M  V30 4816 H 472.116 -4.12593 3.66703 0
M  V30 4817 H 472.593 -3.91859 1.98351 0
M  V30 4818 H 473.199 -2.78582 3.21359 0
M  V30 4819 N 471.514 -1.37532 -0.769588 0
M  V30 4820 C 472.761 -1.3286 -1.52822 0
M  V30 4821 C 473.089 0.0862597 -1.94309 0
M  V30 4822 O 472.344 1.05995 -1.6451 0
M  V30 4823 C 472.643 -2.21558 -2.8044 0
M  V30 4824 C 472.309 -3.69796 -2.57996 0
M  V30 4825 C 470.971 -4.10194 -2.51583 0
M  V30 4826 C 473.323 -4.63699 -2.37976 0
M  V30 4827 C 470.651 -5.42608 -2.23144 0
M  V30 4828 C 473.003 -5.96353 -2.1106 0
M  V30 4829 C 471.667 -6.35853 -2.03093 0
M  V30 4830 H 470.937 -0.486168 -0.559215 0
M  V30 4831 H 473.584 -1.69757 -0.886277 0
M  V30 4832 H 471.889 -1.77663 -3.49204 0
M  V30 4833 H 473.586 -2.15256 -3.38328 0
M  V30 4834 H 470.176 -3.37759 -2.63851 0
M  V30 4835 H 474.36 -4.33346 -2.41919 0
M  V30 4836 H 469.616 -5.72173 -2.15472 0
M  V30 4837 H 473.79 -6.68667 -1.94568 0
M  V30 4838 H 471.417 -7.38382 -1.8082 0
M  V30 4839 N 472.992 0.995999 -1.22138 0
M  V30 4840 C 474.239 1.7351 -1.04406 0
M  V30 4841 C 474.567 1.89884 0.421244 0
M  V30 4842 O 473.822 1.43683 1.32867 0
M  V30 4843 C 474.121 3.14553 -1.6968 0
M  V30 4844 C 473.787 3.18102 -3.19565 0
M  V30 4845 C 472.449 3.18778 -3.60464 0
M  V30 4846 C 474.801 3.14636 -4.15516 0
M  V30 4847 C 472.129 3.13684 -4.95801 0
M  V30 4848 C 474.481 3.11084 -5.50826 0
M  V30 4849 C 473.145 3.10074 -5.91109 0
M  V30 4850 H 472.415 0.634916 -0.38205 0
M  V30 4851 H 475.062 1.1667 -1.51857 0
M  V30 4852 H 473.367 3.74682 -1.14546 0
M  V30 4853 H 475.064 3.70477 -1.53454 0
M  V30 4854 H 471.654 3.18324 -2.86998 0
M  V30 4855 H 475.838 3.13266 -3.84939 0
M  V30 4856 H 471.094 3.11245 -5.26247 0
M  V30 4857 H 475.268 3.07357 -6.24904 0
M  V30 4858 H 472.895 3.05882 -6.95946 0
M  V30 4859 N 474.47 1.03057 1.19235 0
M  V30 4860 C 475.716 0.738841 1.89506 0
M  V30 4861 C 476.071 -0.724807 1.78225 0
M  V30 4862 O 475.364 -1.52118 1.16494 0
M  V30 4863 C 475.558 1.1268 3.39172 0
M  V30 4864 C 475.387 2.62662 3.65019 0
M  V30 4865 C 474.157 3.29658 3.82954 0
M  V30 4866 C 476.355 3.60873 3.66436 0
M  V30 4867 N 474.337 4.68726 3.96446 0
M  V30 4868 C 475.708 4.85566 3.8552 0
M  V30 4869 C 477.763 3.54647 3.49471 0
M  V30 4870 C 476.466 6.04783 3.89397 0
M  V30 4871 C 478.492 4.73281 3.54625 0
M  V30 4872 C 477.854 5.96789 3.74196 0
M  V30 4873 H 473.953 0.322256 0.712513 0
M  V30 4874 H 476.537 1.31822 1.43287 0
M  V30 4875 H 474.708 0.575612 3.84111 0
M  V30 4876 H 476.44 0.787145 3.96971 0
M  V30 4877 H 473.195 2.8007 3.81913 0
M  V30 4878 H 473.619 5.40971 4.07037 0
M  V30 4879 H 478.261 2.60143 3.33295 0
M  V30 4880 H 475.979 6.99654 4.04364 0
M  V30 4881 H 479.565 4.70094 3.42787 0
M  V30 4882 H 478.445 6.87051 3.78061 0
M  V30 4883 N 475.948 -1.35272 0.808662 0
M  V30 4884 C 477.359 -1.81179 0.450688 0
M  V30 4885 C 477.71 -1.67143 -1.02751 0
M  V30 4886 O 476.835 -1.20325 -1.79864 0
M  V30 4887 C 477.43 -3.28943 0.811275 0
M  V30 4888 C 475.989 -3.72985 0.505871 0
M  V30 4889 C 475.136 -2.57229 1.03578 0
M  V30 4890 H 478.087 -1.2322 1.00012 0
M  V30 4891 H 478.108 -3.80342 0.109588 0
M  V30 4892 H 477.62 -3.39127 1.88718 0
M  V30 4893 H 475.721 -3.68349 -0.561209 0
M  V30 4894 H 475.834 -4.67677 1.03995 0
M  V30 4895 H 474.198 -2.50548 0.458005 0
M  V30 4896 H 474.981 -2.7019 2.11784 0
M  V30 4897 N 477.426 -0.562348 -1.47226 0
M  V30 4898 C 478.674 -0.0401371 -2.0206 0
M  V30 4899 C 478.995 1.3165 -1.43852 0
M  V30 4900 O 478.265 1.85976 -0.615599 0
M  V30 4901 H 476.845 -0.0118479 -0.746906 0
M  V30 4902 H 479.507 -0.73352 -1.8057 0
M  V30 4903 H 478.603 0.0441254 -3.12069 0
M  V30 4904 N 478.904 1.54736 -0.299062 0
M  V30 4905 C 480.129 2.04975 0.316254 0
M  V30 4906 C 480.554 1.17501 1.46885 0
M  V30 4907 O 479.912 0.178678 1.80417 0
M  V30 4908 C 479.96 3.52672 0.751997 0
M  V30 4909 O 479.064 3.68226 1.85697 0
M  V30 4910 H 478.405 0.661126 0.0617175 0
M  V30 4911 H 480.935 1.99805 -0.440341 0
M  V30 4912 H 480.945 3.94488 1.04133 0
M  V30 4913 H 479.62 4.158 -0.0911482 0
M  V30 4914 H 478.197 3.38316 1.56834 0
M  V30 4915 N 480.382 0.0267497 1.57577 0
M  V30 4916 C 481.659 -0.690926 1.82991 0
M  V30 4917 C 482.039 -1.90471 0.910164 0
M  V30 4918 O 481.387 -2.28474 -0.0347985 0
M  V30 4919 C 481.597 -1.07139 3.32148 0
M  V30 4920 C 482.945 -1.46402 3.98562 0
M  V30 4921 O 483.969 -1.16443 3.36629 0
M  V30 4922 O 482.828 -2.02214 5.07712 0
M  V30 4923 H 479.922 -0.338747 0.75444 0
M  V30 4924 H 482.468 0.0542506 1.69613 0
M  V30 4925 H 481.24 -0.207394 3.9075 0
M  V30 4926 H 480.863 -1.87481 3.50623 0
M  V30 4927 N 481.861 -1.55662 -0.24637 0
M  V30 4928 C 483.107 -1.77782 -0.975779 0
M  V30 4929 C 483.44 -0.592103 -1.84953 0
M  V30 4930 O 482.715 0.409588 -1.90138 0
M  V30 4931 C 482.998 -3.09788 -1.83584 0
M  V30 4932 C 482.851 -4.38764 -0.990241 0
M  V30 4933 C 484.17 -3.38029 -2.81823 0
M  V30 4934 H 481.289 -0.646789 -0.353317 0
M  V30 4935 H 483.931 -1.88398 -0.246248 0
M  V30 4936 H 482.081 -3.00869 -2.45784 0
M  V30 4937 H 483.753 -4.59675 -0.386897 0
M  V30 4938 H 481.996 -4.32798 -0.294626 0
M  V30 4939 H 482.667 -5.27514 -1.62584 0
M  V30 4940 H 485.143 -3.46915 -2.2976 0
M  V30 4941 H 484.019 -4.3161 -3.39122 0
M  V30 4942 H 484.28 -2.58968 -3.58313 0
M  V30 4943 N 483.339 0.512053 -1.4905 0
M  V30 4944 C 484.249 1.64139 -1.67617 0
M  V30 4945 C 485.265 1.64786 -0.558701 0
M  V30 4946 O 486.441 1.8341 -0.832034 0
M  V30 4947 C 483.506 3.00548 -1.72835 0
M  V30 4948 C 482.567 3.10615 -2.96339 0
M  V30 4949 C 481.8 4.40517 -3.01298 0
M  V30 4950 O 482.023 5.28671 -2.14157 0
M  V30 4951 O 480.957 4.55325 -3.93653 0
M  V30 4952 H 484.783 1.51407 -2.63267 0
M  V30 4953 H 482.368 0.687131 -1.32661 0
M  V30 4954 H 484.25 3.81641 -1.78683 0
M  V30 4955 H 482.925 3.13566 -0.803616 0
M  V30 4956 H 481.832 2.2875 -2.96014 0
M  V30 4957 H 483.165 3.0252 -3.88256 0
M  V30 4958 N 484.817 1.37938 0.762283 0
M  V30 4959 C 486.066 1.32989 1.51647 0
M  V30 4960 C 486.379 -0.0802922 1.95435 0
M  V30 4961 O 487.585 -0.252295 2.70325 0
M  V30 4962 C 486.041 2.33485 2.73885 0
M  V30 4963 C 485.649 3.80079 2.37157 0
M  V30 4964 C 487.393 2.37563 3.51801 0
M  V30 4965 C 485.3 4.72283 3.55954 0
M  V30 4966 H 484.23 0.494301 0.56937 0
M  V30 4967 H 486.881 1.63448 0.834083 0
M  V30 4968 H 485.263 1.96056 3.44061 0
M  V30 4969 H 486.437 4.26398 1.74704 0
M  V30 4970 H 484.752 3.79037 1.72395 0
M  V30 4971 H 487.349 3.0365 4.40114 0
M  V30 4972 H 487.692 1.39199 3.92338 0
M  V30 4973 H 488.225 2.73747 2.8863 0
M  V30 4974 H 484.964 5.7181 3.2049 0
M  V30 4975 H 484.484 4.30663 4.1748 0
M  V30 4976 H 486.163 4.89876 4.22647 0
M  V30 4977 N 486.295 -0.989507 1.22664 0
M  V30 4978 C 487.243 -2.10148 0.997035 0
M  V30 4979 C 488.237 -1.6929 -0.0609783 0
M  V30 4980 O 489.443 -1.79766 0.0917523 0
M  V30 4981 H 485.818 -0.687256 0.305259 0
M  V30 4982 H 487.789 -2.26685 1.94053 0
M  V30 4983 C 486.538 -3.4257 0.595085 0
M  V30 4984 H 485.861 -3.74453 1.40089 0
M  V30 4985 H 487.301 -4.21344 0.473869 0
M  V30 4986 C 485.76 -3.29638 -0.695725 0
M  V30 4987 O 486.29 -3.61709 -1.74727 0
M  V30 4988 N 484.496 -2.82814 -0.668173 0
M  V30 4989 H 484.043 -2.56914 0.18787 0
M  V30 4990 H 484.001 -2.74544 -1.5321 0
M  V30 4991 N 487.773 -1.03688 -1.18687 0
M  V30 4992 C 489.021 -0.736572 -1.88199 0
M  V30 4993 C 489.342 0.737665 -1.80509 0
M  V30 4994 O 488.612 1.53204 -1.22088 0
M  V30 4995 H 487.192 -0.269466 -0.696704 0
M  V30 4996 H 489.854 -1.31282 -1.44052 0
M  V30 4997 H 488.95 -1.03802 -2.94332 0
M  V30 4998 N 489.251 1.34841 -0.815825 0
M  V30 4999 C 490.5 1.97755 -0.396976 0
M  V30 5000 C 490.813 1.65422 1.04379 0
M  V30 5001 O 492.019 2.21771 1.5662 0
M  V30 5002 C 490.475 3.53818 -0.658869 0
M  V30 5003 C 490.083 3.95051 -2.11278 0
M  V30 5004 C 491.827 4.23397 -0.305834 0
M  V30 5005 C 489.734 5.43997 -2.31994 0
M  V30 5006 H 488.664 0.739985 -0.1447 0
M  V30 5007 H 491.315 1.53781 -1.00118 0
M  V30 5008 H 489.697 3.95997 0.0154112 0
M  V30 5009 H 490.871 3.63998 -2.82564 0
M  V30 5010 H 489.186 3.38388 -2.42657 0
M  V30 5011 H 491.783 5.32899 -0.43854 0
M  V30 5012 H 492.126 4.09508 0.748952 0
M  V30 5013 H 492.659 3.8667 -0.934403 0
M  V30 5014 H 489.398 5.62865 -3.35952 0
M  V30 5015 H 488.918 5.76589 -1.65244 0
M  V30 5016 H 490.597 6.10584 -2.14001 0
M  V30 5017 N 490.729 0.570148 1.46925 0
M  V30 5018 C 491.976 0.0509529 2.02436 0
M  V30 5019 C 492.304 -1.30405 1.44308 0
M  V30 5020 O 491.559 -1.86493 0.593198 0
M  V30 5021 C 491.858 -0.0780336 3.57315 0
M  V30 5022 C 491.524 1.20775 4.34424 0
M  V30 5023 C 490.186 1.56004 4.5521 0
M  V30 5024 C 492.538 2.0592 4.78797 0
M  V30 5025 C 489.866 2.76201 5.17619 0
M  V30 5026 C 492.218 3.25332 5.42533 0
M  V30 5027 C 490.882 3.60859 5.61549 0
M  V30 5028 H 490.152 0.018645 0.740765 0
M  V30 5029 H 492.799 0.744262 1.76445 0
M  V30 5030 H 491.104 -0.854394 3.82371 0
M  V30 5031 H 492.801 -0.495312 3.97929 0
M  V30 5032 H 489.391 0.923469 4.18533 0
M  V30 5033 H 493.575 1.80008 4.62505 0
M  V30 5034 H 488.831 3.0388 5.30535 0
M  V30 5035 H 493.005 3.91586 5.75876 0
M  V30 5036 H 490.632 4.54088 6.09678 0
M  V30 5037 N 492.207 -1.54576 0.307264 0
M  V30 5038 C 493.618 -1.8579 -0.184121 0
M  V30 5039 C 493.969 -1.22914 -1.52927 0
M  V30 5040 O 493.094 -0.529126 -2.09831 0
M  V30 5041 C 493.689 -3.37081 -0.340862 0
M  V30 5042 C 492.248 -3.68304 -0.776465 0
M  V30 5043 C 491.395 -2.77076 0.111503 0
M  V30 5044 H 494.346 -1.49656 0.528078 0
M  V30 5045 H 494.367 -3.61922 -1.17443 0
M  V30 5046 H 493.879 -3.82815 0.638309 0
M  V30 5047 H 491.98 -3.28092 -1.76596 0
M  V30 5048 H 492.093 -4.75434 -0.591512 0
M  V30 5049 H 490.457 -2.51374 -0.410256 0
M  V30 5050 H 491.24 -3.25632 1.08714 0
M  V30 5051 N 493.685 -0.035106 -1.57561 0
M  V30 5052 C 494.962 0.681212 -1.83354 0
M  V30 5053 C 495.342 1.89986 -0.920252 0
M  V30 5054 O 494.69 2.28489 0.0226815 0
M  V30 5055 C 494.9 1.05376 -3.32712 0
M  V30 5056 C 496.248 1.44286 -3.99333 0
M  V30 5057 O 497.272 1.14656 -3.37242 0
M  V30 5058 O 496.131 1.99518 -5.08778 0
M  V30 5059 H 493.225 0.334741 -0.756226 0
M  V30 5060 H 495.771 -0.0632448 -1.69582 0
M  V30 5061 H 494.543 0.186668 -3.90854 0
M  V30 5062 H 494.166 1.85619 -3.51613 0
M  V30 5063 N 495.163 1.55791 0.238111 0
M  V30 5064 C 496.412 1.77234 0.962868 0
M  V30 5065 C 496.725 0.600661 1.86149 0
M  V30 5066 O 497.931 0.698315 2.62366 0
M  V30 5067 C 496.387 3.13808 1.76218 0
M  V30 5068 C 495.995 4.3865 0.910518 0
M  V30 5069 C 497.739 3.44585 2.47914 0
M  V30 5070 C 495.646 5.66252 1.70623 0
M  V30 5071 H 494.576 0.660731 0.36325 0
M  V30 5072 H 497.227 1.8221 0.217242 0
M  V30 5073 H 495.609 3.02963 2.55009 0
M  V30 5074 H 496.783 4.60507 0.164316 0
M  V30 5075 H 495.098 4.15271 0.30647 0
M  V30 5076 H 497.695 4.3714 3.07917 0
M  V30 5077 H 498.038 2.66314 3.19973 0
M  V30 5078 H 498.571 3.56685 1.76127 0
M  V30 5079 H 495.31 6.47369 1.02923 0
M  V30 5080 H 494.83 5.48483 2.42748 0
M  V30 5081 H 496.509 6.05829 2.27114 0
M  V30 5082 N 496.642 -0.504142 1.49319 0
M  V30 5083 C 497.872 -1.28071 1.62116 0
M  V30 5084 C 498.28 -1.86955 0.290566 0
M  V30 5085 O 497.623 -1.68415 -0.733616 0
M  V30 5086 C 497.685 -2.4521 2.62893 0
M  V30 5087 C 497.349 -2.07218 4.0732 0
M  V30 5088 C 498.346 -1.61375 4.94221 0
M  V30 5089 C 496.031 -2.16949 4.53033 0
M  V30 5090 C 498.025 -1.25763 6.2487 0
M  V30 5091 C 495.712 -1.80949 5.83696 0
M  V30 5092 C 496.71 -1.3543 6.69438 0
M  V30 5093 O 496.398 -0.99915 7.97667 0
M  V30 5094 H 496.13 -0.394763 0.54876 0
M  V30 5095 H 498.684 -0.612118 1.96067 0
M  V30 5096 H 496.914 -3.15134 2.24115 0
M  V30 5097 H 498.603 -3.0724 2.65252 0
M  V30 5098 H 499.369 -1.53306 4.60133 0
M  V30 5099 H 495.248 -2.5133 3.86463 0
M  V30 5100 H 498.792 -0.901631 6.91749 0
M  V30 5101 H 494.689 -1.88667 6.17313 0
M  V30 5102 H 495.457 -1.13089 8.1065 0
M  V30 5103 N 498.12 -1.38341 -0.754957 0
M  V30 5104 C 499.067 -1.3546 -1.86867 0
M  V30 5105 C 500.037 -0.217369 -1.64672 0
M  V30 5106 O 501.222 -0.409383 -1.86356 0
M  V30 5107 C 498.362 -1.18413 -3.24149 0
M  V30 5108 C 497.475 -2.41511 -3.58185 0
M  V30 5109 C 496.61 -2.17205 -4.84763 0
M  V30 5110 C 495.649 -3.36081 -5.11582 0
M  V30 5111 N 494.786 -3.11219 -6.29354 0
M  V30 5112 H 499.626 -2.30672 -1.88664 0
M  V30 5113 H 497.163 -1.14607 -0.922154 0
M  V30 5114 H 499.121 -1.06545 -4.03366 0
M  V30 5115 H 497.751 -0.268397 -3.21682 0
M  V30 5116 H 496.803 -2.64056 -2.73822 0
M  V30 5117 H 498.115 -3.30115 -3.73932 0
M  V30 5118 H 497.269 -2.02465 -5.7192 0
M  V30 5119 H 496.008 -1.25964 -4.71152 0
M  V30 5120 H 495.013 -3.51341 -4.22894 0
M  V30 5121 H 496.238 -4.28196 -5.27091 0
M  V30 5122 H 494.184 -2.22624 -6.17069 0
M  V30 5123 H 494.101 -3.93373 -6.45596 0
M  V30 5124 H 495.369 -3.00132 -7.19403 0
M  V30 5125 N 499.598 0.982988 -1.23187 0
M  V30 5126 C 500.531 2.07302 -0.953993 0
M  V30 5127 C 501.509 1.62249 0.106753 0
M  V30 5128 O 502.693 1.88481 -0.0269525 0
M  V30 5129 C 499.82 3.35873 -0.436716 0
M  V30 5130 C 498.866 3.99862 -1.48367 0
M  V30 5131 S 499.699 4.39443 -3.06023 0
M  V30 5132 C 500.855 5.7117 -2.55959 0
M  V30 5133 H 501.088 2.30554 -1.87702 0
M  V30 5134 H 498.621 1.11883 -1.06403 0
M  V30 5135 H 500.579 4.10244 -0.144872 0
M  V30 5136 H 499.24 3.10634 0.465351 0
M  V30 5137 H 498.433 4.92471 -1.07182 0
M  V30 5138 H 498.035 3.31857 -1.72473 0
M  V30 5139 H 500.327 6.47977 -1.97818 0
M  V30 5140 H 501.27 6.17194 -3.47098 0
M  V30 5141 H 501.678 5.29046 -1.96902 0
M  V30 5142 N 501.076 1.04316 1.18135 0
M  V30 5143 C 502.306 0.767003 1.91835 0
M  V30 5144 C 502.714 -0.68002 1.76557 0
M  V30 5145 O 502.057 -1.47548 1.09432 0
M  V30 5146 C 502.119 1.05674 3.43618 0
M  V30 5147 C 501.783 2.49818 3.82675 0
M  V30 5148 C 502.78 3.48003 3.86251 0
M  V30 5149 C 500.465 2.84596 4.13897 0
M  V30 5150 C 502.459 4.79016 4.20503 0
M  V30 5151 C 500.146 4.15813 4.4782 0
M  V30 5152 C 501.144 5.12834 4.51099 0
M  V30 5153 O 500.832 6.41699 4.84229 0
M  V30 5154 H 500.564 0.278948 0.615763 0
M  V30 5155 H 503.118 1.3946 1.50798 0
M  V30 5156 H 501.348 0.372029 3.84906 0
M  V30 5157 H 503.037 0.767994 3.98568 0
M  V30 5158 H 503.803 3.22475 3.62264 0
M  V30 5159 H 499.682 2.09748 4.1052 0
M  V30 5160 H 503.226 5.54739 4.22978 0
M  V30 5161 H 499.123 4.41109 4.71268 0
M  V30 5162 H 499.891 6.46387 5.02121 0
M  V30 5163 N 502.554 -1.34406 0.822964 0
M  V30 5164 C 503.502 -2.31428 0.233165 0
M  V30 5165 C 504.496 -1.57404 -0.626118 0
M  V30 5166 O 505.702 -1.72402 -0.517453 0
M  V30 5167 H 502.077 -0.749863 0.0566557 0
M  V30 5168 H 504.048 -2.78699 1.06628 0
M  V30 5169 C 502.797 -3.42653 -0.590264 0
M  V30 5170 H 502.12 -3.99753 0.0616129 0
M  V30 5171 H 503.56 -4.12778 -0.969054 0
M  V30 5172 C 502.019 -2.87112 -1.76262 0
M  V30 5173 O 502.549 -2.81995 -2.8608 0
M  V30 5174 N 500.755 -2.43934 -1.57938 0
M  V30 5175 H 500.302 -2.48296 -0.686078 0
M  V30 5176 H 500.26 -2.07123 -2.36532 0
M  V30 5177 N 504.032 -0.577932 -1.46621 0
M  V30 5178 C 505.28 -0.061566 -2.02006 0
M  V30 5179 C 505.601 1.30117 -1.4524 0
M  V30 5180 O 504.871 1.85313 -0.63529 0
M  V30 5181 H 503.451 -0.0197692 -0.746738 0
M  V30 5182 H 506.113 -0.752631 -1.79782 0
M  V30 5183 H 505.209 0.0110238 -3.12098 0
M  V30 5184 N 505.51 1.54411 -0.315457 0
M  V30 5185 C 506.735 2.05299 0.294496 0
M  V30 5186 C 507.16 1.19052 1.4563 0
M  V30 5187 O 506.518 0.197804 1.80218 0
M  V30 5188 C 506.566 3.5345 0.714549 0
M  V30 5189 O 505.67 3.70175 1.81781 0
M  V30 5190 H 505.011 0.661743 0.0547019 0
M  V30 5191 H 507.541 1.99327 -0.461508 0
M  V30 5192 H 507.551 3.9557 0.999426 0
M  V30 5193 H 506.226 4.1568 -0.135244 0
M  V30 5194 H 504.803 3.3996 1.53236 0
M  V30 5195 N 506.988 0.0434614 1.5754 0
M  V30 5196 C 508.234 -0.632971 1.92669 0
M  V30 5197 C 508.567 -1.70947 0.921446 0
M  V30 5198 O 507.842 -1.94426 -0.0537202 0
M  V30 5199 C 508.125 -1.23619 3.38216 0
M  V30 5200 C 507.978 -0.168274 4.49485 0
M  V30 5201 C 509.297 -2.15008 3.84005 0
M  V30 5202 H 506.416 -0.228629 0.700641 0
M  V30 5203 H 509.058 0.103651 1.89717 0
M  V30 5204 H 507.208 -1.864 3.40863 0
M  V30 5205 H 508.88 0.463196 4.58969 0
M  V30 5206 H 507.123 0.504581 4.30855 0
M  V30 5207 H 507.794 -0.630218 5.48391 0
M  V30 5208 H 510.27 -1.62198 3.83185 0
M  V30 5209 H 509.146 -2.54161 4.86511 0
M  V30 5210 H 509.407 -3.04707 3.20322 0
M  V30 5211 N 508.466 -1.55915 -0.229846 0
M  V30 5212 C 509.877 -1.68809 -0.797531 0
M  V30 5213 C 510.228 -0.643995 -1.8533 0
M  V30 5214 O 509.353 0.206492 -2.15413 0
M  V30 5215 C 509.948 -3.06043 -1.45338 0
M  V30 5216 C 508.507 -3.20819 -1.96856 0
M  V30 5217 C 507.654 -2.6472 -0.825736 0
M  V30 5218 H 510.605 -1.58699 -0.00533733 0
M  V30 5219 H 510.626 -3.01438 -2.32196 0
M  V30 5220 H 510.138 -3.82012 -0.684743 0
M  V30 5221 H 508.239 -2.49704 -2.76548 0
M  V30 5222 H 508.352 -4.27937 -2.15423 0
M  V30 5223 H 506.716 -2.22985 -1.23084 0
M  V30 5224 H 507.499 -3.43229 -0.0699019 0
M  V30 5225 N 509.944 0.496216 -1.49584 0
M  V30 5226 C 511.191 1.25003 -1.59312 0
M  V30 5227 C 511.519 1.92445 -0.28198 0
M  V30 5228 O 510.774 1.81557 0.730452 0
M  V30 5229 C 511.073 2.3359 -2.705 0
M  V30 5230 C 510.739 1.83574 -4.11839 0
M  V30 5231 C 509.401 1.69653 -4.50302 0
M  V30 5232 C 511.753 1.46193 -5.00277 0
M  V30 5233 C 509.081 1.16736 -5.74969 0
M  V30 5234 C 511.433 0.947265 -6.25468 0
M  V30 5235 C 510.097 0.794485 -6.62755 0
M  V30 5236 H 509.367 0.45742 -0.582965 0
M  V30 5237 H 512.014 0.549996 -1.83432 0
M  V30 5238 H 510.319 3.09401 -2.40371 0
M  V30 5239 H 512.016 2.91627 -2.75235 0
M  V30 5240 H 508.606 1.9537 -3.81482 0
M  V30 5241 H 512.79 1.55793 -4.71214 0
M  V30 5242 H 508.046 1.03623 -6.02555 0
M  V30 5243 H 512.22 0.648846 -6.93371 0
M  V30 5244 H 509.847 0.382271 -7.59238 0
M  V30 5245 N 511.423 1.38739 0.74761 0
M  V30 5246 C 512.333 1.38696 1.89211 0
M  V30 5247 C 513.349 0.283303 1.71678 0
M  V30 5248 O 514.525 0.522713 1.94498 0
M  V30 5249 C 511.59 1.21662 3.24653 0
M  V30 5250 C 510.651 2.41886 3.54669 0
M  V30 5251 C 509.884 2.25655 4.83648 0
M  V30 5252 O 510.107 1.25339 5.56459 0
M  V30 5253 O 509.041 3.14372 5.13277 0
M  V30 5254 H 512.867 2.35143 1.92202 0
M  V30 5255 H 510.452 1.19721 0.893708 0
M  V30 5256 H 512.334 1.14246 4.05618 0
M  V30 5257 H 511.009 0.283024 3.2246 0
M  V30 5258 H 509.916 2.54877 2.73841 0
M  V30 5259 H 511.249 3.33895 3.61628 0
M  V30 5260 N 512.901 -0.976442 1.23707 0
M  V30 5261 C 513.811 -2.10359 1.03856 0
M  V30 5262 C 514.827 -1.73991 -0.0180919 0
M  V30 5263 O 516.003 -2.0061 0.178211 0
M  V30 5264 C 513.068 -3.40809 0.636387 0
M  V30 5265 C 512.129 -3.91179 1.76854 0
M  V30 5266 C 511.362 -5.15404 1.38546 0
M  V30 5267 O 511.585 -5.69754 0.27142 0
M  V30 5268 O 510.519 -5.5994 2.20797 0
M  V30 5269 H 514.345 -2.29997 1.98331 0
M  V30 5270 H 511.93 -1.08742 1.02448 0
M  V30 5271 H 513.812 -4.19269 0.423223 0
M  V30 5272 H 512.487 -3.22493 -0.279322 0
M  V30 5273 H 511.394 -3.13819 2.03638 0
M  V30 5274 H 512.727 -4.13958 2.6627 0
M  V30 5275 N 514.379 -1.04941 -1.1758 0
M  V30 5276 C 515.795 -0.770282 -1.39781 0
M  V30 5277 C 515.995 0.636417 -1.91186 0
M  V30 5278 O 515.051 1.39923 -2.10185 0
M  V30 5279 C 516.364 -1.82376 -2.3908 0
M  V30 5280 C 517.912 -1.84569 -2.52791 0
M  V30 5281 C 518.387 -2.88933 -3.55361 0
M  V30 5282 N 519.878 -2.8788 -3.62877 0
M  V30 5283 C 520.613 -3.65282 -4.41992 0
M  V30 5284 N 520.109 -4.52461 -5.24643 0
M  V30 5285 N 521.902 -3.53732 -4.36841 0
M  V30 5286 H 514.053 -1.95705 -0.825438 0
M  V30 5287 H 516.316 -0.847284 -0.425222 0
M  V30 5288 H 516.022 -2.83323 -2.08376 0
M  V30 5289 H 515.896 -1.66327 -3.38549 0
M  V30 5290 H 518.283 -0.842879 -2.82807 0
M  V30 5291 H 518.364 -2.04696 -1.53406 0
M  V30 5292 H 518.008 -3.89398 -3.26085 0
M  V30 5293 H 517.938 -2.66059 -4.54445 0
M  V30 5294 H 520.429 -2.24666 -3.03864 0
M  V30 5295 H 520.742 -5.08211 -5.82187 0
M  V30 5296 H 519.087 -4.56524 -5.24033 0
M  V30 5297 H 522.278 -2.85021 -3.71323 0
M  V30 5298 H 522.451 -4.14302 -4.98255 0
M  V30 5299 N 515.857 1.33968 -0.830081 0
M  V30 5300 C 517.106 1.97323 -0.417928 0
M  V30 5301 C 517.419 1.6652 1.02618 0
M  V30 5302 O 518.625 2.2342 1.54259 0
M  V30 5303 C 517.081 3.53099 -0.696359 0
M  V30 5304 C 516.689 3.92788 -2.15457 0
M  V30 5305 C 518.433 4.23049 -0.350724 0
M  V30 5306 C 516.34 5.41506 -2.37751 0
M  V30 5307 H 515.27 0.738409 -0.152541 0
M  V30 5308 H 517.921 1.52711 -1.01744 0
M  V30 5309 H 516.303 3.95991 -0.0265904 0
M  V30 5310 H 517.477 3.6098 -2.86408 0
M  V30 5311 H 515.792 3.35795 -2.46232 0
M  V30 5312 H 518.389 5.32403 -0.495036 0
M  V30 5313 H 518.732 4.10279 0.705476 0
M  V30 5314 H 519.265 3.85657 -0.975362 0
M  V30 5315 H 516.004 5.5927 -3.41903 0
M  V30 5316 H 515.524 5.74804 -1.7135 0
M  V30 5317 H 517.203 6.0828 -2.20465 0
M  V30 5318 N 517.335 0.585699 1.46312 0
M  V30 5319 C 518.265 -0.133556 2.33118 0
M  V30 5320 C 519.246 -0.880707 1.45525 0
M  V30 5321 O 520.431 -0.855579 1.74337 0
M  V30 5322 C 517.561 -1.14585 3.27853 0
M  V30 5323 C 516.515 -0.513341 4.2491 0
M  V30 5324 C 515.841 -1.63231 5.09175 0
M  V30 5325 C 517.141 0.551413 5.19381 0
M  V30 5326 H 518.835 0.59121 2.93505 0
M  V30 5327 H 516.381 0.285761 1.41136 0
M  V30 5328 H 518.334 -1.65741 3.87438 0
M  V30 5329 H 517.058 -1.90093 2.65579 0
M  V30 5330 H 515.717 -0.0228349 3.66593 0
M  V30 5331 H 515.365 -2.37713 4.43285 0
M  V30 5332 H 515.065 -1.21473 5.74907 0
M  V30 5333 H 516.589 -2.14658 5.71624 0
M  V30 5334 H 518.003 0.124804 5.73164 0
M  V30 5335 H 516.4 0.889486 5.93471 0
M  V30 5336 H 517.47 1.43655 4.63132 0
M  V30 5337 N 518.813 -1.54241 0.323641 0
M  V30 5338 C 519.776 -2.22997 -0.529602 0
M  V30 5339 C 520.776 -1.22345 -1.04347 0
M  V30 5340 O 521.966 -1.46924 -0.935889 0
M  V30 5341 C 519.098 -2.93409 -1.73562 0
M  V30 5342 H 520.291 -2.99815 0.0714518 0
M  V30 5343 H 517.844 -1.56121 0.0747258 0
M  V30 5344 H 518.579 -2.20729 -2.37591 0
M  V30 5345 H 518.364 -3.67217 -1.37456 0
M  V30 5346 H 519.854 -3.45794 -2.34128 0
M  V30 5347 N 520.291 -0.0518155 -1.57515 0
M  V30 5348 C 521.537 0.622745 -1.93002 0
M  V30 5349 C 521.87 1.70456 -0.930499 0
M  V30 5350 O 521.145 1.94452 0.0434086 0
M  V30 5351 C 521.428 1.21824 -3.38867 0
M  V30 5352 C 521.281 0.144434 -4.49568 0
M  V30 5353 C 522.6 2.12968 -3.8514 0
M  V30 5354 H 519.719 0.22491 -0.701844 0
M  V30 5355 H 522.361 -0.113711 -1.89659 0
M  V30 5356 H 520.511 1.8459 -3.41846 0
M  V30 5357 H 522.183 -0.48753 -4.58717 0
M  V30 5358 H 520.426 -0.527424 -4.30582 0
M  V30 5359 H 521.097 0.601127 -5.48717 0
M  V30 5360 H 523.573 1.60163 -3.8404 0
M  V30 5361 H 522.449 2.51578 -4.87852 0
M  V30 5362 H 522.71 3.03004 -3.21934 0
M  V30 5363 N 521.769 1.56035 0.221574 0
M  V30 5364 C 522.699 1.95434 1.2778 0
M  V30 5365 C 523.68 0.822564 1.48889 0
M  V30 5366 O 524.865 1.08486 1.61072 0
M  V30 5367 C 521.995 2.27102 2.62759 0
M  V30 5368 C 520.949 3.4277 2.56306 0
M  V30 5369 C 520.275 3.60043 3.95314 0
M  V30 5370 C 521.575 4.77742 2.11093 0
M  V30 5371 H 523.269 2.83912 0.950504 0
M  V30 5372 H 520.815 1.36596 0.455791 0
M  V30 5373 H 522.768 2.53256 3.36807 0
M  V30 5374 H 521.492 1.35478 2.97176 0
M  V30 5375 H 520.151 3.16664 1.84715 0
M  V30 5376 H 519.799 2.65794 4.27039 0
M  V30 5377 H 519.499 4.37841 3.91879 0
M  V30 5378 H 521.023 3.88545 4.71025 0
M  V30 5379 H 522.437 5.03102 2.74885 0
M  V30 5380 H 520.834 5.58823 2.18716 0
M  V30 5381 H 521.904 4.731 1.06321 0
M  V30 5382 N 523.247 -0.488276 1.49845 0
M  V30 5383 C 524.179 -1.60539 1.63584 0
M  V30 5384 C 525.192 -1.5434 0.517972 0
M  V30 5385 O 526.381 -1.60041 0.790516 0
M  V30 5386 C 523.481 -2.99374 1.58835 0
M  V30 5387 C 522.654 -3.30624 2.86368 0
M  V30 5388 C 521.713 -4.4893 2.74496 0
M  V30 5389 O 520.739 -4.50085 3.48443 0
M  V30 5390 N 521.941 -5.49591 1.86894 0
M  V30 5391 H 524.706 -1.49176 2.59936 0
M  V30 5392 H 522.267 -0.67639 1.47094 0
M  V30 5393 H 524.259 -3.76459 1.48529 0
M  V30 5394 H 522.829 -3.04595 0.702892 0
M  V30 5395 H 522.049 -2.42314 3.1093 0
M  V30 5396 H 523.337 -3.48305 3.70892 0
M  V30 5397 H 522.735 -5.51467 1.26097 0
M  V30 5398 H 521.292 -6.25728 1.82503 0
M  V30 5399 N 524.725 -1.39134 -0.740242 0
M  V30 5400 C 525.971 -1.37278 -1.50088 0
M  V30 5401 C 526.326 0.0329967 -1.92372 0
M  V30 5402 O 525.619 0.998447 -1.63529 0
M  V30 5403 C 525.813 -2.27457 -2.75678 0
M  V30 5404 C 525.642 -3.76662 -2.45674 0
M  V30 5405 C 524.412 -4.45617 -2.38229 0
M  V30 5406 C 526.61 -4.6877 -2.11563 0
M  V30 5407 N 524.592 -5.80187 -2.00641 0
M  V30 5408 C 525.963 -5.91951 -1.84376 0
M  V30 5409 C 528.018 -4.56843 -1.97987 0
M  V30 5410 C 526.721 -7.04538 -1.4498 0
M  V30 5411 C 528.747 -5.69347 -1.59994 0
M  V30 5412 C 528.109 -6.91597 -1.33687 0
M  V30 5413 H 524.208 -0.557611 -0.548265 0
M  V30 5414 H 526.792 -1.74638 -0.860784 0
M  V30 5415 H 524.963 -1.92263 -3.37475 0
M  V30 5416 H 526.695 -2.16631 -3.41838 0
M  V30 5417 H 523.45 -3.98993 -2.5515 0
M  V30 5418 H 523.874 -6.51387 -1.84454 0
M  V30 5419 H 528.516 -3.62868 -2.16995 0
M  V30 5420 H 526.234 -7.98419 -1.24712 0
M  V30 5421 H 529.82 -5.62104 -1.50102 0
M  V30 5422 H 528.7 -7.77176 -1.04728 0
M  V30 5423 N 526.204 0.969867 -1.24223 0
M  V30 5424 C 527.134 2.08191 -1.05729 0
M  V30 5425 C 528.115 1.70075 0.0290765 0
M  V30 5426 O 529.3 1.93712 -0.137583 0
M  V30 5427 C 526.43 3.40991 -0.658995 0
M  V30 5428 C 525.384 3.93054 -1.69389 0
M  V30 5429 C 524.71 5.22171 -1.15072 0
M  V30 5430 C 526.01 4.21137 -3.08935 0
M  V30 5431 H 527.704 2.23921 -1.98746 0
M  V30 5432 H 525.25 1.07602 -0.956967 0
M  V30 5433 H 527.203 4.18221 -0.51662 0
M  V30 5434 H 525.927 3.25155 0.30686 0
M  V30 5435 H 524.586 3.17977 -1.82444 0
M  V30 5436 H 524.234 5.02694 -0.175539 0
M  V30 5437 H 523.934 5.57973 -1.84229 0
M  V30 5438 H 525.458 6.02013 -1.02042 0
M  V30 5439 H 526.872 4.8908 -2.99121 0
M  V30 5440 H 525.269 4.68163 -3.75425 0
M  V30 5441 H 526.339 3.27996 -3.57137 0
M  V30 5442 N 527.682 1.05563 1.17022 0
M  V30 5443 C 528.614 0.617888 2.20714 0
M  V30 5444 C 529.627 -0.320303 1.59618 0
M  V30 5445 O 530.816 -0.112449 1.78145 0
M  V30 5446 C 527.916 -0.115333 3.38704 0
M  V30 5447 C 527.089 0.834493 4.29366 0
M  V30 5448 C 526.148 0.141855 5.26009 0
M  V30 5449 O 525.174 0.777151 5.6387 0
M  V30 5450 N 526.376 -1.11934 5.69606 0
M  V30 5451 H 529.141 1.50981 2.58892 0
M  V30 5452 H 526.702 0.938008 1.31958 0
M  V30 5453 H 528.694 -0.588918 4.00392 0
M  V30 5454 H 527.264 -0.908967 2.99093 0
M  V30 5455 H 526.484 1.48762 3.65053 0
M  V30 5456 H 527.772 1.4791 4.86827 0
M  V30 5457 H 527.17 -1.65574 5.40927 0
M  V30 5458 H 525.727 -1.53692 6.33421 0
M  V30 5459 N 529.16 -1.33526 0.837174 0
M  V30 5460 C 530.09 -2.31764 0.284206 0
M  V30 5461 C 531.071 -1.58896 -0.607142 0
M  V30 5462 O 532.256 -1.86798 -0.531047 0
M  V30 5463 C 529.386 -3.43029 -0.542962 0
M  V30 5464 C 528.34 -4.27255 0.252451 0
M  V30 5465 C 527.666 -5.3012 -0.69836 0
M  V30 5466 C 528.966 -5.01229 1.46858 0
M  V30 5467 H 530.66 -2.78262 1.10502 0
M  V30 5468 H 528.206 -1.3378 0.532812 0
M  V30 5469 H 530.159 -4.1078 -0.940096 0
M  V30 5470 H 528.883 -2.95216 -1.39697 0
M  V30 5471 H 527.542 -3.61127 0.631124 0
M  V30 5472 H 527.19 -4.78564 -1.54872 0
M  V30 5473 H 526.89 -5.87353 -0.170274 0
M  V30 5474 H 528.414 -6.00737 -1.09305 0
M  V30 5475 H 529.828 -5.61756 1.14469 0
M  V30 5476 H 528.225 -5.68104 1.93333 0
M  V30 5477 H 529.295 -4.301 2.23924 0
M  V30 5478 N 530.638 -0.59345 -1.46 0
M  V30 5479 C 532.049 -0.169801 -1.85926 0
M  V30 5480 C 532.4 1.26984 -1.49565 0
M  V30 5481 O 531.525 1.96076 -0.915602 0
M  V30 5482 C 532.12 -0.301385 -3.37457 0
M  V30 5483 C 530.679 0.0674684 -3.7634 0
M  V30 5484 C 529.826 -0.632383 -2.69993 0
M  V30 5485 H 532.777 -0.801014 -1.37002 0
M  V30 5486 H 532.798 0.470331 -3.77582 0
M  V30 5487 H 532.31 -1.34927 -3.63891 0
M  V30 5488 H 530.411 1.11507 -3.55523 0
M  V30 5489 H 530.524 -0.316332 -4.78055 0
M  V30 5490 H 528.888 -0.0714961 -2.546 0
M  V30 5491 H 529.671 -1.68212 -2.99265 0
M  V30 5492 N 532.116 1.54067 -0.331816 0
M  V30 5493 C 533.063 2.24623 0.530372 0
M  V30 5494 C 534.033 1.24009 1.10503 0
M  V30 5495 O 535.218 1.52712 1.14384 0
M  V30 5496 C 532.358 3.01374 1.68129 0
M  V30 5497 C 531.471 4.16821 1.13507 0
M  V30 5498 C 530.606 4.81085 2.25234 0
M  V30 5499 C 529.645 5.88621 1.67903 0
M  V30 5500 N 528.782 6.46713 2.73326 0
M  V30 5501 H 533.622 2.97898 -0.0778607 0
M  V30 5502 H 531.159 1.47014 -0.0501965 0
M  V30 5503 H 533.117 3.44125 2.35868 0
M  V30 5504 H 531.747 2.30419 2.26069 0
M  V30 5505 H 530.799 3.78796 0.348979 0
M  V30 5506 H 532.111 4.94203 0.675633 0
M  V30 5507 H 531.265 5.26846 3.00862 0
M  V30 5508 H 530.004 4.03102 2.74518 0
M  V30 5509 H 529.009 5.42254 0.907773 0
M  V30 5510 H 530.234 6.68506 1.19487 0
M  V30 5511 H 528.18 5.71599 3.21886 0
M  V30 5512 H 528.097 7.19532 2.3197 0
M  V30 5513 H 529.365 6.97129 3.48758 0
M  V30 5514 N 533.594 0.0601682 1.57485 0
M  V30 5515 C 534.871 -0.651956 1.84415 0
M  V30 5516 C 535.251 -1.88498 0.950361 0
M  V30 5517 O 534.599 -2.28496 0.0136719 0
M  V30 5518 C 534.809 -1.00069 3.34346 0
M  V30 5519 C 536.157 -1.37915 4.01578 0
M  V30 5520 O 537.181 -1.09277 3.39024 0
M  V30 5521 O 536.04 -1.91399 5.11887 0
M  V30 5522 H 533.134 -0.322668 0.761455 0
M  V30 5523 H 535.68 0.0902159 1.6946 0
M  V30 5524 H 534.452 -0.124463 3.91102 0
M  V30 5525 H 534.075 -1.80001 3.54521 0
M  V30 5526 N 535.072 -1.5615 -0.213296 0
M  V30 5527 C 535.982 -1.96265 -1.28519 0
M  V30 5528 C 536.998 -0.86765 -1.50824 0
M  V30 5529 O 538.174 -1.17191 -1.63793 0
M  V30 5530 C 535.239 -2.27836 -2.61327 0
M  V30 5531 C 534.3 -3.50949 -2.47252 0
M  V30 5532 C 533.533 -3.81004 -3.73727 0
M  V30 5533 O 533.756 -3.12612 -4.77106 0
M  V30 5534 O 532.69 -4.74477 -3.70344 0
M  V30 5535 H 536.516 -2.87631 -0.974795 0
M  V30 5536 H 534.101 -1.43467 -0.416832 0
M  V30 5537 H 535.983 -2.49299 -3.39747 0
M  V30 5538 H 534.658 -1.39643 -2.9203 0
M  V30 5539 H 533.565 -3.34754 -1.67004 0
M  V30 5540 H 534.898 -4.39551 -2.21486 0
M  V30 5541 N 536.55 0.480323 -1.50102 0
M  V30 5542 C 537.966 0.813295 -1.37323 0
M  V30 5543 C 538.166 1.97027 -0.422206 0
M  V30 5544 O 537.222 2.5212 0.138563 0
M  V30 5545 C 538.535 1.13404 -2.78496 0
M  V30 5546 C 540.083 1.24104 -2.87345 0
M  V30 5547 C 540.558 1.59497 -4.29331 0
M  V30 5548 N 542.049 1.66507 -4.32238 0
M  V30 5549 C 542.784 1.95378 -5.39087 0
M  V30 5550 N 542.28 2.22333 -6.56155 0
M  V30 5551 N 544.073 1.96803 -5.26522 0
M  V30 5552 H 536.224 -0.282291 -2.10516 0
M  V30 5553 H 538.487 -0.063752 -0.945854 0
M  V30 5554 H 538.193 0.357064 -3.49883 0
M  V30 5555 H 538.067 2.07251 -3.15162 0
M  V30 5556 H 540.454 2.00871 -2.16183 0
M  V30 5557 H 540.535 0.282593 -2.54234 0
M  V30 5558 H 540.179 0.832736 -5.01027 0
M  V30 5559 H 540.109 2.56477 -4.59921 0
M  V30 5560 H 542.6 1.47753 -3.47818 0
M  V30 5561 H 542.913 2.43611 -7.33399 0
M  V30 5562 H 541.258 2.19745 -6.59346 0
M  V30 5563 H 544.449 1.75235 -4.34062 0
M  V30 5564 H 544.622 2.18969 -6.09883 0
M  V30 5565 N 538.028 1.39524 0.732853 0
M  V30 5566 C 539.439 1.32905 1.31122 0
M  V30 5567 C 539.79 -0.00558708 1.96199 0
M  V30 5568 O 538.915 -0.907706 1.96443 0
M  V30 5569 C 539.51 2.40704 2.38426 0
M  V30 5570 C 538.069 2.37599 2.91931 0
M  V30 5571 C 537.216 2.2248 1.65523 0
M  V30 5572 H 540.167 1.49581 0.530207 0
M  V30 5573 H 540.188 2.07616 3.18867 0
M  V30 5574 H 539.7 3.37829 1.91033 0
M  V30 5575 H 537.801 1.44119 3.43599 0
M  V30 5576 H 537.914 3.32538 3.44899 0
M  V30 5577 H 536.278 1.69691 1.8994 0
M  V30 5578 H 537.061 3.21577 1.20178 0
M  V30 5579 N 539.506 -0.963266 1.24736 0
M  V30 5580 C 540.456 -2.0438 1.01058 0
M  V30 5581 C 541.44 -1.60824 -0.0495354 0
M  V30 5582 O 542.632 -1.76232 0.164741 0
M  V30 5583 C 539.761 -3.37617 0.622067 0
M  V30 5584 C 538.847 -3.87722 1.7185 0
M  V30 5585 N 539.238 -4.10715 2.95207 0
M  V30 5586 C 537.536 -4.16426 1.59703 0
M  V30 5587 C 538.237 -4.51872 3.66315 0
M  V30 5588 N 537.213 -4.57302 2.93897 0
M  V30 5589 H 541.015 -2.20138 1.94721 0
M  V30 5590 H 538.529 -1.14741 1.14927 0
M  V30 5591 H 540.526 -4.14638 0.43366 0
M  V30 5592 H 539.186 -3.23242 -0.307327 0
M  V30 5593 H 540.197 -3.98037 3.31341 0
M  V30 5594 H 536.874 -4.10962 0.73598 0
M  V30 5595 H 538.264 -4.78037 4.72155 0
M  V30 5596 N 540.985 -1.06182 -1.16461 0
M  V30 5597 C 542.232 -0.777863 -1.86964 0
M  V30 5598 C 542.56 0.695602 -1.81636 0
M  V30 5599 O 541.815 1.52532 -1.22607 0
M  V30 5600 C 542.114 -1.21633 -3.36066 0
M  V30 5601 C 541.78 -2.69371 -3.61594 0
M  V30 5602 C 540.442 -3.09727 -3.6827 0
M  V30 5603 C 542.794 -3.64791 -3.7226 0
M  V30 5604 C 540.122 -4.44345 -3.83112 0
M  V30 5605 C 542.474 -4.99155 -3.88623 0
M  V30 5606 C 541.138 -5.39149 -3.93541 0
M  V30 5607 H 540.408 -0.28464 -0.68415 0
M  V30 5608 H 543.055 -1.33071 -1.37711 0
M  V30 5609 H 541.36 -0.582651 -3.87443 0
M  V30 5610 H 543.057 -0.973682 -3.88999 0
M  V30 5611 H 539.647 -2.37124 -3.57029 0
M  V30 5612 H 543.831 -3.34746 -3.66413 0
M  V30 5613 H 539.087 -4.74819 -3.85172 0
M  V30 5614 H 543.261 -5.72976 -3.95817 0
M  V30 5615 H 540.888 -6.43464 -4.04794 0
M  V30 5616 N 542.463 1.3308 -0.844243 0
M  V30 5617 C 543.693 2.01515 -0.455541 0
M  V30 5618 C 544.101 1.63655 0.949406 0
M  V30 5619 O 543.444 0.84848 1.62931 0
M  V30 5620 C 543.506 3.55967 -0.502801 0
M  V30 5621 C 543.17 4.17222 -1.86481 0
M  V30 5622 C 544.167 4.36205 -2.8288 0
M  V30 5623 C 541.852 4.53528 -2.15911 0
M  V30 5624 C 543.846 4.90649 -4.06869 0
M  V30 5625 C 541.533 5.07679 -3.40155 0
M  V30 5626 C 542.531 5.26186 -4.35451 0
M  V30 5627 O 542.219 5.79183 -5.57496 0
M  V30 5628 H 541.951 0.65199 -0.178565 0
M  V30 5629 H 544.505 1.70867 -1.1399 0
M  V30 5630 H 542.735 3.85965 0.23836 0
M  V30 5631 H 544.424 4.05688 -0.131169 0
M  V30 5632 H 545.19 4.085 -2.61444 0
M  V30 5633 H 541.069 4.38414 -1.42528 0
M  V30 5634 H 544.613 5.0501 -4.81259 0
M  V30 5635 H 540.51 5.34815 -3.61446 0
M  V30 5636 H 541.278 5.97591 -5.5931 0
M  V30 5637 N 543.941 0.601185 1.45683 0
M  V30 5638 C 545.169 0.100054 2.06658 0
M  V30 5639 C 545.584 -1.21285 1.44691 0
M  V30 5640 O 544.941 -1.73735 0.558772 0
M  V30 5641 C 544.992 -0.0528579 3.61461 0
M  V30 5642 O 544.713 1.20809 4.21114 0
M  V30 5643 C 546.214 -0.586193 4.39407 0
M  V30 5644 H 543.434 0.065905 0.667756 0
M  V30 5645 H 545.978 0.827101 1.87028 0
M  V30 5646 H 544.133 -0.730203 3.80456 0
M  V30 5647 H 544.547 1.03368 5.14213 0
M  V30 5648 H 546.021 -0.642297 5.4825 0
M  V30 5649 H 546.498 -1.60713 4.0874 0
M  V30 5650 H 547.104 0.0568935 4.25262 0
M  V30 5651 N 545.419 -1.53889 0.339982 0
M  V30 5652 C 546.349 -2.27843 -0.510856 0
M  V30 5653 C 547.33 -1.29267 -1.10563 0
M  V30 5654 O 548.515 -1.58104 -1.12768 0
M  V30 5655 C 545.645 -3.04857 -1.66372 0
M  V30 5656 C 544.599 -4.10907 -1.19746 0
M  V30 5657 C 543.925 -4.75855 -2.43857 0
M  V30 5658 C 545.225 -5.21435 -0.300501 0
M  V30 5659 H 546.919 -2.99212 0.106067 0
M  V30 5660 H 544.465 -1.43904 0.0524533 0
M  V30 5661 H 546.418 -3.5533 -2.26537 0
M  V30 5662 H 545.142 -2.31133 -2.30749 0
M  V30 5663 H 543.801 -3.61342 -0.618654 0
M  V30 5664 H 543.449 -3.9873 -3.06633 0
M  V30 5665 H 543.149 -5.47502 -2.13343 0
M  V30 5666 H 544.673 -5.2911 -3.04754 0
M  V30 5667 H 546.087 -5.67565 -0.80889 0
M  V30 5668 H 544.484 -6.00036 -0.0874076 0
M  V30 5669 H 545.554 -4.80328 0.664321 0
M  V30 5670 N 546.897 -0.0685191 -1.57451 0
M  V30 5671 C 548.127 0.609577 -1.97402 0
M  V30 5672 C 548.535 1.63882 -0.945489 0
M  V30 5673 O 547.878 1.8354 0.0766052 0
M  V30 5674 C 547.94 1.3385 -3.33653 0
M  V30 5675 C 547.604 0.463103 -4.54648 0
M  V30 5676 C 548.601 -0.277964 -5.19156 0
M  V30 5677 C 546.286 0.388941 -5.00792 0
M  V30 5678 C 548.28 -1.08145 -6.28159 0
M  V30 5679 C 545.967 -0.418217 -6.09667 0
M  V30 5680 C 546.965 -1.15208 -6.73213 0
M  V30 5681 O 546.653 -1.94594 -7.79993 0
M  V30 5682 H 546.385 0.170197 -0.654224 0
M  V30 5683 H 548.939 -0.13647 -2.04946 0
M  V30 5684 H 547.169 2.13055 -3.22714 0
M  V30 5685 H 548.858 1.90851 -3.58233 0
M  V30 5686 H 549.624 -0.230241 -4.84453 0
M  V30 5687 H 545.503 0.949769 -4.5111 0
M  V30 5688 H 549.047 -1.65476 -6.7769 0
M  V30 5689 H 544.944 -0.467515 -6.43805 0
M  V30 5690 H 545.712 -1.8699 -7.96854 0
M  V30 5691 N 548.375 1.56261 0.205012 0
M  V30 5692 C 549.305 1.96779 1.257 0
M  V30 5693 C 550.286 0.838309 1.48008 0
M  V30 5694 O 551.471 1.10189 1.59913 0
M  V30 5695 C 548.601 2.29876 2.60335 0
M  V30 5696 C 547.555 3.45469 2.52656 0
M  V30 5697 C 546.881 3.64215 3.91473 0
M  V30 5698 C 548.181 4.79954 2.06014 0
M  V30 5699 H 549.875 2.84904 0.920338 0
M  V30 5700 H 547.421 1.37072 0.441277 0
M  V30 5701 H 549.374 2.56814 3.34102 0
M  V30 5702 H 548.098 1.38622 2.95722 0
M  V30 5703 H 546.757 3.18605 1.81345 0
M  V30 5704 H 546.405 2.70309 4.24196 0
M  V30 5705 H 546.105 4.41973 3.87213 0
M  V30 5706 H 547.629 3.93519 4.66878 0
M  V30 5707 H 549.043 5.05989 2.69533 0
M  V30 5708 H 547.44 5.61111 2.12777 0
M  V30 5709 H 548.51 4.74201 1.01297 0
M  V30 5710 N 549.853 -0.472356 1.50355 0
M  V30 5711 C 550.763 -1.59637 1.7191 0
M  V30 5712 C 551.779 -1.63247 0.602195 0
M  V30 5713 O 552.955 -1.81139 0.880369 0
M  V30 5714 C 550.02 -2.9586 1.80742 0
M  V30 5715 C 549.081 -3.02649 3.04471 0
M  V30 5716 C 548.314 -4.32374 3.12872 0
M  V30 5717 O 548.537 -5.22807 2.28099 0
M  V30 5718 O 547.471 -4.44728 4.05587 0
M  V30 5719 H 551.297 -1.44373 2.67189 0
M  V30 5720 H 548.882 -0.651717 1.34436 0
M  V30 5721 H 550.764 -3.7677 1.88739 0
M  V30 5722 H 549.439 -3.11325 0.88647 0
M  V30 5723 H 548.346 -2.20821 3.01975 0
M  V30 5724 H 549.679 -2.92119 3.9614 0
M  V30 5725 N 551.331 -1.39911 -0.725443 0
M  V30 5726 C 552.241 -1.41688 -1.8698 0
M  V30 5727 C 553.257 -0.310579 -1.71206 0
M  V30 5728 O 554.433 -0.55359 -1.93642 0
M  V30 5729 C 551.498 -1.26811 -3.22676 0
M  V30 5730 C 550.559 -2.47497 -3.50776 0
M  V30 5731 C 549.792 -2.3332 -4.79997 0
M  V30 5732 O 550.015 -1.34175 -5.54394 0
M  V30 5733 O 548.949 -3.22498 -5.08211 0
M  V30 5734 H 552.775 -2.38171 -1.88436 0
M  V30 5735 H 550.36 -1.21128 -0.874548 0
M  V30 5736 H 552.242 -1.20684 -4.03749 0
M  V30 5737 H 550.917 -0.334289 -3.21969 0
M  V30 5738 H 549.824 -2.59201 -2.69751 0
M  V30 5739 H 551.157 -3.39606 -3.5627 0
M  V30 5740 N 552.809 0.956637 -1.25245 0
M  V30 5741 C 554.22 1.51569 -1.09012 0
M  V30 5742 C 554.571 1.93322 0.334813 0
M  V30 5743 O 553.696 1.78421 1.22454 0
M  V30 5744 C 554.291 2.75444 -1.97271 0
M  V30 5745 C 552.85 3.27669 -1.8523 0
M  V30 5746 C 551.997 2.00517 -1.91542 0
M  V30 5747 H 554.948 0.773746 -1.3856 0
M  V30 5748 H 554.969 3.4919 -1.51151 0
M  V30 5749 H 554.481 2.45024 -3.00973 0
M  V30 5750 H 552.582 3.62914 -0.844045 0
M  V30 5751 H 552.695 3.9582 -2.69932 0
M  V30 5752 H 551.059 2.15727 -1.35404 0
M  V30 5753 H 551.842 1.72448 -2.96844 0
M  V30 5754 N 554.287 1.06798 1.15896 0
M  V30 5755 C 555.564 0.701057 1.82605 0
M  V30 5756 C 555.944 -0.817066 1.94646 0
M  V30 5757 O 555.292 -1.72933 1.49353 0
M  V30 5758 C 555.502 1.40895 3.19296 0
M  V30 5759 C 556.85 1.55744 3.95005 0
M  V30 5760 O 557.874 1.36927 3.28831 0
M  V30 5761 O 556.733 1.86658 5.13635 0
M  V30 5762 H 553.827 0.248791 0.78869 0
M  V30 5763 H 556.373 1.16857 1.23055 0
M  V30 5764 H 555.145 2.4439 3.05596 0
M  V30 5765 H 554.768 0.931847 3.86526 0
M  V30 5766 N 555.766 -1.3263 0.851289 0
M  V30 5767 C 556.991 -2.02097 0.466006 0
M  V30 5768 C 557.416 -1.63574 -0.928709 0
M  V30 5769 O 556.774 -0.834665 -1.60944 0
M  V30 5770 C 556.822 -3.55425 0.608737 0
M  V30 5771 O 555.926 -4.10827 -0.359878 0
M  V30 5772 H 555.267 -0.636911 0.187724 0
M  V30 5773 H 557.797 -1.69253 1.14955 0
M  V30 5774 H 557.807 -4.04986 0.495006 0
M  V30 5775 H 556.482 -3.82806 1.62581 0
M  V30 5776 H 555.059 -3.72349 -0.202666 0
M  V30 5777 N 557.244 -0.608902 -1.45362 0
M  V30 5778 C 558.469 -0.10921 -2.07112 0
M  V30 5779 C 558.894 1.19779 -1.45033 0
M  V30 5780 O 558.252 1.72961 -0.543527 0
M  V30 5781 C 558.3 0.0155745 -3.60597 0
M  V30 5782 O 557.404 1.06546 -3.98399 0
M  V30 5783 H 556.745 -0.0746619 -0.659789 0
M  V30 5784 H 559.275 -0.839283 -1.86594 0
M  V30 5785 H 559.285 0.213364 -4.07442 0
M  V30 5786 H 557.96 -0.938765 -4.05167 0
M  V30 5787 H 556.537 0.844024 -3.63223 0
M  V30 5788 N 558.722 1.53707 -0.348139 0
M  V30 5789 C 559.97 2.00591 0.246478 0
M  V30 5790 C 560.291 1.23753 1.50699 0
M  V30 5791 O 559.561 0.345964 1.92821 0
M  V30 5792 H 558.141 0.741053 0.0940679 0
M  V30 5793 H 560.803 1.89139 -0.470354 0
M  V30 5794 H 559.899 3.08297 0.485714 0
M  V30 5795 N 560.2 0.0768682 1.57412 0
M  V30 5796 C 561.15 -0.898795 2.09537 0
M  V30 5797 C 562.134 -1.25556 1.0062 0
M  V30 5798 O 563.326 -1.23369 1.26921 0
M  V30 5799 C 560.455 -2.16453 2.66464 0
M  V30 5800 C 559.541 -1.83401 3.82393 0
M  V30 5801 N 559.932 -1.20823 4.91157 0
M  V30 5802 C 558.23 -2.13121 3.91785 0
M  V30 5803 C 558.931 -1.05976 5.71965 0
M  V30 5804 N 557.907 -1.57113 5.204 0
M  V30 5805 H 561.709 -0.410718 2.91016 0
M  V30 5806 H 559.223 -0.126878 1.61904 0
M  V30 5807 H 561.22 -2.87274 3.02125 0
M  V30 5808 H 559.88 -2.65844 1.86433 0
M  V30 5809 H 560.891 -0.877249 5.10416 0
M  V30 5810 H 557.568 -2.64854 3.22736 0
M  V30 5811 H 558.958 -0.571809 6.69462 0
M  V30 5812 N 561.678 -1.56367 -0.196722 0
M  V30 5813 C 562.903 -1.84991 -0.937714 0
M  V30 5814 C 563.328 -0.660244 -1.76132 0
M  V30 5815 O 562.686 0.390967 -1.77034 0
M  V30 5816 C 562.734 -3.11828 -1.81096 0
M  V30 5817 O 561.838 -2.92266 -2.90955 0
M  V30 5818 H 561.179 -0.609193 -0.264159 0
M  V30 5819 H 563.709 -2.03595 -0.202529 0
M  V30 5820 H 563.719 -3.42579 -2.21594 0
M  V30 5821 H 562.394 -3.98037 -1.2058 0
M  V30 5822 H 560.971 -2.72809 -2.54224 0
M  V30 5823 N 563.156 0.464375 -1.50603 0
M  V30 5824 C 564.386 1.23727 -1.65454 0
M  V30 5825 C 564.794 1.86119 -0.340032 0
M  V30 5826 O 564.137 1.70301 0.688706 0
M  V30 5827 C 564.199 2.38153 -2.69301 0
M  V30 5828 C 563.863 1.96345 -4.12671 0
M  V30 5829 C 564.86 1.48215 -4.98326 0
M  V30 5830 C 562.545 2.04861 -4.58625 0
M  V30 5831 C 564.539 1.09152 -6.27985 0
M  V30 5832 C 562.226 1.65409 -5.88288 0
M  V30 5833 C 563.224 1.17634 -6.72794 0
M  V30 5834 O 562.912 0.787312 -8.00035 0
M  V30 5835 H 562.644 0.380075 -0.559034 0
M  V30 5836 H 565.198 0.559919 -1.97621 0
M  V30 5837 H 563.428 3.09081 -2.32392 0
M  V30 5838 H 565.117 3.00099 -2.73304 0
M  V30 5839 H 565.883 1.41052 -4.64036 0
M  V30 5840 H 561.762 2.40996 -3.92991 0
M  V30 5841 H 565.306 0.717909 -6.93896 0
M  V30 5842 H 561.203 1.72233 -6.22098 0
M  V30 5843 H 561.971 0.915567 -8.13363 0
M  V30 5844 N 564.634 1.40294 0.718013 0
M  V30 5845 C 565.882 1.38167 1.47494 0
M  V30 5846 C 566.203 -0.01607 1.94993 0
M  V30 5847 O 565.473 -0.970396 1.70177 0
M  V30 5848 H 564.053 0.508505 0.547203 0
M  V30 5849 H 566.715 1.75324 0.851322 0
M  V30 5850 H 565.811 2.05503 2.34894 0
M  V30 5851 N 566.112 -0.949982 1.2575 0
M  V30 5852 C 567.523 -1.50989 1.09815 0
M  V30 5853 C 567.874 -1.93497 -0.324556 0
M  V30 5854 O 566.999 -1.79068 -1.21506 0
M  V30 5855 C 567.594 -2.74394 1.98729 0
M  V30 5856 C 566.153 -3.26682 1.86965 0
M  V30 5857 C 565.3 -1.99498 1.92603 0
M  V30 5858 H 568.251 -0.766387 1.38968 0
M  V30 5859 H 568.272 -3.48383 1.53001 0
M  V30 5860 H 567.784 -2.43425 3.02268 0
M  V30 5861 H 565.885 -3.62461 0.863279 0
M  V30 5862 H 565.998 -3.94383 2.72027 0
M  V30 5863 H 564.362 -2.15005 1.36546 0
M  V30 5864 H 565.145 -1.70871 2.97755 0
M  V30 5865 N 567.59 -1.07411 -1.15328 0
M  V30 5866 C 568.836 -0.798831 -1.86404 0
M  V30 5867 C 569.169 0.673433 -1.8215 0
M  V30 5868 O 568.444 1.49428 -1.24505 0
M  V30 5869 C 568.727 -1.30846 -3.35487 0
M  V30 5870 C 568.58 -2.84532 -3.4837 0
M  V30 5871 C 569.899 -0.925486 -4.30259 0
M  V30 5872 H 567.018 -0.291659 -0.676834 0
M  V30 5873 H 569.66 -1.332 -1.35491 0
M  V30 5874 H 567.81 -0.854916 -3.78977 0
M  V30 5875 H 569.482 -3.3818 -3.13739 0
M  V30 5876 H 567.725 -3.22699 -2.8991 0
M  V30 5877 H 568.396 -3.15259 -4.53118 0
M  V30 5878 H 570.872 -1.3163 -3.94731 0
M  V30 5879 H 569.748 -1.3094 -5.33053 0
M  V30 5880 H 570.009 0.168525 -4.41779 0
M  V30 5881 N 569.068 1.32177 -0.85831 0
M  V30 5882 C 570.293 2.01847 -0.476718 0
M  V30 5883 C 570.718 1.64065 0.920021 0
M  V30 5884 O 570.076 0.843189 1.60499 0
M  V30 5885 C 570.124 3.55097 -0.627578 0
M  V30 5886 O 569.228 4.11012 0.338086 0
M  V30 5887 H 568.569 0.635907 -0.191099 0
M  V30 5888 H 571.099 1.68641 -1.15851 0
M  V30 5889 H 571.109 4.04718 -0.516476 0
M  V30 5890 H 569.784 3.81938 -1.64609 0
M  V30 5891 H 568.361 3.72451 0.182917 0
M  V30 5892 N 570.547 0.616602 1.45037 0
M  V30 5893 C 571.772 0.120192 2.07051 0
M  V30 5894 C 572.197 -1.19008 1.45666 0
M  V30 5895 O 571.555 -1.7267 0.552692 0
M  V30 5896 C 571.603 0.00354901 3.606 0
M  V30 5897 O 570.707 -1.04431 3.98958 0
M  V30 5898 H 570.048 0.0781599 0.659384 0
M  V30 5899 H 572.578 0.849167 1.86146 0
M  V30 5900 H 572.588 -0.191754 4.07549 0
M  V30 5901 H 571.263 0.960239 4.04663 0
M  V30 5902 H 569.84 -0.824749 3.63665 0
M  V30 5903 N 572.025 -1.5352 0.356285 0
M  V30 5904 C 572.935 -2.29151 -0.502712 0
M  V30 5905 C 573.951 -1.34753 -1.1008 0
M  V30 5906 O 575.127 -1.67803 -1.11374 0
M  V30 5907 C 572.192 -3.05911 -1.63154 0
M  V30 5908 C 571.253 -4.15958 -1.06194 0
M  V30 5909 C 570.486 -4.8905 -2.13696 0
M  V30 5910 O 570.709 -4.61919 -3.34645 0
M  V30 5911 O 569.643 -5.75202 -1.77275 0
M  V30 5912 H 573.469 -3.03492 0.112466 0
M  V30 5913 H 571.054 -1.4891 0.120942 0
M  V30 5914 H 572.936 -3.53874 -2.28804 0
M  V30 5915 H 571.611 -2.34415 -2.23229 0
M  V30 5916 H 570.518 -3.7227 -0.369603 0
M  V30 5917 H 571.851 -4.89593 -0.505872 0
M  V30 5918 N 573.503 -0.0852151 -1.57369 0
M  V30 5919 C 574.749 0.581666 -1.94279 0
M  V30 5920 C 575.082 1.68444 -0.966446 0
M  V30 5921 O 574.357 1.945 0.00215277 0
M  V30 5922 C 574.64 1.14609 -3.41375 0
M  V30 5923 C 574.493 0.0490414 -4.49773 0
M  V30 5924 C 575.812 2.04751 -3.8957 0
M  V30 5925 H 572.931 0.209972 -0.706456 0
M  V30 5926 H 575.573 -0.153915 -1.89376 0
M  V30 5927 H 573.723 1.77297 -3.45685 0
M  V30 5928 H 575.395 -0.584721 -4.57579 0
M  V30 5929 H 573.638 -0.618638 -4.29366 0
M  V30 5930 H 574.309 0.484601 -5.49869 0
M  V30 5931 H 576.785 1.51981 -3.87351 0
M  V30 5932 H 575.661 2.41173 -4.93079 0
M  V30 5933 H 575.922 2.96107 -3.28288 0
M  V30 5934 N 574.981 1.5647 0.188427 0
M  V30 5935 C 576.23 1.80207 0.905995 0
M  V30 5936 C 576.543 0.659579 1.84144 0
M  V30 5937 O 577.749 0.781431 2.60011 0
M  V30 5938 C 576.205 3.19255 1.66145 0
M  V30 5939 C 575.813 4.41324 0.770504 0
M  V30 5940 C 577.557 3.52298 2.36826 0
M  V30 5941 C 575.464 5.71394 1.52521 0
M  V30 5942 H 574.394 0.671953 0.342045 0
M  V30 5943 H 577.045 1.82808 0.159164 0
M  V30 5944 H 575.427 3.10922 2.45242 0
M  V30 5945 H 576.601 4.60797 0.0177261 0
M  V30 5946 H 574.916 4.16035 0.174199 0
M  V30 5947 H 577.513 4.46715 2.93854 0
M  V30 5948 H 577.856 2.76359 3.11338 0
M  V30 5949 H 578.389 3.62108 1.6469 0
M  V30 5950 H 575.128 6.50316 0.82275 0
M  V30 5951 H 574.648 5.55928 2.25175 0
M  V30 5952 H 576.327 6.12747 2.07725 0
M  V30 5953 N 576.459 -0.456382 1.50847 0
M  V30 5954 C 577.406 -1.55249 1.70782 0
M  V30 5955 C 578.376 -1.56757 0.549231 0
M  V30 5956 O 579.561 -1.74061 0.7815 0
M  V30 5957 C 576.701 -2.93118 1.82143 0
M  V30 5958 C 575.814 -3.01285 3.09598 0
M  V30 5959 C 574.949 -4.30159 3.11667 0
M  V30 5960 C 573.988 -4.32124 4.33515 0
M  V30 5961 N 573.125 -5.52492 4.3324 0
M  V30 5962 H 577.965 -1.37555 2.64353 0
M  V30 5963 H 575.502 -0.668543 1.3103 0
M  V30 5964 H 577.46 -3.73088 1.86711 0
M  V30 5965 H 576.09 -3.09413 0.919978 0
M  V30 5966 H 575.142 -2.14096 3.14431 0
M  V30 5967 H 576.454 -2.98597 3.99551 0
M  V30 5968 H 575.608 -5.18489 3.15046 0
M  V30 5969 H 574.347 -4.35477 2.1957 0
M  V30 5970 H 573.352 -3.42189 4.30333 0
M  V30 5971 H 574.577 -4.28485 5.26856 0
M  V30 5972 H 572.523 -5.58567 3.44004 0
M  V30 5973 H 572.44 -5.51605 5.16979 0
M  V30 5974 H 573.708 -6.42906 4.40786 0
M  V30 5975 N 577.937 -1.40673 -0.710563 0
M  V30 5976 C 578.9 -1.4108 -1.80635 0
M  V30 5977 C 579.9 -0.303783 -1.57904 0
M  V30 5978 O 581.09 -0.562937 -1.64853 0
M  V30 5979 C 578.222 -1.20748 -3.18799 0
M  V30 5980 H 579.415 -2.38612 -1.81671 0
M  V30 5981 H 576.968 -1.26595 -0.916704 0
M  V30 5982 H 577.703 -0.239964 -3.23411 0
M  V30 5983 H 577.488 -2.00941 -3.36698 0
M  V30 5984 H 578.978 -1.23833 -3.98817 0
M  V30 5985 N 579.415 0.9433 -1.26252 0
M  V30 5986 C 580.345 2.05902 -1.10122 0
M  V30 5987 C 581.326 1.70099 -0.00700552 0
M  V30 5988 O 582.511 1.93377 -0.178641 0
M  V30 5989 C 579.641 3.39516 -0.731175 0
M  V30 5990 C 578.595 3.89372 -1.77688 0
M  V30 5991 C 577.921 5.19613 -1.26122 0
M  V30 5992 C 579.221 4.14489 -3.17799 0
M  V30 5993 H 580.915 2.19655 -2.03451 0
M  V30 5994 H 578.461 1.05548 -0.979576 0
M  V30 5995 H 580.414 4.17031 -0.605215 0
M  V30 5996 H 579.138 3.25733 0.23782 0
M  V30 5997 H 577.797 3.14036 -1.89148 0
M  V30 5998 H 577.445 5.02208 -0.282128 0
M  V30 5999 H 577.145 5.53939 -1.96023 0
M  V30 6000 H 578.669 5.99713 -1.14789 0
M  V30 6001 H 580.083 4.82625 -3.09428 0
M  V30 6002 H 578.48 4.60094 -3.85271 0
M  V30 6003 H 579.55 3.20347 -3.64014 0
M  V30 6004 N 580.893 1.08022 1.14757 0
M  V30 6005 C 581.825 0.664566 2.19354 0
M  V30 6006 C 582.838 -0.286374 1.60261 0
M  V30 6007 O 584.027 -0.0746362 1.78344 0
M  V30 6008 C 581.127 -0.0434634 3.38872 0
M  V30 6009 C 580.3 0.925381 4.27499 0
M  V30 6010 C 579.359 0.253398 5.2559 0
M  V30 6011 O 578.385 0.896581 5.62094 0
M  V30 6012 N 579.587 -0.998263 5.71852 0
M  V30 6013 H 582.352 1.56438 2.55631 0
M  V30 6014 H 579.913 0.965788 1.29939 0
M  V30 6015 H 581.905 -0.503857 4.01551 0
M  V30 6016 H 580.475 -0.845321 3.00954 0
M  V30 6017 H 579.695 1.56472 3.61815 0
M  V30 6018 H 580.983 1.58203 4.8358 0
M  V30 6019 H 580.381 -1.54063 5.44317 0
M  V30 6020 H 578.938 -1.40222 6.36538 0
M  V30 6021 N 582.371 -1.3172 0.865308 0
M  V30 6022 C 583.787 -1.4958 0.556596 0
M  V30 6023 C 583.987 -1.79763 -0.910353 0
M  V30 6024 O 583.043 -1.87351 -1.6928 0
M  V30 6025 C 584.356 -2.63277 1.45279 0
M  V30 6026 C 585.904 -2.77161 1.45433 0
M  V30 6027 C 586.379 -3.93949 2.33598 0
M  V30 6028 N 587.87 -4.01228 2.31453 0
M  V30 6029 C 588.605 -4.90855 2.96393 0
M  V30 6030 N 588.101 -5.85416 3.70486 0
M  V30 6031 N 589.894 -4.84063 2.85726 0
M  V30 6032 H 582.045 -1.10396 1.81456 0
M  V30 6033 H 584.308 -0.54507 0.775631 0
M  V30 6034 H 584.014 -2.47734 2.49641 0
M  V30 6035 H 583.888 -3.59309 1.14792 0
M  V30 6036 H 586.275 -2.9212 0.41831 0
M  V30 6037 H 586.356 -1.8181 1.79941 0
M  V30 6038 H 586 -3.79748 3.37274 0
M  V30 6039 H 585.93 -4.88598 1.96417 0
M  V30 6040 H 588.421 -3.3357 1.77593 0
M  V30 6041 H 588.734 -6.50525 4.17178 0
M  V30 6042 H 587.079 -5.85409 3.74594 0
M  V30 6043 H 590.27 -4.09163 2.27384 0
M  V30 6044 H 590.443 -5.53708 3.36617 0
M  V30 6045 N 583.85 -0.624285 -1.44708 0
M  V30 6046 C 585.096 -0.126237 -2.02407 0
M  V30 6047 C 585.428 1.24618 -1.48943 0
M  V30 6048 O 584.704 1.82569 -0.670742 0
M  V30 6049 C 584.986 -0.105449 -3.59946 0
M  V30 6050 C 584.84 -1.50972 -4.23707 0
M  V30 6051 C 586.159 0.573629 -4.36346 0
M  V30 6052 H 583.278 -0.0473472 -0.735478 0
M  V30 6053 H 585.92 -0.799452 -1.72362 0
M  V30 6054 H 584.07 0.46783 -3.85673 0
M  V30 6055 H 585.742 -2.13136 -4.0911 0
M  V30 6056 H 583.985 -2.0656 -3.81465 0
M  V30 6057 H 584.656 -1.44727 -5.32689 0
M  V30 6058 H 587.132 0.0861787 -4.16011 0
M  V30 6059 H 586.008 0.557338 -5.46063 0
M  V30 6060 H 586.269 1.64276 -4.10446 0
M  V30 6061 N 585.328 1.53329 -0.364422 0
M  V30 6062 C 586.605 1.93557 0.281962 0
M  V30 6063 C 586.985 1.29786 1.6649 0
M  V30 6064 O 586.333 0.456512 2.23893 0
M  V30 6065 C 586.543 3.47405 0.333331 0
M  V30 6066 C 587.891 4.20699 0.574231 0
M  V30 6067 O 588.915 3.53779 0.414588 0
M  V30 6068 O 587.774 5.39287 0.885002 0
M  V30 6069 H 584.868 0.809573 0.168881 0
M  V30 6070 H 587.414 1.64494 -0.417121 0
M  V30 6071 H 586.186 3.86091 -0.636326 0
M  V30 6072 H 585.809 3.82697 1.07836 0
M  V30 6073 N 586.806 0.0935595 1.57322 0
M  V30 6074 C 588.054 -0.569383 1.93913 0
M  V30 6075 C 588.375 -1.68817 0.976009 0
M  V30 6076 O 587.645 -1.9588 0.0278099 0
M  V30 6077 H 586.225 -0.21332 0.715894 0
M  V30 6078 H 588.887 0.156531 1.9427 0
M  V30 6079 H 587.983 -0.980577 2.96296 0
M  V30 6080 N 588.284 -1.56567 -0.180126 0
M  V30 6081 C 589.217 -1.90813 -1.25163 0
M  V30 6082 C 590.195 -0.7699 -1.43218 0
M  V30 6083 O 591.379 -1.02236 -1.58367 0
M  V30 6084 C 588.506 -2.15138 -2.61597 0
M  V30 6085 C 587.552 -3.37834 -2.60328 0
M  V30 6086 S 588.385 -4.92486 -2.1028 0
M  V30 6087 C 589.541 -5.19896 -3.48509 0
M  V30 6088 H 589.774 -2.81398 -0.959283 0
M  V30 6089 H 587.307 -1.49541 -0.3843 0
M  V30 6090 H 589.265 -2.29835 -3.40127 0
M  V30 6091 H 587.926 -1.25276 -2.88036 0
M  V30 6092 H 587.119 -3.52027 -3.60684 0
M  V30 6093 H 586.721 -3.22208 -1.8989 0
M  V30 6094 H 589.013 -5.11334 -4.44459 0
M  V30 6095 H 589.956 -6.21571 -3.39198 0
M  V30 6096 H 590.364 -4.47489 -3.44114 0
M  V30 6097 N 589.762 0.448376 -1.51087 0
M  V30 6098 C 591.008 1.20049 -1.6345 0
M  V30 6099 C 591.341 1.91121 -0.344444 0
M  V30 6100 O 590.616 1.83125 0.655396 0
M  V30 6101 C 590.899 2.22624 -2.83038 0
M  V30 6102 C 590.752 1.55708 -4.21989 0
M  V30 6103 C 592.071 3.23718 -2.98152 0
M  V30 6104 H 589.19 0.435085 -0.59487 0
M  V30 6105 H 591.832 0.491183 -1.83541 0
M  V30 6106 H 589.982 2.83117 -2.66039 0
M  V30 6107 H 591.654 0.986367 -4.50631 0
M  V30 6108 H 589.897 0.859647 -4.25197 0
M  V30 6109 H 590.568 2.30357 -5.01637 0
M  V30 6110 H 593.044 2.73269 -3.13788 0
M  V30 6111 H 591.92 3.92795 -3.83411 0
M  V30 6112 H 592.181 3.89179 -2.09743 0
M  V30 6113 N 591.24 1.41047 0.703093 0
M  V30 6114 C 592.488 1.39723 1.4602 0
M  V30 6115 C 592.809 0.00461257 1.94999 0
M  V30 6116 O 592.079 -0.952292 1.71196 0
M  V30 6117 H 590.659 0.514281 0.541779 0
M  V30 6118 H 593.321 1.76217 0.832678 0
M  V30 6119 H 592.417 2.07982 2.32701 0
M  V30 6120 N 592.718 -0.936591 1.26751 0
M  V30 6121 C 593.651 -2.03619 1.03027 0
M  V30 6122 C 594.629 -1.62534 -0.0464619 0
M  V30 6123 O 595.813 -1.88251 0.0968873 0
M  V30 6124 C 592.94 -3.3402 0.561072 0
M  V30 6125 C 591.986 -3.9408 1.63105 0
M  V30 6126 S 592.819 -4.27782 3.22122 0
M  V30 6127 C 593.975 -5.61277 2.76982 0
M  V30 6128 H 594.208 -2.23429 1.96129 0
M  V30 6129 H 591.741 -1.07857 1.10482 0
M  V30 6130 H 593.699 -4.09424 0.297031 0
M  V30 6131 H 592.36 -3.12147 -0.349741 0
M  V30 6132 H 591.553 -4.88154 1.25386 0
M  V30 6133 H 591.155 -3.25227 1.84671 0
M  V30 6134 H 593.447 -6.40189 2.21731 0
M  V30 6135 H 594.39 -6.03887 3.69766 0
M  V30 6136 H 594.798 -5.21374 2.16402 0
M  V30 6137 N 594.196 -1.08629 -1.14182 0
M  V30 6138 C 595.126 -0.740003 -2.21464 0
M  V30 6139 C 596.107 0.278591 -1.67803 0
M  V30 6140 O 597.292 0.148461 -1.93632 0
M  V30 6141 C 594.422 -0.150952 -3.46972 0
M  V30 6142 C 593.376 -1.09815 -4.13672 0
M  V30 6143 C 592.702 -0.3712 -5.3341 0
M  V30 6144 C 594.002 -2.43722 -4.61949 0
M  V30 6145 H 595.696 -1.63697 -2.50686 0
M  V30 6146 H 593.242 -0.788526 -1.20492 0
M  V30 6147 H 595.195 0.103325 -4.21273 0
M  V30 6148 H 593.919 0.781164 -3.1712 0
M  V30 6149 H 592.578 -1.33756 -3.41328 0
M  V30 6150 H 592.226 0.564792 -4.99819 0
M  V30 6151 H 591.926 -1.00267 -5.78982 0
M  V30 6152 H 593.45 -0.12503 -6.10472 0
M  V30 6153 H 594.864 -2.24034 -5.27714 0
M  V30 6154 H 593.261 -3.02582 -5.18232 0
M  V30 6155 H 594.331 -3.05082 -3.76899 0
M  V30 6156 N 595.674 1.31259 -0.872281 0
M  V30 6157 C 596.607 2.26544 -0.274394 0
M  V30 6158 C 597.585 1.51213 0.597776 0
M  V30 6159 O 598.769 1.80277 0.550687 0
M  V30 6160 C 595.896 3.33139 0.611256 0
M  V30 6161 C 594.942 4.26077 -0.189876 0
M  V30 6162 S 595.775 5.11971 -1.56989 0
M  V30 6163 C 596.931 6.2208 -0.690427 0
M  V30 6164 H 597.164 2.76908 -1.0821 0
M  V30 6165 H 594.697 1.3906 -0.670939 0
M  V30 6166 H 596.655 3.95024 1.11654 0
M  V30 6167 H 595.316 2.81525 1.39294 0
M  V30 6168 H 594.509 5.01657 0.485433 0
M  V30 6169 H 594.111 3.68701 -0.627339 0
M  V30 6170 H 596.403 6.77429 0.098001 0
M  V30 6171 H 597.346 6.93768 -1.41742 0
M  V30 6172 H 597.754 5.63915 -0.256953 0
M  V30 6173 N 597.152 0.631951 1.44375 0
M  V30 6174 C 598.429 0.067646 1.95483 0
M  V30 6175 C 598.809 -1.40683 1.57389 0
M  V30 6176 O 598.157 -2.12167 0.848375 0
M  V30 6177 C 598.367 0.291392 3.47781 0
M  V30 6178 C 599.715 0.185028 4.24197 0
M  V30 6179 O 600.739 0.222803 3.55503 0
M  V30 6180 O 599.598 0.0906642 5.46425 0
M  V30 6181 H 596.692 -0.0218379 0.826712 0
M  V30 6182 H 599.238 0.703711 1.54421 0
M  V30 6183 H 598.01 1.31449 3.68561 0
M  V30 6184 H 597.633 -0.378772 3.95792 0
M  V30 6185 N 598.631 -1.53133 0.372548 0
M  V30 6186 C 599.879 -2.00958 -0.214534 0
M  V30 6187 C 600.2 -1.26135 -1.48711 0
M  V30 6188 O 599.47 -0.376597 -1.92246 0
M  V30 6189 H 598.05 -0.742456 -0.0822664 0
M  V30 6190 H 600.712 -1.88367 0.500385 0
M  V30 6191 H 599.808 -3.09031 -0.436605 0
M  V30 6192 N 600.109 -0.101901 -1.5727 0
M  V30 6193 C 601.039 0.851544 -2.17419 0
M  V30 6194 C 602.02 1.28942 -1.10941 0
M  V30 6195 O 603.205 1.35509 -1.39107 0
M  V30 6196 C 600.335 2.10816 -2.75996 0
M  V30 6197 C 599.289 1.80867 -3.87906 0
M  V30 6198 C 598.615 3.13413 -4.33216 0
M  V30 6199 C 599.915 1.0903 -5.10793 0
M  V30 6200 H 601.609 0.350381 -2.97343 0
M  V30 6201 H 599.155 0.16709 -1.43027 0
M  V30 6202 H 601.108 2.77959 -3.16729 0
M  V30 6203 H 599.832 2.63227 -1.93337 0
M  V30 6204 H 598.491 1.16119 -3.47724 0
M  V30 6205 H 598.139 3.63725 -3.47438 0
M  V30 6206 H 597.839 2.94155 -5.08671 0
M  V30 6207 H 599.363 3.81704 -4.76586 0
M  V30 6208 H 600.777 1.66295 -5.48652 0
M  V30 6209 H 599.174 0.99927 -5.91722 0
M  V30 6210 H 600.244 0.0741704 -4.84843 0
M  V30 6211 N 601.587 1.56661 0.17182 0
M  V30 6212 C 602.534 1.96371 1.21273 0
M  V30 6213 C 603.504 0.82756 1.44016 0
M  V30 6214 O 604.689 1.08764 1.56764 0
M  V30 6215 C 601.829 2.32838 2.54716 0
M  V30 6216 C 600.942 3.59628 2.39356 0
M  V30 6217 C 600.077 3.85311 3.65662 0
M  V30 6218 C 599.116 5.0545 3.45234 0
M  V30 6219 N 598.253 5.27268 4.63608 0
M  V30 6220 H 603.093 2.85106 0.86709 0
M  V30 6221 H 600.63 1.41073 0.416744 0
M  V30 6222 H 602.588 2.52004 3.3249 0
M  V30 6223 H 601.218 1.47214 2.87277 0
M  V30 6224 H 600.27 3.4838 1.52761 0
M  V30 6225 H 601.582 4.4756 2.20207 0
M  V30 6226 H 600.736 4.04841 4.51872 0
M  V30 6227 H 599.475 2.95753 3.8779 0
M  V30 6228 H 598.48 4.85819 2.5741 0
M  V30 6229 H 599.705 5.96538 3.24529 0
M  V30 6230 H 597.651 4.40662 4.85956 0
M  V30 6231 H 597.568 6.09422 4.4737 0
M  V30 6232 H 598.836 5.51277 5.51103 0
M  V30 6233 N 603.065 -0.440357 1.51323 0
M  V30 6234 C 603.975 -1.55955 1.75258 0
M  V30 6235 C 604.991 -1.61933 0.636687 0
M  V30 6236 O 606.167 -1.79231 0.918593 0
M  V30 6237 C 603.232 -2.9196 1.86977 0
M  V30 6238 C 602.293 -2.96122 3.10822 0
M  V30 6239 C 601.526 -4.2564 3.21973 0
M  V30 6240 O 601.749 -5.17851 2.39137 0
M  V30 6241 O 600.683 -4.36025 4.14929 0
M  V30 6242 H 604.509 -1.38673 2.70191 0
M  V30 6243 H 602.094 -0.623055 1.35788 0
M  V30 6244 H 603.976 -3.72682 1.96688 0
M  V30 6245 H 602.651 -3.09375 0.952307 0
M  V30 6246 H 601.558 -2.14366 3.06591 0
M  V30 6247 H 602.891 -2.83651 4.02247 0
M  V30 6248 N 604.543 -1.41418 -0.695603 0
M  V30 6249 C 605.473 -1.46035 -1.82197 0
M  V30 6250 C 606.454 -0.319025 -1.67082 0
M  V30 6251 O 607.639 -0.530462 -1.86815 0
M  V30 6252 C 604.769 -1.34179 -3.20333 0
M  V30 6253 C 603.723 -2.46123 -3.50154 0
M  V30 6254 C 603.049 -2.19332 -4.87645 0
M  V30 6255 C 604.349 -3.88463 -3.49133 0
M  V30 6256 H 606.043 -2.40303 -1.78591 0
M  V30 6257 H 603.589 -1.15663 -0.857797 0
M  V30 6258 H 605.542 -1.36021 -3.98844 0
M  V30 6259 H 604.266 -0.363952 -3.24566 0
M  V30 6260 H 602.925 -2.43563 -2.73994 0
M  V30 6261 H 602.573 -1.19891 -4.88503 0
M  V30 6262 H 602.273 -2.94344 -5.08562 0
M  V30 6263 H 603.797 -2.22889 -5.68465 0
M  V30 6264 H 605.211 -3.92738 -4.17648 0
M  V30 6265 H 603.608 -4.63158 -3.81582 0
M  V30 6266 H 604.678 -4.16617 -2.48109 0
M  V30 6267 N 606.021 0.929856 -1.27246 0
M  V30 6268 C 606.969 2.05151 -1.09616 0
M  V30 6269 C 607.963 1.69388 -0.0198617 0
M  V30 6270 O 609.169 1.79124 -0.177417 0
M  V30 6271 H 605.544 0.671909 -0.337701 0
M  V30 6272 H 607.515 2.17168 -2.04648 0
M  V30 6273 C 606.264 3.3934 -0.757851 0
M  V30 6274 H 605.587 3.67343 -1.57795 0
M  V30 6275 H 607.027 4.18603 -0.674358 0
M  V30 6276 C 605.486 3.32582 0.537658 0
M  V30 6277 O 606.016 3.69633 1.57271 0
M  V30 6278 N 604.222 2.8568 0.532478 0
M  V30 6279 H 603.769 2.55725 -0.310233 0
M  V30 6280 H 603.727 2.81541 1.39936 0
M  V30 6281 N 607.499 1.09233 1.13605 0
M  V30 6282 C 608.429 0.751738 2.21068 0
M  V30 6283 C 609.41 -0.269688 1.67948 0
M  V30 6284 O 610.595 -0.13819 1.93708 0
M  V30 6285 C 607.725 0.16935 3.46887 0
M  V30 6286 C 606.679 1.12007 4.13084 0
M  V30 6287 C 606.005 0.399483 5.33206 0
M  V30 6288 C 607.305 2.46168 4.6065 0
M  V30 6289 H 608.999 1.65024 2.49815 0
M  V30 6290 H 606.545 0.794905 1.20072 0
M  V30 6291 H 608.498 -0.0809824 4.21322 0
M  V30 6292 H 607.222 -0.764335 3.1753 0
M  V30 6293 H 605.881 1.35564 3.40614 0
M  V30 6294 H 605.529 -0.538277 5.00112 0
M  V30 6295 H 605.229 1.03337 5.78442 0
M  V30 6296 H 606.753 0.157403 6.10397 0
M  V30 6297 H 608.167 2.26829 5.26518 0
M  V30 6298 H 606.564 3.05326 5.1662 0
M  V30 6299 H 607.634 3.07076 3.75276 0
M  V30 6300 N 608.977 -1.30795 0.87923 0
M  V30 6301 C 609.927 -2.25838 0.313276 0
M  V30 6302 C 610.911 -1.51025 -0.55499 0
M  V30 6303 O 612.103 -1.72413 -0.400353 0
M  V30 6304 C 609.232 -3.39981 -0.476204 0
M  V30 6305 C 608.318 -4.22154 0.405826 0
M  V30 6306 N 608.709 -4.82934 1.50362 0
M  V30 6307 C 607.007 -4.45552 0.199909 0
M  V30 6308 C 607.708 -5.44444 2.0483 0
M  V30 6309 N 606.684 -5.26723 1.34403 0
M  V30 6310 H 610.486 -2.70374 1.15218 0
M  V30 6311 H 608 -1.45168 0.728003 0
M  V30 6312 H 609.997 -4.07108 -0.898251 0
M  V30 6313 H 608.657 -2.96986 -1.31261 0
M  V30 6314 H 609.668 -4.82319 1.8865 0
M  V30 6315 H 606.345 -4.13169 -0.599795 0
M  V30 6316 H 607.735 -6.02701 2.96986 0
M  V30 6317 N 610.455 -0.639598 -1.44038 0
M  V30 6318 C 611.871 -0.305953 -1.5664 0
M  V30 6319 C 612.071 1.19055 -1.62567 0
M  V30 6320 O 611.127 1.97492 -1.57331 0
M  V30 6321 C 612.44 -1.00533 -2.83397 0
M  V30 6322 C 613.988 -0.984278 -2.97121 0
M  V30 6323 C 614.463 -1.66428 -4.26691 0
M  V30 6324 N 615.954 -1.63127 -4.33525 0
M  V30 6325 C 616.689 -2.12629 -5.32519 0
M  V30 6326 N 616.185 -2.70359 -6.3787 0
M  V30 6327 N 617.978 -2.03208 -5.24083 0
M  V30 6328 H 610.129 -1.6109 -1.38434 0
M  V30 6329 H 612.392 -0.676672 -0.663942 0
M  V30 6330 H 612.098 -2.06034 -2.85032 0
M  V30 6331 H 611.972 -0.548362 -3.73193 0
M  V30 6332 H 614.359 0.0622792 -2.95034 0
M  V30 6333 H 614.44 -1.47981 -2.08651 0
M  V30 6334 H 614.084 -2.71034 -4.29538 0
M  V30 6335 H 614.014 -1.14351 -5.14034 0
M  V30 6336 H 616.505 -1.20987 -3.58009 0
M  V30 6337 H 616.818 -3.05842 -7.09704 0
M  V30 6338 H 615.163 -2.74414 -6.38531 0
M  V30 6339 H 618.354 -1.57823 -4.40692 0
M  V30 6340 H 618.527 -2.42097 -6.01077 0
M  V30 6341 N 611.933 1.52934 -0.380664 0
M  V30 6342 C 613.173 2.03378 0.204161 0
M  V30 6343 C 613.537 1.26132 1.44758 0
M  V30 6344 O 614.738 1.66657 2.109 0
M  V30 6345 C 613.009 3.54241 0.474118 0
M  V30 6346 S 614.568 4.26529 1.03046 0
M  V30 6347 H 611.386 0.708608 0.0582719 0
M  V30 6348 H 613.988 1.88263 -0.527017 0
M  V30 6349 H 612.692 4.08055 -0.438088 0
M  V30 6350 H 612.223 3.73547 1.23396 0
M  V30 6351 H 614.238 4.38964 2.31354 0
M  V30 6352 N 613.412 0.11024 1.57214 0
M  V30 6353 C 614.342 -0.840002 2.17867 0
M  V30 6354 C 615.323 -1.28352 1.11624 0
M  V30 6355 O 616.508 -1.3477 1.39824 0
M  V30 6356 C 613.638 -2.09349 2.77111 0
M  V30 6357 C 612.592 -1.78807 3.8886 0
M  V30 6358 C 611.918 -3.11112 4.34872 0
M  V30 6359 C 613.218 -1.0632 5.11364 0
M  V30 6360 H 614.912 -0.334608 2.97524 0
M  V30 6361 H 612.458 -0.159502 1.43114 0
M  V30 6362 H 614.411 -2.76275 3.18198 0
M  V30 6363 H 613.135 -2.62198 1.9473 0
M  V30 6364 H 611.794 -1.14273 3.48335 0
M  V30 6365 H 611.442 -3.61877 3.49362 0
M  V30 6366 H 611.142 -2.91453 5.10224 0
M  V30 6367 H 612.666 -3.79171 4.78604 0
M  V30 6368 H 614.08 -1.63383 5.49526 0
M  V30 6369 H 612.477 -0.967876 5.92243 0
M  V30 6370 H 613.547 -0.0484569 4.84876 0
M  V30 6371 N 614.89 -1.56749 -0.16351 0
M  V30 6372 C 615.838 -1.97939 -1.22159 0
M  V30 6373 C 616.832 -0.869288 -1.45395 0
M  V30 6374 O 618.038 -1.05443 -1.45883 0
M  V30 6375 H 614.413 -0.629869 -0.410815 0
M  V30 6376 H 616.384 -2.86115 -0.847381 0
M  V30 6377 C 615.133 -2.36206 -2.55151 0
M  V30 6378 H 614.456 -3.2117 -2.38097 0
M  V30 6379 H 615.896 -2.68863 -3.27854 0
M  V30 6380 C 614.355 -1.20841 -3.14482 0
M  V30 6381 O 614.885 -0.500258 -3.98573 0
M  V30 6382 N 613.091 -0.976943 -2.73686 0
M  V30 6383 H 612.638 -1.55457 -2.05404 0
M  V30 6384 H 612.596 -0.206912 -3.13718 0
M  V30 6385 N 616.368 0.432326 -1.51554 0
M  V30 6386 C 617.298 1.53242 -1.76179 0
M  V30 6387 C 618.279 1.58717 -0.611801 0
M  V30 6388 O 619.464 1.74364 -0.855033 0
M  V30 6389 C 616.594 2.91278 -1.89141 0
M  V30 6390 C 615.548 3.00663 -3.04608 0
M  V30 6391 C 614.874 4.40728 -3.02759 0
M  V30 6392 C 616.174 2.74281 -4.44485 0
M  V30 6393 H 617.868 1.32886 -2.68294 0
M  V30 6394 H 615.414 0.637841 -1.29103 0
M  V30 6395 H 617.367 3.68203 -2.04951 0
M  V30 6396 H 616.091 3.12877 -0.936785 0
M  V30 6397 H 614.75 2.26179 -2.88511 0
M  V30 6398 H 614.398 4.59301 -2.05065 0
M  V30 6399 H 614.098 4.47936 -3.80299 0
M  V30 6400 H 615.622 5.19619 -3.20669 0
M  V30 6401 H 617.036 3.40936 -4.60907 0
M  V30 6402 H 615.433 2.92893 -5.23769 0
M  V30 6403 H 616.503 1.69856 -4.54177 0
M  V30 6404 N 617.846 1.41785 0.688094 0
M  V30 6405 C 619.095 1.4084 1.44385 0
M  V30 6406 C 619.408 0.0234166 1.95586 0
M  V30 6407 O 620.614 -0.108647 2.71283 0
M  V30 6408 C 619.07 2.47675 2.61123 0
M  V30 6409 C 618.678 3.92116 2.16677 0
M  V30 6410 C 620.422 2.55877 3.38714 0
M  V30 6411 C 618.329 4.90487 3.30419 0
M  V30 6412 H 617.259 0.523787 0.542368 0
M  V30 6413 H 619.91 1.6764 0.74627 0
M  V30 6414 H 618.292 2.14018 3.33185 0
M  V30 6415 H 619.466 4.35059 1.51856 0
M  V30 6416 H 617.781 3.87642 1.5206 0
M  V30 6417 H 620.378 3.26553 4.234 0
M  V30 6418 H 620.721 1.59801 3.84408 0
M  V30 6419 H 621.254 2.88662 2.73714 0
M  V30 6420 H 617.993 5.87994 2.89729 0
M  V30 6421 H 617.513 4.52187 3.94065 0
M  V30 6422 H 619.192 5.11591 3.96085 0
M  V30 6423 N 619.324 -0.923095 1.27737 0
M  V30 6424 C 620.254 -2.04124 1.13383 0
M  V30 6425 C 621.235 -1.70066 0.0340658 0
M  V30 6426 O 622.42 -1.93068 0.209383 0
M  V30 6427 C 619.55 -3.3831 0.785097 0
M  V30 6428 C 618.504 -3.86496 1.8386 0
M  V30 6429 C 617.83 -5.1754 1.34373 0
M  V30 6430 C 619.13 -4.09381 3.24353 0
M  V30 6431 H 620.824 -2.1639 2.06919 0
M  V30 6432 H 618.37 -1.03976 0.996243 0
M  V30 6433 H 620.323 -4.16016 0.671485 0
M  V30 6434 H 619.047 -3.2607 -0.185969 0
M  V30 6435 H 617.706 -3.10987 1.9412 0
M  V30 6436 H 617.354 -5.01696 0.361989 0
M  V30 6437 H 617.054 -5.50751 2.04811 0
M  V30 6438 H 618.578 -5.97811 1.24315 0
M  V30 6439 H 619.992 -4.77641 3.17067 0
M  V30 6440 H 618.389 -4.53906 3.92542 0
M  V30 6441 H 619.459 -3.14515 3.69064 0
M  V30 6442 N 620.802 -1.09834 -1.13024 0
M  V30 6443 C 622.051 -0.831806 -1.83749 0
M  V30 6444 C 622.364 0.644763 -1.84668 0
M  V30 6445 O 623.57 1.02697 -2.51327 0
M  V30 6446 C 622.026 -1.43817 -3.29916 0
M  V30 6447 C 621.634 -2.94759 -3.37374 0
M  V30 6448 C 623.378 -1.25077 -4.05655 0
M  V30 6449 C 621.285 -3.48461 -4.77838 0
M  V30 6450 H 620.215 -0.30751 -0.688443 0
M  V30 6451 H 622.866 -1.32156 -1.27307 0
M  V30 6452 H 621.248 -0.876106 -3.86187 0
M  V30 6453 H 622.422 -3.57228 -2.91076 0
M  V30 6454 H 620.737 -3.12581 -2.75103 0
M  V30 6455 H 623.334 -1.62649 -5.09362 0
M  V30 6456 H 623.677 -0.191782 -4.15858 0
M  V30 6457 H 624.21 -1.78057 -3.55725 0
M  V30 6458 H 620.949 -4.53998 -4.72828 0
M  V30 6459 H 620.469 -2.90757 -5.24615 0
M  V30 6460 H 622.148 -3.45914 -5.46766 0
M  V30 6461 N 622.28 1.30327 -0.886154 0
M  V30 6462 C 623.505 2.0079 -0.519425 0
M  V30 6463 C 623.93 1.65979 0.885013 0
M  V30 6464 O 623.288 0.877043 1.58675 0
M  V30 6465 C 623.336 3.53686 -0.702758 0
M  V30 6466 O 622.44 4.11637 0.250828 0
M  V30 6467 H 621.781 0.63171 -0.204544 0
M  V30 6468 H 624.311 1.66145 -1.19402 0
M  V30 6469 H 624.321 4.03531 -0.602207 0
M  V30 6470 H 622.996 3.78361 -1.72673 0
M  V30 6471 H 621.573 3.72755 0.103873 0
M  V30 6472 N 623.758 0.647228 1.43697 0
M  V30 6473 C 625.035 0.0883758 1.954 0
M  V30 6474 C 625.415 -1.39006 1.58873 0
M  V30 6475 O 624.763 -2.11255 0.87083 0
M  V30 6476 C 624.973 0.328263 3.47453 0
M  V30 6477 C 626.321 0.230009 4.23977 0
M  V30 6478 O 627.345 0.260496 3.55246 0
M  V30 6479 O 626.204 0.148615 5.46298 0
M  V30 6480 H 623.298 -0.0130683 0.826897 0
M  V30 6481 H 625.844 0.72005 1.53666 0
M  V30 6482 H 624.616 1.3535 3.67146 0
M  V30 6483 H 624.239 -0.336772 3.96171 0
M  V30 6484 N 625.236 -1.5273 0.388769 0
M  V30 6485 C 626.186 -2.23238 -0.463567 0
M  V30 6486 C 627.17 -1.23606 -1.03007 0
M  V30 6487 O 628.362 -1.48945 -0.956261 0
M  V30 6488 C 625.491 -3.04228 -1.5906 0
M  V30 6489 C 624.577 -4.11255 -1.03587 0
M  V30 6490 N 624.968 -5.0538 -0.206038 0
M  V30 6491 C 623.266 -4.26376 -1.30841 0
M  V30 6492 C 623.967 -5.81613 0.100359 0
M  V30 6493 N 622.943 -5.41264 -0.503447 0
M  V30 6494 H 626.745 -2.93367 0.176978 0
M  V30 6495 H 624.259 -1.61188 0.198046 0
M  V30 6496 H 626.256 -3.53277 -2.21362 0
M  V30 6497 H 624.916 -2.35634 -2.23398 0
M  V30 6498 H 625.927 -5.17663 0.156659 0
M  V30 6499 H 622.604 -3.69011 -1.95287 0
M  V30 6500 H 623.994 -6.67442 0.772676 0
M  V30 6501 N 626.714 -0.118576 -1.57153 0
M  V30 6502 C 627.962 0.538461 -1.94795 0
M  V30 6503 C 628.283 1.67243 -1.00274 0
M  V30 6504 O 627.553 1.95811 -0.0589692 0
M  V30 6505 H 626.133 0.201904 -0.719197 0
M  V30 6506 H 628.795 -0.187418 -1.93997 0
M  V30 6507 H 627.891 0.933315 -2.97818 0
M  V30 6508 N 628.193 1.56834 0.155195 0
M  V30 6509 C 629.126 1.9278 1.22111 0
M  V30 6510 C 630.104 0.792588 1.41975 0
M  V30 6511 O 631.288 1.04743 1.5672 0
M  V30 6512 C 628.415 2.19273 2.58142 0
M  V30 6513 C 627.461 3.41932 2.54921 0
M  V30 6514 S 628.294 4.95769 2.02418 0
M  V30 6515 C 629.45 5.25375 3.40194 0
M  V30 6516 H 629.683 2.82889 0.914393 0
M  V30 6517 H 627.216 1.50133 0.360461 0
M  V30 6518 H 629.174 2.35217 3.36427 0
M  V30 6519 H 627.835 1.29843 2.86007 0
M  V30 6520 H 627.028 3.57721 3.55038 0
M  V30 6521 H 626.63 3.25188 1.8474 0
M  V30 6522 H 628.922 5.1834 4.36268 0
M  V30 6523 H 629.865 6.26889 3.29266 0
M  V30 6524 H 630.273 4.52906 3.36951 0
M  V30 6525 N 629.671 -0.424282 1.51781 0
M  V30 6526 C 630.581 -1.54087 1.76902 0
M  V30 6527 C 631.597 -1.61249 0.653826 0
M  V30 6528 O 632.773 -1.78247 0.937552 0
M  V30 6529 C 629.838 -2.8996 1.90063 0
M  V30 6530 C 628.899 -2.92809 3.13945 0
M  V30 6531 C 628.132 -4.22201 3.26469 0
M  V30 6532 O 628.355 -5.15286 2.44616 0
M  V30 6533 O 627.289 -4.31599 4.1953 0
M  V30 6534 H 631.115 -1.358 2.71647 0
M  V30 6535 H 628.7 -0.608618 1.36441 0
M  V30 6536 H 630.582 -3.70575 2.0063 0
M  V30 6537 H 629.257 -3.08347 0.985067 0
M  V30 6538 H 628.164 -2.11102 3.08847 0
M  V30 6539 H 629.497 -2.79369 4.05233 0
M  V30 6540 N 631.149 -1.42148 -0.680565 0
M  V30 6541 C 632.081 -1.41119 -1.80605 0
M  V30 6542 C 633.094 -0.311099 -1.598 0
M  V30 6543 O 634.283 -0.573813 -1.69026 0
M  V30 6544 C 631.383 -1.18204 -3.17618 0
M  V30 6545 C 630.556 -2.40537 -3.65322 0
M  V30 6546 C 629.615 -2.13254 -4.8105 0
M  V30 6547 O 628.641 -2.8641 -4.91892 0
M  V30 6548 N 629.843 -1.13208 -5.69354 0
M  V30 6549 H 632.608 -2.38128 -1.81975 0
M  V30 6550 H 630.169 -1.36953 -0.863446 0
M  V30 6551 H 632.161 -0.97878 -3.92686 0
M  V30 6552 H 630.731 -0.29738 -3.11182 0
M  V30 6553 H 629.951 -2.76468 -2.80996 0
M  V30 6554 H 631.239 -3.22012 -3.93936 0
M  V30 6555 H 630.637 -0.526893 -5.63241 0
M  V30 6556 H 629.194 -0.988699 -6.44258 0
M  V30 6557 N 632.627 0.916307 -1.28225 0
M  V30 6558 C 633.875 1.6619 -1.15002 0
M  V30 6559 C 634.196 1.92642 0.302329 0
M  V30 6560 O 633.466 1.54076 1.20985 0
M  V30 6561 H 632.046 0.615964 -0.422608 0
M  V30 6562 H 634.708 1.09963 -1.60917 0
M  V30 6563 H 633.804 2.62533 -1.68769 0
M  V30 6564 N 634.105 1.10431 1.1244 0
M  V30 6565 C 635.33 0.869089 1.88313 0
M  V30 6566 C 635.755 -0.574912 1.79099 0
M  V30 6567 O 635.113 -1.40496 1.14589 0
M  V30 6568 C 635.161 1.32208 3.3549 0
M  V30 6569 O 634.265 0.487092 4.09513 0
M  V30 6570 H 633.606 0.313894 0.585121 0
M  V30 6571 H 636.136 1.47111 1.42195 0
M  V30 6572 H 636.146 1.31201 3.86329 0
M  V30 6573 H 634.821 2.37364 3.41513 0
M  V30 6574 H 633.398 0.562372 3.68635 0
M  V30 6575 N 635.583 -1.29855 0.893053 0
M  V30 6576 C 636.823 -1.97612 0.522399 0
M  V30 6577 C 637.187 -1.68903 -0.913 0
M  V30 6578 O 638.388 -2.30059 -1.39019 0
M  V30 6579 C 636.659 -3.48356 0.79893 0
M  V30 6580 S 638.218 -4.35568 0.531588 0
M  V30 6581 H 635.036 -0.684005 0.194058 0
M  V30 6582 H 637.638 -1.57803 1.15406 0
M  V30 6583 H 636.342 -3.66743 1.84196 0
M  V30 6584 H 635.873 -3.93094 0.155133 0
M  V30 6585 H 637.888 -4.92232 -0.626295 0
M  V30 6586 N 637.061 -0.65484 -1.43351 0
M  V30 6587 C 638.008 0.0357713 -2.30772 0
M  V30 6588 C 638.978 0.813035 -1.44841 0
M  V30 6589 O 640.163 0.789314 -1.73708 0
M  V30 6590 C 637.303 0.995084 -3.30442 0
M  V30 6591 C 636.416 0.21375 -4.31471 0
M  V30 6592 C 635.551 1.16701 -5.18222 0
M  V30 6593 C 634.59 0.376201 -6.10943 0
M  V30 6594 N 633.727 1.28113 -6.90313 0
M  V30 6595 H 638.567 -0.71559 -2.89281 0
M  V30 6596 H 636.104 -0.364645 -1.42509 0
M  V30 6597 H 638.062 1.5649 -3.86739 0
M  V30 6598 H 636.692 1.7133 -2.7358 0
M  V30 6599 H 635.744 -0.472377 -3.77456 0
M  V30 6600 H 637.056 -0.401103 -4.97185 0
M  V30 6601 H 636.21 1.8074 -5.79153 0
M  V30 6602 H 634.949 1.81577 -4.52638 0
M  V30 6603 H 633.954 -0.277534 -5.49099 0
M  V30 6604 H 635.179 -0.268178 -6.7857 0
M  V30 6605 H 633.125 1.91666 -6.27376 0
M  V30 6606 H 633.042 0.720879 -7.52555 0
M  V30 6607 H 634.31 1.90962 -7.55747 0
M  V30 6608 N 638.539 1.52521 -0.396863 0
M  V30 6609 C 639.486 2.26671 0.434624 0
M  V30 6610 C 640.456 1.28584 1.05144 0
M  V30 6611 O 641.641 1.57426 1.07804 0
M  V30 6612 C 638.781 3.08234 1.55196 0
M  V30 6613 C 637.894 4.21261 0.957262 0
M  V30 6614 C 637.029 4.90205 2.04627 0
M  V30 6615 C 636.068 5.95213 1.42787 0
M  V30 6616 N 635.205 6.57723 2.45651 0
M  V30 6617 H 640.045 2.973 -0.204139 0
M  V30 6618 H 637.582 1.46669 -0.112505 0
M  V30 6619 H 639.54 3.53819 2.2106 0
M  V30 6620 H 638.17 2.398 2.16092 0
M  V30 6621 H 637.222 3.79935 0.188005 0
M  V30 6622 H 638.534 4.96624 0.465416 0
M  V30 6623 H 637.688 5.39133 2.78246 0
M  V30 6624 H 636.427 4.14383 2.57174 0
M  V30 6625 H 635.432 5.45616 0.676968 0
M  V30 6626 H 636.657 6.72972 0.910255 0
M  V30 6627 H 634.603 5.84737 2.97353 0
M  V30 6628 H 634.52 7.28723 2.01243 0
M  V30 6629 H 635.788 7.11293 3.18876 0
M  V30 6630 N 640.017 0.126909 1.57088 0
M  V30 6631 C 641.247 -0.535892 1.99529 0
M  V30 6632 C 641.655 -1.60259 1.00566 0
M  V30 6633 O 640.998 -1.83698 -0.00843269 0
M  V30 6634 C 641.06 -1.21374 3.38391 0
M  V30 6635 C 640.724 -0.294044 4.56053 0
M  V30 6636 C 641.721 0.470454 5.17767 0
M  V30 6637 C 639.406 -0.202808 5.0189 0
M  V30 6638 C 641.4 1.31384 6.23712 0
M  V30 6639 C 639.087 0.644203 6.07695 0
M  V30 6640 C 640.085 1.40115 6.68473 0
M  V30 6641 O 639.773 2.23408 7.72233 0
M  V30 6642 H 639.505 -0.145799 0.66009 0
M  V30 6643 H 642.059 0.212441 2.04298 0
M  V30 6644 H 640.289 -2.00931 3.30399 0
M  V30 6645 H 641.978 -1.77424 3.65069 0
M  V30 6646 H 642.744 0.409884 4.83265 0
M  V30 6647 H 638.623 -0.781688 4.54324 0
M  V30 6648 H 642.167 1.90514 6.71081 0
M  V30 6649 H 638.064 0.706137 6.41626 0
M  V30 6650 H 638.832 2.16436 7.89365 0
M  V30 6651 N 641.495 -1.56914 -0.146875 0
M  V30 6652 C 642.744 -1.82546 -0.857898 0
M  V30 6653 C 643.057 -0.708169 -1.8233 0
M  V30 6654 O 644.263 -0.850093 -2.57848 0
M  V30 6655 C 642.719 -3.23548 -1.57623 0
M  V30 6656 C 642.327 -4.43212 -0.653224 0
M  V30 6657 C 644.071 -3.58453 -2.27402 0
M  V30 6658 C 641.978 -5.75237 -1.37318 0
M  V30 6659 H 640.908 -0.680786 -0.32411 0
M  V30 6660 H 643.559 -1.83166 -0.110639 0
M  V30 6661 H 641.941 -3.17315 -2.36912 0
M  V30 6662 H 643.115 -4.60682 0.104452 0
M  V30 6663 H 641.43 -4.16351 -0.0638336 0
M  V30 6664 H 644.027 -4.54349 -2.81907 0
M  V30 6665 H 644.37 -2.84516 -3.03901 0
M  V30 6666 H 644.903 -3.66347 -1.55032 0
M  V30 6667 H 641.642 -6.52269 -0.650041 0
M  V30 6668 H 641.162 -5.61703 -2.10357 0
M  V30 6669 H 642.841 -6.18039 -1.91406 0
M  V30 6670 N 642.974 0.416227 -1.52004 0
M  V30 6671 C 644.204 1.18401 -1.69307 0
M  V30 6672 C 644.612 1.84943 -0.399072 0
M  V30 6673 O 643.955 1.72406 0.634177 0
M  V30 6674 C 644.017 2.29465 -2.76742 0
M  V30 6675 C 643.681 1.83117 -4.18709 0
M  V30 6676 C 644.678 1.32286 -5.02789 0
M  V30 6677 C 642.363 1.90167 -4.64911 0
M  V30 6678 C 644.357 0.891178 -6.31139 0
M  V30 6679 C 642.044 1.4661 -5.93253 0
M  V30 6680 C 643.042 0.961696 -6.76196 0
M  V30 6681 O 642.73 0.532388 -8.02135 0
M  V30 6682 H 642.462 0.362098 -0.570843 0
M  V30 6683 H 645.016 0.496764 -1.99302 0
M  V30 6684 H 643.246 3.01531 -2.42107 0
M  V30 6685 H 644.935 2.91252 -2.82713 0
M  V30 6686 H 645.701 1.26218 -4.68288 0
M  V30 6687 H 641.58 2.28371 -4.00459 0
M  V30 6688 H 645.124 0.496788 -6.95829 0
M  V30 6689 H 641.021 1.52355 -6.27263 0
M  V30 6690 H 641.789 0.656339 -8.15864 0
M  V30 6691 N 644.452 1.42507 0.673017 0
M  V30 6692 C 645.382 1.48916 1.79851 0
M  V30 6693 C 646.363 0.345566 1.66553 0
M  V30 6694 O 647.548 0.560116 1.85947 0
M  V30 6695 C 644.678 1.39258 3.18158 0
M  V30 6696 C 643.632 2.51662 3.46194 0
M  V30 6697 C 642.958 2.27062 4.84094 0
M  V30 6698 C 644.258 3.93968 3.42909 0
M  V30 6699 H 645.952 2.43114 1.74745 0
M  V30 6700 H 643.498 1.17013 0.839288 0
M  V30 6701 H 645.451 1.42349 3.96629 0
M  V30 6702 H 644.175 0.415542 3.23946 0
M  V30 6703 H 642.834 2.47891 2.70084 0
M  V30 6704 H 642.482 1.27648 4.86534 0
M  V30 6705 H 642.182 3.02398 5.03815 0
M  V30 6706 H 643.706 2.31905 5.64847 0
M  V30 6707 H 645.12 3.99332 4.11347 0
M  V30 6708 H 643.517 4.6917 3.74165 0
M  V30 6709 H 644.587 4.20512 2.41449 0
M  V30 6710 N 645.93 -0.909495 1.28709 0
M  V30 6711 C 646.878 -2.03381 1.12866 0
M  V30 6712 C 647.872 -1.69335 0.0468074 0
M  V30 6713 O 649.078 -1.78819 0.205891 0
M  V30 6714 H 645.453 -0.666452 0.348348 0
M  V30 6715 H 647.424 -2.13885 2.08077 0
M  V30 6716 C 646.173 -3.38092 0.811742 0
M  V30 6717 H 645.496 -3.64786 1.63619 0
M  V30 6718 H 646.936 -4.17477 0.740869 0
M  V30 6719 C 645.395 -3.33395 -0.484679 0
M  V30 6720 O 645.925 -3.72089 -1.5137 0
M  V30 6721 N 644.131 -2.86491 -0.486961 0
M  V30 6722 H 643.678 -2.55199 0.350877 0
M  V30 6723 H 643.636 -2.83731 -1.3544 0
M  V30 6724 N 647.408 -1.11026 -1.11852 0
M  V30 6725 C 648.355 -0.764662 -2.17765 0
M  V30 6726 C 649.325 0.261854 -1.64023 0
M  V30 6727 O 650.51 0.139748 -1.90288 0
M  V30 6728 C 647.65 -0.209317 -3.44465 0
M  V30 6729 C 646.763 -1.29187 -4.12231 0
M  V30 6730 C 645.898 -0.697523 -5.266 0
M  V30 6731 C 644.937 -1.76023 -5.86244 0
M  V30 6732 N 644.074 -1.18569 -6.92016 0
M  V30 6733 H 648.914 -1.67202 -2.46673 0
M  V30 6734 H 646.451 -0.835065 -1.21099 0
M  V30 6735 H 648.409 0.130599 -4.16996 0
M  V30 6736 H 647.039 0.661251 -3.15955 0
M  V30 6737 H 646.091 -1.74881 -3.37818 0
M  V30 6738 H 647.403 -2.09607 -4.52622 0
M  V30 6739 H 646.557 -0.307412 -6.05921 0
M  V30 6740 H 645.296 0.138044 -4.87505 0
M  V30 6741 H 644.301 -2.1597 -5.05606 0
M  V30 6742 H 645.526 -2.59875 -6.27409 0
M  V30 6743 H 643.472 -0.371695 -6.54946 0
M  V30 6744 H 643.389 -1.92666 -7.31038 0
M  V30 6745 H 644.657 -0.82233 -7.7515 0
M  V30 6746 N 648.886 1.2938 -0.899927 0
M  V30 6747 C 650.116 1.99402 -0.540601 0
M  V30 6748 C 650.524 1.67534 0.87914 0
M  V30 6749 O 649.867 0.916821 1.59186 0
M  V30 6750 C 649.929 3.53514 -0.653326 0
M  V30 6751 C 649.593 4.08937 -2.04009 0
M  V30 6752 C 650.59 4.23815 -3.01126 0
M  V30 6753 C 648.275 4.43962 -2.34953 0
M  V30 6754 C 650.269 4.72951 -4.27313 0
M  V30 6755 C 647.956 4.92795 -3.61382 0
M  V30 6756 C 648.954 5.07244 -4.57376 0
M  V30 6757 O 648.642 5.55017 -5.8156 0
M  V30 6758 H 648.374 0.64383 -0.206057 0
M  V30 6759 H 650.928 1.65878 -1.21134 0
M  V30 6760 H 649.158 3.86628 0.0744449 0
M  V30 6761 H 650.847 4.04767 -0.303118 0
M  V30 6762 H 651.613 3.97043 -2.78535 0
M  V30 6763 H 647.492 4.31974 -1.60994 0
M  V30 6764 H 651.036 4.84144 -5.02245 0
M  V30 6765 H 646.933 5.19004 -3.83804 0
M  V30 6766 H 647.701 5.73331 -5.84153 0
M  V30 6767 N 650.364 0.662433 1.43002 0
M  V30 6768 C 651.294 -0.00979809 2.33498 0
M  V30 6769 C 652.275 -0.802329 1.49989 0
M  V30 6770 O 653.46 -0.761964 1.78627 0
M  V30 6771 C 650.59 -0.970446 3.33466 0
M  V30 6772 C 649.544 -0.287383 4.27034 0
M  V30 6773 C 648.87 -1.36012 5.17112 0
M  V30 6774 C 650.17 0.82595 5.15728 0
M  V30 6775 H 651.864 0.745959 2.89958 0
M  V30 6776 H 649.41 0.360172 1.39423 0
M  V30 6777 H 651.363 -1.44971 3.95679 0
M  V30 6778 H 650.087 -1.75748 2.75282 0
M  V30 6779 H 648.746 0.17152 3.66199 0
M  V30 6780 H 648.394 -2.13882 4.55262 0
M  V30 6781 H 648.094 -0.908276 5.80538 0
M  V30 6782 H 649.618 -1.84056 5.82199 0
M  V30 6783 H 651.032 0.42845 5.71697 0
M  V30 6784 H 649.429 1.20282 5.87922 0
M  V30 6785 H 650.499 1.68003 4.54866 0
M  V30 6786 N 651.842 -1.52309 0.404946 0
M  V30 6787 C 653.09 -2.01368 -0.17186 0
M  V30 6788 C 653.411 -1.29261 -1.46002 0
M  V30 6789 O 652.681 -0.41729 -1.91404 0
M  V30 6790 H 651.261 -0.744034 -0.0664993 0
M  V30 6791 H 653.923 -1.87263 0.540228 0
M  V30 6792 H 653.019 -3.09888 -0.370957 0
M  V30 6793 N 653.32 -0.135238 -1.57019 0
M  V30 6794 C 654.597 0.563227 -1.87316 0
M  V30 6795 C 654.977 1.83749 -1.03921 0
M  V30 6796 O 654.325 2.2817 -0.122675 0
M  V30 6797 C 654.535 0.840031 -3.3874 0
M  V30 6798 C 655.883 1.18598 -4.077 0
M  V30 6799 O 656.907 0.92977 -3.43851 0
M  V30 6800 O 655.766 1.66758 -5.20436 0
M  V30 6801 H 652.86 0.285971 -0.775983 0
M  V30 6802 H 655.406 -0.170965 -1.68837 0
M  V30 6803 H 654.178 -0.0622785 -3.9125 0
M  V30 6804 H 653.801 1.62882 -3.62706 0
M  V30 6805 N 654.798 1.5699 0.138552 0
M  V30 6806 C 656.044 1.84081 0.85099 0
M  V30 6807 C 656.377 0.718107 1.80435 0
M  V30 6808 O 655.652 -0.277633 1.92508 0
M  V30 6809 C 655.935 3.21699 1.61808 0
M  V30 6810 C 655.788 4.44544 0.685633 0
M  V30 6811 C 657.107 3.5664 2.57868 0
M  V30 6812 H 654.226 0.669592 0.307922 0
M  V30 6813 H 656.868 1.89646 0.11588 0
M  V30 6814 H 655.018 3.17086 2.24474 0
M  V30 6815 H 656.69 4.61248 0.0693179 0
M  V30 6816 H 654.933 4.338 -0.00421993 0
M  V30 6817 H 655.604 5.3746 1.25858 0
M  V30 6818 H 658.08 3.61918 2.05316 0
M  V30 6819 H 656.956 4.53946 3.08584 0
M  V30 6820 H 657.217 2.83036 3.39622 0
M  V30 6821 N 656.276 -0.40816 1.52223 0
M  V30 6822 C 657.223 -1.49737 1.75635 0
M  V30 6823 C 658.193 -1.5493 0.598824 0
M  V30 6824 O 659.378 -1.71487 0.83648 0
M  V30 6825 C 656.518 -2.87174 1.91376 0
M  V30 6826 C 655.631 -2.91283 3.19027 0
M  V30 6827 C 654.766 -4.20026 3.25195 0
M  V30 6828 C 653.805 -4.18113 4.47044 0
M  V30 6829 N 652.942 -5.38429 4.50598 0
M  V30 6830 H 657.782 -1.29075 2.68596 0
M  V30 6831 H 655.319 -0.626518 1.33091 0
M  V30 6832 H 657.277 -3.66959 1.98486 0
M  V30 6833 H 655.907 -3.06329 1.01795 0
M  V30 6834 H 654.959 -2.03984 3.21084 0
M  V30 6835 H 656.271 -2.85734 4.08849 0
M  V30 6836 H 655.425 -5.08204 3.31382 0
M  V30 6837 H 654.164 -4.28271 2.33313 0
M  V30 6838 H 653.169 -3.28325 4.41002 0
M  V30 6839 H 654.394 -4.11507 5.40221 0
M  V30 6840 H 652.34 -5.4734 3.616 0
M  V30 6841 H 652.257 -5.34879 5.34266 0
M  V30 6842 H 653.525 -6.28557 4.61016 0
M  V30 6843 N 657.755 -1.42862 -0.66545 0
M  V30 6844 C 658.703 -1.47319 -1.8 0
M  V30 6845 C 659.697 -0.347963 -1.65788 0
M  V30 6846 O 660.903 -0.521406 -1.72283 0
M  V30 6847 H 657.278 -0.461588 -0.593667 0
M  V30 6848 H 659.249 -2.42876 -1.7336 0
M  V30 6849 C 657.998 -1.40152 -3.18203 0
M  V30 6850 H 657.321 -2.26035 -3.2977 0
M  V30 6851 H 658.761 -1.47331 -3.9758 0
M  V30 6852 C 657.22 -0.117493 -3.36695 0
M  V30 6853 O 657.75 0.826058 -3.93115 0
M  V30 6854 N 655.956 -0.0316218 -2.90583 0
M  V30 6855 H 655.503 -0.800247 -2.44855 0
M  V30 6856 H 655.461 0.826835 -3.03333 0
M  V30 6857 N 659.233 0.902656 -1.29189 0
M  V30 6858 C 660.482 1.6475 -1.16362 0
M  V30 6859 C 660.795 1.93517 0.284682 0
M  V30 6860 O 662.001 2.66192 0.534229 0
M  V30 6861 C 660.457 2.96848 -2.03493 0
M  V30 6862 C 660.065 2.75687 -3.5313 0
M  V30 6863 C 661.809 3.74762 -1.99383 0
M  V30 6864 C 659.716 4.03492 -4.32375 0
M  V30 6865 H 658.646 0.618041 -0.431904 0
M  V30 6866 H 661.297 1.0008 -1.53806 0
M  V30 6867 H 659.679 3.62715 -1.58916 0
M  V30 6868 H 660.853 2.18431 -4.05739 0
M  V30 6869 H 659.168 2.11171 -3.58881 0
M  V30 6870 H 661.765 4.69515 -2.5585 0
M  V30 6871 H 662.108 4.04767 -0.973123 0
M  V30 6872 H 662.641 3.15732 -2.41988 0
M  V30 6873 H 659.38 3.78656 -5.3507 0
M  V30 6874 H 658.9 4.60318 -3.84535 0
M  V30 6875 H 660.579 4.71662 -4.42881 0
M  V30 6876 N 660.711 1.11618 1.11262 0
M  V30 6877 C 661.658 0.7762 2.17356 0
M  V30 6878 C 662.628 -0.253152 1.6416 0
M  V30 6879 O 663.813 -0.129655 1.90359 0
M  V30 6880 C 660.953 0.227581 3.44349 0
M  V30 6881 C 660.066 1.31372 4.1154 0
M  V30 6882 C 659.201 0.72544 5.26223 0
M  V30 6883 C 658.24 1.7913 5.85302 0
M  V30 6884 N 657.377 1.22237 6.91377 0
M  V30 6885 H 662.217 1.68508 2.45783 0
M  V30 6886 H 659.754 0.841475 1.20655 0
M  V30 6887 H 661.712 -0.108483 4.17059 0
M  V30 6888 H 660.342 -0.644486 3.16301 0
M  V30 6889 H 659.394 1.7667 3.36885 0
M  V30 6890 H 660.706 2.12005 4.51504 0
M  V30 6891 H 659.86 0.339541 6.05749 0
M  V30 6892 H 658.599 -0.112188 4.87571 0
M  V30 6893 H 657.604 2.18648 5.04453 0
M  V30 6894 H 658.829 2.63199 6.26022 0
M  V30 6895 H 656.775 0.406423 6.5474 0
M  V30 6896 H 656.692 1.9654 7.30006 0
M  V30 6897 H 657.96 0.863426 7.74703 0
M  V30 6898 N 662.189 -1.289 0.906776 0
M  V30 6899 C 663.435 -1.95558 0.53712 0
M  V30 6900 C 663.768 -1.71262 -0.915582 0
M  V30 6901 O 663.043 -1.02961 -1.65013 0
M  V30 6902 C 663.326 -3.50198 0.838645 0
M  V30 6903 C 663.179 -3.83923 2.34357 0
M  V30 6904 C 664.498 -4.38861 0.329988 0
M  V30 6905 H 661.617 -0.710289 0.196617 0
M  V30 6906 H 664.259 -1.52392 1.13475 0
M  V30 6907 H 662.409 -3.87096 0.330024 0
M  V30 6908 H 664.081 -3.56933 2.92227 0
M  V30 6909 H 662.324 -3.31215 2.80141 0
M  V30 6910 H 662.995 -4.91883 2.5051 0
M  V30 6911 H 665.471 -4.08996 0.765609 0
M  V30 6912 H 664.347 -5.45931 0.570105 0
M  V30 6913 H 664.608 -4.35352 -0.769511 0
M  V30 6914 N 663.667 -0.670007 -1.42649 0
M  V30 6915 C 664.916 -0.187526 -2.00826 0
M  V30 6916 C 665.229 1.21142 -1.53571 0
M  V30 6917 O 666.435 1.79001 -2.04134 0
M  V30 6918 C 664.891 -0.284409 -3.58774 0
M  V30 6919 C 664.499 -1.6871 -4.15019 0
M  V30 6920 C 666.243 0.139605 -4.2427 0
M  V30 6921 C 664.15 -1.73701 -5.65316 0
M  V30 6922 H 663.08 -0.0663468 -0.751075 0
M  V30 6923 H 665.731 -0.834492 -1.63427 0
M  V30 6924 H 664.113 0.430364 -3.93655 0
M  V30 6925 H 665.287 -2.42857 -3.91608 0
M  V30 6926 H 663.602 -2.05855 -3.61957 0
M  V30 6927 H 666.199 0.122398 -5.3456 0
M  V30 6928 H 666.542 1.17403 -3.99402 0
M  V30 6929 H 667.075 -0.523995 -3.94334 0
M  V30 6930 H 663.814 -2.75109 -5.94975 0
M  V30 6931 H 663.334 -1.03903 -5.90732 0
M  V30 6932 H 665.013 -1.48829 -6.2965 0
M  V30 6933 N 665.145 1.52092 -0.413018 0
M  V30 6934 C 666.375 2.05974 0.160648 0
M  V30 6935 C 666.783 1.28267 1.39084 0
M  V30 6936 O 666.126 0.328805 1.80733 0
M  V30 6937 C 666.188 3.54918 0.572169 0
M  V30 6938 C 665.852 4.53705 -0.547826 0
M  V30 6939 C 666.849 5.00342 -1.41259 0
M  V30 6940 C 664.534 4.97089 -0.721627 0
M  V30 6941 C 666.528 5.89011 -2.43607 0
M  V30 6942 C 664.215 5.85554 -1.74841 0
M  V30 6943 C 665.213 6.3141 -2.60403 0
M  V30 6944 O 664.901 7.18123 -3.61323 0
M  V30 6945 H 664.633 0.675636 0.0221936 0
M  V30 6946 H 667.187 1.96931 -0.58373 0
M  V30 6947 H 665.417 3.61661 1.36889 0
M  V30 6948 H 667.106 3.91428 1.0742 0
M  V30 6949 H 667.872 4.67537 -1.28974 0
M  V30 6950 H 663.751 4.60954 -0.0652911 0
M  V30 6951 H 667.295 6.24725 -3.10425 0
M  V30 6952 H 663.192 6.17773 -1.87156 0
M  V30 6953 H 663.96 7.36244 -3.57613 0
M  V30 6954 N 666.623 0.143563 1.56945 0
M  V30 6955 C 667.871 -0.507402 1.95627 0
M  V30 6956 C 668.192 -1.65626 1.02922 0
M  V30 6957 O 667.462 -1.95693 0.0901136 0
M  V30 6958 H 666.042 -0.190436 0.722318 0
M  V30 6959 H 668.704 0.218257 1.93674 0
M  V30 6960 H 667.8 -0.885816 2.99265 0
M  V30 6961 N 668.101 -1.57061 -0.130224 0
M  V30 6962 C 669.512 -1.73539 -0.68856 0
M  V30 6963 C 669.863 -0.760554 -1.80859 0
M  V30 6964 O 668.988 0.0690796 -2.1629 0
M  V30 6965 C 669.583 -3.14666 -1.25581 0
M  V30 6966 C 668.142 -3.32689 -1.76055 0
M  V30 6967 C 667.289 -2.69436 -0.655712 0
M  V30 6968 H 670.24 -1.58412 0.0956002 0
M  V30 6969 H 670.261 -3.15595 -2.12556 0
M  V30 6970 H 669.773 -3.85593 -0.440412 0
M  V30 6971 H 667.874 -2.66786 -2.60108 0
M  V30 6972 H 667.987 -4.4077 -1.87772 0
M  V30 6973 H 666.351 -2.30362 -1.08654 0
M  V30 6974 H 667.134 -3.42979 0.14852 0
M  V30 6975 N 669.579 0.400081 -1.52437 0
M  V30 6976 C 670.542 1.4707 -1.75793 0
M  V30 6977 C 671.542 1.48036 -0.627856 0
M  V30 6978 O 672.732 1.49401 -0.895817 0
M  V30 6979 C 669.864 2.86427 -1.84858 0
M  V30 6980 H 671.057 1.27649 -2.71377 0
M  V30 6981 H 668.61 0.631141 -1.42991 0
M  V30 6982 H 669.345 3.11207 -0.912194 0
M  V30 6983 H 669.13 2.87128 -2.6702 0
M  V30 6984 H 670.62 3.64023 -2.04638 0
M  V30 6985 N 671.057 1.43213 0.657864 0
M  V30 6986 C 672.02 1.47687 1.75275 0
M  V30 6987 C 673.02 0.362179 1.56668 0
M  V30 6988 O 674.21 0.623734 1.62651 0
M  V30 6989 C 671.342 1.32497 3.14098 0
M  V30 6990 H 672.535 2.4519 1.7269 0
M  V30 6991 H 670.088 1.2991 0.869087 0
M  V30 6992 H 670.823 0.359831 3.22298 0
M  V30 6993 H 670.608 2.13299 3.29008 0
M  V30 6994 H 672.098 1.38549 3.93946 0
M  V30 6995 N 672.536 -0.895792 1.29666 0
M  V30 6996 C 673.952 -1.17726 1.07763 0
M  V30 6997 C 674.152 -2.00794 -0.168576 0
M  V30 6998 O 673.208 -2.37213 -0.865244 0
M  V30 6999 C 674.521 -1.89441 2.33522 0
M  V30 7000 C 676.069 -2.02251 2.3888 0
M  V30 7001 C 676.544 -2.77378 3.64452 0
M  V30 7002 N 678.035 -2.8493 3.65198 0
M  V30 7003 C 678.77 -3.43606 4.59045 0
M  V30 7004 N 678.266 -4.03417 5.63228 0
M  V30 7005 N 680.059 -3.41317 4.46608 0
M  V30 7006 H 672.21 -0.341652 2.09634 0
M  V30 7007 H 674.473 -0.213865 0.923561 0
M  V30 7008 H 674.179 -1.35842 3.24407 0
M  V30 7009 H 674.053 -2.89893 2.41334 0
M  V30 7010 H 676.44 -2.55025 1.4848 0
M  V30 7011 H 676.521 -1.0092 2.3505 0
M  V30 7012 H 676.165 -2.25279 4.55205 0
M  V30 7013 H 676.095 -3.79062 3.65541 0
M  V30 7014 H 678.586 -2.42453 2.89871 0
M  V30 7015 H 678.899 -4.46224 6.30955 0
M  V30 7016 H 677.244 -4.01868 5.67033 0
M  V30 7017 H 680.435 -2.93812 3.64407 0
M  V30 7018 H 680.608 -3.86751 5.1993 0
M  V30 7019 N 674.014 -1.12206 -1.10668 0
M  V30 7020 C 674.944 -0.810086 -2.18997 0
M  V30 7021 C 675.925 0.225065 -1.68604 0
M  V30 7022 O 677.11 0.086783 -1.94006 0
M  V30 7023 C 674.24 -0.261262 -3.46316 0
M  V30 7024 C 673.194 -1.2292 -4.09969 0
M  V30 7025 C 672.52 -0.540713 -5.31959 0
M  V30 7026 C 673.82 -2.58295 -4.53962 0
M  V30 7027 H 675.514 -1.7159 -2.45352 0
M  V30 7028 H 673.06 -0.82646 -1.17922 0
M  V30 7029 H 675.013 -0.0307522 -4.21389 0
M  V30 7030 H 673.737 0.679879 -3.19445 0
M  V30 7031 H 672.396 -1.44548 -3.369 0
M  V30 7032 H 672.044 0.405492 -5.01363 0
M  V30 7033 H 671.744 -1.18637 -5.75499 0
M  V30 7034 H 673.268 -0.319184 -6.09765 0
M  V30 7035 H 674.682 -2.40709 -5.20319 0
M  V30 7036 H 673.079 -3.18916 -5.08343 0
M  V30 7037 H 674.149 -3.16918 -3.67002 0
M  V30 7038 N 675.492 1.28418 -0.913599 0
M  V30 7039 C 676.908 1.47411 -0.611728 0
M  V30 7040 C 677.108 1.83018 0.843008 0
M  V30 7041 O 676.164 1.93505 1.6221 0
M  V30 7042 C 677.477 2.57703 -1.5495 0
M  V30 7043 C 679.025 2.71572 -1.5562 0
M  V30 7044 C 679.5 3.85008 -2.48058 0
M  V30 7045 N 680.991 3.92361 -2.46184 0
M  V30 7046 C 681.726 4.79516 -3.14407 0
M  V30 7047 N 681.222 5.71262 -3.91958 0
M  V30 7048 N 683.015 4.73125 -3.03495 0
M  V30 7049 H 675.166 1.03585 -1.85429 0
M  V30 7050 H 677.429 0.515907 -0.795326 0
M  V30 7051 H 677.135 2.38298 -2.58663 0
M  V30 7052 H 677.009 3.54801 -1.28048 0
M  V30 7053 H 679.396 2.90366 -0.526441 0
M  V30 7054 H 679.477 1.75006 -1.86565 0
M  V30 7055 H 679.121 3.66969 -3.51136 0
M  V30 7056 H 679.051 4.80971 -2.14416 0
M  V30 7057 H 681.542 3.26749 -1.89851 0
M  V30 7058 H 681.855 6.34593 -4.41034 0
M  V30 7059 H 680.2 5.71103 -3.96063 0
M  V30 7060 H 683.391 4.00442 -2.42413 0
M  V30 7061 H 683.564 5.40834 -3.56935 0
M  V30 7062 N 676.97 0.677563 1.42291 0
M  V30 7063 C 678.381 0.277912 1.8462 0
M  V30 7064 C 678.732 -1.18048 1.56714 0
M  V30 7065 O 677.857 -1.90404 1.02836 0
M  V30 7066 C 678.452 0.497619 3.35126 0
M  V30 7067 C 677.011 0.152063 3.76093 0
M  V30 7068 C 676.158 0.78872 2.65847 0
M  V30 7069 H 679.109 0.879527 1.32098 0
M  V30 7070 H 679.13 -0.24939 3.79682 0
M  V30 7071 H 678.642 1.55913 3.55405 0
M  V30 7072 H 676.743 -0.905896 3.6142 0
M  V30 7073 H 676.856 0.594514 4.75397 0
M  V30 7074 H 675.22 0.219813 2.5375 0
M  V30 7075 H 676.003 1.85374 2.88949 0
M  V30 7076 N 678.448 -1.51871 0.421078 0
M  V30 7077 C 679.673 -2.0684 -0.152371 0
M  V30 7078 C 680.098 -1.28802 -1.37083 0
M  V30 7079 O 679.456 -0.321482 -1.78427 0
M  V30 7080 C 679.504 -3.57532 -0.469368 0
M  V30 7081 O 678.608 -3.81818 -1.55848 0
M  V30 7082 H 677.949 -0.663939 -0.00898586 0
M  V30 7083 H 680.479 -1.95674 0.597724 0
M  V30 7084 H 680.489 -4.01515 -0.724553 0
M  V30 7085 H 679.164 -4.13761 0.421276 0
M  V30 7086 H 677.741 -3.49709 -1.29453 0
M  V30 7087 N 679.926 -0.151884 -1.56866 0
M  V30 7088 C 681.203 0.543328 -1.87902 0
M  V30 7089 C 681.583 1.82636 -1.05864 0
M  V30 7090 O 680.931 2.28028 -0.146868 0
M  V30 7091 C 681.141 0.804056 -3.39611 0
M  V30 7092 C 682.489 1.14267 -4.08935 0
M  V30 7093 O 683.513 0.893248 -3.44818 0
M  V30 7094 O 682.372 1.61229 -5.22176 0
M  V30 7095 H 679.466 0.277724 -0.778973 0
M  V30 7096 H 682.012 -0.188862 -1.68646 0
M  V30 7097 H 680.784 -0.103772 -3.91162 0
M  V30 7098 H 680.407 1.59025 -3.64413 0
M  V30 7099 N 681.404 1.57128 0.121893 0
M  V30 7100 C 682.65 1.84974 0.831418 0
M  V30 7101 C 682.983 0.737204 1.79663 0
M  V30 7102 O 682.258 -0.257199 1.92792 0
M  V30 7103 C 682.541 3.23397 1.58386 0
M  V30 7104 C 682.394 4.45246 0.638445 0
M  V30 7105 C 683.713 3.59355 2.54071 0
M  V30 7106 H 680.832 0.67282 0.300803 0
M  V30 7107 H 683.474 1.89759 0.0957587 0
M  V30 7108 H 681.624 3.19449 2.21098 0
M  V30 7109 H 683.296 4.61295 0.0203925 0
M  V30 7110 H 681.539 4.33771 -0.05023 0
M  V30 7111 H 682.21 5.38765 1.20151 0
M  V30 7112 H 684.686 3.64075 2.01465 0
M  V30 7113 H 683.562 4.57193 3.03752 0
M  V30 7114 H 683.823 2.86622 3.36601 0
M  V30 7115 N 682.882 -0.391992 1.52647 0
M  V30 7116 C 684.293 -0.970064 1.5952 0
M  V30 7117 C 684.644 -1.91059 0.446207 0
M  V30 7118 O 683.769 -2.12062 -0.431125 0
M  V30 7119 C 684.364 -1.76614 2.89125 0
M  V30 7120 C 682.923 -2.29396 2.9842 0
M  V30 7121 C 682.07 -1.09864 2.54608 0
M  V30 7122 H 685.021 -0.171638 1.57769 0
M  V30 7123 H 685.042 -2.62511 2.75442 0
M  V30 7124 H 684.554 -1.08135 3.72731 0
M  V30 7125 H 682.655 -3.01196 2.19344 0
M  V30 7126 H 682.768 -2.59088 4.03002 0
M  V30 7127 H 681.132 -1.45777 2.08857 0
M  V30 7128 H 681.915 -0.429249 3.40606 0
M  V30 7129 N 684.36 -1.4356 -0.65026 0
M  V30 7130 C 685.637 -1.35811 -1.40765 0
M  V30 7131 C 686.017 -0.00736379 -2.11099 0
M  V30 7132 O 685.365 1.00932 -2.05 0
M  V30 7133 C 685.575 -2.54332 -2.3899 0
M  V30 7134 C 686.923 -2.97551 -3.02901 0
M  V30 7135 O 687.947 -2.544 -2.49317 0
M  V30 7136 O 686.806 -3.72311 -4.00059 0
M  V30 7137 H 683.9 -0.536861 -0.629054 0
M  V30 7138 H 686.446 -1.55615 -0.676919 0
M  V30 7139 H 685.218 -3.44274 -1.85986 0
M  V30 7140 H 684.841 -2.36643 -3.19509 0
M  V30 7141 N 685.838 0.888903 -1.30139 0
M  V30 7142 C 686.785 1.99422 -1.16188 0
M  V30 7143 C 687.755 1.66017 -0.0523869 0
M  V30 7144 O 688.94 1.89506 -0.221864 0
M  V30 7145 C 686.08 3.34325 -0.855612 0
M  V30 7146 C 685.193 3.80445 -2.0466 0
M  V30 7147 C 684.328 5.03975 -1.67876 0
M  V30 7148 C 683.367 5.42492 -2.83493 0
M  V30 7149 N 682.504 6.57206 -2.47032 0
M  V30 7150 H 687.344 2.10687 -2.10749 0
M  V30 7151 H 684.881 1.03165 -1.04859 0
M  V30 7152 H 686.839 4.11968 -0.658681 0
M  V30 7153 H 685.469 3.22756 0.0531155 0
M  V30 7154 H 684.521 2.98745 -2.3549 0
M  V30 7155 H 685.833 4.04933 -2.91257 0
M  V30 7156 H 684.987 5.89232 -1.44535 0
M  V30 7157 H 683.726 4.8135 -0.784431 0
M  V30 7158 H 682.731 4.55764 -3.07505 0
M  V30 7159 H 683.956 5.67093 -3.73607 0
M  V30 7160 H 681.902 6.36164 -1.601 0
M  V30 7161 H 681.819 6.81543 -3.27161 0
M  V30 7162 H 683.087 7.45704 -2.27038 0
M  V30 7163 N 687.317 1.12792 1.10072 0
M  V30 7164 C 688.547 0.907189 1.85617 0
M  V30 7165 C 688.955 -0.547181 1.81115 0
M  V30 7166 O 688.298 -1.39024 1.20075 0
M  V30 7167 C 688.36 1.30872 3.34832 0
M  V30 7168 C 688.024 2.77516 3.6309 0
M  V30 7169 C 689.021 3.75696 3.59373 0
M  V30 7170 C 686.706 3.14513 3.91646 0
M  V30 7171 C 688.7 5.08888 3.83812 0
M  V30 7172 C 686.387 4.47886 4.15742 0
M  V30 7173 C 687.385 5.44882 4.11816 0
M  V30 7174 O 687.073 6.7585 4.35295 0
M  V30 7175 H 686.805 0.323855 0.593375 0
M  V30 7176 H 689.359 1.50262 1.40038 0
M  V30 7177 H 687.589 0.656518 3.81086 0
M  V30 7178 H 689.278 1.06153 3.91773 0
M  V30 7179 H 690.044 3.48458 3.37345 0
M  V30 7180 H 685.923 2.39622 3.93831 0
M  V30 7181 H 689.467 5.84586 3.80663 0
M  V30 7182 H 685.364 4.74851 4.37249 0
M  V30 7183 H 686.132 6.81853 4.52791 0
M  V30 7184 N 688.795 -1.27931 0.920396 0
M  V30 7185 C 690.025 -1.98516 0.572256 0
M  V30 7186 C 690.433 -1.68912 -0.852375 0
M  V30 7187 O 689.776 -0.94203 -1.57707 0
M  V30 7188 C 689.838 -3.5243 0.709485 0
M  V30 7189 C 689.502 -4.0564 2.10489 0
M  V30 7190 C 690.499 -4.1897 3.07831 0
M  V30 7191 C 688.184 -4.40168 2.41986 0
M  V30 7192 C 690.178 -4.66093 4.34783 0
M  V30 7193 C 687.865 -4.86983 3.69176 0
M  V30 7194 C 688.863 -4.99903 4.65388 0
M  V30 7195 O 688.551 -5.45694 5.90316 0
M  V30 7196 H 688.283 -0.64047 0.216274 0
M  V30 7197 H 690.837 -1.6393 1.23758 0
M  V30 7198 H 689.067 -3.86698 -0.0129263 0
M  V30 7199 H 690.756 -4.04233 0.367474 0
M  V30 7200 H 691.522 -3.92562 2.84816 0
M  V30 7201 H 687.401 -4.29358 1.67846 0
M  V30 7202 H 690.945 -4.76092 5.09884 0
M  V30 7203 H 686.842 -5.12832 3.92012 0
M  V30 7204 H 687.61 -5.63965 5.932 0
M  V30 7205 N 690.273 -0.685099 -1.4193 0
M  V30 7206 C 691.498 -0.218842 -2.06242 0
M  V30 7207 C 691.923 1.11923 -1.51178 0
M  V30 7208 O 691.281 1.69837 -0.634446 0
M  V30 7209 C 691.329 -0.175592 -3.60172 0
M  V30 7210 O 690.433 0.852776 -4.03487 0
M  V30 7211 H 689.774 -0.109531 -0.654904 0
M  V30 7212 H 692.304 -0.937013 -1.81882 0
M  V30 7213 H 692.314 -0.00291151 -4.08 0
M  V30 7214 H 690.989 -1.15222 -3.99621 0
M  V30 7215 H 689.566 0.650301 -3.67186 0
M  V30 7216 N 691.751 1.51645 -0.429126 0
M  V30 7217 C 692.998 2.02015 0.140079 0
M  V30 7218 C 693.326 1.31374 1.43427 0
M  V30 7219 O 692.581 0.414779 1.91254 0
M  V30 7220 C 692.88 3.54989 0.414472 0
M  V30 7221 C 692.546 4.43874 -0.792911 0
M  V30 7222 C 691.208 4.67887 -1.12404 0
M  V30 7223 C 693.56 4.96074 -1.59875 0
M  V30 7224 C 690.888 5.41348 -2.26184 0
M  V30 7225 C 693.24 5.70782 -2.72747 0
M  V30 7226 C 691.904 5.93062 -3.06324 0
M  V30 7227 H 691.174 0.739225 0.0512585 0
M  V30 7228 H 693.821 1.82675 -0.574641 0
M  V30 7229 H 692.126 3.72615 1.21099 0
M  V30 7230 H 693.823 3.91489 0.868173 0
M  V30 7231 H 690.413 4.25374 -0.524871 0
M  V30 7232 H 694.597 4.77412 -1.35614 0
M  V30 7233 H 689.853 5.56815 -2.52522 0
M  V30 7234 H 694.027 6.10221 -3.35564 0
M  V30 7235 H 691.654 6.49764 -3.94602 0
M  V30 7236 N 693.229 0.160201 1.56784 0
M  V30 7237 C 694.177 -0.791402 2.18723 0
M  V30 7238 C 695.171 -1.24567 1.14801 0
M  V30 7239 O 696.377 -1.21262 1.33025 0
M  V30 7240 H 692.752 -0.273458 0.700517 0
M  V30 7241 H 694.723 -0.244931 2.97393 0
M  V30 7242 C 693.472 -2.01509 2.83354 0
M  V30 7243 H 692.795 -1.67454 3.63041 0
M  V30 7244 H 694.235 -2.66006 3.30177 0
M  V30 7245 C 692.694 -2.83159 1.82545 0
M  V30 7246 O 693.224 -3.79944 1.30405 0
M  V30 7247 N 691.43 -2.47953 1.51552 0
M  V30 7248 H 690.977 -1.69309 1.94144 0
M  V30 7249 H 690.935 -3.02873 0.843519 0
M  V30 7250 N 694.707 -1.5719 -0.113559 0
M  V30 7251 C 695.937 -1.89053 -0.833212 0
M  V30 7252 C 696.345 -0.750139 -1.73694 0
M  V30 7253 O 695.688 0.287808 -1.81431 0
M  V30 7254 C 695.75 -3.15986 -1.71443 0
M  V30 7255 C 695.414 -4.46271 -0.984449 0
M  V30 7256 C 696.411 -5.18897 -0.322741 0
M  V30 7257 C 694.096 -4.92963 -0.964011 0
M  V30 7258 C 696.09 -6.3644 0.349646 0
M  V30 7259 C 693.777 -6.10422 -0.287828 0
M  V30 7260 C 694.775 -6.82009 0.36784 0
M  V30 7261 O 694.463 -7.97233 1.03322 0
M  V30 7262 H 694.195 -0.630225 -0.244526 0
M  V30 7263 H 696.749 -2.05152 -0.100847 0
M  V30 7264 H 694.979 -2.95984 -2.48858 0
M  V30 7265 H 696.668 -3.33826 -2.309 0
M  V30 7266 H 697.434 -4.83875 -0.330114 0
M  V30 7267 H 693.313 -4.37143 -1.46379 0
M  V30 7268 H 696.857 -6.92254 0.861996 0
M  V30 7269 H 692.754 -6.449 -0.278237 0
M  V30 7270 H 693.522 -8.13105 0.938247 0
M  V30 7271 N 696.185 0.383891 -1.52853 0
M  V30 7272 C 697.095 1.49343 -1.80925 0
M  V30 7273 C 698.111 1.59458 -0.696348 0
M  V30 7274 O 699.287 1.75698 -0.984481 0
M  V30 7275 C 696.352 2.84819 -1.97684 0
M  V30 7276 C 695.413 2.84382 -3.21598 0
M  V30 7277 C 694.646 4.13397 -3.37548 0
M  V30 7278 O 694.869 5.08619 -2.58192 0
M  V30 7279 O 693.803 4.20325 -4.30826 0
M  V30 7280 H 697.629 1.2855 -2.75152 0
M  V30 7281 H 695.214 0.572229 -1.38007 0
M  V30 7282 H 697.096 3.65125 -2.10385 0
M  V30 7283 H 695.771 3.05627 -1.06647 0
M  V30 7284 H 694.678 2.0284 -3.14336 0
M  V30 7285 H 696.011 2.68526 -4.12498 0
M  V30 7286 N 697.663 1.43903 0.642637 0
M  V30 7287 C 698.911 1.45791 1.39962 0
M  V30 7288 C 699.232 0.0873144 1.94804 0
M  V30 7289 O 698.502 -0.878825 1.75081 0
M  V30 7290 H 697.082 0.536797 0.519479 0
M  V30 7291 H 699.744 1.7959 0.757189 0
M  V30 7292 H 698.84 2.17665 2.2367 0
M  V30 7293 N 699.141 -0.881989 1.30609 0
M  V30 7294 C 700.39 -1.62878 1.18969 0
M  V30 7295 C 700.703 -1.93946 -0.253859 0
M  V30 7296 O 701.909 -2.67008 -0.491813 0
M  V30 7297 C 700.365 -2.93573 2.0819 0
M  V30 7298 C 699.973 -2.70034 3.57471 0
M  V30 7299 C 701.717 -3.71543 2.0532 0
M  V30 7300 C 699.624 -3.96563 4.38739 0
M  V30 7301 H 698.554 -0.611092 0.441682 0
M  V30 7302 H 701.205 -0.976201 1.55379 0
M  V30 7303 H 699.587 -3.6014 1.64666 0
M  V30 7304 H 700.761 -2.11949 4.09163 0
M  V30 7305 H 699.076 -2.05435 3.62195 0
M  V30 7306 H 701.673 -4.65386 2.63288 0
M  V30 7307 H 702.016 -4.03167 1.03739 0
M  V30 7308 H 702.549 -3.11842 2.46981 0
M  V30 7309 H 699.288 -3.70095 5.41027 0
M  V30 7310 H 698.808 -4.54142 3.9181 0
M  V30 7311 H 700.487 -4.64557 4.50329 0
M  V30 7312 N 700.619 -1.13374 -1.09472 0
M  V30 7313 C 701.582 -0.813639 -2.14272 0
M  V30 7314 C 702.582 0.176677 -1.59826 0
M  V30 7315 O 703.772 -0.0503441 -1.74127 0
M  V30 7316 C 700.904 -0.210897 -3.40247 0
M  V30 7317 H 702.097 -1.74229 -2.44099 0
M  V30 7318 H 699.65 -0.938304 -1.25002 0
M  V30 7319 H 700.385 0.726998 -3.16046 0
M  V30 7320 H 700.17 -0.924048 -3.81056 0
M  V30 7321 H 701.66 -0.00377603 -4.176 0
M  V30 7322 N 702.098 1.27442 -0.927168 0
M  V30 7323 C 703.514 1.46754 -0.627329 0
M  V30 7324 C 703.714 1.83902 0.823549 0
M  V30 7325 O 702.77 1.95215 1.60148 0
M  V30 7326 C 704.083 2.56045 -1.57674 0
M  V30 7327 C 705.631 2.69906 -1.58491 0
M  V30 7328 C 706.106 3.82355 -2.52128 0
M  V30 7329 N 707.597 3.89728 -2.50332 0
M  V30 7330 C 708.332 4.76155 -3.19475 0
M  V30 7331 N 707.828 5.67073 -3.97995 0
M  V30 7332 N 709.621 4.6988 -3.08496 0
M  V30 7333 H 701.772 1.01613 -1.86517 0
M  V30 7334 H 704.035 0.507443 -0.800753 0
M  V30 7335 H 703.741 2.35542 -2.61176 0
M  V30 7336 H 703.615 3.53423 -1.31804 0
M  V30 7337 H 706.002 2.89792 -0.557208 0
M  V30 7338 H 706.083 1.73018 -1.8841 0
M  V30 7339 H 705.727 3.63224 -3.55008 0
M  V30 7340 H 705.657 4.7867 -2.19505 0
M  V30 7341 H 708.148 3.24717 -1.93306 0
M  V30 7342 H 708.461 6.2988 -4.4774 0
M  V30 7343 H 706.806 5.6687 -4.02098 0
M  V30 7344 H 709.997 3.97848 -2.46646 0
M  V30 7345 H 710.17 5.37017 -3.62652 0
M  V30 7346 N 703.576 0.692616 1.41565 0
M  V30 7347 C 704.524 0.0139952 2.32596 0
M  V30 7348 C 705.518 -0.771691 1.50802 0
M  V30 7349 O 706.724 -0.677646 1.66757 0
M  V30 7350 H 703.099 -0.0142745 0.751865 0
M  V30 7351 H 705.07 0.798851 2.87508 0
M  V30 7352 C 703.819 -0.910602 3.35564 0
M  V30 7353 H 703.142 -0.315446 3.98554 0
M  V30 7354 H 704.582 -1.3538 4.01806 0
M  V30 7355 C 703.041 -2.02539 2.6922 0
M  V30 7356 O 703.571 -3.11386 2.53775 0
M  V30 7357 N 701.777 -1.80227 2.27962 0
M  V30 7358 H 701.324 -0.917054 2.40724 0
M  V30 7359 H 701.282 -2.55001 1.83907 0
M  V30 7360 N 705.054 -1.51416 0.437162 0
M  V30 7361 C 705.984 -2.30631 -0.364922 0
M  V30 7362 C 706.965 -1.36037 -1.02118 0
M  V30 7363 O 708.15 -1.64956 -1.02485 0
M  V30 7364 C 705.28 -3.1482 -1.46648 0
M  V30 7365 C 704.234 -4.17691 -0.933717 0
M  V30 7366 C 703.56 -4.904 -2.13101 0
M  V30 7367 C 704.86 -5.2229 0.0317201 0
M  V30 7368 H 706.554 -2.97932 0.29614 0
M  V30 7369 H 704.1 -1.4328 0.143865 0
M  V30 7370 H 706.053 -3.69017 -2.03481 0
M  V30 7371 H 704.777 -2.4534 -2.15583 0
M  V30 7372 H 703.436 -3.64545 -0.387602 0
M  V30 7373 H 703.084 -4.17423 -2.80654 0
M  V30 7374 H 702.784 -5.59962 -1.78092 0
M  V30 7375 H 704.308 -5.4742 -2.70487 0
M  V30 7376 H 705.722 -5.7156 -0.446302 0
M  V30 7377 H 704.119 -5.99378 0.29437 0
M  V30 7378 H 705.189 -4.75131 0.968447 0
M  V30 7379 N 706.532 -0.168513 -1.56696 0
M  V30 7380 C 707.757 0.486688 -2.01609 0
M  V30 7381 C 708.182 1.56203 -1.04796 0
M  V30 7382 O 707.54 1.8128 -0.0270596 0
M  V30 7383 C 707.588 1.04451 -3.45141 0
M  V30 7384 O 706.692 2.15862 -3.51393 0
M  V30 7385 H 706.033 0.116831 -0.653641 0
M  V30 7386 H 708.563 -0.271579 -2.0279 0
M  V30 7387 H 708.573 1.36782 -3.84389 0
M  V30 7388 H 707.248 0.257155 -4.15104 0
M  V30 7389 H 705.825 1.84597 -3.24004 0
M  V30 7390 N 708.01 1.57248 0.105221 0
M  V30 7391 C 709.25 1.87393 0.816283 0
M  V30 7392 C 709.614 0.758249 1.76393 0
M  V30 7393 O 710.815 0.941835 2.5176 0
M  V30 7394 C 709.086 3.22775 1.53463 0
M  V30 7395 S 710.645 3.74588 2.28537 0
M  V30 7396 H 707.463 0.656847 0.272164 0
M  V30 7397 H 710.065 1.9536 0.073909 0
M  V30 7398 H 708.769 4.01905 0.830674 0
M  V30 7399 H 708.3 3.17921 2.3171 0
M  V30 7400 H 710.315 3.47193 3.54502 0
M  V30 7401 N 709.488 -0.375779 1.53054 0
M  V30 7402 C 710.904 -0.716764 1.426 0
M  V30 7403 C 711.104 -1.93651 0.556931 0
M  V30 7404 O 710.16 -2.52475 0.0354461 0
M  V30 7405 C 711.473 -0.939499 2.85646 0
M  V30 7406 C 713.021 -1.04015 2.95212 0
M  V30 7407 C 713.496 -1.29543 4.39298 0
M  V30 7408 N 714.987 -1.36335 4.42682 0
M  V30 7409 C 715.722 -1.57778 5.51266 0
M  V30 7410 N 715.218 -1.76604 6.69913 0
M  V30 7411 N 717.011 -1.60065 5.38828 0
M  V30 7412 H 709.162 0.42664 2.08071 0
M  V30 7413 H 711.425 0.128758 0.939215 0
M  V30 7414 H 711.131 -0.115189 3.51511 0
M  V30 7415 H 711.005 -1.85048 3.2869 0
M  V30 7416 H 713.392 -1.85501 2.29507 0
M  V30 7417 H 713.473 -0.106785 2.55577 0
M  V30 7418 H 713.117 -0.485611 5.05573 0
M  V30 7419 H 713.047 -2.24184 4.76497 0
M  V30 7420 H 715.538 -1.23441 3.5717 0
M  V30 7421 H 715.851 -1.9251 7.48438 0
M  V30 7422 H 714.196 -1.73802 6.72917 0
M  V30 7423 H 717.387 -1.44917 4.45103 0
M  V30 7424 H 717.56 -1.76435 6.23518 0
M  V30 7425 N 710.966 -1.44241 -0.634997 0
M  V30 7426 C 711.876 -1.53293 -1.77591 0
M  V30 7427 C 712.892 -0.418831 -1.68884 0
M  V30 7428 O 714.068 -0.675619 -1.8973 0
M  V30 7429 C 711.133 -1.47075 -3.13958 0
M  V30 7430 C 710.194 -2.69304 -3.34326 0
M  V30 7431 C 709.427 -2.63374 -4.64187 0
M  V30 7432 O 709.65 -1.69161 -5.44739 0
M  V30 7433 O 708.584 -3.54166 -4.86673 0
M  V30 7434 H 712.41 -2.49673 -1.72908 0
M  V30 7435 H 709.995 -1.26445 -0.795745 0
M  V30 7436 H 711.877 -1.46117 -3.95257 0
M  V30 7437 H 710.552 -0.538373 -3.19192 0
M  V30 7438 H 709.459 -2.75831 -2.52721 0
M  V30 7439 H 710.792 -3.61576 -3.33951 0
M  V30 7440 N 712.444 0.87505 -1.31075 0
M  V30 7441 C 713.855 1.4433 -1.18431 0
M  V30 7442 C 714.206 1.9506 0.211189 0
M  V30 7443 O 713.331 1.85847 1.10859 0
M  V30 7444 C 713.926 2.62341 -2.14389 0
M  V30 7445 C 712.485 3.15225 -2.05694 0
M  V30 7446 C 711.632 1.87929 -2.03907 0
M  V30 7447 H 714.583 0.684061 -1.432 0
M  V30 7448 H 714.604 3.3887 -1.73053 0
M  V30 7449 H 714.116 2.25388 -3.15946 0
M  V30 7450 H 712.217 3.56812 -1.07314 0
M  V30 7451 H 712.33 3.77853 -2.94558 0
M  V30 7452 H 710.694 2.06679 -1.48849 0
M  V30 7453 H 711.477 1.53221 -3.07211 0
M  V30 7454 N 713.922 1.13953 1.08869 0
M  V30 7455 C 714.87 0.817664 2.17754 0
M  V30 7456 C 715.864 -0.202444 1.68186 0
M  V30 7457 O 717.07 -0.0590159 1.79903 0
M  V30 7458 H 713.445 0.246671 0.710392 0
M  V30 7459 H 715.416 1.74401 2.4213 0
M  V30 7460 C 714.165 0.3063 3.46348 0
M  V30 7461 H 713.488 1.08259 3.84864 0
M  V30 7462 H 714.928 0.119584 4.23831 0
M  V30 7463 C 713.387 -0.969158 3.22659 0
M  V30 7464 O 713.917 -2.04386 3.45817 0
M  V30 7465 N 712.123 -0.902516 2.7623 0
M  V30 7466 H 711.67 -0.027801 2.57585 0
M  V30 7467 H 711.628 -1.75649 2.60758 0
M  V30 7468 N 715.4 -1.26948 0.933913 0
M  V30 7469 C 716.332 -2.25768 0.395137 0
M  V30 7470 C 717.345 -1.55637 -0.477585 0
M  V30 7471 O 718.534 -1.76142 -0.289204 0
M  V30 7472 C 715.634 -3.35874 -0.451882 0
M  V30 7473 C 714.807 -4.3554 0.40299 0
M  V30 7474 C 713.866 -5.24809 -0.3824 0
M  V30 7475 O 712.892 -5.68805 0.212057 0
M  V30 7476 N 714.094 -5.55636 -1.68072 0
M  V30 7477 H 716.859 -2.72634 1.24463 0
M  V30 7478 H 714.42 -1.40639 0.802008 0
M  V30 7479 H 716.412 -3.92542 -0.984516 0
M  V30 7480 H 714.982 -2.8856 -1.20215 0
M  V30 7481 H 714.202 -3.78047 1.11688 0
M  V30 7482 H 715.49 -4.99131 0.987201 0
M  V30 7483 H 714.888 -5.2176 -2.18592 0
M  V30 7484 H 713.445 -6.14978 -2.15975 0
M  V30 7485 N 716.879 -0.700114 -1.41195 0
M  V30 7486 C 717.829 -0.0144098 -2.27995 0
M  V30 7487 C 718.813 0.748249 -1.42443 0
M  V30 7488 O 720.005 0.622995 -1.65674 0
M  V30 7489 C 717.134 0.917938 -3.308 0
M  V30 7490 C 716.22 0.151286 -4.2383 0
M  V30 7491 N 716.611 -0.85732 -4.98481 0
M  V30 7492 C 714.909 0.386108 -4.44326 0
M  V30 7493 C 715.61 -1.31663 -5.66604 0
M  V30 7494 N 714.586 -0.641689 -5.39799 0
M  V30 7495 H 718.388 -0.787662 -2.83149 0
M  V30 7496 H 715.902 -0.531344 -1.53462 0
M  V30 7497 H 717.899 1.42437 -3.91813 0
M  V30 7498 H 716.559 1.69074 -2.77208 0
M  V30 7499 H 717.57 -1.2377 -5.02893 0
M  V30 7500 H 714.247 1.13644 -4.01735 0
M  V30 7501 H 715.637 -2.15384 -6.36443 0
M  V30 7502 N 718.357 1.51182 -0.445186 0
M  V30 7503 C 719.604 2.02152 0.118645 0
M  V30 7504 C 719.932 1.32888 1.42025 0
M  V30 7505 O 719.187 0.435041 1.90803 0
M  V30 7506 C 719.486 3.55408 0.376797 0
M  V30 7507 C 719.152 4.43008 -0.839945 0
M  V30 7508 C 717.814 4.66669 -1.17361 0
M  V30 7509 C 720.166 4.9435 -1.65127 0
M  V30 7510 C 717.494 5.38919 -2.31913 0
M  V30 7511 C 719.846 5.67857 -2.78786 0
M  V30 7512 C 718.51 5.89779 -3.12597 0
M  V30 7513 H 717.78 0.739727 0.0434152 0
M  V30 7514 H 720.427 1.82055 -0.593984 0
M  V30 7515 H 718.732 3.73879 1.1714 0
M  V30 7516 H 720.429 3.92388 0.826602 0
M  V30 7517 H 717.019 4.24793 -0.569958 0
M  V30 7518 H 721.203 4.75947 -1.4067 0
M  V30 7519 H 716.459 5.54105 -2.58413 0
M  V30 7520 H 720.633 6.06628 -3.42017 0
M  V30 7521 H 718.26 6.45542 -4.01471 0
M  V30 7522 N 719.835 0.176821 1.56605 0
M  V30 7523 C 720.782 -0.751312 2.18229 0
M  V30 7524 C 721.752 -1.22297 1.12395 0
M  V30 7525 O 722.937 -1.29015 1.40569 0
M  V30 7526 C 720.077 -1.97291 2.83143 0
M  V30 7527 C 719.19 -1.54431 4.03454 0
M  V30 7528 C 718.325 -2.72 4.56278 0
M  V30 7529 C 717.364 -2.25657 5.68986 0
M  V30 7530 N 716.501 -3.36338 6.16296 0
M  V30 7531 H 721.341 -0.219033 2.97194 0
M  V30 7532 H 718.878 -0.0963803 1.46784 0
M  V30 7533 H 720.836 -2.68949 3.1894 0
M  V30 7534 H 719.466 -2.4788 2.06773 0
M  V30 7535 H 718.518 -0.724273 3.73441 0
M  V30 7536 H 719.83 -1.16417 4.85024 0
M  V30 7537 H 718.984 -3.51806 4.94285 0
M  V30 7538 H 717.723 -3.13277 3.73777 0
M  V30 7539 H 716.728 -1.44299 5.30526 0
M  V30 7540 H 717.953 -1.85432 6.53293 0
M  V30 7541 H 715.899 -3.7718 5.36723 0
M  V30 7542 H 715.816 -3.02435 6.9287 0
M  V30 7543 H 717.084 -4.16413 6.58954 0
M  V30 7544 N 721.313 -1.57302 -0.09688 0
M  V30 7545 C 722.724 -1.7496 -0.651595 0
M  V30 7546 C 723.075 -0.798746 -1.79205 0
M  V30 7547 O 722.2 0.0231858 -2.16388 0
M  V30 7548 C 722.795 -3.17259 -1.18878 0
M  V30 7549 C 721.354 -3.36348 -1.68958 0
M  V30 7550 C 720.501 -2.70766 -0.598413 0
M  V30 7551 H 723.452 -1.58173 0.12918 0
M  V30 7552 H 723.473 -3.20033 -2.05814 0
M  V30 7553 H 722.985 -3.8644 -0.358523 0
M  V30 7554 H 721.086 -2.72243 -2.5439 0
M  V30 7555 H 721.199 -4.44654 -1.7838 0
M  V30 7556 H 719.563 -2.32615 -1.03743 0
M  V30 7557 H 720.346 -3.42586 0.221238 0
M  V30 7558 N 722.791 0.367657 -1.53252 0
M  V30 7559 C 724.021 1.12955 -1.72988 0
M  V30 7560 C 724.429 1.8358 -0.457708 0
M  V30 7561 O 723.772 1.74336 0.579006 0
M  V30 7562 C 723.834 2.20545 -2.83902 0
M  V30 7563 C 723.498 1.69704 -4.24323 0
M  V30 7564 C 724.495 1.16223 -5.06743 0
M  V30 7565 C 722.18 1.7528 -4.70725 0
M  V30 7566 C 724.174 0.689935 -6.33655 0
M  V30 7567 C 721.861 1.27662 -5.97617 0
M  V30 7568 C 722.859 0.746083 -6.78913 0
M  V30 7569 O 722.547 0.276925 -8.03423 0
M  V30 7570 H 722.279 0.343753 -0.582074 0
M  V30 7571 H 724.833 0.433106 -2.00782 0
M  V30 7572 H 723.063 2.93676 -2.51577 0
M  V30 7573 H 724.752 2.82111 -2.91836 0
M  V30 7574 H 725.518 1.11256 -4.72067 0
M  V30 7575 H 721.397 2.15515 -4.07522 0
M  V30 7576 H 724.941 0.275164 -6.97057 0
M  V30 7577 H 720.838 1.32322 -6.31792 0
M  V30 7578 H 721.606 0.396445 -8.17539 0
M  V30 7579 N 724.269 1.44576 0.627338 0
M  V30 7580 C 725.199 1.54562 1.75022 0
M  V30 7581 C 726.18 0.398378 1.65369 0
M  V30 7582 O 727.365 0.61899 1.84071 0
M  V30 7583 C 724.495 1.49309 3.13567 0
M  V30 7584 C 723.449 2.62549 3.38012 0
M  V30 7585 C 722.775 2.42348 4.76625 0
M  V30 7586 C 724.075 4.04678 3.30202 0
M  V30 7587 H 725.769 2.4855 1.66922 0
M  V30 7588 H 723.315 1.19624 0.801636 0
M  V30 7589 H 725.268 1.54895 3.919 0
M  V30 7590 H 723.992 0.518392 3.2246 0
M  V30 7591 H 722.651 2.56358 2.62061 0
M  V30 7592 H 722.299 1.43062 4.82226 0
M  V30 7593 H 721.999 3.18273 4.93939 0
M  V30 7594 H 723.523 2.49758 5.57183 0
M  V30 7595 H 724.937 4.12217 3.98435 0
M  V30 7596 H 723.334 4.80836 3.5905 0
M  V30 7597 H 724.404 4.2798 2.27949 0
M  V30 7598 N 725.747 -0.868086 1.31537 0
M  V30 7599 C 726.694 -1.97548 1.19346 0
M  V30 7600 C 727.664 -1.65913 0.0787922 0
M  V30 7601 O 728.849 -1.89129 0.251985 0
M  V30 7602 C 725.989 -3.32922 0.908692 0
M  V30 7603 C 725.102 -3.77141 2.10687 0
M  V30 7604 C 724.237 -5.01241 1.75873 0
M  V30 7605 C 723.276 -5.37914 2.92088 0
M  V30 7606 N 722.413 -6.53192 2.57457 0
M  V30 7607 H 727.253 -2.07307 2.14074 0
M  V30 7608 H 724.79 -1.01483 1.06487 0
M  V30 7609 H 726.748 -4.10867 0.724138 0
M  V30 7610 H 725.378 -3.228 -0.0017611 0
M  V30 7611 H 724.43 -2.94961 2.40213 0
M  V30 7612 H 725.742 -4.00248 2.97663 0
M  V30 7613 H 724.896 -5.86858 1.53891 0
M  V30 7614 H 723.635 -4.80041 0.86091 0
M  V30 7615 H 722.64 -4.50814 3.14717 0
M  V30 7616 H 723.865 -5.61077 3.82582 0
M  V30 7617 H 721.811 -6.33536 1.702 0
M  V30 7618 H 721.728 -6.76252 3.37963 0
M  V30 7619 H 722.996 -7.41997 2.38873 0
M  V30 7620 N 727.225 -1.14528 -1.08264 0
M  V30 7621 C 728.175 -0.802141 -2.13424 0
M  V30 7622 C 729.159 0.209362 -1.59532 0
M  V30 7623 O 730.351 0.0114859 -1.76996 0
M  V30 7624 C 727.48 -0.282938 -3.42132 0
M  V30 7625 C 726.566 -1.32405 -4.02902 0
M  V30 7626 N 726.957 -2.52861 -4.38058 0
M  V30 7627 C 725.255 -1.17462 -4.30254 0
M  V30 7628 C 725.956 -3.1952 -4.86088 0
M  V30 7629 N 724.932 -2.46921 -4.84284 0
M  V30 7630 H 728.734 -1.71843 -2.38426 0
M  V30 7631 H 726.248 -1.02936 -1.2561 0
M  V30 7632 H 728.245 -0.0188053 -4.16896 0
M  V30 7633 H 726.905 0.627533 -3.18578 0
M  V30 7634 H 727.916 -2.90078 -4.2904 0
M  V30 7635 H 724.593 -0.323283 -4.16246 0
M  V30 7636 H 725.983 -4.2223 -5.22658 0
M  V30 7637 N 728.703 1.26451 -0.940633 0
M  V30 7638 C 729.95 1.93778 -0.587909 0
M  V30 7639 C 730.278 1.73811 0.872935 0
M  V30 7640 O 729.533 1.06816 1.63978 0
M  V30 7641 C 729.832 3.46503 -0.875794 0
M  V30 7642 C 729.498 3.86609 -2.32043 0
M  V30 7643 C 728.16 3.97269 -2.71534 0
M  V30 7644 C 730.512 4.0672 -3.25927 0
M  V30 7645 C 727.84 4.25436 -4.04006 0
M  V30 7646 C 730.192 4.36375 -4.57995 0
M  V30 7647 C 728.856 4.45249 -4.97302 0
M  V30 7648 H 728.126 0.709084 -0.215131 0
M  V30 7649 H 730.773 1.50272 -1.18704 0
M  V30 7650 H 729.078 3.91319 -0.194124 0
M  V30 7651 H 730.775 3.96759 -0.581665 0
M  V30 7652 H 727.365 3.78858 -2.00411 0
M  V30 7653 H 731.549 3.97912 -2.96614 0
M  V30 7654 H 726.805 4.30519 -4.34124 0
M  V30 7655 H 730.979 4.50882 -5.30734 0
M  V30 7656 H 728.606 4.66829 -5.99979 0
M  V30 7657 N 730.181 0.707592 1.40822 0
M  V30 7658 C 731.111 0.0644925 2.33411 0
M  V30 7659 C 732.092 -0.754205 1.52466 0
M  V30 7660 O 733.277 -0.704749 1.80961 0
M  V30 7661 C 730.407 -0.863865 3.36385 0
M  V30 7662 C 729.361 -0.15138 4.27732 0
M  V30 7663 C 728.687 -1.19491 5.21177 0
M  V30 7664 C 729.987 0.989607 5.12839 0
M  V30 7665 H 731.681 0.837829 2.87438 0
M  V30 7666 H 729.227 0.404346 1.38207 0
M  V30 7667 H 731.18 -1.32309 4.0009 0
M  V30 7668 H 729.904 -1.66901 2.80734 0
M  V30 7669 H 728.563 0.287937 3.65467 0
M  V30 7670 H 728.211 -1.9929 4.61836 0
M  V30 7671 H 727.911 -0.723123 5.83134 0
M  V30 7672 H 729.435 -1.6544 5.8776 0
M  V30 7673 H 730.849 0.610114 5.70044 0
M  V30 7674 H 729.246 1.38926 5.83798 0
M  V30 7675 H 730.316 1.82389 4.49291 0
M  V30 7676 N 731.66 -1.50943 0.453197 0
M  V30 7677 C 733.071 -1.86699 -0.00619892 0
M  V30 7678 C 733.422 -1.3693 -1.40515 0
M  V30 7679 O 732.547 -0.726715 -2.03833 0
M  V30 7680 C 733.142 -3.38795 -0.018025 0
M  V30 7681 C 731.701 -3.74028 -0.421885 0
M  V30 7682 C 730.848 -2.74752 0.375087 0
M  V30 7683 H 733.799 -1.43942 0.668317 0
M  V30 7684 H 733.82 -3.71468 -0.824125 0
M  V30 7685 H 733.332 -3.74988 1.00028 0
M  V30 7686 H 731.433 -3.43431 -1.44521 0
M  V30 7687 H 731.546 -4.78908 -0.135664 0
M  V30 7688 H 729.91 -2.5414 -0.168794 0
M  V30 7689 H 730.693 -3.13787 1.39256 0
M  V30 7690 N 733.138 -0.185124 -1.56509 0
M  V30 7691 C 734.085 0.739729 -2.18624 0
M  V30 7692 C 735.055 1.217 -1.13042 0
M  V30 7693 O 736.24 1.28268 -1.41251 0
M  V30 7694 C 733.38 1.95787 -2.84186 0
M  V30 7695 C 732.493 1.52289 -4.04267 0
M  V30 7696 C 731.628 2.69576 -4.57714 0
M  V30 7697 C 730.667 2.22636 -5.70175 0
M  V30 7698 N 729.804 3.33065 -6.18071 0
M  V30 7699 H 734.644 0.203269 -2.97306 0
M  V30 7700 H 732.181 0.0885946 -1.46833 0
M  V30 7701 H 734.139 2.67253 -3.20361 0
M  V30 7702 H 732.769 2.4678 -2.08085 0
M  V30 7703 H 731.821 0.704458 -3.7382 0
M  V30 7704 H 733.133 1.13843 -4.85635 0
M  V30 7705 H 732.287 3.4918 -4.96143 0
M  V30 7706 H 731.026 3.1129 -3.75433 0
M  V30 7707 H 730.031 1.41483 -5.31284 0
M  V30 7708 H 731.256 1.81964 -6.54267 0
M  V30 7709 H 729.202 3.74328 -5.38715 0
M  V30 7710 H 729.119 2.98756 -6.94464 0
M  V30 7711 H 730.387 4.12912 -6.61153 0
M  V30 7712 N 734.616 1.57351 0.0885366 0
M  V30 7713 C 736.032 1.53331 0.442916 0
M  V30 7714 C 736.232 0.902831 1.80142 0
M  V30 7715 O 735.288 0.498147 2.47537 0
M  V30 7716 C 736.601 2.98036 0.399372 0
M  V30 7717 C 738.149 3.09286 0.480759 0
M  V30 7718 C 738.624 4.5561 0.467296 0
M  V30 7719 N 740.115 4.60182 0.52786 0
M  V30 7720 C 740.85 5.70857 0.539388 0
M  V30 7721 N 740.346 6.90944 0.506729 0
M  V30 7722 N 742.139 5.59051 0.584691 0
M  V30 7723 H 734.29 1.96709 -0.801215 0
M  V30 7724 H 736.553 0.899639 -0.298922 0
M  V30 7725 H 736.259 3.47656 -0.531806 0
M  V30 7726 H 736.133 3.57066 1.21589 0
M  V30 7727 H 738.52 2.5965 1.40236 0
M  V30 7728 H 738.601 2.53197 -0.364023 0
M  V30 7729 H 738.245 5.05899 -0.450384 0
M  V30 7730 H 738.175 5.09544 1.32938 0
M  V30 7731 H 740.666 3.73757 0.558028 0
M  V30 7732 H 740.979 7.71055 0.518989 0
M  V30 7733 H 739.324 6.93384 0.473675 0
M  V30 7734 H 742.515 4.64138 0.607781 0
M  V30 7735 H 742.688 6.45307 0.590206 0
M  V30 7736 N 736.094 -0.359525 1.53444 0
M  V30 7737 C 737.024 -1.44662 1.8329 0
M  V30 7738 C 738.005 -1.55617 0.68683 0
M  V30 7739 O 739.19 -1.70086 0.93725 0
M  V30 7740 C 736.32 -2.81923 2.02822 0
M  V30 7741 C 735.274 -2.85787 3.18606 0
M  V30 7742 C 734.6 -4.25781 3.23442 0
M  V30 7743 C 735.9 -2.52762 4.57065 0
M  V30 7744 H 737.594 -1.19934 2.74329 0
M  V30 7745 H 735.14 -0.575517 1.31999 0
M  V30 7746 H 737.093 -3.58005 2.22285 0
M  V30 7747 H 735.817 -3.08051 1.085 0
M  V30 7748 H 734.476 -2.12157 2.98973 0
M  V30 7749 H 734.124 -4.48994 2.26745 0
M  V30 7750 H 733.824 -4.29281 4.01238 0
M  V30 7751 H 735.348 -5.03727 3.45096 0
M  V30 7752 H 736.762 -3.18557 4.76649 0
M  V30 7753 H 735.159 -2.67569 5.37147 0
M  V30 7754 H 736.229 -1.47993 4.61764 0
M  V30 7755 N 737.572 -1.44907 -0.619662 0
M  V30 7756 C 738.522 -1.49085 -1.72504 0
M  V30 7757 C 739.506 -0.355372 -1.56926 0
M  V30 7758 O 740.698 -0.601441 -1.66468 0
M  V30 7759 C 737.827 -1.44889 -3.11227 0
M  V30 7760 C 736.913 -2.63593 -3.32234 0
M  V30 7761 N 737.304 -3.88775 -3.23555 0
M  V30 7762 C 735.602 -2.59033 -3.63067 0
M  V30 7763 C 736.303 -4.67932 -3.45564 0
M  V30 7764 N 735.279 -3.9919 -3.68983 0
M  V30 7765 H 739.081 -2.43706 -1.6427 0
M  V30 7766 H 736.595 -1.4003 -0.82252 0
M  V30 7767 H 738.592 -1.45966 -3.90512 0
M  V30 7768 H 737.252 -0.513143 -3.2062 0
M  V30 7769 H 738.263 -4.20574 -3.02221 0
M  V30 7770 H 734.94 -1.7431 -3.79371 0
M  V30 7771 H 736.33 -5.76952 -3.44349 0
M  V30 7772 N 739.05 0.861098 -1.31996 0
M  V30 7773 C 740.297 1.61481 -1.22188 0
M  V30 7774 C 740.625 1.93276 0.217853 0
M  V30 7775 O 739.88 1.56942 1.16909 0
M  V30 7776 C 740.179 2.94822 -2.02027 0
M  V30 7777 C 739.845 2.82483 -3.51446 0
M  V30 7778 C 738.507 2.78825 -3.92186 0
M  V30 7779 C 740.859 2.68878 -4.46491 0
M  V30 7780 C 738.187 2.59433 -5.26224 0
M  V30 7781 C 740.539 2.51022 -5.80664 0
M  V30 7782 C 739.203 2.45753 -6.20614 0
M  V30 7783 H 738.473 0.590902 -0.447119 0
M  V30 7784 H 741.12 0.999376 -1.63355 0
M  V30 7785 H 739.425 3.6045 -1.53569 0
M  V30 7786 H 741.122 3.52149 -1.91812 0
M  V30 7787 H 737.712 2.86152 -3.19085 0
M  V30 7788 H 741.896 2.70754 -4.1594 0
M  V30 7789 H 737.152 2.53784 -5.5624 0
M  V30 7790 H 741.326 2.39473 -6.53931 0
M  V30 7791 H 738.953 2.30485 -7.24417 0
M  V30 7792 N 740.528 1.15101 1.07655 0
M  V30 7793 C 741.491 0.847625 2.12951 0
M  V30 7794 C 742.491 -0.151227 1.60087 0
M  V30 7795 O 743.681 0.0780399 1.74025 0
M  V30 7796 C 740.813 0.265 3.39868 0
M  V30 7797 H 742.006 1.7809 2.41296 0
M  V30 7798 H 739.559 0.958072 1.23494 0
M  V30 7799 H 740.294 -0.676625 3.17163 0
M  V30 7800 H 740.079 0.984554 3.79538 0
M  V30 7801 H 741.569 0.0702121 4.17541 0
M  V30 7802 N 742.006 -1.2595 0.947325 0
M  V30 7803 C 742.953 -2.26159 0.460497 0
M  V30 7804 C 743.923 -1.58919 -0.483125 0
M  V30 7805 O 745.108 -1.86603 -0.397983 0
M  V30 7806 C 742.248 -3.441 -0.26247 0
M  V30 7807 C 741.361 -4.25999 0.717539 0
M  V30 7808 C 740.496 -5.31193 -0.0272486 0
M  V30 7809 C 739.535 -6.04774 0.944177 0
M  V30 7810 N 738.672 -7.01721 0.230741 0
M  V30 7811 H 743.512 -2.67173 1.31995 0
M  V30 7812 H 741.049 -1.31358 0.662088 0
M  V30 7813 H 743.007 -4.11317 -0.698137 0
M  V30 7814 H 741.637 -3.03983 -1.08602 0
M  V30 7815 H 740.689 -3.58513 1.27171 0
M  V30 7816 H 742.001 -4.76981 1.45913 0
M  V30 7817 H 741.155 -6.04451 -0.521903 0
M  V30 7818 H 739.894 -4.81066 -0.801682 0
M  V30 7819 H 738.899 -5.30338 1.4499 0
M  V30 7820 H 740.124 -6.56991 1.71872 0
M  V30 7821 H 738.07 -6.53895 -0.525088 0
M  V30 7822 H 737.987 -7.50484 0.911556 0
M  V30 7823 H 739.255 -7.79122 -0.242616 0
M  V30 7824 N 743.484 -0.715051 -1.40445 0
M  V30 7825 C 744.709 -0.26254 -2.05732 0
M  V30 7826 C 745.134 1.08691 -1.53519 0
M  V30 7827 O 744.492 1.68453 -0.670328 0
M  V30 7828 C 744.54 -0.25195 -3.59719 0
M  V30 7829 O 743.644 0.766998 -4.05205 0
M  V30 7830 H 742.985 -0.123398 -0.652433 0
M  V30 7831 H 745.515 -0.975382 -1.79854 0
M  V30 7832 H 745.525 -0.0894537 -4.07902 0
M  V30 7833 H 744.2 -1.23672 -3.97087 0
M  V30 7834 H 742.777 0.572269 -3.68483 0
M  V30 7835 N 744.962 1.50701 -0.461195 0
M  V30 7836 C 746.239 1.94958 0.158296 0
M  V30 7837 C 746.619 1.40111 1.57899 0
M  V30 7838 O 745.967 0.597976 2.20537 0
M  V30 7839 C 746.177 3.48821 0.11172 0
M  V30 7840 C 747.525 4.23499 0.30552 0
M  V30 7841 O 748.549 3.557 0.188758 0
M  V30 7842 O 747.408 5.43823 0.540244 0
M  V30 7843 H 744.502 0.818674 0.117054 0
M  V30 7844 H 747.048 1.61508 -0.520888 0
M  V30 7845 H 745.82 3.81263 -0.880577 0
M  V30 7846 H 745.443 3.88781 0.832791 0
M  V30 7847 N 746.441 0.193421 1.56409 0
M  V30 7848 C 747.857 -0.162447 1.58771 0
M  V30 7849 C 748.057 -1.6116 1.20954 0
M  V30 7850 O 747.113 -2.3469 0.931497 0
M  V30 7851 C 748.426 0.138391 3.00381 0
M  V30 7852 C 749.974 0.0783649 3.12902 0
M  V30 7853 C 750.449 0.352491 4.56642 0
M  V30 7854 N 751.94 0.30105 4.62221 0
M  V30 7855 C 752.675 0.487028 5.71328 0
M  V30 7856 N 752.171 0.733265 6.88909 0
M  V30 7857 N 753.964 0.4214 5.60518 0
M  V30 7858 H 746.115 1.13909 1.79272 0
M  V30 7859 H 748.378 0.454528 0.83193 0
M  V30 7860 H 748.084 1.14312 3.32604 0
M  V30 7861 H 747.958 -0.559804 3.73023 0
M  V30 7862 H 750.345 -0.916963 2.80492 0
M  V30 7863 H 750.426 0.809611 2.4265 0
M  V30 7864 H 750.07 1.34513 4.89764 0
M  V30 7865 H 750 -0.399624 5.25081 0
M  V30 7866 H 752.491 0.117279 3.77718 0
M  V30 7867 H 752.804 0.86403 7.67955 0
M  V30 7868 H 751.149 0.770138 6.9072 0
M  V30 7869 H 754.34 0.229461 4.67537 0
M  V30 7870 H 754.513 0.569758 6.4549 0
M  V30 7871 N 747.919 -1.57396 -0.0801906 0
M  V30 7872 C 749.168 -1.8602 -0.779702 0
M  V30 7873 C 749.481 -0.784864 -1.79163 0
M  V30 7874 O 750.687 -0.958691 -2.54011 0
M  V30 7875 C 749.143 -3.29942 -1.43758 0
M  V30 7876 C 748.751 -4.45584 -0.464654 0
M  V30 7877 C 750.495 -3.67775 -2.11995 0
M  V30 7878 C 748.402 -5.80544 -1.12797 0
M  V30 7879 H 747.332 -0.69392 -0.294943 0
M  V30 7880 H 749.983 -1.83471 -0.0328527 0
M  V30 7881 H 748.365 -3.27078 -2.2324 0
M  V30 7882 H 749.539 -4.59824 0.299749 0
M  V30 7883 H 747.854 -4.16247 0.112813 0
M  V30 7884 H 750.451 -4.65896 -2.62383 0
M  V30 7885 H 750.794 -2.9715 -2.91561 0
M  V30 7886 H 751.327 -3.72593 -1.39354 0
M  V30 7887 H 748.066 -6.54439 -0.372807 0
M  V30 7888 H 747.586 -5.70119 -1.86344 0
M  V30 7889 H 749.265 -6.25602 -1.6502 0
M  V30 7890 N 749.397 0.351382 -1.53633 0
M  V30 7891 C 750.307 1.45471 -1.84052 0
M  V30 7892 C 751.323 1.57945 -0.730015 0
M  V30 7893 O 752.499 1.73571 -1.02153 0
M  V30 7894 C 749.564 2.80562 -2.03681 0
M  V30 7895 C 748.625 2.77497 -3.27558 0
M  V30 7896 C 747.858 4.06144 -3.46241 0
M  V30 7897 O 748.081 5.03028 -2.68922 0
M  V30 7898 O 747.015 4.11092 -4.39645 0
M  V30 7899 H 750.841 1.22684 -2.77817 0
M  V30 7900 H 748.426 0.542827 -1.3919 0
M  V30 7901 H 750.308 3.6058 -2.18082 0
M  V30 7902 H 748.983 3.03296 -1.13106 0
M  V30 7903 H 747.89 1.96126 -3.18568 0
M  V30 7904 H 749.223 2.59716 -4.18101 0
M  V30 7905 N 750.875 1.45233 0.611969 0
M  V30 7906 C 752.286 1.4354 1.19387 0
M  V30 7907 C 752.637 0.160713 1.95541 0
M  V30 7908 O 751.762 -0.737954 2.03429 0
M  V30 7909 C 752.357 2.60045 2.17169 0
M  V30 7910 C 750.916 2.61486 2.70744 0
M  V30 7911 C 750.063 2.35708 1.46072 0
M  V30 7912 H 753.014 1.53536 0.401529 0
M  V30 7913 H 753.035 2.33893 3.00124 0
M  V30 7914 H 752.547 3.52803 1.61714 0
M  V30 7915 H 750.648 1.72721 3.30149 0
M  V30 7916 H 750.761 3.60572 3.15476 0
M  V30 7917 H 749.125 1.85178 1.74875 0
M  V30 7918 H 749.908 3.30606 0.924922 0
M  V30 7919 N 752.353 -0.854086 1.3245 0
M  V30 7920 C 753.283 -1.97827 1.24044 0
M  V30 7921 C 754.264 -1.69646 0.124166 0
M  V30 7922 O 755.449 -1.91687 0.31143 0
M  V30 7923 C 752.579 -3.33673 0.963324 0
M  V30 7924 C 751.533 -3.76207 2.04089 0
M  V30 7925 C 750.859 -5.0969 1.61618 0
M  V30 7926 C 752.159 -3.91612 3.45597 0
M  V30 7927 H 753.853 -2.05118 2.18099 0
M  V30 7928 H 751.399 -0.985489 1.04996 0
M  V30 7929 H 753.352 -4.11871 0.891061 0
M  V30 7930 H 752.076 -3.26597 -0.0128649 0
M  V30 7931 H 750.735 -3.0026 2.10332 0
M  V30 7932 H 750.383 -4.99072 0.627418 0
M  V30 7933 H 750.083 -5.3912 2.33717 0
M  V30 7934 H 751.607 -5.90381 1.55829 0
M  V30 7935 H 753.021 -4.60163 3.4194 0
M  V30 7936 H 751.418 -4.3246 4.16051 0
M  V30 7937 H 752.488 -2.9451 3.85217 0
M  V30 7938 N 753.831 -1.1567 -1.07043 0
M  V30 7939 C 755.059 -0.957471 -1.83412 0
M  V30 7940 C 755.474 0.494271 -1.82215 0
M  V30 7941 O 754.831 1.34288 -1.23584 0
M  V30 7942 C 754.882 -1.46784 -3.30359 0
M  V30 7943 O 754.603 -2.86271 -3.31633 0
M  V30 7944 C 756.104 -1.31054 -4.23485 0
M  V30 7945 H 753.324 -0.33986 -0.578564 0
M  V30 7946 H 755.868 -1.53518 -1.35102 0
M  V30 7947 H 754.023 -0.932586 -3.76007 0
M  V30 7948 H 754.437 -3.0948 -4.23465 0
M  V30 7949 H 755.911 -1.71605 -5.24648 0
M  V30 7950 H 756.388 -0.255107 -4.38458 0
M  V30 7951 H 756.994 -1.83503 -3.83676 0
M  V30 7952 N 755.309 1.25446 -0.953992 0
M  V30 7953 C 756.556 1.93143 -0.608429 0
M  V30 7954 C 756.884 1.74727 0.854451 0
M  V30 7955 O 756.139 1.0855 1.62836 0
M  V30 7956 C 756.438 3.45555 -0.912496 0
M  V30 7957 C 756.104 3.84126 -2.36131 0
M  V30 7958 C 754.766 3.94367 -2.75732 0
M  V30 7959 C 757.118 4.0324 -3.30223 0
M  V30 7960 C 754.446 4.21127 -4.08496 0
M  V30 7961 C 756.798 4.31493 -4.62598 0
M  V30 7962 C 755.462 4.3995 -5.01996 0
M  V30 7963 H 754.732 0.706762 -0.22264 0
M  V30 7964 H 757.379 1.49005 -1.20291 0
M  V30 7965 H 755.684 3.91091 -0.235618 0
M  V30 7966 H 757.381 3.9612 -0.623714 0
M  V30 7967 H 753.971 3.76711 -2.04418 0
M  V30 7968 H 758.155 3.94744 -3.00817 0
M  V30 7969 H 753.411 4.2589 -4.38665 0
M  V30 7970 H 757.585 4.45227 -5.35486 0
M  V30 7971 H 755.212 4.60439 -6.04896 0
M  V30 7972 N 756.787 0.722489 1.40064 0
M  V30 7973 C 758.017 0.274439 2.04769 0
M  V30 7974 C 758.425 -1.09125 1.54559 0
M  V30 7975 O 757.768 -1.69834 0.700149 0
M  V30 7976 C 757.83 0.184091 3.59028 0
M  V30 7977 C 757.494 1.48619 4.32159 0
M  V30 7978 C 758.491 2.42947 4.59644 0
M  V30 7979 C 756.176 1.74703 4.7094 0
M  V30 7980 C 758.17 3.616 5.24904 0
M  V30 7981 C 755.857 2.93636 5.3593 0
M  V30 7982 C 756.855 3.86907 5.62843 0
M  V30 7983 O 756.543 5.03753 6.26489 0
M  V30 7984 H 756.275 0.119847 0.665292 0
M  V30 7985 H 758.829 0.983352 1.80331 0
M  V30 7986 H 757.059 -0.580821 3.82313 0
M  V30 7987 H 758.748 -0.230306 4.05246 0
M  V30 7988 H 759.514 2.24062 4.30141 0
M  V30 7989 H 755.393 1.02955 4.49356 0
M  V30 7990 H 758.937 4.34418 5.45827 0
M  V30 7991 H 754.834 3.12428 5.64853 0
M  V30 7992 H 755.602 5.03922 6.44984 0
M  V30 7993 N 758.265 -1.50454 0.469181 0
M  V30 7994 C 759.195 -2.31353 -0.31592 0
M  V30 7995 C 760.176 -1.38172 -0.992094 0
M  V30 7996 O 761.361 -1.67093 -0.989633 0
M  V30 7997 C 758.491 -3.1786 -1.39937 0
M  V30 7998 C 757.445 -4.19578 -0.844909 0
M  V30 7999 C 756.771 -4.9481 -2.0265 0
M  V30 8000 C 758.071 -5.22106 0.142499 0
M  V30 8001 H 759.765 -2.97237 0.359269 0
M  V30 8002 H 757.311 -1.42942 0.174224 0
M  V30 8003 H 759.264 -3.7325 -1.95607 0
M  V30 8004 H 757.988 -2.49858 -2.1033 0
M  V30 8005 H 756.647 -3.65285 -0.310189 0
M  V30 8006 H 756.295 -4.23282 -2.71737 0
M  V30 8007 H 755.995 -5.63613 -1.66174 0
M  V30 8008 H 757.519 -5.53035 -2.58815 0
M  V30 8009 H 758.933 -5.72378 -0.324966 0
M  V30 8010 H 757.33 -5.98618 0.421441 0
M  V30 8011 H 758.4 -4.7297 1.06901 0
M  V30 8012 N 759.743 -0.201713 -1.56304 0
M  V30 8013 C 761.02 0.483273 -1.89536 0
M  V30 8014 C 761.4 1.79176 -1.11621 0
M  V30 8015 O 760.748 2.27445 -0.219339 0
M  V30 8016 C 760.958 0.695604 -3.41998 0
M  V30 8017 C 762.306 1.012 -4.12364 0
M  V30 8018 O 763.33 0.783094 -3.47485 0
M  V30 8019 O 762.189 1.44534 -5.27041 0
M  V30 8020 H 759.283 0.252801 -0.787414 0
M  V30 8021 H 761.829 -0.24242 -1.6796 0
M  V30 8022 H 760.601 -0.228165 -3.90634 0
M  V30 8023 H 760.224 1.47351 -3.69288 0
M  V30 8024 N 761.222 1.57436 0.0718424 0
M  V30 8025 C 762.633 1.75975 0.623678 0
M  V30 8026 C 762.984 0.827155 1.77912 0
M  V30 8027 O 762.109 0.0112425 2.16397 0
M  V30 8028 C 762.704 3.1911 1.13816 0
M  V30 8029 C 761.263 3.38994 1.63586 0
M  V30 8030 C 760.41 2.71684 0.555261 0
M  V30 8031 H 763.361 1.57948 -0.154328 0
M  V30 8032 H 763.382 3.23267 2.00696 0
M  V30 8033 H 762.894 3.86962 0.296998 0
M  V30 8034 H 760.995 2.76256 2.50027 0
M  V30 8035 H 761.108 4.47436 1.71283 0
M  V30 8036 H 759.472 2.34236 1.00029 0
M  V30 8037 H 760.255 3.42191 -0.275712 0
M  V30 8038 N 762.7 -0.34323 1.53817 0
M  V30 8039 C 763.632 -1.44216 1.78141 0
M  V30 8040 C 764.645 -1.48701 0.662721 0
M  V30 8041 O 765.834 -1.51778 0.939458 0
M  V30 8042 C 762.934 -2.82872 1.86646 0
M  V30 8043 C 762.107 -3.01824 3.16577 0
M  V30 8044 C 761.166 -4.20723 3.16036 0
M  V30 8045 O 760.192 -4.14824 3.89756 0
M  V30 8046 N 761.394 -5.29276 2.38427 0
M  V30 8047 H 764.159 -1.23721 2.72971 0
M  V30 8048 H 761.72 -0.53311 1.52871 0
M  V30 8049 H 763.712 -3.60588 1.83735 0
M  V30 8050 H 762.282 -2.96509 0.990014 0
M  V30 8051 H 761.502 -2.11575 3.3261 0
M  V30 8052 H 762.79 -3.11369 4.02402 0
M  V30 8053 H 762.188 -5.36938 1.78085 0
M  V30 8054 H 760.745 -6.05484 2.41313 0
M  V30 8055 N 764.178 -1.45556 -0.604258 0
M  V30 8056 C 765.424 -1.50958 -1.3632 0
M  V30 8057 C 765.779 -0.15051 -1.9181 0
M  V30 8058 O 765.072 0.838035 -1.72301 0
M  V30 8059 C 765.266 -2.52697 -2.52743 0
M  V30 8060 C 765.095 -3.98364 -2.08654 0
M  V30 8061 C 763.865 -4.66295 -1.94671 0
M  V30 8062 C 766.063 -4.86801 -1.6592 0
M  V30 8063 N 764.045 -5.96669 -1.44428 0
M  V30 8064 C 765.416 -6.06829 -1.27115 0
M  V30 8065 C 767.471 -4.73634 -1.53542 0
M  V30 8066 C 766.174 -7.15149 -0.771676 0
M  V30 8067 C 768.2 -5.82005 -1.04998 0
M  V30 8068 C 767.562 -7.01191 -0.671599 0
M  V30 8069 H 763.661 -0.607329 -0.492621 0
M  V30 8070 H 766.245 -1.82048 -0.69041 0
M  V30 8071 H 764.416 -2.23554 -3.17614 0
M  V30 8072 H 766.148 -2.48227 -3.19633 0
M  V30 8073 H 762.903 -4.21496 -2.15959 0
M  V30 8074 H 763.327 -6.66003 -1.21528 0
M  V30 8075 H 767.969 -3.81898 -1.81421 0
M  V30 8076 H 765.687 -8.06671 -0.480442 0
M  V30 8077 H 769.273 -5.73851 -0.958423 0
M  V30 8078 H 768.153 -7.83619 -0.301752 0
M  V30 8079 N 765.656 0.84705 -1.32902 0
M  V30 8080 C 766.588 1.96308 -1.18304 0
M  V30 8081 C 767.601 1.62386 -0.116082 0
M  V30 8082 O 768.79 1.74713 -0.365751 0
M  V30 8083 C 765.89 3.29556 -0.790305 0
M  V30 8084 C 765.063 3.91668 -1.94717 0
M  V30 8085 C 764.122 5.0326 -1.53674 0
M  V30 8086 O 763.148 5.22847 -2.24989 0
M  V30 8087 N 764.35 5.78852 -0.437075 0
M  V30 8088 H 767.115 2.09369 -2.14441 0
M  V30 8089 H 764.676 1.02233 -1.25539 0
M  V30 8090 H 766.668 4.01624 -0.49799 0
M  V30 8091 H 765.238 3.12497 0.0801286 0
M  V30 8092 H 764.458 3.12292 -2.40557 0
M  V30 8093 H 765.746 4.299 -2.72146 0
M  V30 8094 H 765.144 5.65484 0.156316 0
M  V30 8095 H 763.701 6.51479 -0.204399 0
M  V30 8096 N 767.134 1.16236 1.06428 0
M  V30 8097 C 768.064 0.890807 2.1584 0
M  V30 8098 C 769.045 -0.162333 1.69324 0
M  V30 8099 O 770.23 -0.0147191 1.94194 0
M  V30 8100 C 767.36 0.389615 3.45108 0
M  V30 8101 C 766.314 1.38051 4.05125 0
M  V30 8102 C 765.64 0.737773 5.29586 0
M  V30 8103 C 766.94 2.74965 4.44062 0
M  V30 8104 H 768.634 1.80577 2.38814 0
M  V30 8105 H 766.18 0.869657 1.14774 0
M  V30 8106 H 768.133 0.187127 4.20984 0
M  V30 8107 H 766.857 -0.560851 3.21748 0
M  V30 8108 H 765.516 1.56952 3.31303 0
M  V30 8109 H 765.164 -0.219135 5.02522 0
M  V30 8110 H 764.864 1.39914 5.70699 0
M  V30 8111 H 766.388 0.545275 6.0816 0
M  V30 8112 H 767.802 2.59855 5.11027 0
M  V30 8113 H 766.199 3.37563 4.96156 0
M  V30 8114 H 767.269 3.30321 3.54987 0
M  V30 8115 N 768.612 -1.24939 0.960631 0
M  V30 8116 C 769.575 -2.239 0.49006 0
M  V30 8117 C 770.575 -1.55497 -0.409535 0
M  V30 8118 O 771.765 -1.72978 -0.205984 0
M  V30 8119 C 768.897 -3.39654 -0.291193 0
M  V30 8120 H 770.09 -2.67044 1.36482 0
M  V30 8121 H 767.643 -1.37429 0.744505 0
M  V30 8122 H 768.378 -3.01939 -1.18336 0
M  V30 8123 H 768.163 -3.90496 0.354276 0
M  V30 8124 H 769.653 -4.13125 -0.609693 0
M  V30 8125 N 770.09 -0.729906 -1.39679 0
M  V30 8126 C 771.02 -0.101618 -2.33279 0
M  V30 8127 C 772.001 0.729854 -1.53646 0
M  V30 8128 O 773.186 0.67587 -1.82059 0
M  V30 8129 C 770.316 0.81024 -3.37716 0
M  V30 8130 C 769.27 0.0833126 -4.27919 0
M  V30 8131 C 768.596 1.11185 -5.23012 0
M  V30 8132 C 769.896 -1.07107 -5.112 0
M  V30 8133 H 771.59 -0.883452 -2.86069 0
M  V30 8134 H 769.136 -0.426283 -1.37546 0
M  V30 8135 H 771.089 1.25927 -4.02145 0
M  V30 8136 H 769.813 1.62413 -2.83354 0
M  V30 8137 H 768.472 -0.346043 -3.64963 0
M  V30 8138 H 768.12 1.91917 -4.64948 0
M  V30 8139 H 767.82 0.63026 -5.8421 0
M  V30 8140 H 769.344 1.56068 -5.90318 0
M  V30 8141 H 770.758 -0.700726 -5.69002 0
M  V30 8142 H 769.155 -1.48196 -5.81514 0
M  V30 8143 H 770.225 -1.89513 -4.46332 0
M  V30 8144 N 771.568 1.50203 -0.477153 0
M  V30 8145 C 772.516 2.30278 0.327826 0
M  V30 8146 C 773.51 1.37831 0.984839 0
M  V30 8147 O 774.716 1.54994 0.915251 0
M  V30 8148 H 771.091 0.741612 0.124564 0
M  V30 8149 H 773.062 2.96124 -0.367853 0
M  V30 8150 C 771.811 3.18548 1.39365 0
M  V30 8151 H 771.134 3.89596 0.897475 0
M  V30 8152 H 772.574 3.77561 1.92934 0
M  V30 8153 C 771.033 2.36548 2.39889 0
M  V30 8154 O 771.563 2.05282 3.45286 0
M  V30 8155 N 769.769 1.99015 2.11758 0
M  V30 8156 H 769.316 2.24641 1.26071 0
M  V30 8157 H 769.274 1.44454 2.7925 0
M  V30 8158 N 773.046 0.209999 1.56195 0
M  V30 8159 C 774.457 -0.299943 1.84275 0
M  V30 8160 C 774.808 -1.60314 1.1311 0
M  V30 8161 O 773.933 -2.1273 0.396874 0
M  V30 8162 C 774.528 -0.550986 3.3429 0
M  V30 8163 C 773.087 -1.00526 3.62728 0
M  V30 8164 C 772.234 -0.0619828 2.77231 0
M  V30 8165 H 775.185 0.433458 1.52666 0
M  V30 8166 H 775.206 -1.39846 3.53869 0
M  V30 8167 H 774.718 0.397669 3.86057 0
M  V30 8168 H 772.819 -1.96768 3.16407 0
M  V30 8169 H 772.932 -0.887664 4.70805 0
M  V30 8170 H 771.296 -0.566648 2.48317 0
M  V30 8171 H 772.079 0.881383 3.31793 0
M  V30 8172 N 774.524 -1.57472 -0.0634922 0
M  V30 8173 C 775.749 -1.92273 -0.77756 0
M  V30 8174 C 776.174 -0.807141 -1.69902 0
M  V30 8175 O 775.532 0.239523 -1.79711 0
M  V30 8176 C 775.58 -3.26054 -1.54017 0
M  V30 8177 O 774.684 -3.15873 -2.65138 0
M  V30 8178 H 774.025 -0.629389 -0.211579 0
M  V30 8179 H 776.555 -2.04579 -0.0292523 0
M  V30 8180 H 776.565 -3.60127 -1.91763 0
M  V30 8181 H 775.24 -4.06824 -0.864128 0
M  V30 8182 H 773.817 -2.93373 -2.30189 0
M  V30 8183 N 776.003 0.335068 -1.53997 0
M  V30 8184 C 776.913 1.43511 -1.85585 0
M  V30 8185 C 777.929 1.57162 -0.746726 0
M  V30 8186 O 779.105 1.72477 -1.03988 0
M  V30 8187 C 776.17 2.78386 -2.06646 0
M  V30 8188 C 775.231 2.74007 -3.30483 0
M  V30 8189 C 774.464 4.02449 -3.50529 0
M  V30 8190 O 774.687 5.00147 -2.74242 0
M  V30 8191 O 773.621 4.06405 -4.4398 0
M  V30 8192 H 777.447 1.19731 -2.79102 0
M  V30 8193 H 775.032 0.528033 -1.39758 0
M  V30 8194 H 776.914 3.58247 -2.21894 0
M  V30 8195 H 775.589 3.0208 -1.16317 0
M  V30 8196 H 774.496 1.92736 -3.2063 0
M  V30 8197 H 775.829 2.55267 -4.20832 0
M  V30 8198 N 777.481 1.45874 0.596531 0
M  V30 8199 C 778.897 1.30524 0.918459 0
M  V30 8200 C 779.097 0.266429 1.99731 0
M  V30 8201 O 778.153 -0.335809 2.50257 0
M  V30 8202 C 779.466 2.68747 1.3489 0
M  V30 8203 C 781.014 2.7673 1.46251 0
M  V30 8204 C 781.489 4.15504 1.92667 0
M  V30 8205 N 782.98 4.17853 1.99883 0
M  V30 8206 C 783.715 5.22109 2.37044 0
M  V30 8207 N 783.211 6.36704 2.73094 0
M  V30 8208 N 785.004 5.09471 2.37479 0
M  V30 8209 H 777.155 2.12081 -0.116368 0
M  V30 8210 H 779.418 0.947941 0.0106033 0
M  V30 8211 H 779.124 3.46006 0.630288 0
M  V30 8212 H 778.998 2.97942 2.31323 0
M  V30 8213 H 781.385 1.99768 2.17202 0
M  V30 8214 H 781.466 2.51236 0.481054 0
M  V30 8215 H 781.11 4.92956 1.223 0
M  V30 8216 H 781.04 4.38396 2.91747 0
M  V30 8217 H 783.531 3.35163 1.74568 0
M  V30 8218 H 783.844 7.12041 3.00362 0
M  V30 8219 H 782.189 6.40087 2.70764 0
M  V30 8220 H 785.38 4.18987 2.08728 0
M  V30 8221 H 785.553 5.90837 2.66112 0
M  V30 8222 N 778.959 -0.83999 1.33349 0
M  V30 8223 C 779.906 -1.94972 1.23509 0
M  V30 8224 C 780.876 -1.65709 0.113967 0
M  V30 8225 O 782.061 -1.88552 0.292045 0
M  V30 8226 C 779.201 -3.30919 0.979105 0
M  V30 8227 C 778.314 -3.72587 2.18639 0
M  V30 8228 C 777.449 -4.97397 1.86465 0
M  V30 8229 C 776.488 -5.31597 3.03432 0
M  V30 8230 N 775.625 -6.47584 2.71254 0
M  V30 8231 H 780.465 -2.0272 2.18423 0
M  V30 8232 H 778.002 -0.992017 1.08616 0
M  V30 8233 H 779.96 -4.09239 0.811126 0
M  V30 8234 H 778.59 -3.22731 0.0667099 0
M  V30 8235 H 777.642 -2.89799 2.46416 0
M  V30 8236 H 778.954 -3.93844 3.06086 0
M  V30 8237 H 778.108 -5.83462 1.66305 0
M  V30 8238 H 776.847 -4.78107 0.96254 0
M  V30 8239 H 775.852 -4.44037 3.24208 0
M  V30 8240 H 777.077 -5.52836 3.94397 0
M  V30 8241 H 775.023 -6.29783 1.836 0
M  V30 8242 H 774.94 -6.68931 3.52231 0
M  V30 8243 H 776.208 -7.36764 2.54558 0
M  V30 8244 N 780.437 -1.16799 -1.0581 0
M  V30 8245 C 781.667 -0.975454 -1.82122 0
M  V30 8246 C 782.075 0.479584 -1.83021 0
M  V30 8247 O 781.418 1.34471 -1.25153 0
M  V30 8248 C 781.48 -1.43209 -3.29744 0
M  V30 8249 C 781.144 -2.908 -3.5254 0
M  V30 8250 C 782.141 -3.88775 -3.45181 0
M  V30 8251 C 779.826 -3.28832 -3.79703 0
M  V30 8252 C 781.82 -5.22782 -3.64661 0
M  V30 8253 C 779.507 -4.63007 -3.98832 0
M  V30 8254 C 780.505 -5.59791 -3.91309 0
M  V30 8255 O 780.193 -6.9154 -4.09911 0
M  V30 8256 H 779.925 -0.345655 -0.580947 0
M  V30 8257 H 782.479 -1.55355 -1.34365 0
M  V30 8258 H 780.709 -0.797504 -3.78387 0
M  V30 8259 H 782.398 -1.2062 -3.87564 0
M  V30 8260 H 783.164 -3.60738 -3.2418 0
M  V30 8261 H 779.043 -2.54073 -3.84666 0
M  V30 8262 H 782.587 -5.98312 -3.58705 0
M  V30 8263 H 778.484 -4.90752 -4.19324 0
M  V30 8264 H 779.252 -6.98188 -4.27172 0
M  V30 8265 N 781.915 1.24427 -0.967243 0
M  V30 8266 C 783.155 1.9423 -0.636723 0
M  V30 8267 C 783.519 1.73939 0.812971 0
M  V30 8268 O 784.72 2.37773 1.25369 0
M  V30 8269 C 782.991 3.43105 -1.00067 0
M  V30 8270 S 784.55 4.31728 -0.784633 0
M  V30 8271 H 781.368 0.671527 -0.233607 0
M  V30 8272 H 783.97 1.50806 -1.2441 0
M  V30 8273 H 782.674 3.5538 -2.05264 0
M  V30 8274 H 782.205 3.91521 -0.384054 0
M  V30 8275 H 784.22 4.95046 0.338244 0
M  V30 8276 N 783.393 0.737304 1.3929 0
M  V30 8277 C 784.641 0.285691 2.00071 0
M  V30 8278 C 784.962 -1.13169 1.58801 0
M  V30 8279 O 784.232 -1.77104 0.837308 0
M  V30 8280 H 782.812 0.102638 0.739915 0
M  V30 8281 H 785.474 0.947775 1.70303 0
M  V30 8282 H 784.57 0.335906 3.10287 0
M  V30 8283 N 784.871 -1.49948 0.485112 0
M  V30 8284 C 786.096 -2.073 -0.0645059 0
M  V30 8285 C 786.521 -1.345 -1.31497 0
M  V30 8286 O 785.879 -0.39687 -1.76903 0
M  V30 8287 C 785.927 -3.59201 -0.317304 0
M  V30 8288 O 785.031 -3.88085 -1.39514 0
M  V30 8289 H 784.372 -0.663723 0.0191822 0
M  V30 8290 H 786.902 -1.92963 0.680179 0
M  V30 8291 H 786.912 -4.04227 -0.553604 0
M  V30 8292 H 785.587 -4.11602 0.596387 0
M  V30 8293 H 784.164 -3.54885 -1.14504 0
M  V30 8294 N 786.349 -0.21828 -1.56081 0
M  V30 8295 C 787.597 0.413488 -1.97825 0
M  V30 8296 C 787.918 1.60527 -1.10707 0
M  V30 8297 O 787.188 1.9504 -0.183378 0
M  V30 8298 H 785.768 0.155757 -0.730581 0
M  V30 8299 H 788.43 -0.310413 -1.92412 0
M  V30 8300 H 787.526 0.742024 -3.03151 0
M  V30 8301 N 787.827 1.57504 0.0551401 0
M  V30 8302 C 789.074 1.88055 0.751104 0
M  V30 8303 C 789.402 0.812231 1.76729 0
M  V30 8304 O 788.657 -0.189918 1.94776 0
M  V30 8305 C 788.956 3.25311 1.48013 0
M  V30 8306 C 788.622 4.46858 0.602375 0
M  V30 8307 C 787.284 4.79847 0.360536 0
M  V30 8308 C 789.636 5.212 -0.00524047 0
M  V30 8309 C 786.964 5.84582 -0.498127 0
M  V30 8310 C 789.316 6.26844 -0.851453 0
M  V30 8311 C 787.98 6.58324 -1.103 0
M  V30 8312 H 787.25 0.688142 0.274848 0
M  V30 8313 H 789.897 1.91497 0.0114795 0
M  V30 8314 H 788.202 3.17737 2.29239 0
M  V30 8315 H 789.899 3.46189 2.02371 0
M  V30 8316 H 786.489 4.21049 0.801007 0
M  V30 8317 H 790.673 4.96013 0.168682 0
M  V30 8318 H 785.929 6.07361 -0.701594 0
M  V30 8319 H 790.103 6.83603 -1.32893 0
M  V30 8320 H 787.73 7.39304 -1.77011 0
M  V30 8321 N 789.305 -0.326896 1.54172 0
M  V30 8322 C 790.255 -1.40319 1.79707 0
M  V30 8323 C 791.239 -1.47056 0.652938 0
M  V30 8324 O 792.431 -1.51645 0.91284 0
M  V30 8325 C 789.56 -2.77222 2.02491 0
M  V30 8326 C 788.646 -2.74811 3.23016 0
M  V30 8327 N 789.037 -2.42022 4.44138 0
M  V30 8328 C 787.335 -3.05943 3.24522 0
M  V30 8329 C 788.036 -2.48263 5.26061 0
M  V30 8330 N 787.012 -2.84567 4.63166 0
M  V30 8331 H 790.814 -1.13892 2.70935 0
M  V30 8332 H 788.328 -0.53536 1.53322 0
M  V30 8333 H 790.325 -3.54793 2.18923 0
M  V30 8334 H 788.985 -3.04582 1.12515 0
M  V30 8335 H 789.996 -2.14926 4.71197 0
M  V30 8336 H 786.673 -3.38367 2.44569 0
M  V30 8337 H 788.063 -2.2593 6.32776 0
M  V30 8338 N 790.784 -1.46188 -0.588786 0
M  V30 8339 C 792.032 -1.50885 -1.34455 0
M  V30 8340 C 792.353 -0.159555 -1.94346 0
M  V30 8341 O 791.623 0.813239 -1.78222 0
M  V30 8342 H 790.203 -0.555707 -0.499198 0
M  V30 8343 H 792.865 -1.82277 -0.690014 0
M  V30 8344 H 791.961 -2.25816 -2.15438 0
M  V30 8345 N 792.262 0.832906 -1.33792 0
M  V30 8346 C 793.487 1.62568 -1.28788 0
M  V30 8347 C 793.912 1.87599 0.137246 0
M  V30 8348 O 793.27 1.44436 1.0958 0
M  V30 8349 C 793.318 2.9495 -2.07453 0
M  V30 8350 O 792.422 3.86546 -1.43722 0
M  V30 8351 H 791.763 0.494809 -0.442787 0
M  V30 8352 H 794.293 1.03578 -1.76445 0
M  V30 8353 H 794.303 3.44599 -2.1844 0
M  V30 8354 H 792.978 2.76055 -3.11073 0
M  V30 8355 H 791.555 3.45044 -1.41417 0
M  V30 8356 N 793.74 1.17359 1.05189 0
M  V30 8357 C 795.017 0.871914 1.75091 0
M  V30 8358 C 795.397 -0.627821 2.01548 0
M  V30 8359 O 794.745 -1.5791 1.65156 0
M  V30 8360 C 794.955 1.70687 3.04413 0
M  V30 8361 C 796.303 1.92684 3.78362 0
M  V30 8362 O 797.327 1.67645 3.14282 0
M  V30 8363 O 796.186 2.34765 4.93505 0
M  V30 8364 H 793.28 0.322831 0.761386 0
M  V30 8365 H 795.826 1.28054 1.11357 0
M  V30 8366 H 794.598 2.72405 2.80911 0
M  V30 8367 H 794.221 1.29602 3.75884 0
M  V30 8368 N 795.218 -1.23913 0.973828 0
M  V30 8369 C 796.166 -2.27141 0.50098 0
M  V30 8370 C 797.16 -1.63623 -0.438631 0
M  V30 8371 O 798.366 -1.77253 -0.313247 0
M  V30 8372 H 794.741 -0.73817 0.14356 0
M  V30 8373 H 796.712 -2.64392 1.38346 0
M  V30 8374 C 795.461 -3.47195 -0.187377 0
M  V30 8375 H 794.784 -3.96318 0.526535 0
M  V30 8376 H 796.224 -4.21252 -0.481962 0
M  V30 8377 C 794.683 -3.05678 -1.41642 0
M  V30 8378 O 795.213 -3.1338 -2.51309 0
M  V30 8379 N 793.419 -2.60661 -1.28469 0
M  V30 8380 H 792.966 -2.54594 -0.39238 0
M  V30 8381 H 792.924 -2.33249 -2.10813 0
M  V30 8382 N 796.696 -0.74468 -1.38897 0
M  V30 8383 C 797.942 -0.297324 -2.00609 0
M  V30 8384 C 798.275 1.11547 -1.58968 0
M  V30 8385 O 797.55 1.76227 -0.823057 0
M  V30 8386 C 797.833 -0.410125 -3.57757 0
M  V30 8387 C 797.686 -1.86338 -4.09387 0
M  V30 8388 C 799.005 0.20176 -4.39637 0
M  V30 8389 H 796.124 -0.109509 -0.728819 0
M  V30 8390 H 798.766 -0.942653 -1.64967 0
M  V30 8391 H 796.916 0.139287 -3.8825 0
M  V30 8392 H 798.588 -2.47042 -3.89574 0
M  V30 8393 H 796.831 -2.38146 -3.62586 0
M  V30 8394 H 797.502 -1.89352 -5.18507 0
M  V30 8395 H 799.978 -0.266703 -4.15244 0
M  V30 8396 H 798.854 0.0925415 -5.48822 0
M  V30 8397 H 799.115 1.289 -4.22891 0
M  V30 8398 N 798.174 1.49689 -0.493057 0
M  V30 8399 C 799.421 2.02427 0.0542714 0
M  V30 8400 C 799.749 1.37339 1.37725 0
M  V30 8401 O 799.004 0.495523 1.89323 0
M  V30 8402 C 799.303 3.56427 0.263536 0
M  V30 8403 C 798.969 4.40111 -0.98046 0
M  V30 8404 C 797.631 4.62699 -1.32148 0
M  V30 8405 C 799.983 4.88847 -1.80771 0
M  V30 8406 C 797.311 5.31268 -2.48941 0
M  V30 8407 C 799.663 5.587 -2.96711 0
M  V30 8408 C 798.327 5.79536 -3.31202 0
M  V30 8409 H 797.597 0.740734 0.0198593 0
M  V30 8410 H 800.244 1.80073 -0.651603 0
M  V30 8411 H 798.549 3.77416 1.05186 0
M  V30 8412 H 800.246 3.94819 0.701348 0
M  V30 8413 H 796.836 4.22765 -0.704814 0
M  V30 8414 H 801.02 4.71231 -1.55741 0
M  V30 8415 H 796.276 5.45603 -2.75911 0
M  V30 8416 H 800.45 5.9544 -3.61143 0
M  V30 8417 H 798.077 6.32443 -4.21805 0
M  V30 8418 N 799.652 0.226554 1.55963 0
M  V30 8419 C 800.877 -0.411527 2.03276 0
M  V30 8420 C 801.302 -1.52206 1.10521 0
M  V30 8421 O 800.66 -1.81054 0.0943217 0
M  V30 8422 C 800.708 -0.915694 3.4878 0
M  V30 8423 O 799.812 -2.02672 3.59163 0
M  V30 8424 H 799.153 -0.0924907 0.657527 0
M  V30 8425 H 801.683 0.346656 2.01642 0
M  V30 8426 H 801.693 -1.22421 3.892 0
M  V30 8427 H 800.368 -0.102915 4.15773 0
M  V30 8428 H 798.945 -1.72445 3.30632 0
M  V30 8429 N 801.13 -1.57531 -0.0467866 0
M  V30 8430 C 802.078 -2.06455 -1.0714 0
M  V30 8431 C 803.072 -0.974744 -1.38546 0
M  V30 8432 O 804.278 -1.15974 -1.37659 0
M  V30 8433 H 800.653 -0.658607 -0.362962 0
M  V30 8434 H 802.624 -2.91613 -0.632813 0
M  V30 8435 C 801.373 -2.54481 -2.36927 0
M  V30 8436 H 800.696 -3.37946 -2.13617 0
M  V30 8437 H 802.136 -2.92442 -3.07007 0
M  V30 8438 C 800.595 -1.43836 -3.04652 0
M  V30 8439 O 801.125 -0.794531 -3.93764 0
M  V30 8440 N 799.331 -1.17727 -2.65686 0
M  V30 8441 H 798.878 -1.70265 -1.93307 0
M  V30 8442 H 798.836 -0.439051 -3.11319 0
M  V30 8443 N 802.608 0.318715 -1.54344 0
M  V30 8444 C 803.541 1.41644 -1.7892 0
M  V30 8445 C 804.519 1.495 -0.639421 0
M  V30 8446 O 805.703 1.66835 -0.877404 0
M  V30 8447 C 802.83 2.79701 -1.9101 0
M  V30 8448 C 801.876 2.89354 -3.13331 0
M  V30 8449 S 802.709 2.53264 -4.71824 0
M  V30 8450 C 803.865 3.93384 -4.86826 0
M  V30 8451 H 804.098 1.20585 -2.71747 0
M  V30 8452 H 801.631 0.515828 -1.45529 0
M  V30 8453 H 803.589 3.59227 -1.98661 0
M  V30 8454 H 802.25 2.9804 -0.991516 0
M  V30 8455 H 801.443 3.90574 -3.1854 0
M  V30 8456 H 801.045 2.17805 -3.04035 0
M  V30 8457 H 803.337 4.88191 -4.69761 0
M  V30 8458 H 804.28 3.93156 -5.88926 0
M  V30 8459 H 804.688 3.82564 -4.15097 0
M  V30 8460 N 804.086 1.46499 0.581025 0
M  V30 8461 C 805.018 1.53225 1.70455 0
M  V30 8462 C 806.031 0.420443 1.57277 0
M  V30 8463 O 807.22 0.688888 1.64671 0
M  V30 8464 C 804.32 1.39803 3.08721 0
M  V30 8465 C 803.493 2.65132 3.47884 0
M  V30 8466 C 802.552 2.45886 4.65217 0
M  V30 8467 O 801.578 3.19615 4.70993 0
M  V30 8468 N 802.78 1.5216 5.60203 0
M  V30 8469 H 805.545 2.50098 1.65139 0
M  V30 8470 H 803.106 1.42576 0.76705 0
M  V30 8471 H 805.098 1.24697 3.8501 0
M  V30 8472 H 803.668 0.51104 3.08394 0
M  V30 8473 H 802.888 2.95169 2.61284 0
M  V30 8474 H 804.176 3.48385 3.70817 0
M  V30 8475 H 803.574 0.913646 5.58273 0
M  V30 8476 H 802.131 1.43017 6.35916 0
M  V30 8477 N 805.565 -0.825799 1.34232 0
M  V30 8478 C 806.528 -1.91808 1.25468 0
M  V30 8479 C 807.528 -1.59893 0.170567 0
M  V30 8480 O 808.718 -1.68986 0.422996 0
M  V30 8481 C 805.85 -3.27786 0.93644 0
M  V30 8482 H 807.043 -2.01003 2.22571 0
M  V30 8483 H 804.596 -1.01944 1.18479 0
M  V30 8484 H 805.331 -3.24285 -0.0315408 0
M  V30 8485 H 805.116 -3.52333 1.72057 0
M  V30 8486 H 806.606 -4.07782 0.900214 0
M  V30 8487 N 807.043 -1.17915 -1.04565 0
M  V30 8488 C 807.973 -0.925033 -2.14395 0
M  V30 8489 C 808.954 0.135375 -1.6956 0
M  V30 8490 O 810.139 -0.0161774 -1.94193 0
M  V30 8491 C 807.269 -0.444469 -3.44444 0
M  V30 8492 C 806.223 -1.44478 -4.02877 0
M  V30 8493 C 805.549 -0.821933 -5.28345 0
M  V30 8494 C 806.849 -2.81995 -4.39632 0
M  V30 8495 H 808.543 -1.84354 -2.35911 0
M  V30 8496 H 806.089 -0.887806 -1.13375 0
M  V30 8497 H 808.042 -0.254078 -4.20633 0
M  V30 8498 H 806.766 0.509592 -3.226 0
M  V30 8499 H 805.425 -1.62203 -3.28764 0
M  V30 8500 H 805.073 0.139161 -5.02807 0
M  V30 8501 H 804.773 -1.48976 -5.68401 0
M  V30 8502 H 806.297 -0.641959 -6.07216 0
M  V30 8503 H 807.711 -2.67952 -5.06828 0
M  V30 8504 H 806.108 -3.45414 -4.90723 0
M  V30 8505 H 807.178 -3.35927 -3.49687 0
M  V30 8506 N 808.521 1.23394 -0.980386 0
M  V30 8507 C 809.768 1.91809 -0.649261 0
M  V30 8508 C 810.096 1.765 0.817197 0
M  V30 8509 O 809.351 1.11979 1.60497 0
M  V30 8510 C 809.65 3.43542 -0.985588 0
M  V30 8511 C 809.316 3.79031 -2.44225 0
M  V30 8512 C 807.978 3.88429 -2.84035 0
M  V30 8513 C 810.33 3.96145 -3.38702 0
M  V30 8514 C 807.658 4.12368 -4.17336 0
M  V30 8515 C 810.01 4.21583 -4.71646 0
M  V30 8516 C 808.674 4.29203 -5.11215 0
M  V30 8517 H 807.944 0.70188 -0.237581 0
M  V30 8518 H 810.591 1.4642 -1.23424 0
M  V30 8519 H 808.896 3.90503 -0.318521 0
M  V30 8520 H 810.593 3.94708 -0.707596 0
M  V30 8521 H 807.183 3.7229 -2.12362 0
M  V30 8522 H 811.367 3.88274 -3.09123 0
M  V30 8523 H 806.623 4.1649 -4.47601 0
M  V30 8524 H 810.797 4.33769 -5.4481 0
M  V30 8525 H 808.424 4.47505 -6.14527 0
M  V30 8526 N 809.999 0.752036 1.385 0
M  V30 8527 C 811.245 0.307958 2.00448 0
M  V30 8528 C 811.578 -1.10702 1.59558 0
M  V30 8529 O 810.853 -1.75788 0.832391 0
M  V30 8530 C 811.136 0.429092 3.57534 0
M  V30 8531 C 810.989 1.88507 4.08393 0
M  V30 8532 C 812.308 -0.178442 4.39738 0
M  V30 8533 H 809.427 0.113373 0.728228 0
M  V30 8534 H 812.069 0.951389 1.64465 0
M  V30 8535 H 810.219 -0.118695 3.88319 0
M  V30 8536 H 811.891 2.49104 3.88259 0
M  V30 8537 H 810.134 2.40066 3.61318 0
M  V30 8538 H 810.805 1.92099 5.17496 0
M  V30 8539 H 813.281 0.28872 4.15097 0
M  V30 8540 H 812.157 -0.0634349 5.48863 0
M  V30 8541 H 812.418 -1.26655 4.23569 0
M  V30 8542 N 811.477 -1.49425 0.500989 0
M  V30 8543 C 812.725 -2.02053 -0.0434495 0
M  V30 8544 C 813.046 -1.38285 -1.37486 0
M  V30 8545 O 812.316 -0.538171 -1.88363 0
M  V30 8546 H 810.896 -0.746757 -0.0190469 0
M  V30 8547 H 813.558 -1.83449 0.658227 0
M  V30 8548 H 812.654 -3.11619 -0.173129 0
M  V30 8549 N 812.955 -0.234822 -1.55841 0
M  V30 8550 C 814.185 0.397168 -2.02746 0
M  V30 8551 C 814.593 1.52951 -1.11367 0
M  V30 8552 O 813.936 1.8332 -0.118133 0
M  V30 8553 C 813.998 0.977748 -3.45948 0
M  V30 8554 C 813.662 -0.0208193 -4.56995 0
M  V30 8555 C 814.659 -0.826015 -5.13296 0
M  V30 8556 C 812.344 -0.143416 -5.02095 0
M  V30 8557 C 814.338 -1.74038 -6.1318 0
M  V30 8558 C 812.025 -1.0613 -6.01814 0
M  V30 8559 C 813.023 -1.85832 -6.57233 0
M  V30 8560 O 812.711 -2.76075 -7.55008 0
M  V30 8561 H 812.443 0.0999802 -0.668566 0
M  V30 8562 H 814.997 -0.352673 -2.0235 0
M  V30 8563 H 813.227 1.77693 -3.43456 0
M  V30 8564 H 814.916 1.51854 -3.76424 0
M  V30 8565 H 815.682 -0.741822 -4.79293 0
M  V30 8566 H 811.561 0.466857 -4.5863 0
M  V30 8567 H 815.105 -2.36291 -6.56363 0
M  V30 8568 H 811.002 -1.14646 -6.35237 0
M  V30 8569 H 811.77 -2.703 -7.7258 0
M  V30 8570 N 814.433 1.57553 0.0384317 0
M  V30 8571 C 815.681 1.88468 0.729672 0
M  V30 8572 C 816.002 0.831302 1.76393 0
M  V30 8573 O 815.272 -0.13622 1.95426 0
M  V30 8574 H 813.852 0.695529 0.272485 0
M  V30 8575 H 816.514 1.94899 0.0066032 0
M  V30 8576 H 815.61 2.8705 1.22511 0
M  V30 8577 N 815.911 -0.310526 1.54511 0
M  V30 8578 C 817.322 -0.884142 1.64438 0
M  V30 8579 C 817.673 -1.88425 0.546855 0
M  V30 8580 O 816.798 -2.14049 -0.31811 0
M  V30 8581 C 817.393 -1.6104 2.9808 0
M  V30 8582 C 815.952 -2.13255 3.1016 0
M  V30 8583 C 815.099 -0.96213 2.60074 0
M  V30 8584 H 818.05 -0.0877666 1.58457 0
M  V30 8585 H 818.071 -2.47541 2.8897 0
M  V30 8586 H 817.583 -0.882255 3.77939 0
M  V30 8587 H 815.684 -2.89145 2.35002 0
M  V30 8588 H 815.797 -2.37361 4.16169 0
M  V30 8589 H 814.161 -1.34501 2.16291 0
M  V30 8590 H 814.944 -0.248098 3.42402 0
M  V30 8591 N 817.389 -1.46805 -0.573248 0
M  V30 8592 C 818.637 -1.52302 -1.32847 0
M  V30 8593 C 818.958 -0.180159 -1.94166 0
M  V30 8594 O 818.228 0.794291 -1.79075 0
M  V30 8595 H 816.808 -0.56097 -0.493276 0
M  V30 8596 H 819.47 -1.82998 -0.670642 0
M  V30 8597 H 818.566 -2.28089 -2.13031 0
M  V30 8598 N 818.867 0.818669 -1.34668 0
M  V30 8599 C 820.114 1.57512 -1.27264 0
M  V30 8600 C 820.442 1.93871 0.156254 0
M  V30 8601 O 819.697 1.60582 1.11857 0
M  V30 8602 C 819.996 2.88245 -2.11304 0
M  V30 8603 C 819.662 2.71159 -3.60255 0
M  V30 8604 C 818.324 2.66207 -4.00858 0
M  V30 8605 C 820.676 2.54538 -4.54819 0
M  V30 8606 C 818.004 2.4256 -5.34211 0
M  V30 8607 C 820.356 2.32421 -5.88356 0
M  V30 8608 C 819.02 2.25884 -6.28118 0
M  V30 8609 H 818.29 0.576378 -0.465692 0
M  V30 8610 H 820.937 0.9469 -1.66451 0
M  V30 8611 H 819.242 3.55381 -1.64958 0
M  V30 8612 H 820.939 3.45869 -2.02919 0
M  V30 8613 H 817.529 2.75856 -3.28027 0
M  V30 8614 H 821.713 2.57384 -4.24343 0
M  V30 8615 H 816.969 2.35959 -5.64033 0
M  V30 8616 H 821.143 2.18548 -6.61218 0
M  V30 8617 H 818.77 2.07322 -7.31383 0
M  V30 8618 N 820.346 1.18468 1.03938 0
M  V30 8619 C 821.293 0.912859 2.1198 0
M  V30 8620 C 822.263 -0.14824 1.65437 0
M  V30 8621 O 823.448 -0.008331 1.90798 0
M  V30 8622 C 820.588 0.446114 3.42204 0
M  V30 8623 C 819.701 1.57278 4.02353 0
M  V30 8624 C 818.836 1.05863 5.20544 0
M  V30 8625 C 817.875 2.1599 5.72726 0
M  V30 8626 N 817.012 1.65959 6.82204 0
M  V30 8627 H 821.852 1.83798 2.34569 0
M  V30 8628 H 819.389 0.916504 1.15059 0
M  V30 8629 H 821.347 0.15697 4.16905 0
M  V30 8630 H 819.977 -0.442025 3.19759 0
M  V30 8631 H 819.029 1.97737 3.24968 0
M  V30 8632 H 820.341 2.40289 4.37107 0
M  V30 8633 H 819.495 0.724087 6.02364 0
M  V30 8634 H 818.234 0.198116 4.87297 0
M  V30 8635 H 817.239 2.50287 4.89527 0
M  V30 8636 H 818.464 3.02479 6.08016 0
M  V30 8637 H 816.41 0.82199 6.5083 0
M  V30 8638 H 816.327 2.42567 7.16029 0
M  V30 8639 H 817.595 1.35436 7.67644 0
M  V30 8640 N 821.824 -1.22873 0.986916 0
M  V30 8641 C 822.774 -2.2237 0.503547 0
M  V30 8642 C 823.758 -1.55186 -0.424998 0
M  V30 8643 O 824.95 -1.75186 -0.252791 0
M  V30 8644 C 822.079 -3.42794 -0.186355 0
M  V30 8645 C 821.165 -4.17196 0.762143 0
M  V30 8646 N 821.556 -4.68453 1.9075 0
M  V30 8647 C 819.854 -4.42255 0.576797 0
M  V30 8648 C 820.555 -5.25126 2.50235 0
M  V30 8649 N 819.531 -5.13437 1.7856 0
M  V30 8650 H 823.333 -2.59636 1.37718 0
M  V30 8651 H 820.847 -1.38476 0.848415 0
M  V30 8652 H 822.844 -4.13256 -0.549993 0
M  V30 8653 H 821.504 -3.07042 -1.05619 0
M  V30 8654 H 822.515 -4.64595 2.28848 0
M  V30 8655 H 819.192 -4.16766 -0.247474 0
M  V30 8656 H 820.582 -5.75363 3.46997 0
M  V30 8657 N 823.302 -0.75937 -1.38099 0
M  V30 8658 C 824.55 -0.317485 -1.99591 0
M  V30 8659 C 824.871 1.10628 -1.60581 0
M  V30 8660 O 824.141 1.7575 -0.865378 0
M  V30 8661 H 822.721 -0.114397 -0.738189 0
M  V30 8662 H 825.383 -0.974749 -1.68774 0
M  V30 8663 H 824.479 -0.385227 -3.09713 0
M  V30 8664 N 824.78 1.49157 -0.508906 0
M  V30 8665 C 826.029 2.0167 0.0346854 0
M  V30 8666 C 826.342 1.39302 1.37311 0
M  V30 8667 O 827.548 1.83189 2.00385 0
M  V30 8668 C 826.004 3.59725 0.112261 0
M  V30 8669 C 825.612 4.31069 -1.21999 0
M  V30 8670 C 827.356 4.20155 0.605798 0
M  V30 8671 C 825.263 5.81001 -1.10415 0
M  V30 8672 H 824.193 0.753814 0.0167355 0
M  V30 8673 H 826.844 1.7162 -0.649518 0
M  V30 8674 H 825.226 3.86525 0.861087 0
M  V30 8675 H 826.4 4.15962 -1.98273 0
M  V30 8676 H 824.715 3.82418 -1.64759 0
M  V30 8677 H 827.312 5.29964 0.710102 0
M  V30 8678 H 827.655 3.84051 1.60656 0
M  V30 8679 H 828.188 3.97705 -0.0867239 0
M  V30 8680 H 824.927 6.21643 -2.07941 0
M  V30 8681 H 824.447 5.9858 -0.382428 0
M  V30 8682 H 826.126 6.42207 -0.786116 0
M  V30 8683 N 826.258 0.243083 1.55714 0
M  V30 8684 C 827.168 -0.668913 2.24862 0
M  V30 8685 C 828.184 -1.19638 1.26344 0
M  V30 8686 O 829.36 -1.23345 1.5921 0
M  V30 8687 C 826.425 -1.85084 2.93163 0
M  V30 8688 C 825.486 -1.36323 4.07081 0
M  V30 8689 C 824.719 -2.48882 4.72116 0
M  V30 8690 O 824.942 -3.67523 4.36214 0
M  V30 8691 O 823.876 -2.18857 5.60701 0
M  V30 8692 H 827.702 -0.109737 3.03502 0
M  V30 8693 H 825.287 0.0117411 1.49395 0
M  V30 8694 H 827.169 -2.54065 3.36197 0
M  V30 8695 H 825.844 -2.39771 2.17466 0
M  V30 8696 H 824.751 -0.640804 3.68571 0
M  V30 8697 H 826.084 -0.86249 4.84584 0
M  V30 8698 N 827.736 -1.57571 -0.0300757 0
M  V30 8699 C 828.699 -2.05468 -1.01565 0
M  V30 8700 C 829.699 -0.958628 -1.29101 0
M  V30 8701 O 830.889 -1.22228 -1.24121 0
M  V30 8702 C 828.021 -2.47077 -2.34874 0
M  V30 8703 H 829.214 -2.93797 -0.601936 0
M  V30 8704 H 826.767 -1.53828 -0.276878 0
M  V30 8705 H 827.502 -1.61901 -2.80996 0
M  V30 8706 H 827.287 -3.27097 -2.16218 0
M  V30 8707 H 828.777 -2.84564 -3.05635 0
M  V30 8708 N 829.214 0.302327 -1.54673 0
M  V30 8709 C 830.491 1.05721 -1.64567 0
M  V30 8710 C 830.871 2.0526 -0.493108 0
M  V30 8711 O 830.219 2.22729 0.510315 0
M  V30 8712 C 830.429 1.74025 -3.02517 0
M  V30 8713 C 831.777 2.26271 -3.59286 0
M  V30 8714 O 832.801 1.8406 -3.0496 0
M  V30 8715 O 831.66 3.0361 -4.54404 0
M  V30 8716 H 828.754 0.488577 -0.667249 0
M  V30 8717 H 831.3 0.300521 -1.67018 0
M  V30 8718 H 830.072 1.0174 -3.77842 0
M  V30 8719 H 829.695 2.56454 -3.03838 0
M  V30 8720 N 830.692 1.47107 0.565454 0
M  V30 8721 C 831.92 1.56909 1.3486 0
M  V30 8722 C 832.335 0.216312 1.87557 0
M  V30 8723 O 831.692 -0.789168 1.64555 0
M  V30 8724 C 831.743 2.58776 2.52423 0
M  V30 8725 O 831.464 3.888 2.01906 0
M  V30 8726 C 832.965 2.78683 3.44747 0
M  V30 8727 H 830.185 0.530096 0.411387 0
M  V30 8728 H 832.729 1.92658 0.685782 0
M  V30 8729 H 830.884 2.25983 3.1466 0
M  V30 8730 H 831.298 4.44393 2.78595 0
M  V30 8731 H 832.772 3.53842 4.23674 0
M  V30 8732 H 833.249 1.86208 3.97773 0
M  V30 8733 H 833.855 3.12641 2.88333 0
M  V30 8734 N 832.17 -0.811516 1.35101 0
M  V30 8735 C 833.417 -1.56835 1.28098 0
M  V30 8736 C 833.745 -1.93951 -0.14597 0
M  V30 8737 O 833 -1.61173 -1.11004 0
M  V30 8738 C 833.299 -2.87121 2.1283 0
M  V30 8739 C 832.965 -2.69245 3.61688 0
M  V30 8740 C 831.627 -2.64078 4.02264 0
M  V30 8741 C 833.979 -2.52122 4.56162 0
M  V30 8742 C 831.307 -2.39724 5.3549 0
M  V30 8743 C 833.659 -2.29298 5.89581 0
M  V30 8744 C 832.323 -2.2255 6.29307 0
M  V30 8745 H 831.593 -0.5739 0.468742 0
M  V30 8746 H 834.24 -0.93806 1.66951 0
M  V30 8747 H 832.545 -3.54502 1.66841 0
M  V30 8748 H 834.242 -3.44788 2.0475 0
M  V30 8749 H 830.832 -2.74112 3.29485 0
M  V30 8750 H 835.016 -2.5513 4.25702 0
M  V30 8751 H 830.272 -2.32965 5.65276 0
M  V30 8752 H 834.446 -2.15038 6.62368 0
M  V30 8753 H 832.073 -2.0344 7.32473 0
M  V30 8754 N 833.648 -1.19017 -1.03309 0
M  V30 8755 C 834.558 -0.939303 -2.14975 0
M  V30 8756 C 835.574 0.0992359 -1.73717 0
M  V30 8757 O 836.75 -0.0844362 -2.01223 0
M  V30 8758 C 833.815 -0.476712 -3.43407 0
M  V30 8759 C 832.876 -1.58413 -3.99003 0
M  V30 8760 C 832.109 -1.14352 -5.21305 0
M  V30 8761 O 832.332 -0.00534408 -5.704 0
M  V30 8762 O 831.266 -1.94436 -5.6963 0
M  V30 8763 H 835.092 -1.87386 -2.38998 0
M  V30 8764 H 832.677 -0.972635 -1.13403 0
M  V30 8765 H 834.559 -0.22718 -4.20787 0
M  V30 8766 H 833.234 0.429455 -3.20839 0
M  V30 8767 H 832.141 -1.88777 -3.22977 0
M  V30 8768 H 833.474 -2.4667 -4.25928 0
M  V30 8769 N 835.127 1.22348 -0.993418 0
M  V30 8770 C 836.075 2.26315 -0.537052 0
M  V30 8771 C 837.069 1.643 0.412545 0
M  V30 8772 O 838.275 1.77729 0.285008 0
M  V30 8773 H 834.65 0.735792 -0.155286 0
M  V30 8774 H 836.621 2.62157 -1.42535 0
M  V30 8775 C 835.37 3.47449 0.132118 0
M  V30 8776 H 834.693 3.9543 -0.589519 0
M  V30 8777 H 836.133 4.21965 0.414884 0
M  V30 8778 C 834.592 3.07893 1.36761 0
M  V30 8779 O 835.122 3.17338 2.46291 0
M  V30 8780 N 833.328 2.62672 1.24305 0
M  V30 8781 H 832.875 2.55186 0.351826 0
M  V30 8782 H 832.833 2.36574 2.07076 0
M  V30 8783 N 836.605 0.766683 1.37694 0
M  V30 8784 C 837.854 0.325425 1.99057 0
M  V30 8785 C 838.167 -1.10275 1.61551 0
M  V30 8786 O 839.373 -1.64513 2.1598 0
M  V30 8787 C 837.829 0.530886 3.55963 0
M  V30 8788 C 837.437 1.96899 4.02411 0
M  V30 8789 C 839.181 0.152997 4.24224 0
M  V30 8790 C 837.088 2.12232 5.52007 0
M  V30 8791 H 836.018 0.117929 0.744721 0
M  V30 8792 H 838.669 0.945091 1.5729 0
M  V30 8793 H 837.051 -0.158162 3.95684 0
M  V30 8794 H 838.225 2.69258 3.73948 0
M  V30 8795 H 836.54 2.303 3.46916 0
M  V30 8796 H 839.137 0.24614 5.34133 0
M  V30 8797 H 839.48 -0.896096 4.06541 0
M  V30 8798 H 840.013 0.794398 3.89787 0
M  V30 8799 H 836.752 3.15442 5.7461 0
M  V30 8800 H 836.272 1.4435 5.82171 0
M  V30 8801 H 837.951 1.9185 6.17902 0
M  V30 8802 N 838.083 -1.48885 0.516809 0
M  V30 8803 C 838.993 -2.33185 -0.257293 0
M  V30 8804 C 840.009 -1.4565 -0.951952 0
M  V30 8805 O 841.185 -1.78651 -0.929834 0
M  V30 8806 C 838.25 -3.21465 -1.29851 0
M  V30 8807 C 837.311 -4.24863 -0.615608 0
M  V30 8808 C 836.544 -5.08925 -1.60722 0
M  V30 8809 O 836.767 -4.9475 -2.83863 0
M  V30 8810 O 835.701 -5.90737 -1.15384 0
M  V30 8811 H 839.527 -3.00596 0.433131 0
M  V30 8812 H 837.112 -1.46792 0.277908 0
M  V30 8813 H 838.994 -3.76108 -1.90055 0
M  V30 8814 H 837.669 -2.5673 -1.97158 0
M  V30 8815 H 836.576 -3.74091 0.0265829 0
M  V30 8816 H 837.909 -4.92198 0.0152871 0
M  V30 8817 N 839.561 -0.251338 -1.55583 0
M  V30 8818 C 840.807 0.37272 -1.99346 0
M  V30 8819 C 841.14 1.57266 -1.13934 0
M  V30 8820 O 840.415 1.9343 -0.20377 0
M  V30 8821 C 840.698 0.778245 -3.5159 0
M  V30 8822 C 840.551 -0.427394 -4.47765 0
M  V30 8823 C 841.87 1.62358 -4.09057 0
M  V30 8824 H 838.989 0.134002 -0.724715 0
M  V30 8825 H 841.631 -0.353536 -1.86682 0
M  V30 8826 H 839.781 1.39704 -3.62512 0
M  V30 8827 H 841.453 -1.06586 -4.48818 0
M  V30 8828 H 839.696 -1.06972 -4.20404 0
M  V30 8829 H 840.367 -0.10025 -5.51909 0
M  V30 8830 H 842.843 1.1012 -4.01264 0
M  V30 8831 H 841.719 1.87617 -5.1584 0
M  V30 8832 H 841.98 2.59688 -3.57791 0
M  V30 8833 N 841.039 1.57585 0.0217189 0
M  V30 8834 C 842.269 1.9359 0.721572 0
M  V30 8835 C 842.677 0.850132 1.69025 0
M  V30 8836 O 842.02 -0.181539 1.82801 0
M  V30 8837 C 842.082 3.25445 1.52729 0
M  V30 8838 C 841.746 4.51251 0.722586 0
M  V30 8839 C 842.743 5.19896 0.0196598 0
M  V30 8840 C 840.428 4.97745 0.674959 0
M  V30 8841 C 842.422 6.33319 -0.720114 0
M  V30 8842 C 840.109 6.11062 -0.068555 0
M  V30 8843 C 841.107 6.78704 -0.764845 0
M  V30 8844 O 840.795 7.89852 -1.49627 0
M  V30 8845 H 840.527 0.643409 0.207366 0
M  V30 8846 H 843.081 2.05391 -0.0189346 0
M  V30 8847 H 841.311 3.0999 2.31178 0
M  V30 8848 H 843 3.46721 2.11044 0
M  V30 8849 H 843.766 4.84977 0.0474394 0
M  V30 8850 H 839.645 4.44934 1.20643 0
M  V30 8851 H 843.189 6.86051 -1.26413 0
M  V30 8852 H 839.086 6.45425 -0.0982318 0
M  V30 8853 H 839.854 8.06251 -1.41071 0
M  V30 8854 N 842.517 -0.29412 1.54831 0
M  V30 8855 C 843.465 -1.38296 1.87021 0
M  V30 8856 C 844.459 -1.5216 0.744557 0
M  V30 8857 O 845.665 -1.54196 0.92864 0
M  V30 8858 H 842.04 -0.462088 0.593278 0
M  V30 8859 H 844.011 -1.08386 2.7802 0
M  V30 8860 C 842.76 -2.74024 2.14023 0
M  V30 8861 H 842.083 -2.6414 3.00117 0
M  V30 8862 H 843.523 -3.49205 2.40482 0
M  V30 8863 C 841.982 -3.23492 0.940982 0
M  V30 8864 O 842.512 -4.01361 0.164937 0
M  V30 8865 N 840.718 -2.80902 0.744467 0
M  V30 8866 H 840.265 -2.17694 1.37721 0
M  V30 8867 H 840.223 -3.14349 -0.0563652 0
M  V30 8868 N 843.995 -1.47404 -0.557645 0
M  V30 8869 C 844.925 -1.62736 -1.67449 0
M  V30 8870 C 845.906 -0.476824 -1.6328 0
M  V30 8871 O 847.091 -0.706108 -1.80908 0
M  V30 8872 C 844.221 -1.641 -3.06086 0
M  V30 8873 C 843.175 -2.78377 -3.25101 0
M  V30 8874 C 842.501 -2.64812 -4.6452 0
M  V30 8875 C 843.801 -4.19971 -3.10518 0
M  V30 8876 H 845.495 -2.56232 -1.54873 0
M  V30 8877 H 843.041 -1.23312 -0.743649 0
M  V30 8878 H 844.994 -1.73417 -3.84063 0
M  V30 8879 H 843.718 -0.671652 -3.19619 0
M  V30 8880 H 842.377 -2.6857 -2.49531 0
M  V30 8881 H 842.025 -1.65906 -4.74852 0
M  V30 8882 H 841.725 -3.41477 -4.78191 0
M  V30 8883 H 843.249 -2.76057 -5.44633 0
M  V30 8884 H 844.663 -4.30757 -3.78313 0
M  V30 8885 H 843.06 -4.97419 -3.35699 0
M  V30 8886 H 844.13 -4.38369 -2.0727 0
M  V30 8887 N 845.473 0.80434 -1.35529 0
M  V30 8888 C 846.406 1.92222 -1.22987 0
M  V30 8889 C 847.384 1.62177 -0.117269 0
M  V30 8890 O 848.568 1.86321 -0.285761 0
M  V30 8891 C 845.695 3.26682 -0.894223 0
M  V30 8892 C 844.741 3.75674 -2.01919 0
M  V30 8893 S 845.574 3.93209 -3.6352 0
M  V30 8894 C 846.73 5.30568 -3.32037 0
M  V30 8895 H 846.963 2.02567 -2.1761 0
M  V30 8896 H 844.496 0.961961 -1.20771 0
M  V30 8897 H 846.454 4.04359 -0.707371 0
M  V30 8898 H 845.115 3.14082 0.0339729 0
M  V30 8899 H 844.308 4.73065 -1.73854 0
M  V30 8900 H 843.91 3.05001 -2.16449 0
M  V30 8901 H 846.202 6.14637 -2.85004 0
M  V30 8902 H 847.145 5.63628 -4.28636 0
M  V30 8903 H 847.553 4.96961 -2.6775 0
M  V30 8904 N 846.951 1.19563 1.02676 0
M  V30 8905 C 848.191 1.01072 1.77662 0
M  V30 8906 C 848.555 -0.450344 1.86644 0
M  V30 8907 O 849.756 -0.755132 2.57975 0
M  V30 8908 C 848.027 1.66383 3.16309 0
M  V30 8909 S 849.586 1.62858 4.07459 0
M  V30 8910 H 846.404 0.362644 0.611564 0
M  V30 8911 H 849.006 1.51947 1.23014 0
M  V30 8912 H 847.71 2.71917 3.07391 0
M  V30 8913 H 847.241 1.15596 3.76033 0
M  V30 8914 H 849.256 0.654265 4.91868 0
M  V30 8915 N 848.429 -1.21819 0.999893 0
M  V30 8916 C 849.706 -1.86318 0.595384 0
M  V30 8917 C 850.086 -1.8965 -0.927143 0
M  V30 8918 O 849.434 -1.3921 -1.81199 0
M  V30 8919 C 849.644 -3.26837 1.22387 0
M  V30 8920 C 850.992 -4.03272 1.32878 0
M  V30 8921 O 852.016 -3.36129 1.1788 0
M  V30 8922 O 850.875 -5.23477 1.56952 0
M  V30 8923 H 847.969 -0.801638 0.203238 0
M  V30 8924 H 850.515 -1.29542 1.09622 0
M  V30 8925 H 849.287 -3.19084 2.26497 0
M  V30 8926 H 848.91 -3.91226 0.709069 0
M  V30 8927 N 849.908 -0.773975 -1.37286 0
M  V30 8928 C 850.838 -0.175782 -2.32837 0
M  V30 8929 C 851.819 0.680603 -1.5589 0
M  V30 8930 O 853.004 0.617607 -1.84117 0
M  V30 8931 C 850.134 0.702388 -3.40123 0
M  V30 8932 C 849.088 -0.0528687 -4.27967 0
M  V30 8933 C 848.414 0.944891 -5.26285 0
M  V30 8934 C 849.714 -1.23316 -5.07534 0
M  V30 8935 H 851.408 -0.974016 -2.83114 0
M  V30 8936 H 848.954 -0.469826 -1.3612 0
M  V30 8937 H 850.907 1.13069 -4.05947 0
M  V30 8938 H 849.631 1.53316 -2.88378 0
M  V30 8939 H 848.29 -0.461978 -3.63678 0
M  V30 8940 H 847.938 1.77028 -4.70819 0
M  V30 8941 H 847.638 0.444079 -5.8592 0
M  V30 8942 H 849.162 1.37209 -5.94984 0
M  V30 8943 H 850.576 -0.881395 -5.66484 0
M  V30 8944 H 848.973 -1.66621 -5.76504 0
M  V30 8945 H 850.043 -2.03617 -4.40077 0
M  V30 8946 N 851.386 1.48609 -0.524698 0
M  V30 8947 C 852.316 2.32366 0.229837 0
M  V30 8948 C 853.297 1.41759 0.940129 0
M  V30 8949 O 854.482 1.7065 0.926936 0
M  V30 8950 C 851.612 3.22835 1.28043 0
M  V30 8951 C 850.566 4.22424 0.688603 0
M  V30 8952 C 849.892 5.0199 1.84146 0
M  V30 8953 C 851.192 5.21217 -0.336176 0
M  V30 8954 H 852.886 2.95698 -0.469339 0
M  V30 8955 H 850.432 1.42197 -0.227156 0
M  V30 8956 H 852.385 3.80253 1.8162 0
M  V30 8957 H 851.109 2.57492 2.00912 0
M  V30 8958 H 849.768 3.66185 0.174402 0
M  V30 8959 H 849.416 4.33076 2.5584 0
M  V30 8960 H 849.116 5.69392 1.45142 0
M  V30 8961 H 850.64 5.62259 2.38111 0
M  V30 8962 H 852.054 5.7319 0.112307 0
M  V30 8963 H 850.451 5.96642 -0.643324 0
M  V30 8964 H 851.521 4.68676 -1.24381 0
M  V30 8965 N 852.864 0.259585 1.55447 0
M  V30 8966 C 853.812 -0.6507 2.23313 0
M  V30 8967 C 854.806 -1.17014 1.22491 0
M  V30 8968 O 856.012 -1.12557 1.40467 0
M  V30 8969 H 852.387 -0.228354 0.71649 0
M  V30 8970 H 854.358 -0.0553039 2.98349 0
M  V30 8971 C 853.107 -1.83081 2.95596 0
M  V30 8972 H 852.43 -1.44027 3.72956 0
M  V30 8973 H 853.87 -2.44469 3.46426 0
M  V30 8974 C 852.329 -2.70976 2.00184 0
M  V30 8975 O 852.859 -3.70882 1.54304 0
M  V30 8976 N 851.065 -2.37813 1.67014 0
M  V30 8977 H 850.612 -1.5662 2.04519 0
M  V30 8978 H 850.57 -2.96896 1.03443 0
M  V30 8979 N 854.342 -1.57594 -0.0133615 0
M  V30 8980 C 855.272 -2.10611 -1.00823 0
M  V30 8981 C 856.253 -1.01217 -1.36708 0
M  V30 8982 O 857.438 -1.28827 -1.45318 0
M  V30 8983 C 854.568 -2.59844 -2.30431 0
M  V30 8984 C 853.522 -3.73644 -2.08745 0
M  V30 8985 C 852.848 -4.09141 -3.4425 0
M  V30 8986 C 854.148 -5.01454 -1.46086 0
M  V30 8987 H 855.842 -2.93985 -0.566849 0
M  V30 8988 H 853.388 -1.41423 -0.271219 0
M  V30 8989 H 855.341 -2.95557 -3.00373 0
M  V30 8990 H 854.065 -1.73573 -2.76658 0
M  V30 8991 H 852.724 -3.38303 -1.41232 0
M  V30 8992 H 852.372 -3.19914 -3.88155 0
M  V30 8993 H 852.072 -4.85802 -3.3056 0
M  V30 8994 H 853.596 -4.47402 -4.15528 0
M  V30 8995 H 855.01 -5.35024 -2.05966 0
M  V30 8996 H 853.407 -5.82832 -1.42924 0
M  V30 8997 H 854.477 -4.83003 -0.428471 0
M  V30 8998 N 855.82 0.285905 -1.54985 0
M  V30 8999 C 857.048 1.03776 -1.78992 0
M  V30 9000 C 857.463 1.80402 -0.556814 0
M  V30 9001 O 856.82 1.76242 0.473801 0
M  V30 9002 C 856.871 2.0065 -3.00702 0
M  V30 9003 O 856.592 1.27131 -4.19249 0
M  V30 9004 C 858.093 2.87753 -3.37214 0
M  V30 9005 H 855.313 0.307126 -0.596586 0
M  V30 9006 H 857.857 0.3206 -2.01971 0
M  V30 9007 H 856.012 2.67847 -2.79887 0
M  V30 9008 H 856.426 1.92316 -4.8797 0
M  V30 9009 H 857.9 3.51548 -4.2558 0
M  V30 9010 H 858.377 3.56848 -2.56039 0
M  V30 9011 H 858.983 2.26065 -3.60242 0
M  V30 9012 N 857.298 1.47698 0.54982 0
M  V30 9013 C 858.709 1.48474 1.13191 0
M  V30 9014 C 859.06 0.243504 1.94683 0
M  V30 9015 O 858.185 -0.651009 2.06375 0
M  V30 9016 C 858.78 2.69022 2.05944 0
M  V30 9017 C 857.339 2.72733 2.5941 0
M  V30 9018 C 856.486 2.41691 1.35944 0
M  V30 9019 H 859.437 1.55101 0.336048 0
M  V30 9020 H 859.458 2.46412 2.89934 0
M  V30 9021 H 858.97 3.59345 1.46605 0
M  V30 9022 H 857.071 1.86568 3.22526 0
M  V30 9023 H 857.184 3.73628 2.99899 0
M  V30 9024 H 855.548 1.92428 1.66864 0
M  V30 9025 H 856.331 3.34231 0.783869 0
M  V30 9026 N 858.776 -0.797141 1.35954 0
M  V30 9027 C 859.739 -1.89104 1.29508 0
M  V30 9028 C 860.739 -1.59495 0.204444 0
M  V30 9029 O 861.929 -1.68051 0.458746 0
M  V30 9030 C 859.061 -3.25726 1.00576 0
M  V30 9031 H 860.254 -1.96237 2.26785 0
M  V30 9032 H 857.807 -0.994075 1.20614 0
M  V30 9033 H 858.542 -3.24279 0.0372519 0
M  V30 9034 H 858.327 -3.48604 1.79492 0
M  V30 9035 H 859.817 -4.0578 0.986508 0
M  V30 9036 N 860.254 -1.20106 -1.0204 0
M  V30 9037 C 861.665 -1.00992 -1.57027 0
M  V30 9038 C 862.016 0.434782 -1.91322 0
M  V30 9039 O 861.141 1.31557 -1.71819 0
M  V30 9040 C 861.736 -1.82697 -2.85319 0
M  V30 9041 C 860.295 -1.67959 -3.36848 0
M  V30 9042 C 859.442 -1.80868 -2.10195 0
M  V30 9043 H 862.393 -1.34354 -0.844676 0
M  V30 9044 H 862.414 -1.32809 -3.5657 0
M  V30 9045 H 861.926 -2.87839 -2.60328 0
M  V30 9046 H 860.027 -0.654389 -3.66809 0
M  V30 9047 H 860.14 -2.49006 -4.09308 0
M  V30 9048 H 858.504 -1.24015 -2.22469 0
M  V30 9049 H 859.287 -2.87486 -1.87635 0
M  V30 9050 N 861.732 1.21287 -1.00634 0
M  V30 9051 C 862.68 2.25733 -0.561026 0
M  V30 9052 C 863.674 1.64728 0.395095 0
M  V30 9053 O 864.88 1.78022 0.266141 0
M  V30 9054 H 861.255 0.734104 -0.163081 0
M  V30 9055 H 863.226 2.60631 -1.45307 0
M  V30 9056 C 861.975 3.47569 0.0952587 0
M  V30 9057 H 861.298 3.94782 -0.631427 0
M  V30 9058 H 862.738 4.22382 0.370105 0
M  V30 9059 C 861.197 3.09326 1.33488 0
M  V30 9060 O 861.727 3.19933 2.42912 0
M  V30 9061 N 859.933 2.63976 1.21512 0
M  V30 9062 H 859.48 2.55545 0.324741 0
M  V30 9063 H 859.438 2.38757 2.04555 0
M  V30 9064 N 863.21 0.781244 1.36873 0
M  V30 9065 C 864.158 0.161889 2.32036 0
M  V30 9066 C 865.152 -0.674225 1.55405 0
M  V30 9067 O 866.358 -0.570223 1.70729 0
M  V30 9068 H 862.733 0.0335702 0.75125 0
M  V30 9069 H 864.704 0.980078 2.81846 0
M  V30 9070 C 863.453 -0.695352 3.40676 0
M  V30 9071 H 862.776 -0.0613425 3.99753 0
M  V30 9072 H 864.216 -1.09553 4.09602 0
M  V30 9073 C 862.675 -1.85008 2.81556 0
M  V30 9074 O 863.205 -2.94616 2.73065 0
M  V30 9075 N 861.411 -1.65364 2.38962 0
M  V30 9076 H 860.958 -0.762106 2.46068 0
M  V30 9077 H 860.916 -2.42789 1.99752 0
M  V30 9078 N 864.689 -1.48329 0.532571 0
M  V30 9079 C 865.937 -2.021 -0.000581206 0
M  V30 9080 C 866.258 -1.4117 -1.34522 0
M  V30 9081 O 865.528 -0.578005 -1.87179 0
M  V30 9082 H 864.108 -0.746993 -0.00320281 0
M  V30 9083 H 866.77 -1.82011 0.696991 0
M  V30 9084 H 865.866 -3.11917 -0.106991 0
M  V30 9085 N 866.167 -0.267825 -1.55308 0
M  V30 9086 C 867.395 0.354587 -2.03839 0
M  V30 9087 C 867.81 1.50007 -1.14644 0
M  V30 9088 O 867.167 1.81752 -0.165055 0
M  V30 9089 C 867.218 0.84254 -3.51544 0
M  V30 9090 O 866.939 -0.257318 -4.37344 0
M  V30 9091 C 868.44 1.53351 -4.15931 0
M  V30 9092 H 865.66 0.0818131 -0.665994 0
M  V30 9093 H 868.204 -0.397795 -2.00594 0
M  V30 9094 H 866.359 1.54503 -3.55257 0
M  V30 9095 H 866.773 0.116593 -5.2437 0
M  V30 9096 H 868.247 1.82643 -5.20908 0
M  V30 9097 H 868.724 2.4626 -3.63666 0
M  V30 9098 H 869.33 0.87506 -4.162 0
M  V30 9099 N 867.645 1.57599 0.00500368 0
M  V30 9100 C 868.595 2.04585 1.00643 0
M  V30 9101 C 869.579 0.939622 1.30614 0
M  V30 9102 O 870.771 1.20342 1.29796 0
M  V30 9103 C 867.9 2.5486 2.30002 0
M  V30 9104 C 866.986 3.7235 2.03017 0
M  V30 9105 N 867.377 4.84218 1.46173 0
M  V30 9106 C 865.675 3.80185 2.33185 0
M  V30 9107 C 866.376 5.65688 1.35544 0
M  V30 9108 N 865.352 5.11536 1.83933 0
M  V30 9109 H 869.154 2.8849 0.561332 0
M  V30 9110 H 866.668 1.61026 0.210808 0
M  V30 9111 H 868.665 2.86794 3.0258 0
M  V30 9112 H 867.325 1.72372 2.75169 0
M  V30 9113 H 868.336 5.0517 1.1412 0
M  V30 9114 H 865.013 3.08543 2.81261 0
M  V30 9115 H 866.403 6.65588 0.918791 0
M  V30 9116 N 869.123 -0.277682 1.55134 0
M  V30 9117 C 870.371 -1.00791 1.75173 0
M  V30 9118 C 870.692 -1.86987 0.553266 0
M  V30 9119 O 869.962 -1.91079 -0.43195 0
M  V30 9120 H 868.542 -0.375129 0.645978 0
M  V30 9121 H 871.204 -0.303041 1.9253 0
M  V30 9122 H 870.3 -1.64756 2.6507 0
M  V30 9123 N 870.601 -1.47988 -0.541979 0
M  V30 9124 C 871.826 -1.59286 -1.32826 0
M  V30 9125 C 872.251 -0.24894 -1.86445 0
M  V30 9126 O 871.609 0.777581 -1.63778 0
M  V30 9127 C 871.657 -2.6334 -2.46343 0
M  V30 9128 O 870.761 -2.19667 -3.49028 0
M  V30 9129 H 870.102 -0.534543 -0.393903 0
M  V30 9130 H 872.632 -1.93885 -0.653427 0
M  V30 9131 H 872.642 -2.84238 -2.92699 0
M  V30 9132 H 871.317 -3.60913 -2.06675 0
M  V30 9133 H 869.894 -2.08932 -3.08872 0
M  V30 9134 N 872.079 0.78992 -1.36375 0
M  V30 9135 C 873.009 1.91683 -1.33341 0
M  V30 9136 C 873.99 1.68861 -0.204965 0
M  V30 9137 O 875.175 1.89982 -0.402531 0
M  V30 9138 C 872.305 3.28696 -1.12143 0
M  V30 9139 C 871.259 3.66041 -2.21806 0
M  V30 9140 C 870.585 5.01399 -1.85751 0
M  V30 9141 C 871.885 3.74677 -3.63888 0
M  V30 9142 H 873.579 1.94478 -2.27637 0
M  V30 9143 H 871.125 0.934271 -1.09578 0
M  V30 9144 H 873.078 4.07151 -1.08656 0
M  V30 9145 H 871.802 3.26287 -0.142974 0
M  V30 9146 H 870.461 2.89883 -2.24418 0
M  V30 9147 H 870.109 4.9551 -0.864817 0
M  V30 9148 H 869.809 5.27355 -2.59173 0
M  V30 9149 H 871.333 5.82274 -1.83819 0
M  V30 9150 H 872.747 4.43324 -3.63506 0
M  V30 9151 H 871.144 4.12118 -4.3621 0
M  V30 9152 H 872.214 2.75795 -3.9883 0
M  V30 9153 N 873.557 1.20646 1.01402 0
M  V30 9154 C 874.505 0.954493 2.12114 0
M  V30 9155 C 875.499 -0.0950737 1.69133 0
M  V30 9156 O 876.705 0.0555153 1.79914 0
M  V30 9157 H 873.08 0.29135 0.693267 0
M  V30 9158 H 875.051 1.89447 2.30548 0
M  V30 9159 C 873.8 0.525944 3.43699 0
M  V30 9160 H 873.123 1.32516 3.772 0
M  V30 9161 H 874.563 0.388883 4.22213 0
M  V30 9162 C 873.022 -0.761997 3.28169 0
M  V30 9163 O 873.552 -1.81979 3.58115 0
M  V30 9164 N 871.758 -0.725017 2.8141 0
M  V30 9165 H 871.305 0.13607 2.5724 0
M  V30 9166 H 871.263 -1.5871 2.71401 0
M  V30 9167 N 875.035 -1.20752 1.01276 0
M  V30 9168 C 875.985 -2.21252 0.550602 0
M  V30 9169 C 876.969 -1.56052 -0.391985 0
M  V30 9170 O 878.161 -1.75682 -0.215575 0
M  V30 9171 C 875.29 -3.43112 -0.113601 0
M  V30 9172 C 874.376 -4.15485 0.850465 0
M  V30 9173 N 874.767 -4.64301 2.00643 0
M  V30 9174 C 873.065 -4.40932 0.670476 0
M  V30 9175 C 873.766 -5.197 2.61317 0
M  V30 9176 N 872.742 -5.09534 1.8941 0
M  V30 9177 H 876.544 -2.56657 1.43194 0
M  V30 9178 H 874.058 -1.36646 0.877597 0
M  V30 9179 H 876.055 -4.1433 -0.462211 0
M  V30 9180 H 874.715 -3.09213 -0.990825 0
M  V30 9181 H 875.726 -4.59637 2.38651 0
M  V30 9182 H 872.403 -4.17197 -0.159016 0
M  V30 9183 H 873.793 -5.67873 3.59123 0
M  V30 9184 N 876.513 -0.788492 -1.36457 0
M  V30 9185 C 877.443 -0.200468 -2.32638 0
M  V30 9186 C 878.424 0.664031 -1.56603 0
M  V30 9187 O 879.609 0.598045 -1.84762 0
M  V30 9188 C 876.739 0.666274 -3.40849 0
M  V30 9189 C 875.693 -0.0982574 -4.27887 0
M  V30 9190 C 875.019 0.889018 -5.27258 0
M  V30 9191 C 876.319 -1.28692 -5.06197 0
M  V30 9192 H 878.013 -1.00399 -2.82065 0
M  V30 9193 H 875.559 -0.484237 -1.35614 0
M  V30 9194 H 877.512 1.08757 -4.07124 0
M  V30 9195 H 876.236 1.50249 -2.89987 0
M  V30 9196 H 874.895 -0.500525 -3.63167 0
M  V30 9197 H 874.543 1.72024 -4.7267 0
M  V30 9198 H 874.243 0.381909 -5.86358 0
M  V30 9199 H 875.767 1.30891 -5.96406 0
M  V30 9200 H 877.181 -0.941429 -5.65517 0
M  V30 9201 H 875.578 -1.72726 -5.74705 0
M  V30 9202 H 876.648 -2.08273 -4.37893 0
M  V30 9203 N 877.991 1.48044 -0.54043 0
M  V30 9204 C 878.921 2.32597 0.205178 0
M  V30 9205 C 879.902 1.42748 0.925041 0
M  V30 9206 O 881.087 1.71624 0.908784 0
M  V30 9207 C 878.217 3.24175 1.24612 0
M  V30 9208 C 877.171 4.23131 0.64376 0
M  V30 9209 C 876.497 5.03915 1.78812 0
M  V30 9210 C 877.797 5.20831 -0.39144 0
M  V30 9211 H 879.491 2.95184 -0.500676 0
M  V30 9212 H 877.037 1.41948 -0.242225 0
M  V30 9213 H 878.99 3.82158 1.77576 0
M  V30 9214 H 877.714 2.59608 1.98169 0
M  V30 9215 H 876.373 3.66349 0.135554 0
M  V30 9216 H 876.021 4.35765 2.51232 0
M  V30 9217 H 875.721 5.709 1.39094 0
M  V30 9218 H 877.245 5.64753 2.32134 0
M  V30 9219 H 878.659 5.73277 0.0515064 0
M  V30 9220 H 877.056 5.95926 -0.706569 0
M  V30 9221 H 878.126 4.6733 -1.29345 0
M  V30 9222 N 879.47 0.276058 1.55163 0
M  V30 9223 C 880.417 -0.611006 2.22565 0
M  V30 9224 C 881.387 -1.14902 1.19945 0
M  V30 9225 O 882.572 -1.19815 1.48489 0
M  V30 9226 C 879.712 -1.78885 2.95117 0
M  V30 9227 C 878.825 -1.2846 4.12458 0
M  V30 9228 C 877.96 -2.42432 4.72652 0
M  V30 9229 C 876.999 -1.89015 5.82185 0
M  V30 9230 N 876.136 -2.96463 6.36439 0
M  V30 9231 H 880.976 -0.0295849 2.97985 0
M  V30 9232 H 878.513 -0.00283607 1.471 0
M  V30 9233 H 880.471 -2.48121 3.35398 0
M  V30 9234 H 879.101 -2.34229 2.22119 0
M  V30 9235 H 878.153 -0.485312 3.77292 0
M  V30 9236 H 879.465 -0.853358 4.91446 0
M  V30 9237 H 878.619 -3.19659 5.15658 0
M  V30 9238 H 877.358 -2.88872 3.92943 0
M  V30 9239 H 876.363 -1.10267 5.38629 0
M  V30 9240 H 877.588 -1.43509 6.63763 0
M  V30 9241 H 875.534 -3.42283 5.59623 0
M  V30 9242 H 875.451 -2.57759 7.10701 0
M  V30 9243 H 876.719 -3.73663 6.84103 0
M  V30 9244 N 880.948 -1.576 0.00335426 0
M  V30 9245 C 881.896 -2.09759 -1.00517 0
M  V30 9246 C 882.89 -1.01833 -1.35375 0
M  V30 9247 O 884.096 -1.20294 -1.339 0
M  V30 9248 H 880.471 -0.669821 -0.341825 0
M  V30 9249 H 882.442 -2.93478 -0.539718 0
M  V30 9250 C 881.191 -2.6189 -2.28711 0
M  V30 9251 H 880.514 -3.44571 -2.02758 0
M  V30 9252 H 881.954 -3.02061 -2.97548 0
M  V30 9253 C 880.413 -1.53455 -2.99922 0
M  V30 9254 O 880.943 -0.919402 -3.91037 0
M  V30 9255 N 879.149 -1.2612 -2.61806 0
M  V30 9256 H 878.696 -1.76329 -1.87792 0
M  V30 9257 H 878.654 -0.537872 -3.09765 0
M  V30 9258 N 882.426 0.269451 -1.5528 0
M  V30 9259 C 883.837 0.840233 -1.66724 0
M  V30 9260 C 884.188 1.86909 -0.596621 0
M  V30 9261 O 883.313 2.14817 0.261246 0
M  V30 9262 C 883.908 1.5308 -3.02245 0
M  V30 9263 C 882.467 2.04957 -3.15705 0
M  V30 9264 C 881.614 0.892838 -2.62533 0
M  V30 9265 H 884.565 0.0457236 -1.58634 0
M  V30 9266 H 884.586 2.39792 -2.95432 0
M  V30 9267 H 884.098 0.781741 -3.80145 0
M  V30 9268 H 882.199 2.82813 -2.42585 0
M  V30 9269 H 882.312 2.26244 -4.22316 0
M  V30 9270 H 880.676 1.28719 -2.19781 0
M  V30 9271 H 881.459 0.157229 -3.4294 0
M  V30 9272 N 883.904 1.48273 0.534124 0
M  V30 9273 C 885.15 1.56311 1.29208 0
M  V30 9274 C 885.483 0.234481 1.92779 0
M  V30 9275 O 884.758 -0.759143 1.79073 0
M  V30 9276 C 885.041 2.69831 2.3846 0
M  V30 9277 C 884.894 4.12385 1.79608 0
M  V30 9278 C 886.213 2.79133 3.40254 0
M  V30 9279 H 883.332 0.56899 0.468422 0
M  V30 9280 H 885.974 1.80429 0.595438 0
M  V30 9281 H 884.124 2.49397 2.97881 0
M  V30 9282 H 885.796 4.44246 1.24269 0
M  V30 9283 H 884.039 4.19579 1.10162 0
M  V30 9284 H 884.71 4.87629 2.58693 0
M  V30 9285 H 887.186 2.97632 2.90783 0
M  V30 9286 H 886.062 3.60298 4.14097 0
M  V30 9287 H 886.323 1.87122 4.00547 0
M  V30 9288 N 885.382 -0.782676 1.36792 0
M  V30 9289 C 886.612 -1.56934 1.3437 0
M  V30 9290 C 887.02 -1.89049 -0.0754828 0
M  V30 9291 O 886.363 -1.51103 -1.04467 0
M  V30 9292 C 886.425 -2.91311 2.10661 0
M  V30 9293 C 886.089 -2.81889 3.59705 0
M  V30 9294 C 887.086 -2.53668 4.53815 0
M  V30 9295 C 884.771 -3.00254 4.02682 0
M  V30 9296 C 886.765 -2.43925 5.8888 0
M  V30 9297 C 884.452 -2.90132 5.37835 0
M  V30 9298 C 885.45 -2.62006 6.30747 0
M  V30 9299 O 885.138 -2.5189 7.63418 0
M  V30 9300 H 884.87 -0.493194 0.462316 0
M  V30 9301 H 887.424 -0.978791 1.80579 0
M  V30 9302 H 885.654 -3.52443 1.59125 0
M  V30 9303 H 887.343 -3.52632 2.01012 0
M  V30 9304 H 888.109 -2.39176 4.21924 0
M  V30 9305 H 883.988 -3.21151 3.30731 0
M  V30 9306 H 887.532 -2.21892 6.6137 0
M  V30 9307 H 883.429 -3.04189 5.69332 0
M  V30 9308 H 884.197 -2.67321 7.73616 0
M  V30 9309 N 886.86 -1.21182 -1.00761 0
M  V30 9310 C 888.088 -1.05335 -1.78079 0
M  V30 9311 C 888.503 0.396988 -1.84579 0
M  V30 9312 O 887.86 1.27548 -1.30529 0
M  V30 9313 C 887.911 -1.64089 -3.22113 0
M  V30 9314 O 887.632 -3.03448 -3.15992 0
M  V30 9315 C 889.133 -1.53318 -4.15943 0
M  V30 9316 H 886.353 -0.37005 -0.559736 0
M  V30 9317 H 888.897 -1.60463 -1.26775 0
M  V30 9318 H 887.052 -1.13059 -3.70535 0
M  V30 9319 H 887.466 -3.31492 -4.06465 0
M  V30 9320 H 888.94 -1.99174 -5.14814 0
M  V30 9321 H 889.417 -0.487166 -4.3649 0
M  V30 9322 H 890.023 -2.03582 -3.73409 0
M  V30 9323 N 888.338 1.20213 -1.01915 0
M  V30 9324 C 889.749 1.7136 -0.741131 0
M  V30 9325 C 890.1 1.81705 0.740107 0
M  V30 9326 O 889.225 1.48139 1.57746 0
M  V30 9327 C 889.82 3.11231 -1.33869 0
M  V30 9328 C 888.379 3.59677 -1.10948 0
M  V30 9329 C 887.526 2.36809 -1.4428 0
M  V30 9330 H 890.477 1.05191 -1.1883 0
M  V30 9331 H 890.498 3.7342 -0.730585 0
M  V30 9332 H 890.01 3.03669 -2.41675 0
M  V30 9333 H 888.111 3.72568 -0.0492052 0
M  V30 9334 H 888.224 4.44351 -1.79134 0
M  V30 9335 H 886.588 2.39674 -0.861881 0
M  V30 9336 H 887.371 2.31886 -2.53148 0
M  V30 9337 N 889.816 0.795718 1.36037 0
M  V30 9338 C 890.763 0.196548 2.29962 0
M  V30 9339 C 891.733 -0.663213 1.52285 0
M  V30 9340 O 892.918 -0.610574 1.80767 0
M  V30 9341 C 890.058 -0.657639 3.38776 0
M  V30 9342 C 889.171 0.221358 4.31433 0
M  V30 9343 C 888.306 -0.6398 5.27333 0
M  V30 9344 C 887.345 0.240265 6.11628 0
M  V30 9345 N 886.482 -0.580237 6.99698 0
M  V30 9346 H 891.322 1.00295 2.80615 0
M  V30 9347 H 888.859 0.506147 1.38118 0
M  V30 9348 H 890.817 -1.16793 4.00519 0
M  V30 9349 H 889.447 -1.42941 2.89426 0
M  V30 9350 H 888.499 0.84967 3.70789 0
M  V30 9351 H 889.811 0.899195 4.90628 0
M  V30 9352 H 888.965 -1.21566 5.94396 0
M  V30 9353 H 887.704 -1.35124 4.68607 0
M  V30 9354 H 886.709 0.828474 5.43522 0
M  V30 9355 H 887.934 0.949403 6.72431 0
M  V30 9356 H 885.88 -1.27585 6.43473 0
M  V30 9357 H 885.797 0.0397853 7.5599 0
M  V30 9358 H 887.065 -1.13972 7.71123 0
M  V30 9359 N 891.294 -1.47756 0.548274 0
M  V30 9360 C 892.244 -2.26891 -0.224628 0
M  V30 9361 C 893.228 -1.33816 -0.893421 0
M  V30 9362 O 894.42 -1.58232 -0.793204 0
M  V30 9363 C 891.549 -3.19358 -1.25959 0
M  V30 9364 C 890.635 -4.1991 -0.594662 0
M  V30 9365 N 891.026 -5.04721 0.330148 0
M  V30 9366 C 889.324 -4.37832 -0.849672 0
M  V30 9367 C 890.025 -5.77282 0.71553 0
M  V30 9368 N 889.001 -5.43552 0.0723997 0
M  V30 9369 H 892.803 -2.89844 0.486561 0
M  V30 9370 H 890.317 -1.58185 0.367577 0
M  V30 9371 H 892.314 -3.74726 -1.82718 0
M  V30 9372 H 890.974 -2.57961 -1.97196 0
M  V30 9373 H 891.985 -5.13095 0.703811 0
M  V30 9374 H 888.662 -3.87612 -1.55123 0
M  V30 9375 H 890.052 -6.55512 1.47493 0
M  V30 9376 N 892.772 -0.284283 -1.55015 0
M  V30 9377 C 894.183 0.211681 -1.85496 0
M  V30 9378 C 894.534 1.54735 -1.2063 0
M  V30 9379 O 893.659 2.10594 -0.497918 0
M  V30 9380 C 894.254 0.390864 -3.36538 0
M  V30 9381 C 892.813 0.831055 -3.67111 0
M  V30 9382 C 891.96 -0.0703581 -2.77211 0
M  V30 9383 H 894.911 -0.505803 -1.50424 0
M  V30 9384 H 894.932 1.22803 -3.60138 0
M  V30 9385 H 894.444 -0.581409 -3.8372 0
M  V30 9386 H 892.545 1.81447 -3.25434 0
M  V30 9387 H 892.658 0.662026 -4.74504 0
M  V30 9388 H 891.022 0.447528 -2.50737 0
M  V30 9389 H 891.805 -1.03868 -3.2721 0
M  V30 9390 N 894.251 1.57596 -0.0117121 0
M  V30 9391 C 895.198 2.09153 0.975897 0
M  V30 9392 C 896.168 0.989579 1.33404 0
M  V30 9393 O 897.353 1.26273 1.43038 0
M  V30 9394 C 894.493 2.60906 2.2588 0
M  V30 9395 C 893.606 3.85046 1.95866 0
M  V30 9396 C 892.741 4.25257 3.18323 0
M  V30 9397 C 891.78 5.42202 2.84049 0
M  V30 9398 N 890.917 5.77651 3.99079 0
M  V30 9399 H 895.757 2.93261 0.52931 0
M  V30 9400 H 893.294 1.44965 0.249691 0
M  V30 9401 H 895.252 2.88995 3.00895 0
M  V30 9402 H 893.882 1.79654 2.68187 0
M  V30 9403 H 892.934 3.63794 1.11168 0
M  V30 9404 H 894.246 4.70151 1.66611 0
M  V30 9405 H 893.4 4.5469 4.01674 0
M  V30 9406 H 892.139 3.38884 3.50726 0
M  V30 9407 H 891.144 5.1248 1.99107 0
M  V30 9408 H 892.369 6.3026 2.52881 0
M  V30 9409 H 890.315 4.94235 4.31356 0
M  V30 9410 H 890.232 6.57356 3.73388 0
M  V30 9411 H 891.5 6.11681 4.83183 0
M  V30 9412 N 895.729 -0.261212 1.5542 0
M  V30 9413 C 896.639 -1.34493 1.92221 0
M  V30 9414 C 897.655 -1.53421 0.82086 0
M  V30 9415 O 898.831 -1.6732 1.12099 0
M  V30 9416 C 895.896 -2.68209 2.19692 0
M  V30 9417 C 894.957 -2.57927 3.43179 0
M  V30 9418 C 894.19 -3.85266 3.69331 0
M  V30 9419 O 894.413 -4.86493 2.97793 0
M  V30 9420 O 893.347 -3.8476 4.62865 0
M  V30 9421 H 897.173 -1.06278 2.84497 0
M  V30 9422 H 894.758 -0.460752 1.42118 0
M  V30 9423 H 896.64 -3.47252 2.38734 0
M  V30 9424 H 895.315 -2.96186 1.30597 0
M  V30 9425 H 894.222 -1.77219 3.2946 0
M  V30 9426 H 895.555 -2.34898 4.32532 0
M  V30 9427 N 897.207 -1.48554 -0.526253 0
M  V30 9428 C 898.453 -1.56994 -1.28378 0
M  V30 9429 C 898.786 -0.244701 -1.92652 0
M  V30 9430 O 898.061 0.749636 -1.79473 0
M  V30 9431 C 898.344 -2.71092 -2.37026 0
M  V30 9432 C 898.197 -4.13331 -1.77418 0
M  V30 9433 C 899.516 -2.80934 -3.38769 0
M  V30 9434 H 896.635 -0.571466 -0.465398 0
M  V30 9435 H 899.277 -1.80742 -0.585861 0
M  V30 9436 H 897.427 -2.50973 -2.96555 0
M  V30 9437 H 899.099 -4.44899 -1.21912 0
M  V30 9438 H 897.342 -4.20158 -1.07936 0
M  V30 9439 H 898.013 -4.88994 -2.56104 0
M  V30 9440 H 900.489 -2.9917 -2.892 0
M  V30 9441 H 899.365 -3.62489 -4.12181 0
M  V30 9442 H 899.626 -1.89244 -3.99549 0
M  V30 9443 N 898.685 0.775411 -1.37205 0
M  V30 9444 C 899.635 1.87867 -1.29189 0
M  V30 9445 C 900.619 1.59885 -0.180466 0
M  V30 9446 O 901.811 1.72077 -0.414536 0
M  V30 9447 C 898.94 3.25285 -1.09748 0
M  V30 9448 C 898.026 3.59231 -2.25419 0
M  V30 9449 N 898.417 3.64386 -3.50795 0
M  V30 9450 C 896.715 3.89375 -2.17492 0
M  V30 9451 C 897.416 3.94974 -4.27048 0
M  V30 9452 N 896.392 4.10684 -3.56146 0
M  V30 9453 H 900.194 1.90099 -2.24142 0
M  V30 9454 H 897.708 0.971667 -1.30125 0
M  V30 9455 H 899.705 4.04207 -1.02091 0
M  V30 9456 H 898.365 3.2432 -0.157083 0
M  V30 9457 H 899.376 3.46682 -3.8475 0
M  V30 9458 H 896.053 3.96254 -1.31489 0
M  V30 9459 H 897.443 4.05768 -5.35539 0
M  V30 9460 N 900.163 1.21714 1.00117 0
M  V30 9461 C 901.574 1.03477 1.55401 0
M  V30 9462 C 901.925 -0.40429 1.91989 0
M  V30 9463 O 901.05 -1.28807 1.7389 0
M  V30 9464 C 901.645 1.87213 2.82377 0
M  V30 9465 C 900.204 1.73297 3.34133 0
M  V30 9466 C 899.351 1.84189 2.07291 0
M  V30 9467 H 902.302 1.3568 0.823195 0
M  V30 9468 H 902.323 1.38465 3.54412 0
M  V30 9469 H 901.835 2.91944 2.55715 0
M  V30 9470 H 899.936 0.712662 3.65721 0
M  V30 9471 H 900.049 2.55486 4.05294 0
M  V30 9472 H 898.413 1.27538 2.20468 0
M  V30 9473 H 899.196 2.90435 1.83037 0
M  V30 9474 N 901.641 -1.19671 1.02551 0
M  V30 9475 C 902.571 -2.25009 0.623965 0
M  V30 9476 C 903.552 -1.66129 -0.36538 0
M  V30 9477 O 904.737 -1.92599 -0.248842 0
M  V30 9478 C 901.867 -3.47287 -0.0294869 0
M  V30 9479 C 900.821 -4.18818 0.881781 0
M  V30 9480 C 900.147 -5.34618 0.0936189 0
M  V30 9481 C 901.447 -4.73986 2.19396 0
M  V30 9482 H 903.141 -2.58851 1.50454 0
M  V30 9483 H 900.687 -1.24425 0.724872 0
M  V30 9484 H 902.64 -4.20168 -0.322016 0
M  V30 9485 H 901.364 -3.12635 -0.944838 0
M  V30 9486 H 900.023 -3.47815 1.15845 0
M  V30 9487 H 899.671 -4.9621 -0.823661 0
M  V30 9488 H 899.371 -5.83409 0.700568 0
M  V30 9489 H 900.895 -6.10297 -0.192249 0
M  V30 9490 H 902.309 -5.38639 1.96319 0
M  V30 9491 H 900.706 -5.3325 2.75254 0
M  V30 9492 H 901.776 -3.92238 2.85092 0
M  V30 9493 N 903.119 -0.802921 -1.35613 0
M  V30 9494 C 904.365 -0.382141 -1.99167 0
M  V30 9495 C 904.698 1.04704 -1.63556 0
M  V30 9496 O 903.973 1.72578 -0.89706 0
M  V30 9497 C 904.256 -0.561493 -3.55695 0
M  V30 9498 C 904.109 -2.03534 -4.01116 0
M  V30 9499 C 905.428 0.0151135 -4.40097 0
M  V30 9500 H 902.547 -0.140322 -0.723518 0
M  V30 9501 H 905.189 -1.01177 -1.6082 0
M  V30 9502 H 903.339 -0.0255083 -3.88492 0
M  V30 9503 H 905.011 -2.63343 -3.78746 0
M  V30 9504 H 903.254 -2.5331 -3.52159 0
M  V30 9505 H 903.925 -2.11173 -5.1001 0
M  V30 9506 H 906.401 -0.442582 -4.1374 0
M  V30 9507 H 905.277 -0.140316 -5.48721 0
M  V30 9508 H 905.538 1.10848 -4.27978 0
M  V30 9509 N 904.597 1.47463 -0.556102 0
M  V30 9510 C 905.529 2.28046 0.22968 0
M  V30 9511 C 906.542 1.3694 0.880409 0
M  V30 9512 O 907.731 1.61773 0.754447 0
M  V30 9513 C 904.831 3.11165 1.34273 0
M  V30 9514 C 904.004 4.30225 0.789004 0
M  V30 9515 C 903.063 4.94948 1.78641 0
M  V30 9516 O 902.089 5.53372 1.33297 0
M  V30 9517 N 903.291 4.89543 3.11974 0
M  V30 9518 H 906.056 2.96125 -0.461558 0
M  V30 9519 H 903.617 1.5708 -0.392105 0
M  V30 9520 H 905.609 3.51331 2.00869 0
M  V30 9521 H 904.179 2.45337 1.93722 0
M  V30 9522 H 903.399 3.94163 -0.0536971 0
M  V30 9523 H 904.687 5.07238 0.398378 0
M  V30 9524 H 904.085 4.43275 3.51459 0
M  V30 9525 H 902.642 5.33732 3.74131 0
M  V30 9526 N 906.075 0.2925 1.54862 0
M  V30 9527 C 907.315 -0.32024 2.01876 0
M  V30 9528 C 907.679 -1.5174 1.17639 0
M  V30 9529 O 908.88 -2.20094 1.54312 0
M  V30 9530 C 907.151 -0.67611 3.50947 0
M  V30 9531 S 908.71 -1.27292 4.19931 0
M  V30 9532 H 905.528 -0.0987374 0.704111 0
M  V30 9533 H 908.13 0.41839 1.90971 0
M  V30 9534 H 906.834 0.203797 4.09894 0
M  V30 9535 H 906.365 -1.44575 3.65871 0
M  V30 9536 H 908.38 -2.56102 4.25002 0
M  V30 9537 N 907.553 -1.57587 0.0200696 0
M  V30 9538 C 908.964 -1.79312 -0.520019 0
M  V30 9539 C 909.315 -0.929475 -1.72787 0
M  V30 9540 O 908.44 -0.137389 -2.15963 0
M  V30 9541 C 909.035 -3.25203 -0.950172 0
M  V30 9542 C 907.594 -3.47954 -1.43543 0
M  V30 9543 C 906.741 -2.74459 -0.395917 0
M  V30 9544 H 909.692 -1.56779 0.246153 0
M  V30 9545 H 909.713 -3.34418 -1.81508 0
M  V30 9546 H 909.225 -3.88035 -0.070883 0
M  V30 9547 H 907.326 -2.90363 -2.33495 0
M  V30 9548 H 907.439 -4.56661 -1.44905 0
M  V30 9549 H 905.803 -2.39669 -0.862022 0
M  V30 9550 H 906.586 -3.40001 0.47475 0
M  V30 9551 N 909.032 0.252966 -1.55557 0
M  V30 9552 C 910.279 0.981852 -1.77104 0
M  V30 9553 C 910.607 1.85547 -0.583305 0
M  V30 9554 O 909.862 1.90836 0.43359 0
M  V30 9555 C 910.161 1.87785 -3.04091 0
M  V30 9556 C 909.827 1.16009 -4.35721 0
M  V30 9557 C 908.489 0.961697 -4.71492 0
M  V30 9558 C 910.841 0.650884 -5.1712 0
M  V30 9559 C 908.169 0.241704 -5.86202 0
M  V30 9560 C 910.521 -0.0556124 -6.32576 0
M  V30 9561 C 909.185 -0.265536 -6.66972 0
M  V30 9562 H 908.455 0.359285 -0.64807 0
M  V30 9563 H 911.102 0.252443 -1.89829 0
M  V30 9564 H 909.407 2.67412 -2.86353 0
M  V30 9565 H 911.104 2.44339 -3.17961 0
M  V30 9566 H 907.694 1.32465 -4.07616 0
M  V30 9567 H 911.878 0.791719 -4.89944 0
M  V30 9568 H 907.134 0.0685292 -6.11362 0
M  V30 9569 H 911.308 -0.457839 -6.94893 0
M  V30 9570 H 908.935 -0.8254 -7.55706 0
M  V30 9571 N 910.51 1.48831 0.518367 0
M  V30 9572 C 911.738 1.6112 1.298 0
M  V30 9573 C 912.153 0.275872 1.86774 0
M  V30 9574 O 911.51 -0.736416 1.66983 0
M  V30 9575 C 911.561 2.66675 2.44063 0
M  V30 9576 O 911.282 3.95027 1.89434 0
M  V30 9577 C 912.783 2.8951 3.35706 0
M  V30 9578 H 910.003 0.542916 0.394314 0
M  V30 9579 H 912.547 1.94743 0.624142 0
M  V30 9580 H 910.702 2.35879 3.07311 0
M  V30 9581 H 911.116 4.53031 2.64316 0
M  V30 9582 H 912.59 3.67142 4.12202 0
M  V30 9583 H 913.067 1.98768 3.91648 0
M  V30 9584 H 913.673 3.21656 2.7824 0
M  V30 9585 N 911.988 -0.768124 1.37614 0
M  V30 9586 C 913.404 -1.06919 1.18493 0
M  V30 9587 C 913.604 -2.01486 0.0235753 0
M  V30 9588 O 912.66 -2.4438 -0.635209 0
M  V30 9589 C 913.973 -1.66321 2.50515 0
M  V30 9590 C 915.521 -1.78562 2.57069 0
M  V30 9591 C 915.996 -2.41377 3.89231 0
M  V30 9592 N 917.487 -2.48824 3.90693 0
M  V30 9593 C 918.222 -2.98288 4.89706 0
M  V30 9594 N 917.718 -3.47897 5.99115 0
M  V30 9595 N 919.511 -2.97196 4.77107 0
M  V30 9596 H 911.662 -0.140286 2.11936 0
M  V30 9597 H 913.925 -0.124863 0.939741 0
M  V30 9598 H 913.631 -1.04303 3.35878 0
M  V30 9599 H 913.505 -2.65571 2.67866 0
M  V30 9600 H 915.892 -2.39712 1.72111 0
M  V30 9601 H 915.973 -0.780574 2.43599 0
M  V30 9602 H 915.617 -1.80866 4.74605 0
M  V30 9603 H 915.547 -3.42495 4.00006 0
M  V30 9604 H 918.038 -2.1372 3.1166 0
M  V30 9605 H 918.351 -3.84053 6.70614 0
M  V30 9606 H 916.696 -3.45993 6.02755 0
M  V30 9607 H 919.887 -2.57741 3.90752 0
M  V30 9608 H 920.06 -3.35434 5.54426 0
M  V30 9609 N 913.466 -1.22244 -0.994698 0
M  V30 9610 C 914.414 -0.988118 -2.10568 0
M  V30 9611 C 915.408 0.0681541 -1.69263 0
M  V30 9612 O 916.614 -0.0841311 -1.79803 0
M  V30 9613 H 912.989 -0.302343 -0.688544 0
M  V30 9614 H 914.96 -1.93091 -2.27505 0
M  V30 9615 C 913.709 -0.580557 -3.42819 0
M  V30 9616 H 913.032 -1.385 -3.75044 0
M  V30 9617 H 914.472 -0.456004 -4.21541 0
M  V30 9618 C 912.931 0.709692 -3.2934 0
M  V30 9619 O 913.461 1.76259 -3.60965 0
M  V30 9620 N 911.667 0.680155 -2.82528 0
M  V30 9621 H 911.214 -0.176977 -2.56991 0
M  V30 9622 H 911.172 1.54372 -2.73892 0
M  V30 9623 N 914.944 1.19125 -1.03184 0
M  V30 9624 C 916.355 1.70564 -0.759264 0
M  V30 9625 C 916.706 1.8248 0.720794 0
M  V30 9626 O 915.831 1.49804 1.56166 0
M  V30 9627 C 916.426 3.09793 -1.37163 0
M  V30 9628 C 914.985 3.5848 -1.14757 0
M  V30 9629 C 914.132 2.35265 -1.46784 0
M  V30 9630 H 917.083 1.03925 -1.19939 0
M  V30 9631 H 917.104 3.72624 -0.77015 0
M  V30 9632 H 916.616 3.01088 -2.44882 0
M  V30 9633 H 914.717 3.72494 -0.0887182 0
M  V30 9634 H 914.83 4.42426 -1.83836 0
M  V30 9635 H 913.194 2.38747 -0.887254 0
M  V30 9636 H 913.977 2.29188 -2.55593 0
M  V30 9637 N 916.422 0.810101 1.35185 0
M  V30 9638 C 917.838 0.494269 1.51754 0
M  V30 9639 C 918.038 -0.983907 1.75845 0
M  V30 9640 O 917.094 -1.76882 1.80191 0
M  V30 9641 C 918.407 1.34268 2.69059 0
M  V30 9642 C 919.955 1.33848 2.82938 0
M  V30 9643 C 920.43 2.17109 4.03271 0
M  V30 9644 N 921.921 2.14664 4.10456 0
M  V30 9645 C 922.656 2.75843 5.02691 0
M  V30 9646 N 922.152 3.45962 6.00235 0
M  V30 9647 N 923.945 2.65465 4.95464 0
M  V30 9648 H 916.096 1.76736 1.17805 0
M  V30 9649 H 918.359 0.752429 0.576676 0
M  V30 9650 H 918.065 2.39183 2.57845 0
M  V30 9651 H 917.939 0.998362 3.63748 0
M  V30 9652 H 920.326 0.29716 2.936 0
M  V30 9653 H 920.407 1.72269 1.89095 0
M  V30 9654 H 920.051 3.21283 3.93369 0
M  V30 9655 H 919.981 1.76046 4.96302 0
M  V30 9656 H 922.472 1.63648 3.40628 0
M  V30 9657 H 922.785 3.89922 6.67219 0
M  V30 9658 H 921.13 3.50067 6.00398 0
M  V30 9659 H 924.321 2.1027 4.18215 0
M  V30 9660 H 924.494 3.13433 5.67154 0
M  V30 9661 N 917.9 -1.47166 0.563914 0
M  V30 9662 C 919.177 -1.95586 -0.0236172 0
M  V30 9663 C 919.557 -1.50655 -1.47872 0
M  V30 9664 O 918.905 -0.748479 -2.15894 0
M  V30 9665 C 919.115 -3.48762 0.128841 0
M  V30 9666 C 920.463 -4.24598 -0.0130544 0
M  V30 9667 O 921.487 -3.56155 0.0567242 0
M  V30 9668 O 920.346 -5.46253 -0.164332 0
M  V30 9669 H 917.44 -0.824793 -0.0603789 0
M  V30 9670 H 919.986 -1.57536 0.63091 0
M  V30 9671 H 918.758 -3.74291 1.14113 0
M  V30 9672 H 918.381 -3.93594 -0.56299 0
M  V30 9673 N 919.378 -0.300708 -1.54705 0
M  V30 9674 C 920.326 0.591264 -2.2496 0
M  V30 9675 C 921.32 1.13725 -1.2555 0
M  V30 9676 O 922.526 1.08793 -1.43402 0
M  V30 9677 H 918.901 0.209278 -0.722293 0
M  V30 9678 H 920.872 -0.0238175 -2.9839 0
M  V30 9679 C 919.621 1.75179 -3.00346 0
M  V30 9680 H 918.944 1.34089 -3.76643 0
M  V30 9681 H 920.384 2.35198 -3.52786 0
M  V30 9682 C 918.843 2.65574 -2.07298 0
M  V30 9683 O 919.373 3.6666 -1.64083 0
M  V30 9684 N 917.579 2.33301 -1.7326 0
M  V30 9685 H 917.126 1.51142 -2.08599 0
M  V30 9686 H 917.084 2.94049 -1.11278 0
M  V30 9687 N 920.856 1.57574 -0.0284266 0
M  V30 9688 C 921.786 2.1321 0.952039 0
M  V30 9689 C 922.767 1.04806 1.33977 0
M  V30 9690 O 923.952 1.32635 1.41851 0
M  V30 9691 C 921.082 2.65862 2.23461 0
M  V30 9692 C 920.036 3.79047 1.98765 0
M  V30 9693 C 919.362 4.18124 3.33281 0
M  V30 9694 C 920.662 5.05151 1.32739 0
M  V30 9695 H 922.356 2.95385 0.488705 0
M  V30 9696 H 919.902 1.42092 0.233628 0
M  V30 9697 H 921.855 3.03417 2.92431 0
M  V30 9698 H 920.579 1.80848 2.71959 0
M  V30 9699 H 919.238 3.41929 1.32213 0
M  V30 9700 H 918.886 3.30092 3.79537 0
M  V30 9701 H 918.586 4.94396 3.17563 0
M  V30 9702 H 920.11 4.58262 4.0352 0
M  V30 9703 H 921.524 5.40297 1.91708 0
M  V30 9704 H 919.921 5.86416 1.27421 0
M  V30 9705 H 920.991 4.83969 0.300261 0
M  V30 9706 N 922.334 -0.244713 1.55689 0
M  V30 9707 C 923.582 -0.970525 1.77272 0
M  V30 9708 C 923.903 -1.85771 0.592804 0
M  V30 9709 O 923.173 -1.91952 -0.391323 0
M  V30 9710 H 921.753 -0.361342 0.653789 0
M  V30 9711 H 924.415 -0.262134 1.93129 0
M  V30 9712 H 923.511 -1.59096 2.68505 0
M  V30 9713 N 923.813 -1.49104 -0.510467 0
M  V30 9714 C 925.053 -1.59723 -1.27545 0
M  V30 9715 C 925.417 -0.273525 -1.90042 0
M  V30 9716 O 926.618 -0.254835 -2.67589 0
M  V30 9717 C 924.889 -2.71771 -2.3211 0
M  V30 9718 S 926.448 -3.02282 -3.18074 0
M  V30 9719 H 923.266 -0.563489 -0.433591 0
M  V30 9720 H 925.868 -1.86719 -0.579328 0
M  V30 9721 H 924.572 -3.66483 -1.84711 0
M  V30 9722 H 924.103 -2.46739 -3.06404 0
M  V30 9723 H 926.118 -2.43076 -4.32583 0
M  V30 9724 N 925.291 0.760815 -1.38019 0
M  V30 9725 C 926.516 1.55513 -1.37224 0
M  V30 9726 C 926.941 1.88062 0.037611 0
M  V30 9727 O 926.299 1.50042 1.0177 0
M  V30 9728 C 926.347 2.83539 -2.22796 0
M  V30 9729 O 925.451 3.78384 -1.64009 0
M  V30 9730 H 924.792 0.470642 -0.468393 0
M  V30 9731 H 927.322 0.940792 -1.81687 0
M  V30 9732 H 927.332 3.32535 -2.36399 0
M  V30 9733 H 926.007 2.59178 -3.25269 0
M  V30 9734 H 924.584 3.37063 -1.59508 0
M  V30 9735 N 926.769 1.22769 0.988202 0
M  V30 9736 C 928.009 1.06673 1.74356 0
M  V30 9737 C 928.373 -0.390737 1.87982 0
M  V30 9738 O 929.574 -0.672677 2.60247 0
M  V30 9739 C 927.845 1.76361 3.10856 0
M  V30 9740 S 929.404 1.75738 4.02071 0
M  V30 9741 H 926.222 0.381917 0.599717 0
M  V30 9742 H 928.824 1.55784 1.18117 0
M  V30 9743 H 927.528 2.81559 2.98584 0
M  V30 9744 H 927.059 1.27501 3.72165 0
M  V30 9745 H 929.074 0.810418 4.89537 0
M  V30 9746 N 928.247 -1.18576 1.03814 0
M  V30 9747 C 929.195 -2.24166 0.620678 0
M  V30 9748 C 930.189 -1.65718 -0.351282 0
M  V30 9749 O 931.395 -1.78665 -0.218848 0
M  V30 9750 H 927.77 -0.729522 0.182487 0
M  V30 9751 H 929.741 -2.56686 1.52166 0
M  V30 9752 C 928.49 -3.477 -0.00307331 0
M  V30 9753 H 927.813 -3.92969 0.735874 0
M  V30 9754 H 929.253 -4.23214 -0.257988 0
M  V30 9755 C 927.712 -3.12757 -1.2524 0
M  V30 9756 O 928.242 -3.26261 -2.34344 0
M  V30 9757 N 926.448 -2.67104 -1.14471 0
M  V30 9758 H 925.995 -2.56316 -0.256873 0
M  V30 9759 H 925.953 -2.44096 -1.98153 0
M  V30 9760 N 929.725 -0.817259 -1.34754 0
M  V30 9761 C 931.136 -0.462215 -1.80888 0
M  V30 9762 C 931.487 1.01685 -1.67794 0
M  V30 9763 O 930.612 1.79094 -1.21468 0
M  V30 9764 C 931.207 -0.832204 -3.2842 0
M  V30 9765 C 929.766 -0.52961 -3.72655 0
M  V30 9766 C 928.913 -1.05214 -2.56564 0
M  V30 9767 H 931.864 -1.00795 -1.22581 0
M  V30 9768 H 931.885 -0.133804 -3.80265 0
M  V30 9769 H 931.397 -1.90873 -3.37919 0
M  V30 9770 H 929.498 0.537743 -3.68699 0
M  V30 9771 H 929.611 -1.06971 -4.67005 0
M  V30 9772 H 927.975 -0.473949 -2.50251 0
M  V30 9773 H 928.758 -2.135 -2.68836 0
M  V30 9774 N 931.203 1.46865 -0.571711 0
M  V30 9775 C 932.428 2.07323 -0.0564655 0
M  V30 9776 C 932.853 1.41938 1.23431 0
M  V30 9777 O 932.211 0.499334 1.74288 0
M  V30 9778 C 932.259 3.6044 0.107339 0
M  V30 9779 O 931.363 3.95558 1.1665 0
M  V30 9780 H 930.704 0.661475 -0.0578465 0
M  V30 9781 H 933.234 1.88669 -0.791524 0
M  V30 9782 H 933.244 4.06767 0.316987 0
M  V30 9783 H 931.919 4.07425 -0.835348 0
M  V30 9784 H 930.496 3.60957 0.936189 0
M  V30 9785 N 932.681 0.308908 1.54543 0
M  V30 9786 C 933.93 -0.298854 1.99474 0
M  V30 9787 C 934.243 -1.54393 1.20093 0
M  V30 9788 O 935.449 -2.22677 1.55329 0
M  V30 9789 C 933.905 -0.58303 3.55146 0
M  V30 9790 C 933.513 0.644157 4.43345 0
M  V30 9791 C 935.257 -1.15155 4.08582 0
M  V30 9792 C 933.164 0.332694 5.90463 0
M  V30 9793 H 932.094 -0.115445 0.74511 0
M  V30 9794 H 934.745 0.418848 1.78656 0
M  V30 9795 H 933.127 -1.36053 3.71894 0
M  V30 9796 H 934.301 1.42012 4.38371 0
M  V30 9797 H 932.616 1.13186 4.00722 0
M  V30 9798 H 935.213 -1.39896 5.16075 0
M  V30 9799 H 935.556 -2.09632 3.59667 0
M  V30 9800 H 936.089 -0.435571 3.95408 0
M  V30 9801 H 932.828 1.24624 6.43544 0
M  V30 9802 H 932.348 -0.405844 5.98425 0
M  V30 9803 H 934.027 -0.0628545 6.46969 0
M  V30 9804 N 934.159 -1.57557 0.0367827 0
M  V30 9805 C 935.089 -2.13712 -0.940719 0
M  V30 9806 C 936.07 -1.05515 -1.33419 0
M  V30 9807 O 937.255 -1.33385 -1.41146 0
M  V30 9808 C 934.385 -2.67043 -2.22048 0
M  V30 9809 C 933.339 -3.80096 -1.96752 0
M  V30 9810 C 932.665 -4.19886 -3.31059 0
M  V30 9811 C 933.965 -5.05848 -1.30058 0
M  V30 9812 H 935.659 -2.9564 -0.473033 0
M  V30 9813 H 933.205 -1.42214 -0.226089 0
M  V30 9814 H 935.158 -3.04964 -2.90818 0
M  V30 9815 H 933.882 -1.82287 -2.70996 0
M  V30 9816 H 932.541 -3.42625 -1.30398 0
M  V30 9817 H 932.189 -3.32101 -3.77781 0
M  V30 9818 H 931.889 -4.96073 -3.14937 0
M  V30 9819 H 933.413 -4.60395 -4.01084 0
M  V30 9820 H 934.827 -5.41306 -1.8884 0
M  V30 9821 H 933.224 -5.87084 -1.24309 0
M  V30 9822 H 934.294 -4.84122 -0.274591 0
M  V30 9823 N 935.637 0.236453 -1.55816 0
M  V30 9824 C 937.048 0.80468 -1.68469 0
M  V30 9825 C 937.399 1.85601 -0.636133 0
M  V30 9826 O 936.524 2.15323 0.215622 0
M  V30 9827 C 937.119 1.46634 -3.05424 0
M  V30 9828 C 935.678 1.98214 -3.19981 0
M  V30 9829 C 934.825 0.83695 -2.64368 0
M  V30 9830 H 937.776 0.0120647 -1.58695 0
M  V30 9831 H 937.797 2.33472 -3.00451 0
M  V30 9832 H 937.309 0.700931 -3.81718 0
M  V30 9833 H 935.41 2.77604 -2.4853 0
M  V30 9834 H 935.523 2.17235 -4.2702 0
M  V30 9835 H 933.887 1.24028 -2.22462 0
M  V30 9836 H 934.67 0.084451 -3.43196 0
M  V30 9837 N 937.115 1.49373 0.502552 0
M  V30 9838 C 938.364 1.58028 1.25339 0
M  V30 9839 C 938.677 0.271494 1.93707 0
M  V30 9840 O 939.883 0.236584 2.70467 0
M  V30 9841 C 938.339 2.78817 2.27572 0
M  V30 9842 C 937.947 4.16448 1.65151 0
M  V30 9843 C 939.691 2.96802 3.03494 0
M  V30 9844 C 937.598 5.28461 2.65486 0
M  V30 9845 H 936.528 0.588396 0.471494 0
M  V30 9846 H 939.179 1.75756 0.52744 0
M  V30 9847 H 937.561 2.5458 3.03323 0
M  V30 9848 H 938.735 4.50816 0.954029 0
M  V30 9849 H 937.05 4.03809 1.01625 0
M  V30 9850 H 939.647 3.77656 3.78524 0
M  V30 9851 H 939.99 2.07303 3.61014 0
M  V30 9852 H 940.523 3.21071 2.34858 0
M  V30 9853 H 937.262 6.20015 2.12749 0
M  V30 9854 H 936.782 4.9855 3.33479 0
M  V30 9855 H 938.461 5.5773 3.27943 0
M  V30 9856 N 938.594 -0.753485 1.38421 0
M  V30 9857 C 939.504 -1.89797 1.37892 0
M  V30 9858 C 940.52 -1.71797 0.276023 0
M  V30 9859 O 941.696 -1.94718 0.514464 0
M  V30 9860 C 938.761 -3.25166 1.20284 0
M  V30 9861 C 937.822 -3.55691 2.4038 0
M  V30 9862 C 937.055 -4.84601 2.23602 0
M  V30 9863 O 937.278 -5.56985 1.22979 0
M  V30 9864 O 936.212 -5.14605 3.12194 0
M  V30 9865 H 940.038 -1.93197 2.34326 0
M  V30 9866 H 937.623 -0.898775 1.19342 0
M  V30 9867 H 939.505 -4.06099 1.12525 0
M  V30 9868 H 938.18 -3.22577 0.269352 0
M  V30 9869 H 937.087 -2.74919 2.53714 0
M  V30 9870 H 938.42 -3.6304 3.32359 0
M  V30 9871 N 940.072 -1.23292 -0.981677 0
M  V30 9872 C 941.349 -0.972514 -1.6971 0
M  V30 9873 C 941.729 0.509244 -2.04866 0
M  V30 9874 O 941.077 1.48013 -1.74082 0
M  V30 9875 C 941.287 -1.88144 -2.93943 0
M  V30 9876 C 942.635 -2.14416 -3.66485 0
M  V30 9877 O 943.659 -1.85684 -3.03974 0
M  V30 9878 O 942.518 -2.63139 -4.78978 0
M  V30 9879 H 939.612 -0.366673 -0.741269 0
M  V30 9880 H 942.158 -1.34328 -1.03701 0
M  V30 9881 H 940.93 -2.8832 -2.64551 0
M  V30 9882 H 940.553 -1.51296 -3.67689 0
M  V30 9883 N 941.55 1.18024 -1.04442 0
M  V30 9884 C 942.797 1.88098 -0.750022 0
M  V30 9885 C 943.125 1.80583 0.722489 0
M  V30 9886 O 942.38 1.20329 1.54335 0
M  V30 9887 C 942.679 3.37834 -1.16631 0
M  V30 9888 C 942.345 3.65553 -2.63974 0
M  V30 9889 C 941.007 3.72827 -3.04226 0
M  V30 9890 C 943.359 3.77634 -3.59224 0
M  V30 9891 C 940.687 3.89666 -4.38608 0
M  V30 9892 C 943.039 3.9599 -4.9333 0
M  V30 9893 C 941.703 4.01501 -5.33248 0
M  V30 9894 H 940.973 0.6883 -0.274452 0
M  V30 9895 H 943.62 1.39671 -1.31012 0
M  V30 9896 H 941.925 3.88266 -0.525071 0
M  V30 9897 H 943.622 3.90402 -0.915827 0
M  V30 9898 H 940.212 3.6051 -2.31798 0
M  V30 9899 H 944.396 3.71342 -3.2927 0
M  V30 9900 H 939.652 3.92178 -4.69048 0
M  V30 9901 H 943.826 4.0428 -5.67037 0
M  V30 9902 H 941.453 4.14301 -6.37384 0
M  V30 9903 N 943.028 0.824394 1.34319 0
M  V30 9904 C 943.96 0.204805 2.28283 0
M  V30 9905 C 944.973 -0.606162 1.51094 0
M  V30 9906 O 946.162 -0.435602 1.73103 0
M  V30 9907 C 943.262 -0.73139 3.30914 0
M  V30 9908 C 942.435 0.0370723 4.37384 0
M  V30 9909 C 941.494 -0.820272 5.19767 0
M  V30 9910 O 940.52 -0.264721 5.68584 0
M  V30 9911 N 941.722 -2.13984 5.39621 0
M  V30 9912 H 944.487 1.0121 2.82093 0
M  V30 9913 H 942.048 0.681494 1.46858 0
M  V30 9914 H 944.04 -1.30958 3.82926 0
M  V30 9915 H 942.61 -1.43943 2.77487 0
M  V30 9916 H 941.83 0.796578 3.86068 0
M  V30 9917 H 943.118 0.566014 5.05642 0
M  V30 9918 H 942.516 -2.61492 5.01636 0
M  V30 9919 H 941.073 -2.66685 5.94746 0
M  V30 9920 N 944.506 -1.46559 0.579492 0
M  V30 9921 C 945.734 -2.06784 0.0693648 0
M  V30 9922 C 946.149 -1.42875 -1.23419 0
M  V30 9923 O 945.506 -0.532919 -1.74546 0
M  V30 9924 C 945.557 -3.61343 -0.106511 0
M  V30 9925 O 945.278 -4.22861 1.14545 0
M  V30 9926 C 946.779 -4.38489 -0.651359 0
M  V30 9927 H 943.999 -0.66866 0.0559848 0
M  V30 9928 H 946.543 -1.88235 0.799245 0
M  V30 9929 H 944.698 -3.7933 -0.786601 0
M  V30 9930 H 945.112 -5.15691 0.95723 0
M  V30 9931 H 946.586 -5.47237 -0.723615 0
M  V30 9932 H 947.063 -4.06309 -1.66763 0
M  V30 9933 H 947.669 -4.253 -0.0062433 0
M  V30 9934 N 945.984 -0.3171 -1.54377 0
M  V30 9935 C 946.916 0.58571 -2.2159 0
M  V30 9936 C 947.929 1.08495 -1.21378 0
M  V30 9937 O 949.118 0.999638 -1.47883 0
M  V30 9938 C 946.218 1.8157 -2.86156 0
M  V30 9939 C 945.391 1.45625 -4.12447 0
M  V30 9940 C 944.45 2.54308 -4.60667 0
M  V30 9941 O 943.476 2.18724 -5.25498 0
M  V30 9942 N 944.678 3.85129 -4.34345 0
M  V30 9943 H 947.443 0.0102247 -2.99698 0
M  V30 9944 H 945.004 -0.140011 -1.61293 0
M  V30 9945 H 946.996 2.53657 -3.15341 0
M  V30 9946 H 945.566 2.29919 -2.11793 0
M  V30 9947 H 944.786 0.567294 -3.90097 0
M  V30 9948 H 946.074 1.19169 -4.94648 0
M  V30 9949 H 945.472 4.16841 -3.8244 0
M  V30 9950 H 944.029 4.53466 -4.68201 0
M  V30 9951 N 947.462 1.57535 -0.0451378 0
M  V30 9952 C 948.709 1.92451 0.629987 0
M  V30 9953 C 949.037 0.92298 1.71206 0
M  V30 9954 O 948.292 -0.0656626 1.9559 0
M  V30 9955 C 948.591 3.34065 1.27024 0
M  V30 9956 C 948.257 4.49785 0.316971 0
M  V30 9957 C 946.919 4.81169 0.0546406 0
M  V30 9958 C 949.271 5.20111 -0.336693 0
M  V30 9959 C 946.599 5.8023 -0.86889 0
M  V30 9960 C 948.951 6.2016 -1.24838 0
M  V30 9961 C 947.615 6.49976 -1.51944 0
M  V30 9962 H 946.885 0.704228 0.230529 0
M  V30 9963 H 949.532 1.91182 -0.110328 0
M  V30 9964 H 947.837 3.31672 2.08568 0
M  V30 9965 H 949.534 3.58359 1.79945 0
M  V30 9966 H 946.124 4.2529 0.531614 0
M  V30 9967 H 950.308 4.96082 -0.147105 0
M  V30 9968 H 945.564 6.0167 -1.08643 0
M  V30 9969 H 949.738 6.73767 -1.76098 0
M  V30 9970 H 947.365 7.26551 -2.2367 0
M  V30 9971 N 948.94 -0.228186 1.55939 0
M  V30 9972 C 949.888 -1.30239 1.92719 0
M  V30 9973 C 950.882 -1.48865 0.808424 0
M  V30 9974 O 952.088 -1.50118 0.993204 0
M  V30 9975 H 948.463 -0.436509 0.612343 0
M  V30 9976 H 950.434 -0.964965 2.82367 0
M  V30 9977 C 949.183 -2.647 2.25453 0
M  V30 9978 H 948.506 -2.51173 3.1105 0
M  V30 9979 H 949.946 -3.38691 2.55077 0
M  V30 9980 C 948.405 -3.1921 1.07734 0
M  V30 9981 O 948.935 -4.00301 0.335019 0
M  V30 9982 N 947.141 -2.77492 0.862938 0
M  V30 9983 H 946.688 -2.11657 1.4683 0
M  V30 9984 H 946.646 -3.14306 0.0770119 0
M  V30 9985 N 950.418 -1.49637 -0.494624 0
M  V30 9986 C 951.348 -1.69692 -1.60396 0
M  V30 9987 C 952.329 -0.545648 -1.61111 0
M  V30 9988 O 953.514 -0.782202 -1.77751 0
M  V30 9989 C 950.644 -1.76934 -2.9885 0
M  V30 9990 C 949.598 -2.91915 -3.13001 0
M  V30 9991 C 948.924 -2.84276 -4.5287 0
M  V30 9992 C 950.224 -4.32764 -2.92426 0
M  V30 9993 H 951.918 -2.6257 -1.43866 0
M  V30 9994 H 949.464 -1.26355 -0.690679 0
M  V30 9995 H 951.417 -1.8955 -3.76362 0
M  V30 9996 H 950.141 -0.806609 -3.16483 0
M  V30 9997 H 948.8 -2.78911 -2.37916 0
M  V30 9998 H 948.448 -1.85897 -4.67388 0
M  V30 9999 H 948.148 -3.61452 -4.63278 0
M  V30 10000 H 949.672 -2.98909 -5.32434 0
M  V30 10001 H 951.086 -4.46415 -3.59703 0
M  V30 10002 H 949.483 -5.1121 -3.143 0
M  V30 10003 H 950.553 -4.46765 -1.88491 0
M  V30 10004 N 951.896 0.746133 -1.38819 0
M  V30 10005 C 953.124 1.53539 -1.38685 0
M  V30 10006 C 953.539 1.88788 0.0215039 0
M  V30 10007 O 952.896 1.53312 0.990031 0
M  V30 10008 C 952.947 2.8299 -2.24942 0
M  V30 10009 O 952.668 2.49242 -3.60292 0
M  V30 10010 C 954.169 3.77085 -2.3307 0
M  V30 10011 H 951.389 0.474842 -0.474095 0
M  V30 10012 H 953.933 0.922844 -1.82493 0
M  V30 10013 H 952.088 3.40603 -1.84576 0
M  V30 10014 H 952.502 3.32319 -4.05789 0
M  V30 10015 H 953.976 4.64845 -2.97696 0
M  V30 10016 H 954.453 4.18049 -1.34655 0
M  V30 10017 H 955.059 3.25394 -2.73859 0
M  V30 10018 N 953.375 1.23811 0.975125 0
M  V30 10019 C 954.621 1.07495 1.71967 0
M  V30 10020 C 954.954 -0.386451 1.90316 0
M  V30 10021 O 954.229 -1.28591 1.45927 0
M  V30 10022 C 954.512 1.80694 3.11483 0
M  V30 10023 C 954.365 3.3454 3.00671 0
M  V30 10024 C 955.684 1.57367 4.11003 0
M  V30 10025 H 952.803 0.3919 0.624166 0
M  V30 10026 H 955.445 1.52383 1.13487 0
M  V30 10027 H 953.595 1.42538 3.61407 0
M  V30 10028 H 955.267 3.8225 2.5823 0
M  V30 10029 H 953.51 3.63301 2.37054 0
M  V30 10030 H 954.181 3.80951 3.99475 0
M  V30 10031 H 956.657 1.90545 3.69908 0
M  V30 10032 H 955.533 2.11052 5.06703 0
M  V30 10033 H 955.794 0.510221 4.39146 0
M  V30 10034 N 954.853 -1.17469 1.05066 0
M  V30 10035 C 955.816 -2.19648 0.654793 0
M  V30 10036 C 956.816 -1.58107 -0.293063 0
M  V30 10037 O 958.006 -1.74029 -0.077106 0
M  V30 10038 C 955.138 -3.40878 -0.0384437 0
M  V30 10039 H 956.331 -2.56184 1.55915 0
M  V30 10040 H 953.884 -1.31528 0.844396 0
M  V30 10041 H 954.619 -3.09885 -0.956133 0
M  V30 10042 H 954.404 -3.86792 0.642961 0
M  V30 10043 H 955.894 -4.1651 -0.301568 0
M  V30 10044 N 956.331 -0.831506 -1.3388 0
M  V30 10045 C 957.241 -0.261688 -2.33136 0
M  V30 10046 C 958.257 0.608429 -1.63016 0
M  V30 10047 O 959.433 0.514297 -1.94723 0
M  V30 10048 C 956.498 0.559957 -3.42148 0
M  V30 10049 C 955.559 -0.333569 -4.28002 0
M  V30 10050 C 954.792 0.448956 -5.31808 0
M  V30 10051 O 955.015 1.6814 -5.45055 0
M  V30 10052 O 953.949 -0.173197 -6.01651 0
M  V30 10053 H 957.775 -1.08343 -2.83717 0
M  V30 10054 H 955.36 -0.593849 -1.3709 0
M  V30 10055 H 957.242 1.02712 -4.08691 0
M  V30 10056 H 955.917 1.35888 -2.93796 0
M  V30 10057 H 954.824 -0.848416 -3.64352 0
M  V30 10058 H 956.157 -1.09707 -4.79818 0
M  V30 10059 N 957.809 1.4625 -0.587256 0
M  V30 10060 C 958.719 2.34147 0.145744 0
M  V30 10061 C 959.735 1.50026 0.881376 0
M  V30 10062 O 960.911 1.82884 0.843539 0
M  V30 10063 C 957.976 3.27294 1.14366 0
M  V30 10064 C 957.037 4.27317 0.412199 0
M  V30 10065 C 956.27 5.16013 1.36257 0
M  V30 10066 O 956.493 5.0773 2.59934 0
M  V30 10067 O 955.427 5.95569 0.870681 0
M  V30 10068 H 959.253 2.98187 -0.576055 0
M  V30 10069 H 956.838 1.45299 -0.347628 0
M  V30 10070 H 958.72 3.84747 1.71894 0
M  V30 10071 H 957.395 2.65845 1.84684 0
M  V30 10072 H 956.302 3.73538 -0.205036 0
M  V30 10073 H 957.635 4.91564 -0.250104 0
M  V30 10074 N 959.287 0.325282 1.54207 0
M  V30 10075 C 960.234 -0.539889 2.24397 0
M  V30 10076 C 961.204 -1.11028 1.2354 0
M  V30 10077 O 962.389 -1.1503 1.52226 0
M  V30 10078 C 959.529 -1.69405 3.00659 0
M  V30 10079 C 958.642 -1.15273 4.16337 0
M  V30 10080 C 957.777 -2.27272 4.80126 0
M  V30 10081 C 956.816 -1.70397 5.87904 0
M  V30 10082 N 955.953 -2.76065 6.45548 0
M  V30 10083 H 960.793 0.0652318 2.97929 0
M  V30 10084 H 958.33 0.043964 1.47034 0
M  V30 10085 H 960.288 -2.37325 3.43122 0
M  V30 10086 H 958.918 -2.27043 2.29458 0
M  V30 10087 H 957.97 -0.365034 3.78645 0
M  V30 10088 H 959.282 -0.696576 4.93912 0
M  V30 10089 H 958.436 -3.03092 5.25566 0
M  V30 10090 H 957.175 -2.76224 4.01935 0
M  V30 10091 H 956.18 -0.930752 5.41864 0
M  V30 10092 H 957.405 -1.22319 6.67993 0
M  V30 10093 H 955.351 -3.24306 5.7023 0
M  V30 10094 H 955.268 -2.35018 7.18542 0
M  V30 10095 H 956.536 -3.5171 6.95644 0
M  V30 10096 N 960.765 -1.57509 0.0534917 0
M  V30 10097 C 962.014 -1.91959 -0.619244 0
M  V30 10098 C 962.327 -0.933882 -1.71866 0
M  V30 10099 O 963.533 -1.17052 -2.44972 0
M  V30 10100 C 961.989 -3.40938 -1.15278 0
M  V30 10101 C 961.597 -4.47919 -0.085348 0
M  V30 10102 C 963.341 -3.84419 -1.80063 0
M  V30 10103 C 961.248 -5.88014 -0.631897 0
M  V30 10104 H 960.178 -0.71642 -0.235072 0
M  V30 10105 H 962.829 -1.83089 0.122758 0
M  V30 10106 H 961.211 -3.44821 -1.94717 0
M  V30 10107 H 962.385 -4.55629 0.688374 0
M  V30 10108 H 960.7 -4.13793 0.465178 0
M  V30 10109 H 963.297 -4.86457 -2.21954 0
M  V30 10110 H 963.64 -3.20791 -2.65328 0
M  V30 10111 H 964.173 -3.83062 -1.07275 0
M  V30 10112 H 960.912 -6.55244 0.183175 0
M  V30 10113 H 960.432 -5.83861 -1.37355 0
M  V30 10114 H 962.111 -6.37336 -1.11407 0
M  V30 10115 N 962.243 0.219913 -1.56058 0
M  V30 10116 C 963.492 0.942119 -1.78345 0
M  V30 10117 C 963.805 1.85435 -0.622344 0
M  V30 10118 O 965.011 2.61533 -0.728886 0
M  V30 10119 C 963.467 1.72544 -3.15843 0
M  V30 10120 C 963.075 0.859263 -4.39682 0
M  V30 10121 C 964.819 2.43876 -3.47455 0
M  V30 10122 C 962.726 1.64003 -5.68205 0
M  V30 10123 H 961.656 0.355514 -0.664925 0
M  V30 10124 H 964.307 0.195963 -1.82451 0
M  V30 10125 H 962.689 2.51456 -3.05918 0
M  V30 10126 H 963.863 0.110562 -4.60667 0
M  V30 10127 H 962.178 0.257985 -4.156 0
M  V30 10128 H 964.775 3.02794 -4.40704 0
M  V30 10129 H 965.118 3.16843 -2.7003 0
M  V30 10130 H 965.651 1.71952 -3.58716 0
M  V30 10131 H 962.39 0.953606 -6.48526 0
M  V30 10132 H 961.91 2.3633 -5.51279 0
M  V30 10133 H 963.589 2.20028 -6.08438 0
M  V30 10134 N 963.721 1.49897 0.486681 0
M  V30 10135 C 964.668 1.67619 1.58658 0
M  V30 10136 C 965.638 0.517537 1.57831 0
M  V30 10137 O 966.823 0.746272 1.756 0
M  V30 10138 C 963.963 1.762 2.96728 0
M  V30 10139 C 963.076 3.03465 3.07462 0
M  V30 10140 C 962.211 3.02937 4.36351 0
M  V30 10141 C 961.25 4.24721 4.4077 0
M  V30 10142 N 960.387 4.22021 5.61108 0
M  V30 10143 H 965.227 2.61528 1.42853 0
M  V30 10144 H 962.764 1.29657 0.694807 0
M  V30 10145 H 964.722 1.79156 3.76774 0
M  V30 10146 H 963.352 0.857452 3.11203 0
M  V30 10147 H 962.404 3.10054 2.20387 0
M  V30 10148 H 963.716 3.93454 3.06586 0
M  V30 10149 H 962.87 3.04536 5.24731 0
M  V30 10150 H 961.609 2.10751 4.39813 0
M  V30 10151 H 960.614 4.23352 3.5079 0
M  V30 10152 H 961.839 5.18116 4.39013 0
M  V30 10153 H 959.785 3.3268 5.65385 0
M  V30 10154 H 959.702 5.05761 5.61909 0
M  V30 10155 H 960.97 4.27743 6.51656 0
M  V30 10156 N 965.199 -0.738761 1.39212 0
M  V30 10157 C 966.149 -1.84376 1.34125 0
M  V30 10158 C 967.133 -1.5935 0.222793 0
M  V30 10159 O 968.325 -1.70918 0.460014 0
M  V30 10160 C 965.454 -3.22261 1.18334 0
M  V30 10161 C 964.54 -3.53129 2.34864 0
M  V30 10162 N 964.931 -3.54957 3.60332 0
M  V30 10163 C 963.229 -3.83472 2.27739 0
M  V30 10164 C 963.93 -3.83513 4.3737 0
M  V30 10165 N 962.906 -4.01097 3.66909 0
M  V30 10166 H 966.708 -1.84089 2.29104 0
M  V30 10167 H 964.222 -0.936826 1.32655 0
M  V30 10168 H 966.219 -4.01358 1.12772 0
M  V30 10169 H 964.879 -3.23789 0.243016 0
M  V30 10170 H 965.89 -3.36359 3.93806 0
M  V30 10171 H 962.567 -3.92628 1.41949 0
M  V30 10172 H 963.957 -3.91427 5.46109 0
M  V30 10173 N 966.677 -1.24326 -0.968545 0
M  V30 10174 C 967.587 -1.05194 -2.09694 0
M  V30 10175 C 968.603 0.00701291 -1.73999 0
M  V30 10176 O 969.779 -0.190981 -2.00492 0
M  V30 10177 C 966.844 -0.658075 -3.40397 0
M  V30 10178 C 965.905 -1.79341 -3.90045 0
M  V30 10179 C 965.138 -1.41824 -5.14511 0
M  V30 10180 O 965.361 -0.307693 -5.69569 0
M  V30 10181 O 964.295 -2.24358 -5.58522 0
M  V30 10182 H 968.121 -1.99791 -2.2873 0
M  V30 10183 H 965.706 -1.03138 -1.08088 0
M  V30 10184 H 967.588 -0.449911 -4.18991 0
M  V30 10185 H 966.263 0.258782 -3.22664 0
M  V30 10186 H 965.17 -2.05632 -3.12516 0
M  V30 10187 H 966.503 -2.68901 -4.12254 0
M  V30 10188 N 968.156 1.1691 -1.05688 0
M  V30 10189 C 969.384 1.91204 -0.790485 0
M  V30 10190 C 969.799 1.77095 0.654434 0
M  V30 10191 O 969.156 1.11146 1.44751 0
M  V30 10192 C 969.207 3.42108 -1.16808 0
M  V30 10193 O 968.928 3.55788 -2.55629 0
M  V30 10194 C 970.429 4.33466 -0.92855 0
M  V30 10195 H 967.649 0.606508 -0.287035 0
M  V30 10196 H 970.193 1.48225 -1.40888 0
M  V30 10197 H 968.348 3.82814 -0.59434 0
M  V30 10198 H 968.762 4.49321 -2.70575 0
M  V30 10199 H 970.236 5.37836 -1.24245 0
M  V30 10200 H 970.713 4.38989 0.136016 0
M  V30 10201 H 971.319 3.98481 -1.48638 0
M  V30 10202 N 969.634 0.838594 1.33437 0
M  V30 10203 C 970.564 0.286672 2.31734 0
M  V30 10204 C 971.545 -0.605451 1.5896 0
M  V30 10205 O 972.73 -0.529059 1.86854 0
M  V30 10206 C 969.86 -0.539311 3.43087 0
M  V30 10207 C 968.814 0.256997 4.27228 0
M  V30 10208 C 968.14 -0.692718 5.30194 0
M  V30 10209 C 969.44 1.47391 5.01072 0
M  V30 10210 H 971.134 1.10798 2.78144 0
M  V30 10211 H 968.68 0.534235 1.33723 0
M  V30 10212 H 970.633 -0.935724 4.1088 0
M  V30 10213 H 969.357 -1.39383 2.95364 0
M  V30 10214 H 968.016 0.634967 3.61059 0
M  V30 10215 H 967.664 -1.54363 4.78729 0
M  V30 10216 H 967.364 -0.164023 5.87371 0
M  V30 10217 H 968.888 -1.08665 6.00853 0
M  V30 10218 H 970.302 1.15067 5.61634 0
M  V30 10219 H 968.699 1.93937 5.67898 0
M  V30 10220 H 969.769 2.24382 4.29861 0
M  V30 10221 N 971.112 -1.45937 0.595003 0
M  V30 10222 C 972.523 -1.85908 0.171779 0
M  V30 10223 C 972.874 -1.497 -1.26824 0
M  V30 10224 O 971.999 -0.917688 -1.95978 0
M  V30 10225 C 972.594 -3.37425 0.304976 0
M  V30 10226 C 971.153 -3.76346 -0.0634635 0
M  V30 10227 C 970.3 -2.69926 0.635255 0
M  V30 10228 H 973.251 -1.36916 0.802471 0
M  V30 10229 H 973.272 -3.77632 -0.466313 0
M  V30 10230 H 972.784 -3.63747 1.35314 0
M  V30 10231 H 970.885 -3.55642 -1.11129 0
M  V30 10232 H 970.998 -4.78021 0.321419 0
M  V30 10233 H 969.362 -2.54592 0.0742054 0
M  V30 10234 H 970.145 -2.99086 1.68531 0
M  V30 10235 N 972.59 -0.333456 -1.54032 0
M  V30 10236 C 973.82 0.267425 -2.04862 0
M  V30 10237 C 974.228 1.45559 -1.20869 0
M  V30 10238 O 973.571 1.82197 -0.234478 0
M  V30 10239 C 973.633 0.755759 -3.51466 0
M  V30 10240 C 973.297 -0.311409 -4.55938 0
M  V30 10241 C 974.294 -1.15078 -5.07004 0
M  V30 10242 C 971.979 -0.462439 -5.00167 0
M  V30 10243 C 973.973 -2.12682 -6.0087 0
M  V30 10244 C 971.66 -1.44188 -5.93846 0
M  V30 10245 C 972.658 -2.27253 -6.44085 0
M  V30 10246 O 972.346 -3.23532 -7.35923 0
M  V30 10247 H 972.078 0.0572596 -0.673571 0
M  V30 10248 H 974.632 -0.480646 -1.99697 0
M  V30 10249 H 972.862 1.55491 -3.54062 0
M  V30 10250 H 974.551 1.27607 -3.8532 0
M  V30 10251 H 975.317 -1.04513 -4.73605 0
M  V30 10252 H 971.196 0.17424 -4.60671 0
M  V30 10253 H 974.74 -2.77555 -6.40007 0
M  V30 10254 H 970.637 -1.54813 -6.2666 0
M  V30 10255 H 971.405 -3.18886 -7.53826 0
M  V30 10256 N 974.068 1.57479 -0.061844 0
M  V30 10257 C 975.316 1.92727 0.608336 0
M  V30 10258 C 975.637 0.941799 1.70749 0
M  V30 10259 O 974.907 -0.0116608 1.95897 0
M  V30 10260 H 973.487 0.71145 0.2277 0
M  V30 10261 H 976.149 1.94546 -0.117359 0
M  V30 10262 H 975.245 2.9426 1.04007 0
M  V30 10263 N 975.546 -0.211634 1.56173 0
M  V30 10264 C 976.962 -0.56177 1.49386 0
M  V30 10265 C 977.162 -1.86666 0.758813 0
M  V30 10266 O 976.218 -2.50681 0.302534 0
M  V30 10267 C 977.531 -0.631815 2.93987 0
M  V30 10268 C 979.079 -0.721773 3.04564 0
M  V30 10269 C 979.554 -0.823075 4.50544 0
M  V30 10270 N 981.045 -0.887038 4.54627 0
M  V30 10271 C 981.78 -0.985304 5.64871 0
M  V30 10272 N 981.276 -1.0469 6.84844 0
M  V30 10273 N 983.069 -1.02121 5.52746 0
M  V30 10274 H 975.22 0.64452 2.02385 0
M  V30 10275 H 977.483 0.227466 0.920306 0
M  V30 10276 H 977.189 0.257592 3.50755 0
M  V30 10277 H 977.063 -1.4921 3.46433 0
M  V30 10278 H 979.45 -1.60162 2.47855 0
M  V30 10279 H 979.531 0.164385 2.55271 0
M  V30 10280 H 979.175 0.0523511 5.07873 0
M  V30 10281 H 979.105 -1.72479 4.97552 0
M  V30 10282 H 981.596 -0.849352 3.68231 0
M  V30 10283 H 981.909 -1.12193 7.64613 0
M  V30 10284 H 980.254 -1.01586 6.87536 0
M  V30 10285 H 983.445 -0.969814 4.57943 0
M  V30 10286 H 983.618 -1.09434 6.38693 0
M  V30 10287 N 977.024 -1.50153 -0.478725 0
M  V30 10288 C 978.435 -1.53706 -1.05978 0
M  V30 10289 C 978.786 -0.336112 -1.933 0
M  V30 10290 O 977.911 0.551803 -2.09246 0
M  V30 10291 C 978.506 -2.78541 -1.92874 0
M  V30 10292 C 977.065 -2.848 -2.46102 0
M  V30 10293 C 976.212 -2.47902 -1.24257 0
M  V30 10294 H 979.163 -1.56528 -0.261664 0
M  V30 10295 H 979.184 -2.59964 -2.77847 0
M  V30 10296 H 978.696 -3.6593 -1.29293 0
M  V30 10297 H 976.797 -2.01744 -3.13257 0
M  V30 10298 H 976.91 -3.87511 -2.81731 0
M  V30 10299 H 975.274 -2.0017 -1.57493 0
M  V30 10300 H 976.057 -3.3759 -0.62351 0
M  V30 10301 N 978.502 0.731368 -1.39602 0
M  V30 10302 C 979.918 1.03739 -1.21286 0
M  V30 10303 C 980.118 2.01353 -0.0769875 0
M  V30 10304 O 979.174 2.45978 0.570193 0
M  V30 10305 C 980.487 1.59621 -2.54837 0
M  V30 10306 C 982.035 1.71683 -2.61713 0
M  V30 10307 C 982.51 2.30973 -3.95494 0
M  V30 10308 N 984.001 2.38378 -3.97153 0
M  V30 10309 C 984.736 2.852 -4.97442 0
M  V30 10310 N 984.232 3.31891 -6.08129 0
M  V30 10311 N 986.025 2.84441 -4.84819 0
M  V30 10312 H 978.176 0.0840456 -2.12234 0
M  V30 10313 H 980.439 0.0999038 -0.942721 0
M  V30 10314 H 980.145 0.953608 -3.38525 0
M  V30 10315 H 980.019 2.58375 -2.74813 0
M  V30 10316 H 982.406 2.35064 -1.78406 0
M  V30 10317 H 982.487 0.715714 -2.45583 0
M  V30 10318 H 982.131 1.68219 -4.79234 0
M  V30 10319 H 982.061 3.31769 -4.08946 0
M  V30 10320 H 984.552 2.05382 -3.17217 0
M  V30 10321 H 984.865 3.66138 -6.8056 0
M  V30 10322 H 983.21 3.2989 -6.11717 0
M  V30 10323 H 986.401 2.4729 -3.97448 0
M  V30 10324 H 986.574 3.20616 -5.63124 0
M  V30 10325 N 979.98 1.24838 0.961938 0
M  V30 10326 C 981.226 1.09313 1.70817 0
M  V30 10327 C 981.559 -0.366244 1.90715 0
M  V30 10328 O 980.834 -1.27036 1.47282 0
M  V30 10329 C 981.117 1.83988 3.09549 0
M  V30 10330 C 980.97 3.3771 2.97106 0
M  V30 10331 C 982.289 1.61718 4.09311 0
M  V30 10332 H 979.408 0.398498 0.619974 0
M  V30 10333 H 982.05 1.53579 1.11864 0
M  V30 10334 H 980.2 1.46363 3.59875 0
M  V30 10335 H 981.872 3.84967 2.54161 0
M  V30 10336 H 980.115 3.65795 2.33187 0
M  V30 10337 H 980.786 3.85166 3.95412 0
M  V30 10338 H 983.262 1.94458 3.67866 0
M  V30 10339 H 982.138 2.16415 5.04436 0
M  V30 10340 H 982.399 0.55677 4.3858 0
M  V30 10341 N 981.458 -1.16348 1.06306 0
M  V30 10342 C 982.388 -2.2291 0.695234 0
M  V30 10343 C 983.369 -1.67208 -0.312343 0
M  V30 10344 O 984.554 -1.93293 -0.187442 0
M  V30 10345 C 981.684 -3.47205 0.0810149 0
M  V30 10346 C 980.638 -4.15801 1.01458 0
M  V30 10347 C 979.964 -5.3405 0.263656 0
M  V30 10348 C 981.264 -4.66766 2.34365 0
M  V30 10349 H 982.958 -2.53934 1.58613 0
M  V30 10350 H 980.504 -1.22056 0.76409 0
M  V30 10351 H 982.457 -4.2098 -0.18818 0
M  V30 10352 H 981.181 -3.15482 -0.844897 0
M  V30 10353 H 979.84 -3.43954 1.26852 0
M  V30 10354 H 979.488 -4.9858 -0.665378 0
M  V30 10355 H 979.188 -5.80885 0.88582 0
M  V30 10356 H 980.712 -6.106 0.00200994 0
M  V30 10357 H 982.126 -5.3212 2.13356 0
M  V30 10358 H 980.523 -5.24223 2.9208 0
M  V30 10359 H 981.593 -3.82969 2.97426 0
M  V30 10360 N 982.937 -0.845659 -1.3299 0
M  V30 10361 C 983.869 -0.241097 -2.27928 0
M  V30 10362 C 984.882 0.582048 -1.5204 0
M  V30 10363 O 986.071 0.408008 -1.73774 0
M  V30 10364 C 983.171 0.678652 -3.32035 0
M  V30 10365 C 982.344 -0.106652 -4.3727 0
M  V30 10366 C 981.403 0.737478 -5.21006 0
M  V30 10367 O 980.429 0.174231 -5.68933 0
M  V30 10368 N 981.631 2.05372 -5.42957 0
M  V30 10369 H 984.396 -1.05685 -2.80448 0
M  V30 10370 H 981.957 -0.704771 -1.45755 0
M  V30 10371 H 983.949 1.24849 -3.84961 0
M  V30 10372 H 982.519 1.3951 -2.79742 0
M  V30 10373 H 981.739 -0.857897 -3.84752 0
M  V30 10374 H 983.027 -0.646386 -5.04677 0
M  V30 10375 H 982.425 2.53478 -5.05733 0
M  V30 10376 H 980.982 2.5719 -5.98913 0
M  V30 10377 N 984.415 1.45619 -0.602734 0
M  V30 10378 C 985.362 2.30493 0.118944 0
M  V30 10379 C 986.332 1.41816 0.864723 0
M  V30 10380 O 987.517 1.7075 0.851424 0
M  V30 10381 C 984.657 3.2664 1.11356 0
M  V30 10382 C 983.77 4.3042 0.369161 0
M  V30 10383 C 982.905 5.13678 1.35307 0
M  V30 10384 C 981.944 6.09189 0.596207 0
M  V30 10385 N 981.081 6.85245 1.52916 0
M  V30 10386 H 985.921 2.91672 -0.610836 0
M  V30 10387 H 983.458 1.43731 -0.313032 0
M  V30 10388 H 985.416 3.80846 1.7033 0
M  V30 10389 H 984.046 2.67225 1.81081 0
M  V30 10390 H 983.098 3.78913 -0.335994 0
M  V30 10391 H 984.41 4.98307 -0.221603 0
M  V30 10392 H 983.564 5.7226 2.01502 0
M  V30 10393 H 982.303 4.45798 1.97777 0
M  V30 10394 H 981.308 5.49743 -0.0793984 0
M  V30 10395 H 982.533 6.79096 -0.0233734 0
M  V30 10396 H 980.479 6.20058 2.14159 0
M  V30 10397 H 980.396 7.49467 0.991713 0
M  V30 10398 H 981.664 7.48371 2.18083 0
M  V30 10399 N 985.893 0.34162 1.53853 0
M  V30 10400 C 986.803 -0.524555 2.2866 0
M  V30 10401 C 987.819 -1.1136 1.33697 0
M  V30 10402 O 988.995 -1.1297 1.66732 0
M  V30 10403 C 986.06 -1.66065 3.04341 0
M  V30 10404 C 985.121 -1.10158 4.14926 0
M  V30 10405 C 984.354 -2.18353 4.86988 0
M  V30 10406 O 984.577 -3.39038 4.58704 0
M  V30 10407 O 983.511 -1.82756 5.73484 0
M  V30 10408 H 987.337 0.0835014 3.03585 0
M  V30 10409 H 984.922 0.106727 1.49018 0
M  V30 10410 H 986.804 -2.3217 3.51674 0
M  V30 10411 H 985.479 -2.25456 2.32275 0
M  V30 10412 H 984.386 -0.405109 3.719 0
M  V30 10413 H 985.719 -0.552567 4.89088 0
M  V30 10414 N 987.371 -1.57444 0.0701946 0
M  V30 10415 C 988.319 -2.13834 -0.915302 0
M  V30 10416 C 989.313 -1.07483 -1.30934 0
M  V30 10417 O 990.519 -1.25865 -1.28678 0
M  V30 10418 H 986.894 -0.683716 -0.313108 0
M  V30 10419 H 988.865 -2.95503 -0.414758 0
M  V30 10420 C 987.614 -2.71355 -2.17398 0
M  V30 10421 H 986.937 -3.52861 -1.87961 0
M  V30 10422 H 988.377 -3.1441 -2.84469 0
M  V30 10423 C 986.836 -1.66038 -2.93143 0
M  V30 10424 O 987.366 -1.08443 -3.86786 0
M  V30 10425 N 985.572 -1.3711 -2.56221 0
M  V30 10426 H 985.119 -1.84135 -1.80145 0
M  V30 10427 H 985.077 -0.66877 -3.07205 0
M  V30 10428 N 988.849 0.203349 -1.56283 0
M  V30 10429 C 990.077 0.941426 -1.84241 0
M  V30 10430 C 990.492 1.77197 -0.651658 0
M  V30 10431 O 989.849 1.78506 0.379713 0
M  V30 10432 C 989.9 1.84429 -3.10915 0
M  V30 10433 O 989.621 1.04729 -4.25398 0
M  V30 10434 C 991.122 2.69474 -3.51993 0
M  V30 10435 H 988.342 0.27507 -0.612027 0
M  V30 10436 H 990.886 0.213088 -2.03387 0
M  V30 10437 H 989.041 2.52635 -2.93691 0
M  V30 10438 H 989.455 1.66179 -4.97478 0
M  V30 10439 H 990.929 3.28495 -4.43616 0
M  V30 10440 H 991.406 3.42775 -2.74594 0
M  V30 10441 H 992.012 2.06652 -3.71719 0
M  V30 10442 N 990.327 1.50405 0.470755 0
M  V30 10443 C 991.576 1.60652 1.21959 0
M  V30 10444 C 991.889 0.312521 1.93087 0
M  V30 10445 O 993.095 0.293901 2.69905 0
M  V30 10446 C 991.551 2.83581 2.21607 0
M  V30 10447 C 991.159 4.19858 1.5628 0
M  V30 10448 C 992.903 3.03173 2.9713 0
M  V30 10449 C 990.81 5.33974 2.54217 0
M  V30 10450 H 989.74 0.598264 0.458907 0
M  V30 10451 H 992.391 1.76836 0.490041 0
M  V30 10452 H 990.773 2.60957 2.97855 0
M  V30 10453 H 991.947 4.52738 0.85819 0
M  V30 10454 H 990.262 4.05873 0.930366 0
M  V30 10455 H 992.859 3.856 3.70428 0
M  V30 10456 H 993.202 2.14914 3.56536 0
M  V30 10457 H 993.735 3.2598 2.27995 0
M  V30 10458 H 990.474 6.24388 1.99549 0
M  V30 10459 H 989.994 5.05511 3.22829 0
M  V30 10460 H 991.673 5.64561 3.16039 0
M  V30 10461 N 991.805 -0.723954 1.39988 0
M  V30 10462 C 993.045 -1.49624 1.39255 0
M  V30 10463 C 993.409 -1.91998 -0.00860198 0
M  V30 10464 O 994.61 -2.6843 -0.141002 0
M  V30 10465 C 992.881 -2.69514 2.34728 0
M  V30 10466 S 994.44 -3.59027 2.5228 0
M  V30 10467 H 991.258 -0.511661 0.493685 0
M  V30 10468 H 993.86 -0.847322 1.76184 0
M  V30 10469 H 992.564 -2.36541 3.35375 0
M  V30 10470 H 992.095 -3.39325 1.99053 0
M  V30 10471 H 994.11 -4.63597 1.76896 0
M  V30 10472 N 993.283 -1.25346 -0.955304 0
M  V30 10473 C 994.213 -1.08152 -2.06943 0
M  V30 10474 C 995.194 0.00922598 -1.70097 0
M  V30 10475 O 996.379 -0.160181 -1.93538 0
M  V30 10476 C 993.509 -0.698745 -3.40198 0
M  V30 10477 C 992.463 -1.73965 -3.9105 0
M  V30 10478 C 991.789 -1.21158 -5.20792 0
M  V30 10479 C 993.089 -3.13829 -4.17503 0
M  V30 10480 H 994.783 -2.01345 -2.21586 0
M  V30 10481 H 992.329 -0.969459 -1.06478 0
M  V30 10482 H 994.282 -0.565394 -4.1759 0
M  V30 10483 H 993.006 0.268892 -3.25491 0
M  V30 10484 H 991.665 -1.86143 -3.15827 0
M  V30 10485 H 991.313 -0.234193 -5.02455 0
M  V30 10486 H 991.013 -1.90728 -5.55785 0
M  V30 10487 H 992.537 -1.09061 -6.00781 0
M  V30 10488 H 993.951 -3.04809 -4.85556 0
M  V30 10489 H 992.348 -3.80863 -4.63749 0
M  V30 10490 H 993.418 -3.6094 -3.23806 0
M  V30 10491 N 994.761 1.15782 -1.06922 0
M  V30 10492 C 995.691 2.22538 -0.707045 0
M  V30 10493 C 996.672 1.67371 0.303471 0
M  V30 10494 O 997.857 1.9339 0.177189 0
M  V30 10495 C 994.987 3.47158 -0.0994269 0
M  V30 10496 C 993.941 4.15257 -1.03661 0
M  V30 10497 C 993.267 5.33902 -0.291974 0
M  V30 10498 C 994.567 4.65516 -2.36837 0
M  V30 10499 H 996.261 2.53089 -1.59958 0
M  V30 10500 H 993.807 1.21649 -0.770552 0
M  V30 10501 H 995.76 4.21073 0.165852 0
M  V30 10502 H 994.484 3.15926 0.828155 0
M  V30 10503 H 993.143 3.43276 -1.28674 0
M  V30 10504 H 992.791 4.98926 0.638928 0
M  V30 10505 H 992.491 5.80407 -0.916613 0
M  V30 10506 H 994.015 6.1059 -0.0343915 0
M  V30 10507 H 995.429 5.30981 -2.16175 0
M  V30 10508 H 993.826 5.22666 -2.94856 0
M  V30 10509 H 994.896 3.81387 -2.99453 0
M  V30 10510 N 996.239 0.8527 1.3254 0
M  V30 10511 C 997.464 0.468157 2.02047 0
M  V30 10512 C 997.889 -0.926967 1.63673 0
M  V30 10513 O 997.247 -1.60855 0.836378 0
M  V30 10514 C 997.295 0.612519 3.5536 0
M  V30 10515 O 996.399 -0.355506 4.10865 0
M  V30 10516 H 995.74 0.188401 0.636711 0
M  V30 10517 H 998.27 1.15135 1.6913 0
M  V30 10518 H 998.28 0.499315 4.04933 0
M  V30 10519 H 996.955 1.62988 3.82632 0
M  V30 10520 H 995.532 -0.198703 3.7237 0
M  V30 10521 N 997.718 -1.45297 0.610449 0
M  V30 10522 C 998.65 -2.28742 -0.144884 0
M  V30 10523 C 999.663 -1.40114 -0.828977 0
M  V30 10524 O 1000.85 -1.64461 -0.693887 0
M  V30 10525 C 997.952 -3.15934 -1.22632 0
M  V30 10526 C 997.125 -4.32857 -0.628785 0
M  V30 10527 C 996.184 -5.01237 -1.60148 0
M  V30 10528 O 995.21 -5.57938 -1.12667 0
M  V30 10529 N 996.412 -5.00785 -2.9359 0
M  V30 10530 H 999.177 -2.94207 0.571145 0
M  V30 10531 H 996.738 -1.55517 0.450134 0
M  V30 10532 H 998.73 -3.58545 -1.87691 0
M  V30 10533 H 997.3 -2.52358 -1.84483 0
M  V30 10534 H 996.52 -3.93693 0.199951 0
M  V30 10535 H 997.808 -5.08367 -0.209845 0
M  V30 10536 H 997.206 -4.56014 -3.34765 0
M  V30 10537 H 995.763 -5.4725 -3.54064 0
M  V30 10538 N 999.196 -0.349774 -1.5367 0
M  V30 10539 C 1000.15 0.52023 -2.21986 0
M  V30 10540 C 1001.13 1.06119 -1.20944 0
M  V30 10541 O 1002.32 0.993857 -1.46463 0
M  V30 10542 C 999.451 1.66751 -3.00082 0
M  V30 10543 C 998.537 1.14019 -4.08486 0
M  V30 10544 N 998.928 0.334588 -5.04692 0
M  V30 10545 C 997.226 1.4165 -4.22908 0
M  V30 10546 C 997.927 0.0476906 -5.8168 0
M  V30 10547 N 996.903 0.641032 -5.39807 0
M  V30 10548 H 1000.7 -0.102261 -2.93722 0
M  V30 10549 H 998.219 -0.15696 -1.6164 0
M  V30 10550 H 1000.22 2.30281 -3.47529 0
M  V30 10551 H 998.876 2.29322 -2.29873 0
M  V30 10552 H 999.887 -0.0248665 -5.17894 0
M  V30 10553 H 996.564 2.04615 -3.63922 0
M  V30 10554 H 997.954 -0.602565 -6.69193 0
M  V30 10555 N 1000.67 1.57404 -0.0785433 0
M  V30 10556 C 1001.61 2.101 0.916013 0
M  V30 10557 C 1002.62 1.03459 1.25698 0
M  V30 10558 O 1003.81 1.30954 1.21299 0
M  V30 10559 C 1000.91 2.55202 2.22992 0
M  V30 10560 C 1000.08 3.85491 2.06678 0
M  V30 10561 C 999.14 4.16614 3.21433 0
M  V30 10562 O 998.166 4.86105 2.96126 0
M  V30 10563 N 999.368 3.70697 4.46726 0
M  V30 10564 H 1002.13 2.96054 0.466059 0
M  V30 10565 H 999.694 1.61546 0.107006 0
M  V30 10566 H 1001.69 2.7308 2.9868 0
M  V30 10567 H 1000.26 1.74348 2.59464 0
M  V30 10568 H 999.476 3.76925 1.15417 0
M  V30 10569 H 1000.76 4.70759 1.93036 0
M  V30 10570 H 1000.16 3.14571 4.70172 0
M  V30 10571 H 998.719 3.93762 5.19418 0
M  V30 10572 N 1002.15 -0.195058 1.56388 0
M  V30 10573 C 1003.4 -0.915444 1.80626 0
M  V30 10574 C 1003.73 -1.83255 0.651768 0
M  V30 10575 O 1002.98 -1.92314 -0.362464 0
M  V30 10576 C 1003.28 -1.7637 3.10851 0
M  V30 10577 C 1002.95 -0.997572 4.39726 0
M  V30 10578 C 1001.61 -0.786043 4.74737 0
M  V30 10579 C 1003.96 -0.45851 5.19179 0
M  V30 10580 C 1001.29 -0.023972 5.86695 0
M  V30 10581 C 1003.64 0.29035 6.31933 0
M  V30 10582 C 1002.3 0.512895 6.65527 0
M  V30 10583 H 1001.57 -0.334985 0.660959 0
M  V30 10584 H 1004.22 -0.181815 1.90635 0
M  V30 10585 H 1002.53 -2.566 2.9608 0
M  V30 10586 H 1004.22 -2.3237 3.26811 0
M  V30 10587 H 1000.81 -1.17245 4.12252 0
M  V30 10588 H 1005 -0.609334 4.92545 0
M  V30 10589 H 1000.25 0.158421 6.11195 0
M  V30 10590 H 1004.43 0.715429 6.92715 0
M  V30 10591 H 1002.05 1.10531 7.52122 0
M  V30 10592 N 1003.63 -1.50653 -0.462772 0
M  V30 10593 C 1004.56 -1.64773 -1.57877 0
M  V30 10594 C 1005.54 -0.495664 -1.54861 0
M  V30 10595 O 1006.72 -0.716248 -1.74362 0
M  V30 10596 C 1003.85 -1.63796 -2.9646 0
M  V30 10597 C 1002.9 -2.84663 -3.17599 0
M  V30 10598 S 1003.73 -4.45852 -2.96608 0
M  V30 10599 C 1004.89 -4.47581 -4.37518 0
M  V30 10600 H 1005.12 -2.59172 -1.45661 0
M  V30 10601 H 1002.65 -1.40019 -0.650699 0
M  V30 10602 H 1004.61 -1.63918 -3.76353 0
M  V30 10603 H 1003.27 -0.706185 -3.06059 0
M  V30 10604 H 1002.46 -2.80308 -4.1886 0
M  V30 10605 H 1002.07 -2.82152 -2.45492 0
M  V30 10606 H 1004.36 -4.21656 -5.30295 0
M  V30 10607 H 1005.3 -5.49248 -4.46914 0
M  V30 10608 H 1005.71 -3.7719 -4.19985 0
M  V30 10609 N 1005.11 0.71652 -1.4037 0
M  V30 10610 C 1006.33 1.51069 -1.42102 0
M  V30 10611 C 1006.76 1.88087 -0.0222387 0
M  V30 10612 O 1006.12 1.53204 0.969448 0
M  V30 10613 C 1006.16 2.76307 -2.31704 0
M  V30 10614 O 1005.27 3.72975 -1.75964 0
M  V30 10615 H 1004.61 0.455502 -0.483129 0
M  V30 10616 H 1007.14 0.882514 -1.84588 0
M  V30 10617 H 1007.15 3.24846 -2.46859 0
M  V30 10618 H 1005.82 2.48698 -3.3335 0
M  V30 10619 H 1004.4 3.31818 -1.70151 0
M  V30 10620 N 1006.59 1.25851 0.948643 0
M  V30 10621 C 1007.83 1.10735 1.69062 0
M  V30 10622 C 1008.16 -0.351257 1.9181 0
M  V30 10623 O 1007.43 -1.24867 1.50947 0
M  V30 10624 H 1006.01 0.406796 0.626519 0
M  V30 10625 H 1008.67 1.58066 1.14022 0
M  V30 10626 H 1007.76 1.62033 2.66743 0
M  V30 10627 N 1008.06 -1.15214 1.07534 0
M  V30 10628 C 1009.29 -1.89647 0.819614 0
M  V30 10629 C 1009.7 -1.78365 -0.631072 0
M  V30 10630 O 1009.05 -1.1346 -1.44474 0
M  V30 10631 C 1009.11 -3.40573 1.1511 0
M  V30 10632 C 1008.77 -3.7564 2.60276 0
M  V30 10633 C 1009.77 -3.76507 3.58523 0
M  V30 10634 C 1007.45 -4.05891 2.95901 0
M  V30 10635 C 1009.45 -4.07133 4.9043 0
M  V30 10636 C 1007.13 -4.36182 4.28005 0
M  V30 10637 C 1008.13 -4.36785 5.25079 0
M  V30 10638 O 1007.82 -4.66348 6.54809 0
M  V30 10639 H 1007.55 -0.607836 0.295822 0
M  V30 10640 H 1010.11 -1.46895 1.43565 0
M  V30 10641 H 1008.34 -3.83734 0.478033 0
M  V30 10642 H 1010.03 -3.96299 0.877615 0
M  V30 10643 H 1010.79 -3.53233 3.32342 0
M  V30 10644 H 1006.67 -4.0458 2.20989 0
M  V30 10645 H 1010.21 -4.07519 5.66193 0
M  V30 10646 H 1006.11 -4.58924 4.53937 0
M  V30 10647 H 1006.88 -4.84105 6.59988 0
M  V30 10648 N 1009.54 -0.859717 -1.32086 0
M  V30 10649 C 1010.77 -0.478865 -2.01796 0
M  V30 10650 C 1011.19 0.918274 -1.64163 0
M  V30 10651 O 1010.55 1.60409 -0.844896 0
M  V30 10652 C 1010.6 -0.631356 -3.5503 0
M  V30 10653 O 1009.7 0.333712 -4.11048 0
M  V30 10654 H 1009.04 -0.191775 -0.635703 0
M  V30 10655 H 1011.57 -1.16031 -1.68517 0
M  V30 10656 H 1011.58 -0.520783 -4.04663 0
M  V30 10657 H 1010.26 -1.65015 -3.81763 0
M  V30 10658 H 1008.84 0.178953 -3.7247 0
M  V30 10659 N 1011.02 1.44971 -0.618145 0
M  V30 10660 C 1011.95 2.28815 0.132751 0
M  V30 10661 C 1012.97 1.40551 0.821535 0
M  V30 10662 O 1014.15 1.64827 0.685155 0
M  V30 10663 C 1011.25 3.1658 1.20955 0
M  V30 10664 C 1010.43 4.33184 0.605821 0
M  V30 10665 C 1009.49 5.0208 1.57488 0
M  V30 10666 O 1008.51 5.58528 1.09706 0
M  V30 10667 N 1009.71 5.02335 2.9093 0
M  V30 10668 H 1012.48 2.939 -0.58674 0
M  V30 10669 H 1010.04 1.55276 -0.458375 0
M  V30 10670 H 1012.03 3.59535 1.85787 0
M  V30 10671 H 1010.6 2.53333 1.83143 0
M  V30 10672 H 1009.82 3.93581 -0.220827 0
M  V30 10673 H 1011.11 5.08471 0.182883 0
M  V30 10674 H 1010.51 4.57783 3.32342 0
M  V30 10675 H 1009.07 5.49119 3.51157 0
M  V30 10676 N 1012.5 0.357919 1.53482 0
M  V30 10677 C 1013.78 -0.290164 1.93436 0
M  V30 10678 C 1014.16 -1.67039 1.29079 0
M  V30 10679 O 1013.5 -2.24085 0.447017 0
M  V30 10680 C 1013.71 -0.348055 3.4726 0
M  V30 10681 C 1015.06 -0.59206 4.20452 0
M  V30 10682 O 1016.09 -0.429581 3.536 0
M  V30 10683 O 1014.94 -0.907855 5.38907 0
M  V30 10684 H 1012.04 -0.172312 0.80885 0
M  V30 10685 H 1014.58 0.410144 1.64669 0
M  V30 10686 H 1013.36 0.619953 3.86358 0
M  V30 10687 H 1012.98 -1.09457 3.82237 0
M  V30 10688 N 1013.98 -1.5736 0.0868897 0
M  V30 10689 C 1015.23 -1.93229 -0.578387 0
M  V30 10690 C 1015.54 -0.970127 -1.69847 0
M  V30 10691 O 1016.74 -1.22222 -2.42434 0
M  V30 10692 C 1015.2 -3.43307 -1.0802 0
M  V30 10693 C 1014.81 -4.47999 0.00968135 0
M  V30 10694 C 1016.55 -3.88151 -1.71868 0
M  V30 10695 C 1014.46 -5.89223 -0.507029 0
M  V30 10696 H 1013.39 -0.721245 -0.219823 0
M  V30 10697 H 1016.04 -1.82787 0.161566 0
M  V30 10698 H 1014.42 -3.48873 -1.87359 0
M  V30 10699 H 1015.6 -4.54067 0.784865 0
M  V30 10700 H 1013.91 -4.12714 0.552845 0
M  V30 10701 H 1016.51 -4.91056 -2.11585 0
M  V30 10702 H 1016.85 -3.26347 -2.58464 0
M  V30 10703 H 1017.38 -3.85252 -0.991259 0
M  V30 10704 H 1014.12 -6.54708 0.322121 0
M  V30 10705 H 1013.64 -5.86643 -1.2494 0
M  V30 10706 H 1015.32 -6.39556 -0.978628 0
M  V30 10707 N 1015.45 0.186762 -1.56489 0
M  V30 10708 C 1016.38 1.23395 -1.98232 0
M  V30 10709 C 1017.37 1.4702 -0.855526 0
M  V30 10710 O 1018.55 1.58616 -1.12048 0
M  V30 10711 C 1015.68 2.57635 -2.32898 0
M  V30 10712 C 1014.63 2.48607 -3.48394 0
M  V30 10713 C 1013.96 3.87196 -3.68759 0
M  V30 10714 C 1015.26 2.00398 -4.82325 0
M  V30 10715 H 1016.95 0.887026 -2.85958 0
M  V30 10716 H 1014.5 0.42525 -1.37578 0
M  V30 10717 H 1016.45 3.31082 -2.60696 0
M  V30 10718 H 1015.18 2.94084 -1.42064 0
M  V30 10719 H 1013.84 1.77615 -3.207 0
M  V30 10720 H 1013.48 4.21012 -2.75241 0
M  V30 10721 H 1013.18 3.82029 -4.46462 0
M  V30 10722 H 1014.71 4.62253 -3.98941 0
M  V30 10723 H 1016.12 2.6361 -5.091 0
M  V30 10724 H 1014.52 2.06214 -5.63556 0
M  V30 10725 H 1015.59 0.957562 -4.75351 0
M  V30 10726 N 1016.93 1.50896 0.454776 0
M  V30 10727 C 1017.87 1.65608 1.57001 0
M  V30 10728 C 1018.84 0.50387 1.54596 0
M  V30 10729 O 1020.03 0.725485 1.7398 0
M  V30 10730 C 1017.15 1.65366 2.95587 0
M  V30 10731 C 1016.2 2.86344 3.16085 0
M  V30 10732 S 1017.03 4.47418 2.9424 0
M  V30 10733 C 1018.19 4.49895 4.35138 0
M  V30 10734 H 1018.42 2.59941 1.44285 0
M  V30 10735 H 1015.96 1.40362 0.643264 0
M  V30 10736 H 1017.91 1.65911 3.75478 0
M  V30 10737 H 1016.57 0.722407 3.0568 0
M  V30 10738 H 1015.77 2.82526 4.17367 0
M  V30 10739 H 1015.37 2.8345 2.43992 0
M  V30 10740 H 1017.66 4.24462 5.28051 0
M  V30 10741 H 1018.6 5.5161 4.43995 0
M  V30 10742 H 1019.01 3.79412 4.17979 0
M  V30 10743 N 1018.41 -0.709066 1.40748 0
M  V30 10744 C 1019.82 -1.28847 1.35112 0
M  V30 10745 C 1020.17 -1.9618 0.0277149 0
M  V30 10746 O 1019.3 -1.97955 -0.874233 0
M  V30 10747 C 1019.89 -2.34306 2.44716 0
M  V30 10748 C 1018.45 -2.87856 2.4252 0
M  V30 10749 C 1017.6 -1.61723 2.25257 0
M  V30 10750 H 1020.55 -0.504742 1.50459 0
M  V30 10751 H 1020.57 -3.15297 2.12998 0
M  V30 10752 H 1020.08 -1.85271 3.41022 0
M  V30 10753 H 1018.18 -3.41103 1.49931 0
M  V30 10754 H 1018.3 -3.39205 3.38344 0
M  V30 10755 H 1016.66 -1.87032 1.7289 0
M  V30 10756 H 1017.44 -1.14703 3.23571 0
M  V30 10757 N 1019.89 -1.26353 -0.941956 0
M  V30 10758 C 1020.82 -1.10341 -2.05784 0
M  V30 10759 C 1021.8 -0.00881565 -1.70098 0
M  V30 10760 O 1022.99 -0.180699 -1.93357 0
M  V30 10761 C 1020.12 -0.734788 -3.39438 0
M  V30 10762 C 1019.07 -1.78103 -3.89183 0
M  V30 10763 C 1018.4 -1.26675 -5.19478 0
M  V30 10764 C 1019.7 -3.1824 -4.14151 0
M  V30 10765 H 1021.39 -2.03684 -2.19438 0
M  V30 10766 H 1018.94 -0.980698 -1.05443 0
M  V30 10767 H 1020.89 -0.609653 -4.16967 0
M  V30 10768 H 1019.61 0.234354 -3.25758 0
M  V30 10769 H 1018.27 -1.89482 -3.13835 0
M  V30 10770 H 1017.92 -0.287472 -5.02178 0
M  V30 10771 H 1017.62 -1.96612 -5.53731 0
M  V30 10772 H 1019.14 -1.15427 -5.99591 0
M  V30 10773 H 1020.56 -3.09942 -4.82296 0
M  V30 10774 H 1018.95 -3.8576 -4.59684 0
M  V30 10775 H 1020.02 -3.64354 -3.19959 0
M  V30 10776 N 1021.37 1.14642 -1.08144 0
M  V30 10777 C 1022.61 1.86115 -0.820533 0
M  V30 10778 C 1022.97 1.81208 0.646635 0
M  V30 10779 O 1022.26 1.22997 1.46909 0
M  V30 10780 C 1022.46 3.33953 -1.2732 0
M  V30 10781 C 1022.28 3.53254 -2.78283 0
M  V30 10782 C 1021.05 3.68259 -3.45996 0
M  V30 10783 C 1023.25 3.504 -3.76463 0
M  V30 10784 N 1021.23 3.75692 -4.85519 0
M  V30 10785 C 1022.61 3.64045 -5.01868 0
M  V30 10786 C 1024.66 3.33722 -3.69505 0
M  V30 10787 C 1023.36 3.62734 -6.21141 0
M  V30 10788 C 1025.39 3.33713 -4.88251 0
M  V30 10789 C 1024.75 3.47896 -6.12493 0
M  V30 10790 H 1020.85 0.697829 -0.352929 0
M  V30 10791 H 1023.43 1.3742 -1.37927 0
M  V30 10792 H 1021.61 3.81245 -0.742066 0
M  V30 10793 H 1023.34 3.93174 -0.958991 0
M  V30 10794 H 1020.09 3.69376 -2.96409 0
M  V30 10795 H 1020.52 3.83133 -5.58156 0
M  V30 10796 H 1025.16 3.2167 -2.74387 0
M  V30 10797 H 1022.88 3.73563 -7.16573 0
M  V30 10798 H 1026.46 3.22025 -4.84553 0
M  V30 10799 H 1025.34 3.47833 -7.02838 0
M  V30 10800 N 1022.85 0.866709 1.31628 0
M  V30 10801 C 1024.07 0.49039 2.01004 0
M  V30 10802 C 1024.49 -0.916244 1.65077 0
M  V30 10803 O 1023.85 -1.59975 0.8783 0
M  V30 10804 C 1023.9 0.634011 3.55897 0
M  V30 10805 O 1023.62 1.98525 3.90537 0
M  V30 10806 C 1025.12 0.258277 4.42547 0
M  V30 10807 H 1022.34 0.191421 0.643117 0
M  V30 10808 H 1024.88 1.16698 1.67934 0
M  V30 10809 H 1023.04 0.00501801 3.874 0
M  V30 10810 H 1023.45 1.99067 4.85255 0
M  V30 10811 H 1024.93 0.409733 5.50477 0
M  V30 10812 H 1025.4 -0.802301 4.3181 0
M  V30 10813 H 1026.01 0.862837 4.16456 0
M  V30 10814 N 1024.32 -1.44642 0.625825 0
M  V30 10815 C 1025.55 -2.06971 0.133373 0
M  V30 10816 C 1025.97 -1.46421 -1.18078 0
M  V30 10817 O 1025.33 -0.563676 -1.72315 0
M  V30 10818 C 1025.38 -3.6059 0.0265097 0
M  V30 10819 O 1024.48 -3.99615 -1.01889 0
M  V30 10820 H 1023.82 -0.658873 0.0823568 0
M  V30 10821 H 1026.35 -1.85601 0.861002 0
M  V30 10822 H 1026.36 -4.07663 -0.1658 0
M  V30 10823 H 1025.04 -4.04043 0.985986 0
M  V30 10824 H 1023.62 -3.64183 -0.801577 0
M  V30 10825 N 1025.8 -0.366053 -1.5329 0
M  V30 10826 C 1027.03 0.22391 -2.05383 0
M  V30 10827 C 1027.44 1.42962 -1.23929 0
M  V30 10828 O 1026.78 1.81659 -0.273072 0
M  V30 10829 C 1026.84 0.681038 -3.5299 0
M  V30 10830 C 1026.51 -0.40805 -4.55175 0
M  V30 10831 C 1027.51 -1.25806 -5.04449 0
M  V30 10832 C 1025.19 -0.568428 -4.99073 0
M  V30 10833 C 1027.18 -2.25379 -5.96224 0
M  V30 10834 C 1024.87 -1.56752 -5.90654 0
M  V30 10835 C 1025.87 -2.40864 -6.39119 0
M  V30 10836 O 1025.56 -3.39069 -7.28895 0
M  V30 10837 H 1025.29 0.0429593 -0.674634 0
M  V30 10838 H 1027.84 -0.522897 -1.98633 0
M  V30 10839 H 1026.07 1.47945 -3.5728 0
M  V30 10840 H 1027.76 1.19406 -3.8794 0
M  V30 10841 H 1028.53 -1.14536 -4.71282 0
M  V30 10842 H 1024.41 0.0764858 -4.60937 0
M  V30 10843 H 1027.95 -2.91068 -6.33976 0
M  V30 10844 H 1023.85 -1.6807 -6.23236 0
M  V30 10845 H 1024.62 -3.34804 -7.46893 0
M  V30 10846 N 1027.28 1.57312 -0.0952337 0
M  V30 10847 C 1028.51 1.98697 0.57682 0
M  V30 10848 C 1028.92 0.974347 1.61716 0
M  V30 10849 O 1028.28 -0.036022 1.82464 0
M  V30 10850 C 1028.33 3.40133 1.2244 0
M  V30 10851 O 1028.05 4.37518 0.225678 0
M  V30 10852 C 1029.55 3.96522 1.98205 0
M  V30 10853 H 1026.77 0.65294 0.154629 0
M  V30 10854 H 1029.32 2.03754 -0.174562 0
M  V30 10855 H 1027.47 3.3609 1.92671 0
M  V30 10856 H 1027.89 5.199 0.693116 0
M  V30 10857 H 1029.36 4.97637 2.38875 0
M  V30 10858 H 1029.84 3.34347 2.84796 0
M  V30 10859 H 1030.44 4.04038 1.3279 0
M  V30 10860 N 1028.76 -0.17846 1.56586 0
M  V30 10861 C 1030 -0.897562 1.81856 0
M  V30 10862 C 1030.34 -1.82204 0.671955 0
M  V30 10863 O 1029.61 -1.91739 -0.326535 0
M  V30 10864 C 1029.89 -1.69942 3.17477 0
M  V30 10865 C 1029.75 -0.798545 4.42655 0
M  V30 10866 C 1031.07 -2.66861 3.49962 0
M  V30 10867 H 1028.19 -0.324863 0.661539 0
M  V30 10868 H 1030.83 -0.164106 1.8929 0
M  V30 10869 H 1028.98 -2.32471 3.11271 0
M  V30 10870 H 1030.65 -0.18668 4.60922 0
M  V30 10871 H 1028.89 -0.106181 4.3367 0
M  V30 10872 H 1029.56 -1.39496 5.34083 0
M  V30 10873 H 1032.04 -2.1446 3.56576 0
M  V30 10874 H 1030.92 -3.20037 4.45946 0
M  V30 10875 H 1031.18 -3.46715 2.74301 0
M  V30 10876 N 1030.24 -1.51135 -0.446768 0
M  V30 10877 C 1031.51 -1.5387 -1.20762 0
M  V30 10878 C 1031.89 -0.297446 -2.08994 0
M  V30 10879 O 1031.24 0.717975 -2.16927 0
M  V30 10880 C 1031.45 -2.84767 -2.01764 0
M  V30 10881 C 1032.8 -3.3636 -2.59128 0
M  V30 10882 O 1033.82 -2.86254 -2.11984 0
M  V30 10883 O 1032.68 -4.23765 -3.45088 0
M  V30 10884 H 1029.78 -0.618228 -0.549293 0
M  V30 10885 H 1032.32 -1.63442 -0.456605 0
M  V30 10886 H 1031.09 -3.6657 -1.36901 0
M  V30 10887 H 1030.72 -2.78313 -2.8395 0
M  V30 10888 N 1031.71 0.701592 -1.41122 0
M  V30 10889 C 1033.13 1.01143 -1.23459 0
M  V30 10890 C 1033.33 2.01144 -0.11968 0
M  V30 10891 O 1032.39 2.47132 0.517889 0
M  V30 10892 C 1033.7 1.54179 -2.58165 0
M  V30 10893 C 1035.25 1.66093 -2.65296 0
M  V30 10894 C 1035.72 2.22532 -4.00304 0
M  V30 10895 N 1037.21 2.299 -4.0212 0
M  V30 10896 C 1037.95 2.74584 -5.0338 0
M  V30 10897 N 1037.44 3.18917 -6.15032 0
M  V30 10898 N 1039.24 2.74094 -4.90743 0
M  V30 10899 H 1031.39 0.0390087 -2.12364 0
M  V30 10900 H 1033.65 0.0798848 -0.944628 0
M  V30 10901 H 1033.36 0.881587 -3.40472 0
M  V30 10902 H 1033.23 2.52488 -2.80231 0
M  V30 10903 H 1035.62 2.31227 -1.83352 0
M  V30 10904 H 1035.7 0.663461 -2.47046 0
M  V30 10905 H 1035.34 1.58016 -4.82694 0
M  V30 10906 H 1035.27 3.2302 -4.15891 0
M  V30 10907 H 1037.76 1.98607 -3.21502 0
M  V30 10908 H 1038.08 3.5162 -6.88174 0
M  V30 10909 H 1036.42 3.1684 -6.18577 0
M  V30 10910 H 1039.61 2.38804 -4.02604 0
M  V30 10911 H 1039.79 3.086 -5.69798 0
M  V30 10912 N 1033.19 1.2685 0.935242 0
M  V30 10913 C 1034.14 1.08746 2.05614 0
M  V30 10914 C 1035.13 0.012681 1.69395 0
M  V30 10915 O 1036.34 0.169822 1.79197 0
M  V30 10916 H 1032.71 0.33485 0.673335 0
M  V30 10917 H 1034.69 2.03725 2.18033 0
M  V30 10918 C 1033.43 0.74346 3.39659 0
M  V30 10919 H 1032.76 1.56236 3.68008 0
M  V30 10920 H 1034.2 0.656607 4.18885 0
M  V30 10921 C 1032.66 -0.551751 3.32351 0
M  V30 10922 O 1033.19 -1.58836 3.68963 0
M  V30 10923 N 1031.39 -0.544583 2.85452 0
M  V30 10924 H 1030.94 0.29939 2.55854 0
M  V30 10925 H 1030.9 -1.41129 2.80945 0
M  V30 10926 N 1034.67 -1.14067 1.0875 0
M  V30 10927 C 1035.95 -1.81389 0.73195 0
M  V30 10928 C 1036.33 -1.96005 -0.78391 0
M  V30 10929 O 1035.68 -1.52267 -1.70373 0
M  V30 10930 C 1035.89 -3.16858 1.46294 0
M  V30 10931 C 1037.23 -3.92305 1.62426 0
M  V30 10932 O 1038.26 -3.26459 1.42488 0
M  V30 10933 O 1037.12 -5.10393 1.9535 0
M  V30 10934 H 1034.21 -0.784354 0.262141 0
M  V30 10935 H 1036.76 -1.21054 1.18929 0
M  V30 10936 H 1035.53 -3.01404 2.49542 0
M  V30 10937 H 1035.15 -3.84889 0.997318 0
M  V30 10938 N 1036.15 -0.873678 -1.31166 0
M  V30 10939 C 1037.37 -0.500242 -2.01277 0
M  V30 10940 C 1037.8 0.900811 -1.65127 0
M  V30 10941 O 1037.16 1.59504 -0.861862 0
M  V30 10942 C 1037.2 -0.668976 -3.5434 0
M  V30 10943 O 1036.31 0.290096 -4.11378 0
M  V30 10944 H 1035.65 -0.198507 -0.633633 0
M  V30 10945 H 1038.18 -1.17811 -1.67277 0
M  V30 10946 H 1038.19 -0.563673 -4.04088 0
M  V30 10947 H 1036.86 -1.69055 -3.79991 0
M  V30 10948 H 1035.44 0.139437 -3.72639 0
M  V30 10949 N 1037.63 1.44308 -0.633487 0
M  V30 10950 C 1038.87 2.02023 -0.138917 0
M  V30 10951 C 1039.2 1.49841 1.24008 0
M  V30 10952 O 1038.46 0.673718 1.83738 0
M  V30 10953 C 1038.76 3.57316 -0.0773886 0
M  V30 10954 C 1038.42 4.28762 -1.39548 0
M  V30 10955 C 1037.08 4.47997 -1.75648 0
M  V30 10956 C 1039.44 4.69391 -2.26542 0
M  V30 10957 C 1036.76 5.05121 -2.98445 0
M  V30 10958 C 1039.12 5.27876 -3.48612 0
M  V30 10959 C 1037.78 5.45329 -3.84932 0
M  V30 10960 H 1037.05 0.739254 -0.0508333 0
M  V30 10961 H 1039.7 1.73043 -0.820271 0
M  V30 10962 H 1038 3.85724 0.687345 0
M  V30 10963 H 1039.7 3.99706 0.321837 0
M  V30 10964 H 1036.29 4.14122 -1.10456 0
M  V30 10965 H 1040.47 4.54241 -1.99946 0
M  V30 10966 H 1035.73 5.16821 -3.26658 0
M  V30 10967 H 1039.9 5.58307 -4.16253 0
M  V30 10968 H 1037.53 5.8936 -4.80166 0
M  V30 10969 N 1039.1 0.374177 1.53094 0
M  V30 10970 C 1040.33 -0.215903 2.06273 0
M  V30 10971 C 1040.75 -1.40979 1.24526 0
M  V30 10972 O 1040.11 -1.79331 0.266462 0
M  V30 10973 C 1040.16 -0.579089 3.5592 0
M  V30 10974 O 1039.26 -1.67516 3.76845 0
M  V30 10975 H 1038.61 -0.0293981 0.663349 0
M  V30 10976 H 1041.14 0.537271 1.9742 0
M  V30 10977 H 1041.15 -0.847678 3.99097 0
M  V30 10978 H 1039.82 0.293843 4.14861 0
M  V30 10979 H 1038.4 -1.40146 3.45563 0
M  V30 10980 N 1040.58 -1.57259 0.103575 0
M  V30 10981 C 1041.81 -1.99 -0.566275 0
M  V30 10982 C 1042.23 -0.982909 -1.61197 0
M  V30 10983 O 1041.58 0.026345 -1.82481 0
M  V30 10984 C 1041.63 -3.40778 -1.20635 0
M  V30 10985 O 1041.35 -4.37632 -0.202472 0
M  V30 10986 C 1042.86 -3.97567 -1.961 0
M  V30 10987 H 1040.08 -0.653751 -0.151164 0
M  V30 10988 H 1042.62 -2.03658 0.185365 0
M  V30 10989 H 1040.77 -3.37107 -1.90886 0
M  V30 10990 H 1041.19 -5.2026 -0.665535 0
M  V30 10991 H 1042.66 -4.98897 -2.36233 0
M  V30 10992 H 1043.14 -3.35853 -2.83018 0
M  V30 10993 H 1043.75 -4.04737 -1.30645 0
M  V30 10994 N 1042.06 0.170153 -1.56679 0
M  V30 10995 C 1042.97 1.23057 -1.99735 0
M  V30 10996 C 1043.99 1.48374 -0.908912 0
M  V30 10997 O 1045.16 1.60499 -1.21663 0
M  V30 10998 C 1042.23 2.54944 -2.34956 0
M  V30 10999 C 1041.29 2.3748 -3.57634 0
M  V30 11000 C 1040.52 3.63078 -3.91165 0
M  V30 11001 O 1040.74 4.68304 -3.2565 0
M  V30 11002 O 1039.68 3.57119 -4.8451 0
M  V30 11003 H 1043.5 0.895104 -2.9021 0
M  V30 11004 H 1041.09 0.377109 -1.44562 0
M  V30 11005 H 1042.97 3.32742 -2.58574 0
M  V30 11006 H 1041.65 2.88068 -1.47643 0
M  V30 11007 H 1040.55 1.57709 -3.39232 0
M  V30 11008 H 1041.89 2.0928 -4.45491 0
M  V30 11009 N 1043.54 1.5137 0.438746 0
M  V30 11010 C 1044.82 1.54508 1.19944 0
M  V30 11011 C 1045.2 0.308525 2.08833 0
M  V30 11012 O 1044.54 -0.706461 2.17305 0
M  V30 11013 C 1044.75 2.85833 2.00251 0
M  V30 11014 C 1046.1 3.37729 2.5734 0
M  V30 11015 O 1047.13 2.87374 2.10463 0
M  V30 11016 O 1045.98 4.25589 3.42836 0
M  V30 11017 H 1043.08 0.621132 0.546007 0
M  V30 11018 H 1045.62 1.63682 0.447931 0
M  V30 11019 H 1044.4 3.67291 1.34955 0
M  V30 11020 H 1044.02 2.79815 2.8247 0
M  V30 11021 N 1045.02 -0.694098 1.41492 0
M  V30 11022 C 1046.26 -1.45415 1.40929 0
M  V30 11023 C 1046.59 -1.94491 0.0189301 0
M  V30 11024 O 1045.85 -1.7 -0.96945 0
M  V30 11025 C 1046.15 -2.6805 2.36398 0
M  V30 11026 C 1045.81 -2.37623 3.83205 0
M  V30 11027 C 1044.47 -2.29035 4.23198 0
M  V30 11028 C 1046.83 -2.12555 4.75888 0
M  V30 11029 C 1044.15 -1.93478 5.5388 0
M  V30 11030 C 1046.51 -1.78506 6.06892 0
M  V30 11031 C 1045.17 -1.68415 6.45905 0
M  V30 11032 H 1044.44 -0.53211 0.515694 0
M  V30 11033 H 1047.09 -0.793193 1.74301 0
M  V30 11034 H 1045.39 -3.39086 1.96285 0
M  V30 11035 H 1047.09 -3.26194 2.33234 0
M  V30 11036 H 1043.68 -2.45202 3.51531 0
M  V30 11037 H 1047.86 -2.18133 4.45793 0
M  V30 11038 H 1043.12 -1.84219 5.82986 0
M  V30 11039 H 1047.29 -1.58128 6.7821 0
M  V30 11040 H 1044.92 -1.40631 7.47079 0
M  V30 11041 N 1046.49 -1.27344 -0.928501 0
M  V30 11042 C 1047.72 -1.16557 -1.7155 0
M  V30 11043 C 1048.14 0.274044 -1.86093 0
M  V30 11044 O 1047.5 1.19847 -1.36038 0
M  V30 11045 C 1047.55 -1.85332 -3.09329 0
M  V30 11046 O 1046.65 -1.15074 -3.9602 0
M  V30 11047 H 1046 -0.405423 -0.525859 0
M  V30 11048 H 1048.53 -1.68399 -1.16202 0
M  V30 11049 H 1048.54 -1.92659 -3.59648 0
M  V30 11050 H 1047.21 -2.90056 -2.98061 0
M  V30 11051 H 1045.79 -1.1581 -3.54461 0
M  V30 11052 N 1047.97 1.13488 -1.09353 0
M  V30 11053 C 1048.92 2.20949 -0.726923 0
M  V30 11054 C 1049.91 1.67205 0.271816 0
M  V30 11055 O 1051.12 1.79505 0.133356 0
M  V30 11056 H 1047.5 0.719985 -0.217086 0
M  V30 11057 H 1049.47 2.49134 -1.6424 0
M  V30 11058 C 1048.22 3.47319 -0.162822 0
M  V30 11059 H 1047.54 3.89011 -0.922527 0
M  V30 11060 H 1048.98 4.23963 0.0557734 0
M  V30 11061 C 1047.44 3.18376 1.10175 0
M  V30 11062 O 1047.97 3.3707 2.18511 0
M  V30 11063 N 1046.17 2.72262 1.01597 0
M  V30 11064 H 1045.72 2.5725 0.134289 0
M  V30 11065 H 1045.68 2.53272 1.86281 0
M  V30 11066 N 1049.45 0.880621 1.30701 0
M  V30 11067 C 1050.69 0.503519 1.98101 0
M  V30 11068 C 1051.06 -0.929075 1.68024 0
M  V30 11069 O 1052.26 -1.41208 2.28722 0
M  V30 11070 C 1050.53 0.765652 3.49102 0
M  V30 11071 S 1052.09 0.490001 4.36056 0
M  V30 11072 H 1048.9 0.187522 0.685825 0
M  V30 11073 H 1051.51 1.13895 1.58897 0
M  V30 11074 H 1050.21 1.80688 3.68484 0
M  V30 11075 H 1049.74 0.117616 3.93224 0
M  V30 11076 H 1051.76 -0.673236 4.91612 0
M  V30 11077 N 1050.93 -1.4397 0.641131 0
M  V30 11078 C 1051.86 -2.33458 -0.04446 0
M  V30 11079 C 1052.84 -1.48781 -0.824507 0
M  V30 11080 O 1054.03 -1.77477 -0.788397 0
M  V30 11081 C 1051.16 -3.31989 -1.01984 0
M  V30 11082 C 1050.11 -4.2656 -0.350745 0
M  V30 11083 C 1049.44 -5.15036 -1.43673 0
M  V30 11084 C 1050.74 -5.16897 0.749299 0
M  V30 11085 H 1052.43 -2.91034 0.702832 0
M  V30 11086 H 1049.98 -1.39942 0.339435 0
M  V30 11087 H 1051.93 -3.93483 -1.50828 0
M  V30 11088 H 1050.65 -2.72643 -1.79815 0
M  V30 11089 H 1049.31 -3.66413 0.117139 0
M  V30 11090 H 1048.96 -4.52037 -2.20617 0
M  V30 11091 H 1048.66 -5.79125 -0.994358 0
M  V30 11092 H 1050.18 -5.79403 -1.92678 0
M  V30 11093 H 1051.6 -5.7227 0.343534 0
M  V30 11094 H 1049.99 -5.89643 1.11541 0
M  V30 11095 H 1051.06 -4.5731 1.61232 0
M  V30 11096 N 1052.41 -0.382291 -1.52893 0
M  V30 11097 C 1053.64 0.202114 -2.05609 0
M  V30 11098 C 1054.05 1.4164 -1.25438 0
M  V30 11099 O 1053.39 1.81359 -0.292324 0
M  V30 11100 C 1053.45 0.64356 -3.53693 0
M  V30 11101 C 1053.11 -0.456305 -4.54716 0
M  V30 11102 C 1054.11 -1.3115 -5.03086 0
M  V30 11103 C 1051.8 -0.621329 -4.98442 0
M  V30 11104 C 1053.79 -2.3169 -5.938 0
M  V30 11105 C 1051.48 -1.63008 -5.88958 0
M  V30 11106 C 1052.48 -2.47629 -6.36529 0
M  V30 11107 O 1052.16 -3.46781 -7.25257 0
M  V30 11108 H 1051.9 0.0358014 -0.675051 0
M  V30 11109 H 1054.45 -0.543935 -1.98067 0
M  V30 11110 H 1052.68 1.44148 -3.58829 0
M  V30 11111 H 1054.37 1.15284 -3.89184 0
M  V30 11112 H 1055.13 -1.19528 -4.70041 0
M  V30 11113 H 1051.01 0.027593 -4.60992 0
M  V30 11114 H 1054.56 -2.97776 -6.30853 0
M  V30 11115 H 1050.45 -1.74671 -6.21418 0
M  V30 11116 H 1051.22 -3.42707 -7.433 0
M  V30 11117 N 1053.89 1.57202 -0.111913 0
M  V30 11118 C 1054.82 2.11995 0.871242 0
M  V30 11119 C 1055.83 1.06102 1.23475 0
M  V30 11120 O 1057.02 1.33497 1.18494 0
M  V30 11121 C 1054.12 2.59874 2.17528 0
M  V30 11122 C 1053.29 3.89788 1.98455 0
M  V30 11123 C 1052.35 4.23339 3.12523 0
M  V30 11124 O 1051.38 4.92277 2.85748 0
M  V30 11125 N 1052.58 3.80089 4.38762 0
M  V30 11126 H 1055.34 2.96976 0.403157 0
M  V30 11127 H 1052.91 1.61737 0.0727159 0
M  V30 11128 H 1054.9 2.79354 2.9282 0
M  V30 11129 H 1053.47 1.79812 2.55707 0
M  V30 11130 H 1052.69 3.79288 1.07396 0
M  V30 11131 H 1053.98 4.74748 1.83007 0
M  V30 11132 H 1053.37 3.24473 4.63394 0
M  V30 11133 H 1051.93 4.04691 5.10949 0
M  V30 11134 N 1055.36 -0.161842 1.56767 0
M  V30 11135 C 1056.64 -0.904754 1.73417 0
M  V30 11136 C 1057.02 -1.99987 0.675908 0
M  V30 11137 O 1056.37 -2.26419 -0.307712 0
M  V30 11138 C 1056.58 -1.46082 3.16956 0
M  V30 11139 C 1057.93 -1.93004 3.78199 0
M  V30 11140 O 1058.95 -1.55856 3.20293 0
M  V30 11141 O 1057.81 -2.61465 4.79894 0
M  V30 11142 H 1054.9 -0.426518 0.708528 0
M  V30 11143 H 1057.45 -0.148928 1.69045 0
M  V30 11144 H 1056.22 -0.673087 3.85468 0
M  V30 11145 H 1055.84 -2.28056 3.25693 0
M  V30 11146 N 1056.84 -1.516 -0.430713 0
M  V30 11147 C 1058.09 -1.64596 -1.17959 0
M  V30 11148 C 1058.42 -0.365382 -1.91037 0
M  V30 11149 O 1057.67 0.650826 -1.84561 0
M  V30 11150 C 1057.97 -2.804 -2.21609 0
M  V30 11151 C 1057.64 -4.19431 -1.65495 0
M  V30 11152 C 1056.3 -4.57252 -1.49915 0
M  V30 11153 C 1058.65 -5.0616 -1.24304 0
M  V30 11154 C 1055.98 -5.79501 -0.916276 0
M  V30 11155 C 1058.33 -6.28995 -0.674437 0
M  V30 11156 C 1056.99 -6.65582 -0.505591 0
M  V30 11157 H 1056.26 -0.602301 -0.431642 0
M  V30 11158 H 1058.91 -1.8565 -0.469726 0
M  V30 11159 H 1057.22 -2.53595 -2.98658 0
M  V30 11160 H 1058.91 -2.87654 -2.79385 0
M  V30 11161 H 1055.5 -3.89615 -1.78599 0
M  V30 11162 H 1059.69 -4.77541 -1.35159 0
M  V30 11163 H 1054.94 -6.0649 -0.77328 0
M  V30 11164 H 1059.12 -6.95536 -0.346779 0
M  V30 11165 H 1056.74 -7.60182 -0.0518188 0
M  V30 11166 N 1058.32 0.686584 -1.41858 0
M  V30 11167 C 1059.74 0.998283 -1.24525 0
M  V30 11168 C 1059.94 2.01006 -0.141007 0
M  V30 11169 O 1058.99 2.47667 0.491648 0
M  V30 11170 C 1060.3 1.51432 -2.59786 0
M  V30 11171 C 1061.85 1.6327 -2.67043 0
M  V30 11172 C 1062.33 2.18274 -4.02642 0
M  V30 11173 N 1063.82 2.25622 -4.04535 0
M  V30 11174 C 1064.55 2.69229 -5.06264 0
M  V30 11175 N 1064.05 3.12375 -6.1838 0
M  V30 11176 N 1065.84 2.68873 -4.93623 0
M  V30 11177 H 1057.99 0.0164825 -2.12394 0
M  V30 11178 H 1060.26 0.0698613 -0.945422 0
M  V30 11179 H 1059.96 0.845426 -3.41388 0
M  V30 11180 H 1059.84 2.49502 -2.82894 0
M  V30 11181 H 1062.22 2.29269 -1.85794 0
M  V30 11182 H 1062.3 0.637221 -2.47736 0
M  V30 11183 H 1061.95 1.52887 -4.84343 0
M  V30 11184 H 1061.88 3.18591 -4.19294 0
M  V30 11185 H 1064.37 1.95186 -3.23591 0
M  V30 11186 H 1064.68 3.44301 -6.91864 0
M  V30 11187 H 1063.03 3.10262 -6.21902 0
M  V30 11188 H 1066.22 2.34521 -4.05114 0
M  V30 11189 H 1066.39 3.02539 -5.7304 0
M  V30 11190 N 1059.8 1.27835 0.921735 0
M  V30 11191 C 1061.05 1.13904 1.6646 0
M  V30 11192 C 1061.36 -0.313379 1.93073 0
M  V30 11193 O 1062.57 -0.573687 2.6537 0
M  V30 11194 C 1061.02 1.99064 2.99836 0
M  V30 11195 C 1060.63 3.48998 2.80899 0
M  V30 11196 C 1062.37 1.93797 3.77681 0
M  V30 11197 C 1060.28 4.26337 4.09867 0
M  V30 11198 H 1059.21 0.422681 0.624385 0
M  V30 11199 H 1061.86 1.52303 1.02352 0
M  V30 11200 H 1060.24 1.53514 3.65034 0
M  V30 11201 H 1061.42 4.02452 2.24431 0
M  V30 11202 H 1059.73 3.55707 2.16476 0
M  V30 11203 H 1062.33 2.48852 4.73262 0
M  V30 11204 H 1062.67 0.912928 4.06167 0
M  V30 11205 H 1063.21 2.37275 3.19289 0
M  V30 11206 H 1059.94 5.2939 3.86557 0
M  V30 11207 H 1059.46 3.77659 4.65976 0
M  V30 11208 H 1061.14 4.3583 4.78185 0
M  V30 11209 N 1061.28 -1.12907 1.09954 0
M  V30 11210 C 1062.69 -1.65847 0.857417 0
M  V30 11211 C 1063.04 -1.86372 -0.613176 0
M  V30 11212 O 1062.16 -1.58654 -1.47166 0
M  V30 11213 C 1062.76 -3.01269 1.54991 0
M  V30 11214 C 1061.32 -3.51179 1.35462 0
M  V30 11215 C 1060.46 -2.26307 1.60251 0
M  V30 11216 H 1063.41 -0.96755 1.25794 0
M  V30 11217 H 1063.44 -3.675 0.986091 0
M  V30 11218 H 1062.95 -2.86299 2.6202 0
M  V30 11219 H 1061.05 -3.71343 0.305742 0
M  V30 11220 H 1061.16 -4.30955 2.09318 0
M  V30 11221 H 1059.53 -2.33167 1.02494 0
M  V30 11222 H 1060.31 -2.13896 2.68521 0
M  V30 11223 N 1062.75 -0.88754 -1.30232 0
M  V30 11224 C 1063.68 -0.372481 -2.3051 0
M  V30 11225 C 1064.66 0.546037 -1.61098 0
M  V30 11226 O 1065.85 0.459345 -1.88689 0
M  V30 11227 C 1062.98 0.411605 -3.44852 0
M  V30 11228 C 1061.93 -0.415383 -4.2598 0
M  V30 11229 C 1061.26 0.495463 -5.324 0
M  V30 11230 C 1062.56 -1.65886 -4.95257 0
M  V30 11231 H 1064.25 -1.21045 -2.7384 0
M  V30 11232 H 1061.8 -0.583498 -1.31648 0
M  V30 11233 H 1063.75 0.782584 -4.1407 0
M  V30 11234 H 1062.48 1.28325 -3.00334 0
M  V30 11235 H 1061.14 -0.768534 -3.58454 0
M  V30 11236 H 1060.78 1.36489 -4.84128 0
M  V30 11237 H 1060.48 -0.0540885 -5.87575 0
M  V30 11238 H 1062.01 0.862901 -6.04472 0
M  V30 11239 H 1063.42 -1.35832 -5.56976 0
M  V30 11240 H 1061.82 -2.14881 -5.60309 0
M  V30 11241 H 1062.89 -2.40181 -4.21237 0
M  V30 11242 N 1064.23 1.43628 -0.648757 0
M  V30 11243 C 1065.46 2.06732 -0.166284 0
M  V30 11244 C 1065.88 1.48281 1.15734 0
M  V30 11245 O 1065.24 0.591018 1.71396 0
M  V30 11246 C 1065.29 3.60502 -0.0838732 0
M  V30 11247 O 1064.39 4.01186 0.955185 0
M  V30 11248 H 1063.73 0.657479 -0.0928285 0
M  V30 11249 H 1066.26 1.84208 -0.890421 0
M  V30 11250 H 1066.27 4.07875 0.100923 0
M  V30 11251 H 1064.95 4.02424 -1.05014 0
M  V30 11252 H 1063.53 3.65412 0.743537 0
M  V30 11253 N 1065.71 0.390394 1.52688 0
M  V30 11254 C 1067.12 -0.083394 1.86514 0
M  V30 11255 C 1067.47 -1.46057 1.31003 0
M  V30 11256 O 1066.6 -2.06663 0.641809 0
M  V30 11257 C 1067.19 -0.158102 3.38431 0
M  V30 11258 C 1065.75 -0.576186 3.71964 0
M  V30 11259 C 1064.9 0.261156 2.76068 0
M  V30 11260 H 1067.85 0.608226 1.46582 0
M  V30 11261 H 1067.87 -0.977023 3.67742 0
M  V30 11262 H 1067.38 0.844365 3.78803 0
M  V30 11263 H 1065.48 -1.58598 3.37161 0
M  V30 11264 H 1065.6 -0.333577 4.77937 0
M  V30 11265 H 1063.96 -0.273737 2.53225 0
M  V30 11266 H 1064.74 1.26162 3.19277 0
M  V30 11267 N 1067.19 -1.57141 0.120249 0
M  V30 11268 C 1068.43 -1.95527 -0.538245 0
M  V30 11269 C 1068.77 -1.00373 -1.6625 0
M  V30 11270 O 1068.04 -0.0411734 -1.94456 0
M  V30 11271 C 1068.33 -3.43843 -1.06976 0
M  V30 11272 C 1068.18 -4.49771 0.0511596 0
M  V30 11273 C 1069.5 -3.94035 -1.96022 0
M  V30 11274 H 1066.62 -0.710958 -0.194183 0
M  V30 11275 H 1069.26 -1.88986 0.196061 0
M  V30 11276 H 1067.41 -3.49548 -1.69553 0
M  V30 11277 H 1069.08 -4.56163 0.686503 0
M  V30 11278 H 1067.32 -4.27882 0.714127 0
M  V30 11279 H 1067.99 -5.50812 -0.361995 0
M  V30 11280 H 1070.47 -3.9064 -1.43315 0
M  V30 11281 H 1069.35 -4.98329 -2.3013 0
M  V30 11282 H 1069.61 -3.34803 -2.8872 0
M  V30 11283 N 1068.67 0.153526 -1.5685 0
M  V30 11284 C 1069.62 1.19478 -1.94188 0
M  V30 11285 C 1070.6 1.38889 -0.812329 0
M  V30 11286 O 1071.79 1.4056 -1.07572 0
M  V30 11287 C 1068.92 2.53 -2.32047 0
M  V30 11288 C 1068.01 2.37209 -3.51557 0
M  V30 11289 N 1068.4 1.91162 -4.68285 0
M  V30 11290 C 1066.7 2.67981 -3.56514 0
M  V30 11291 C 1067.4 1.88259 -5.50394 0
M  V30 11292 N 1066.37 2.31329 -4.91923 0
M  V30 11293 H 1070.18 0.830748 -2.81915 0
M  V30 11294 H 1067.69 0.361643 -1.58322 0
M  V30 11295 H 1069.69 3.28264 -2.56998 0
M  V30 11296 H 1068.35 2.90191 -1.45669 0
M  V30 11297 H 1069.36 1.61227 -4.92165 0
M  V30 11298 H 1066.03 3.0909 -2.80659 0
M  V30 11299 H 1067.42 1.54205 -6.53965 0
M  V30 11300 N 1070.14 1.51827 0.422667 0
M  V30 11301 C 1071.09 1.74198 1.51406 0
M  V30 11302 C 1072.06 0.584013 1.55494 0
M  V30 11303 O 1073.25 0.820079 1.72277 0
M  V30 11304 C 1070.39 1.88627 2.88988 0
M  V30 11305 C 1069.5 3.16233 2.94314 0
M  V30 11306 C 1068.63 3.21172 4.2311 0
M  V30 11307 C 1067.67 4.43033 4.2236 0
M  V30 11308 N 1066.81 4.4544 5.42704 0
M  V30 11309 H 1071.65 2.67352 1.31632 0
M  V30 11310 H 1069.19 1.32487 0.63919 0
M  V30 11311 H 1071.15 1.94976 3.68837 0
M  V30 11312 H 1069.78 0.988673 3.07287 0
M  V30 11313 H 1068.83 3.19123 2.07039 0
M  V30 11314 H 1070.14 4.06104 2.89623 0
M  V30 11315 H 1069.29 3.26517 5.11343 0
M  V30 11316 H 1068.03 2.29216 4.30478 0
M  V30 11317 H 1067.04 4.37849 3.32518 0
M  V30 11318 H 1068.26 5.3627 4.16643 0
M  V30 11319 H 1066.21 3.56361 5.50766 0
M  V30 11320 H 1066.13 5.29138 5.39953 0
M  V30 11321 H 1067.39 4.54997 6.32928 0
M  V30 11322 N 1071.62 -0.679052 1.4222 0
M  V30 11323 C 1072.86 -1.45118 1.43945 0
M  V30 11324 C 1073.23 -1.91928 0.0524851 0
M  V30 11325 O 1074.43 -2.68743 -0.0555318 0
M  V30 11326 C 1072.7 -2.6191 2.43183 0
M  V30 11327 S 1074.26 -3.50819 2.63574 0
M  V30 11328 H 1071.08 -0.495695 0.509713 0
M  V30 11329 H 1073.68 -0.790842 1.7879 0
M  V30 11330 H 1072.38 -2.25752 3.42731 0
M  V30 11331 H 1071.91 -3.3282 2.09748 0
M  V30 11332 H 1073.93 -4.57735 1.91555 0
M  V30 11333 N 1073.1 -1.28322 -0.914942 0
M  V30 11334 C 1074.33 -1.1837 -1.70304 0
M  V30 11335 C 1074.75 0.254291 -1.86373 0
M  V30 11336 O 1074.11 1.18398 -1.37301 0
M  V30 11337 C 1074.16 -1.88603 -3.07346 0
M  V30 11338 O 1073.26 -1.19268 -3.94777 0
M  V30 11339 H 1072.6 -0.410978 -0.52153 0
M  V30 11340 H 1075.13 -1.69622 -1.14409 0
M  V30 11341 H 1075.14 -1.96463 -3.57584 0
M  V30 11342 H 1073.82 -2.93201 -2.94967 0
M  V30 11343 H 1072.39 -1.19563 -3.53212 0
M  V30 11344 N 1074.58 1.12322 -1.10551 0
M  V30 11345 C 1075.83 1.83858 -0.848674 0
M  V30 11346 C 1076.15 1.84159 0.62575 0
M  V30 11347 O 1075.41 1.28341 1.4774 0
M  V30 11348 C 1075.71 3.31177 -1.34375 0
M  V30 11349 C 1075.37 3.51046 -2.8298 0
M  V30 11350 C 1074.04 3.56177 -3.23561 0
M  V30 11351 C 1076.39 3.58061 -3.78737 0
M  V30 11352 C 1073.72 3.65868 -4.58647 0
M  V30 11353 C 1076.07 3.69283 -5.13627 0
M  V30 11354 C 1074.73 3.7267 -5.53781 0
M  V30 11355 H 1074 0.672784 -0.310552 0
M  V30 11356 H 1076.65 1.3253 -1.38232 0
M  V30 11357 H 1074.95 3.84937 -0.730144 0
M  V30 11358 H 1076.65 3.84998 -1.12148 0
M  V30 11359 H 1073.24 3.47716 -2.50582 0
M  V30 11360 H 1077.42 3.53366 -3.48491 0
M  V30 11361 H 1072.68 3.66763 -4.89178 0
M  V30 11362 H 1076.85 3.73654 -5.8767 0
M  V30 11363 H 1074.48 3.79932 -6.58449 0
M  V30 11364 N 1076.06 0.894434 1.2976 0
M  V30 11365 C 1077.29 0.532143 1.99629 0
M  V30 11366 C 1077.69 -0.886234 1.6716 0
M  V30 11367 O 1077.04 -1.59573 0.910065 0
M  V30 11368 C 1077.1 0.638335 3.53787 0
M  V30 11369 C 1076.76 2.02273 4.09798 0
M  V30 11370 C 1077.76 2.99327 4.25087 0
M  V30 11371 C 1075.45 2.33069 4.44954 0
M  V30 11372 C 1077.44 4.25304 4.74758 0
M  V30 11373 C 1075.13 3.59289 4.94322 0
M  V30 11374 C 1076.12 4.55222 5.09178 0
M  V30 11375 O 1075.81 5.79202 5.57477 0
M  V30 11376 H 1075.54 0.203326 0.644697 0
M  V30 11377 H 1078.1 1.2043 1.6639 0
M  V30 11378 H 1076.33 -0.0908338 3.86593 0
M  V30 11379 H 1078.02 0.285956 4.04891 0
M  V30 11380 H 1078.78 2.76849 3.9822 0
M  V30 11381 H 1074.66 1.59162 4.32653 0
M  V30 11382 H 1078.21 5.00189 4.86269 0
M  V30 11383 H 1074.1 3.816 5.20626 0
M  V30 11384 H 1074.87 5.81717 5.75802 0
M  V30 11385 N 1077.53 -1.43282 0.656365 0
M  V30 11386 C 1078.48 -2.30776 -0.0333155 0
M  V30 11387 C 1079.45 -1.44928 -0.811493 0
M  V30 11388 O 1080.64 -1.73792 -0.787465 0
M  V30 11389 C 1077.78 -3.30548 -0.991566 0
M  V30 11390 C 1076.89 -4.31493 -0.209159 0
M  V30 11391 C 1076.02 -5.18346 -1.16149 0
M  V30 11392 C 1075.06 -6.10983 -0.369699 0
M  V30 11393 N 1074.2 -6.90449 -1.27378 0
M  V30 11394 H 1079.04 -2.89204 0.718668 0
M  V30 11395 H 1076.58 -1.4247 0.366161 0
M  V30 11396 H 1078.54 -3.86905 -1.56078 0
M  V30 11397 H 1077.17 -2.73762 -1.71039 0
M  V30 11398 H 1076.22 -3.77405 0.476394 0
M  V30 11399 H 1077.53 -4.97142 0.406394 0
M  V30 11400 H 1076.68 -5.79345 -1.80124 0
M  V30 11401 H 1075.42 -4.52831 -1.81095 0
M  V30 11402 H 1074.43 -5.49069 0.283377 0
M  V30 11403 H 1075.65 -6.78541 0.275399 0
M  V30 11404 H 1073.6 -6.27579 -1.90999 0
M  V30 11405 H 1073.52 -7.52631 -0.71287 0
M  V30 11406 H 1074.78 -7.5595 -1.90158 0
M  V30 11407 N 1079.01 -0.398486 -1.52479 0
M  V30 11408 C 1079.96 0.447001 -2.28264 0
M  V30 11409 C 1080.96 1.05511 -1.32529 0
M  V30 11410 O 1082.16 0.994528 -1.5003 0
M  V30 11411 H 1078.54 0.162919 -0.73414 0
M  V30 11412 H 1080.51 -0.213534 -2.97635 0
M  V30 11413 C 1079.26 1.55724 -3.10879 0
M  V30 11414 H 1078.58 1.09864 -3.84409 0
M  V30 11415 H 1080.02 2.12286 -3.67029 0
M  V30 11416 C 1078.48 2.51853 -2.23768 0
M  V30 11417 O 1079.01 3.55483 -1.87069 0
M  V30 11418 N 1077.21 2.2181 -1.87746 0
M  V30 11419 H 1076.76 1.3757 -2.17789 0
M  V30 11420 H 1076.72 2.86376 -1.29753 0
M  V30 11421 N 1080.49 1.57075 -0.12858 0
M  V30 11422 C 1081.44 2.17084 0.835308 0
M  V30 11423 C 1082.43 1.12268 1.26855 0
M  V30 11424 O 1083.64 1.30554 1.23917 0
M  V30 11425 H 1080.01 0.694866 0.287516 0
M  V30 11426 H 1081.99 2.96839 0.304798 0
M  V30 11427 C 1080.73 2.79237 2.07177 0
M  V30 11428 H 1080.06 3.59594 1.74735 0
M  V30 11429 H 1081.5 3.24751 2.72604 0
M  V30 11430 C 1079.96 1.76803 2.86779 0
M  V30 11431 O 1080.49 1.22723 3.82494 0
M  V30 11432 N 1078.69 1.46525 2.50956 0
M  V30 11433 H 1078.24 1.90694 1.73187 0
M  V30 11434 H 1078.2 0.782326 3.04511 0
M  V30 11435 N 1081.97 -0.145205 1.5693 0
M  V30 11436 C 1083.2 -0.872398 1.87608 0
M  V30 11437 C 1083.61 -1.74657 0.716975 0
M  V30 11438 O 1082.97 -1.79792 -0.3132 0
M  V30 11439 C 1083.02 -1.72762 3.17546 0
M  V30 11440 O 1082.74 -0.888681 4.28992 0
M  V30 11441 C 1084.24 -2.56224 3.61751 0
M  V30 11442 H 1081.46 -0.252166 0.621815 0
M  V30 11443 H 1084.01 -0.137456 2.04038 0
M  V30 11444 H 1082.16 -2.41561 3.02865 0
M  V30 11445 H 1082.58 -1.47601 5.03303 0
M  V30 11446 H 1084.05 -3.11804 4.55502 0
M  V30 11447 H 1084.53 -3.32347 2.87127 0
M  V30 11448 H 1085.13 -1.92714 3.79133 0
M  V30 11449 N 1083.45 -1.52049 -0.414609 0
M  V30 11450 C 1084.39 -1.74998 -1.5048 0
M  V30 11451 C 1085.36 -0.592251 -1.55182 0
M  V30 11452 O 1086.55 -0.829203 -1.7184 0
M  V30 11453 C 1083.69 -1.90157 -2.87983 0
M  V30 11454 C 1082.8 -3.17789 -2.92633 0
M  V30 11455 C 1081.94 -3.23411 -4.21401 0
M  V30 11456 C 1080.98 -4.45267 -4.20004 0
M  V30 11457 N 1080.11 -4.48312 -5.40334 0
M  V30 11458 H 1084.95 -2.68046 -1.30212 0
M  V30 11459 H 1082.49 -1.32824 -0.632154 0
M  V30 11460 H 1084.45 -1.96929 -3.67797 0
M  V30 11461 H 1083.08 -1.00496 -3.06758 0
M  V30 11462 H 1082.13 -3.20216 -2.05343 0
M  V30 11463 H 1083.44 -4.07634 -2.87465 0
M  V30 11464 H 1082.6 -3.29224 -5.09604 0
M  V30 11465 H 1081.34 -2.31495 -4.29257 0
M  V30 11466 H 1080.34 -4.39606 -3.30192 0
M  V30 11467 H 1081.57 -5.38472 -4.13793 0
M  V30 11468 H 1079.51 -3.59277 -5.48868 0
M  V30 11469 H 1079.43 -5.31994 -5.37139 0
M  V30 11470 H 1080.7 -4.58347 -6.30506 0
M  V30 11471 N 1084.93 0.6715 -1.42579 0
M  V30 11472 C 1086.17 1.43366 -1.43436 0
M  V30 11473 C 1086.5 1.94131 -0.0517339 0
M  V30 11474 O 1085.78 1.71121 0.924548 0
M  V30 11475 C 1086.06 2.62832 -2.46154 0
M  V30 11476 C 1085.92 2.17677 -3.9362 0
M  V30 11477 C 1087.23 3.65049 -2.4582 0
M  V30 11478 H 1084.35 0.519967 -0.522306 0
M  V30 11479 H 1087 0.762849 -1.74013 0
M  V30 11480 H 1085.15 3.20062 -2.2021 0
M  V30 11481 H 1086.82 1.65588 -4.30556 0
M  V30 11482 H 1085.06 1.49219 -4.07328 0
M  V30 11483 H 1085.73 3.03503 -4.61075 0
M  V30 11484 H 1088.21 3.17541 -2.68899 0
M  V30 11485 H 1087.08 4.46213 -3.19664 0
M  V30 11486 H 1087.34 4.16401 -1.48536 0
M  V30 11487 N 1086.4 1.28806 0.908124 0
M  V30 11488 C 1087.63 1.19271 1.69674 0
M  V30 11489 C 1088.05 -0.244403 1.86505 0
M  V30 11490 O 1087.41 -1.17668 1.37927 0
M  V30 11491 C 1087.46 1.9023 3.06341 0
M  V30 11492 O 1086.56 1.2136 3.94139 0
M  V30 11493 H 1085.9 0.413738 0.519343 0
M  V30 11494 H 1088.43 1.70227 1.13508 0
M  V30 11495 H 1088.44 1.98356 3.56537 0
M  V30 11496 H 1087.12 2.94762 2.93408 0
M  V30 11497 H 1085.7 1.21435 3.52573 0
M  V30 11498 N 1087.88 -1.11734 1.11145 0
M  V30 11499 C 1089.11 -1.86943 0.879534 0
M  V30 11500 C 1089.52 -1.80283 -0.574007 0
M  V30 11501 O 1088.86 -1.17998 -1.40791 0
M  V30 11502 C 1088.92 -3.36738 1.25887 0
M  V30 11503 C 1088.59 -3.67169 2.72095 0
M  V30 11504 C 1089.59 -3.6491 3.7032 0
M  V30 11505 C 1087.27 -3.96272 3.08665 0
M  V30 11506 C 1089.26 -3.91325 5.03134 0
M  V30 11507 C 1086.95 -4.22345 4.41665 0
M  V30 11508 C 1087.95 -4.19859 5.38709 0
M  V30 11509 O 1087.64 -4.4528 6.69314 0
M  V30 11510 H 1087.37 -0.598117 0.315011 0
M  V30 11511 H 1089.92 -1.42253 1.48166 0
M  V30 11512 H 1088.15 -3.82019 0.599873 0
M  V30 11513 H 1089.84 -3.93306 1.00325 0
M  V30 11514 H 1090.61 -3.42481 3.43412 0
M  V30 11515 H 1086.49 -3.97344 2.33749 0
M  V30 11516 H 1090.03 -3.893 5.78871 0
M  V30 11517 H 1085.93 -4.4425 4.68308 0
M  V30 11518 H 1086.7 -4.62863 6.75056 0
M  V30 11519 N 1089.36 -0.901303 -1.29284 0
M  V30 11520 C 1090.61 -0.527 -1.95108 0
M  V30 11521 C 1090.93 0.930065 -1.71391 0
M  V30 11522 O 1090.2 1.65601 -1.04658 0
M  V30 11523 H 1088.78 -0.191903 -0.721929 0
M  V30 11524 H 1091.44 -1.14795 -1.57506 0
M  V30 11525 H 1090.54 -0.710945 -3.03895 0
M  V30 11526 N 1090.84 1.42931 -0.663954 0
M  V30 11527 C 1092.08 2.01683 -0.181738 0
M  V30 11528 C 1092.41 1.52437 1.20802 0
M  V30 11529 O 1091.67 0.71254 1.82267 0
M  V30 11530 C 1091.97 3.57072 -0.153163 0
M  V30 11531 C 1091.63 4.25706 -1.48612 0
M  V30 11532 C 1090.29 4.4417 -1.85111 0
M  V30 11533 C 1092.65 4.6448 -2.36448 0
M  V30 11534 C 1089.97 4.98677 -3.09092 0
M  V30 11535 C 1092.33 5.20362 -3.5973 0
M  V30 11536 C 1090.99 5.37041 -3.96412 0
M  V30 11537 H 1090.26 0.73801 -0.0665026 0
M  V30 11538 H 1092.91 1.71264 -0.856791 0
M  V30 11539 H 1091.21 3.87095 0.605372 0
M  V30 11540 H 1092.91 4.00299 0.236981 0
M  V30 11541 H 1089.5 4.11686 -1.19215 0
M  V30 11542 H 1093.68 4.49898 -2.09537 0
M  V30 11543 H 1088.94 5.09776 -3.37547 0
M  V30 11544 H 1093.11 5.49352 -4.28001 0
M  V30 11545 H 1090.74 5.79042 -4.92559 0
M  V30 11546 N 1092.32 0.406567 1.52266 0
M  V30 11547 C 1093.25 -0.411314 2.29849 0
M  V30 11548 C 1094.23 -1.04838 1.33952 0
M  V30 11549 O 1095.41 -1.05788 1.62857 0
M  V30 11550 C 1092.54 -1.52961 3.11802 0
M  V30 11551 C 1091.5 -1.01768 4.15725 0
M  V30 11552 C 1090.82 -2.22938 4.86007 0
M  V30 11553 C 1092.12 -0.073515 5.22248 0
M  V30 11554 H 1093.82 0.236054 2.98468 0
M  V30 11555 H 1091.36 0.114968 1.4354 0
M  V30 11556 H 1093.31 -2.10874 3.64843 0
M  V30 11557 H 1092.04 -2.20482 2.40947 0
M  V30 11558 H 1090.7 -0.46097 3.6369 0
M  V30 11559 H 1090.35 -2.89007 4.11684 0
M  V30 11560 H 1090.05 -1.89338 5.5626 0
M  V30 11561 H 1091.57 -2.81462 5.41859 0
M  V30 11562 H 1092.98 -0.561367 5.70545 0
M  V30 11563 H 1091.38 0.173551 5.99849 0
M  V30 11564 H 1092.45 0.872524 4.76985 0
M  V30 11565 N 1093.79 -1.57004 0.136909 0
M  V30 11566 C 1095.02 -2.00587 -0.527209 0
M  V30 11567 C 1095.44 -1.01628 -1.58283 0
M  V30 11568 O 1094.8 0.00946934 -1.81298 0
M  V30 11569 C 1094.85 -3.42967 -1.11384 0
M  V30 11570 O 1093.95 -3.46973 -2.22898 0
M  V30 11571 H 1093.3 -0.651155 -0.129976 0
M  V30 11572 H 1095.83 -2.03296 0.230667 0
M  V30 11573 H 1095.84 -3.81555 -1.44499 0
M  V30 11574 H 1094.51 -4.14502 -0.340736 0
M  V30 11575 H 1093.09 -3.20219 -1.91087 0
M  V30 11576 N 1095.27 0.136881 -1.57004 0
M  V30 11577 C 1096.68 0.695911 -1.73245 0
M  V30 11578 C 1097.03 1.8118 -0.75288 0
M  V30 11579 O 1096.16 2.16258 0.0782477 0
M  V30 11580 C 1096.75 1.26914 -3.14131 0
M  V30 11581 C 1095.31 1.77463 -3.31939 0
M  V30 11582 C 1094.46 0.667128 -2.69156 0
M  V30 11583 H 1097.41 -0.0888841 -1.58451 0
M  V30 11584 H 1097.43 2.13892 -3.14691 0
M  V30 11585 H 1096.94 0.456754 -3.85403 0
M  V30 11586 H 1095.05 2.61236 -2.65681 0
M  V30 11587 H 1095.16 1.89638 -4.39971 0
M  V30 11588 H 1093.52 1.09629 -2.29899 0
M  V30 11589 H 1094.31 -0.13398 -3.43038 0
M  V30 11590 N 1096.75 1.52266 0.40654 0
M  V30 11591 C 1098.16 1.58587 0.985241 0
M  V30 11592 C 1098.51 0.427955 1.91476 0
M  V30 11593 O 1097.64 -0.451341 2.11641 0
M  V30 11594 C 1098.23 2.87426 1.79365 0
M  V30 11595 C 1096.79 2.96217 2.32233 0
M  V30 11596 C 1095.94 2.53548 1.12288 0
M  V30 11597 H 1098.89 1.57598 0.186685 0
M  V30 11598 H 1098.91 2.72925 2.65127 0
M  V30 11599 H 1098.42 3.71682 1.11687 0
M  V30 11600 H 1096.52 2.1646 3.03275 0
M  V30 11601 H 1096.64 4.00511 2.62922 0
M  V30 11602 H 1095 2.07457 1.47763 0
M  V30 11603 H 1095.78 3.40181 0.461731 0
M  V30 11604 N 1098.23 -0.663929 1.42933 0
M  V30 11605 C 1099.16 -1.78946 1.43217 0
M  V30 11606 C 1100.17 -1.59426 0.329727 0
M  V30 11607 O 1101.36 -1.68344 0.5935 0
M  V30 11608 C 1098.46 -3.16217 1.21902 0
M  V30 11609 C 1097.64 -3.6249 2.44785 0
M  V30 11610 C 1096.69 -4.78529 2.18853 0
M  V30 11611 O 1095.72 -4.88516 2.92131 0
M  V30 11612 N 1096.92 -5.67994 1.19845 0
M  V30 11613 H 1099.69 -1.79184 2.40236 0
M  V30 11614 H 1097.25 -0.847404 1.37952 0
M  V30 11615 H 1099.24 -3.91517 1.02454 0
M  V30 11616 H 1097.81 -3.10814 0.333676 0
M  V30 11617 H 1097.03 -2.77751 2.79729 0
M  V30 11618 H 1098.32 -3.90151 3.26588 0
M  V30 11619 H 1097.72 -5.62588 0.59259 0
M  V30 11620 H 1096.27 -6.4306 1.06382 0
M  V30 11621 N 1099.71 -1.29285 -0.901281 0
M  V30 11622 C 1100.64 -1.16832 -2.0217 0
M  V30 11623 C 1101.62 -0.0629265 -1.69984 0
M  V30 11624 O 1102.8 -0.242123 -1.92685 0
M  V30 11625 C 1099.93 -0.842406 -3.36929 0
M  V30 11626 C 1098.89 -1.90394 -3.8332 0
M  V30 11627 C 1098.21 -1.43138 -5.15185 0
M  V30 11628 C 1099.51 -3.31254 -4.03817 0
M  V30 11629 H 1101.21 -2.10562 -2.12847 0
M  V30 11630 H 1098.75 -1.01375 -1.0227 0
M  V30 11631 H 1100.71 -0.741999 -4.14816 0
M  V30 11632 H 1099.43 0.130598 -3.26339 0
M  V30 11633 H 1098.09 -1.99371 -3.07647 0
M  V30 11634 H 1097.74 -0.447091 -5.01009 0
M  V30 11635 H 1097.44 -2.14129 -5.47195 0
M  V30 11636 H 1098.96 -1.34444 -5.95615 0
M  V30 11637 H 1100.37 -3.25129 -4.72191 0
M  V30 11638 H 1098.77 -4.00189 -4.47178 0
M  V30 11639 H 1099.84 -3.74349 -3.08206 0
M  V30 11640 N 1101.18 1.11143 -1.11736 0
M  V30 11641 C 1102.13 2.19358 -0.773626 0
M  V30 11642 C 1103.13 1.67744 0.236288 0
M  V30 11643 O 1104.33 1.79748 0.09525 0
M  V30 11644 H 1100.71 0.715218 -0.232309 0
M  V30 11645 H 1102.68 2.45594 -1.69487 0
M  V30 11646 C 1101.43 3.46895 -0.236457 0
M  V30 11647 H 1100.75 3.86967 -1.00483 0
M  V30 11648 H 1102.19 4.23986 -0.034168 0
M  V30 11649 C 1100.65 3.20641 1.03397 0
M  V30 11650 O 1101.18 3.41629 2.11312 0
M  V30 11651 N 1099.39 2.74356 0.957986 0
M  V30 11652 H 1098.93 2.57477 0.0796924 0
M  V30 11653 H 1098.89 2.57166 1.80867 0
M  V30 11654 N 1102.66 0.908147 1.28804 0
M  V30 11655 C 1103.61 0.390734 2.27468 0
M  V30 11656 C 1104.58 -0.531765 1.57358 0
M  V30 11657 O 1105.76 -0.455177 1.85291 0
M  V30 11658 C 1102.9 -0.368159 3.43131 0
M  V30 11659 C 1102.02 0.586202 4.28004 0
M  V30 11660 C 1101.15 -0.190581 5.30858 0
M  V30 11661 C 1100.19 0.757758 6.07391 0
M  V30 11662 N 1099.33 0.0148488 7.02098 0
M  V30 11663 H 1104.17 1.23717 2.71105 0
M  V30 11664 H 1101.71 0.621382 1.33331 0
M  V30 11665 H 1103.66 -0.824289 4.08976 0
M  V30 11666 H 1102.29 -1.17898 3.00499 0
M  V30 11667 H 1101.35 1.16086 3.62254 0
M  V30 11668 H 1102.66 1.31177 4.81242 0
M  V30 11669 H 1101.81 -0.707528 6.0256 0
M  V30 11670 H 1100.55 -0.949234 4.78373 0
M  V30 11671 H 1099.56 1.28613 5.34545 0
M  V30 11672 H 1100.78 1.51588 6.61965 0
M  V30 11673 H 1098.73 -0.725916 6.51971 0
M  V30 11674 H 1098.64 0.680347 7.52932 0
M  V30 11675 H 1099.91 -0.482086 7.78008 0
M  V30 11676 N 1104.14 -1.42577 0.671525 0
M  V30 11677 C 1105.09 -2.32591 -0.0205354 0
M  V30 11678 C 1106.08 -1.4964 -0.793993 0
M  V30 11679 O 1107.29 -1.65733 -0.702327 0
M  V30 11680 H 1103.66 -0.75157 -0.0254344 0
M  V30 11681 H 1105.63 -2.88662 0.756082 0
M  V30 11682 C 1104.38 -3.34175 -0.960316 0
M  V30 11683 H 1103.71 -3.98041 -0.374577 0
M  V30 11684 H 1105.15 -3.99752 -1.4133 0
M  V30 11685 C 1103.61 -2.66184 -2.06513 0
M  V30 11686 O 1104.14 -2.49125 -3.15119 0
M  V30 11687 N 1102.34 -2.25261 -1.83591 0
M  V30 11688 H 1101.89 -2.39336 -0.952689 0
M  V30 11689 H 1101.85 -1.80101 -2.57703 0
M  V30 11690 N 1105.62 -0.414636 -1.52048 0
M  V30 11691 C 1106.84 0.161137 -2.06773 0
M  V30 11692 C 1107.27 1.37628 -1.2822 0
M  V30 11693 O 1106.63 1.78562 -0.313915 0
M  V30 11694 C 1106.67 0.48452 -3.5733 0
M  V30 11695 O 1105.78 1.57466 -3.81154 0
M  V30 11696 H 1105.12 0.0118003 -0.663895 0
M  V30 11697 H 1107.65 -0.589424 -1.95926 0
M  V30 11698 H 1107.66 0.741567 -4.01204 0
M  V30 11699 H 1106.33 -0.403733 -4.13936 0
M  V30 11700 H 1104.91 1.30935 -3.49157 0
M  V30 11701 N 1107.1 1.56929 -0.145233 0
M  V30 11702 C 1108.32 2.00864 0.516564 0
M  V30 11703 C 1108.75 1.02466 1.57741 0
M  V30 11704 O 1108.1 0.000145439 1.813 0
M  V30 11705 C 1108.15 3.43552 1.09563 0
M  V30 11706 O 1107.26 3.4815 2.21055 0
M  V30 11707 H 1106.6 0.651835 0.126521 0
M  V30 11708 H 1109.13 2.0317 -0.241445 0
M  V30 11709 H 1109.14 3.82316 1.42473 0
M  V30 11710 H 1107.81 4.14677 0.318749 0
M  V30 11711 H 1106.39 3.21228 1.89387 0
M  V30 11712 N 1108.58 -0.128553 1.57075 0
M  V30 11713 C 1109.82 -0.836355 1.83982 0
M  V30 11714 C 1110.14 -1.80862 0.728971 0
M  V30 11715 O 1109.41 -1.94326 -0.247859 0
M  V30 11716 H 1107.99 -0.31185 0.678792 0
M  V30 11717 H 1110.66 -0.118153 1.94542 0
M  V30 11718 H 1109.75 -1.38741 2.79567 0
M  V30 11719 N 1110.05 -1.5248 -0.398459 0
M  V30 11720 C 1111.3 -1.66287 -1.14155 0
M  V30 11721 C 1111.62 -0.40429 -1.91376 0
M  V30 11722 O 1112.82 -0.422341 -2.68195 0
M  V30 11723 C 1111.28 -2.93831 -2.07825 0
M  V30 11724 C 1110.89 -4.26836 -1.3607 0
M  V30 11725 C 1112.63 -3.17004 -2.82327 0
M  V30 11726 C 1110.54 -5.45495 -2.28451 0
M  V30 11727 H 1109.47 -0.619478 -0.42984 0
M  V30 11728 H 1112.12 -1.78972 -0.405112 0
M  V30 11729 H 1110.5 -2.7487 -2.85065 0
M  V30 11730 H 1111.67 -4.56317 -0.641205 0
M  V30 11731 H 1109.99 -4.0985 -0.735659 0
M  V30 11732 H 1112.59 -4.02834 -3.51609 0
M  V30 11733 H 1112.93 -2.3168 -3.45876 0
M  V30 11734 H 1113.46 -3.36487 -2.12183 0
M  V30 11735 H 1110.2 -6.33198 -1.69532 0
M  V30 11736 H 1109.72 -5.20338 -2.98343 0
M  V30 11737 H 1111.4 -5.78996 -2.88743 0
M  V30 11738 N 1111.53 0.65634 -1.43283 0
M  V30 11739 C 1112.76 1.44199 -1.47954 0
M  V30 11740 C 1113.17 1.88961 -0.0950315 0
M  V30 11741 O 1112.51 1.59895 0.904388 0
M  V30 11742 C 1112.57 2.71161 -2.36033 0
M  V30 11743 C 1112.24 2.48359 -3.83623 0
M  V30 11744 C 1113.24 2.1178 -4.74811 0
M  V30 11745 C 1110.92 2.6278 -4.28079 0
M  V30 11746 C 1112.91 1.89915 -6.0845 0
M  V30 11747 C 1110.6 2.4053 -5.61772 0
M  V30 11748 C 1111.6 2.04154 -6.51775 0
M  V30 11749 O 1111.29 1.82134 -7.82996 0
M  V30 11750 H 1111.02 0.449567 -0.504842 0
M  V30 11751 H 1113.57 0.812234 -1.88658 0
M  V30 11752 H 1111.8 3.36685 -1.9021 0
M  V30 11753 H 1113.49 3.33102 -2.31944 0
M  V30 11754 H 1114.26 2.00217 -4.41744 0
M  V30 11755 H 1110.14 2.9007 -3.58302 0
M  V30 11756 H 1113.68 1.61445 -6.78661 0
M  V30 11757 H 1109.58 2.51695 -5.94407 0
M  V30 11758 H 1110.35 1.96584 -7.94542 0
M  V30 11759 N 1113.01 1.29761 0.894412 0
M  V30 11760 C 1114.23 1.21064 1.68399 0
M  V30 11761 C 1114.66 -0.224608 1.86754 0
M  V30 11762 O 1114.02 -1.16199 1.39167 0
M  V30 11763 C 1114.07 1.93468 3.04306 0
M  V30 11764 O 1113.17 1.25533 3.9283 0
M  V30 11765 H 1112.51 0.419223 0.514925 0
M  V30 11766 H 1115.04 1.71421 1.11696 0
M  V30 11767 H 1115.05 2.02127 3.54413 0
M  V30 11768 H 1113.73 2.97857 2.90265 0
M  V30 11769 H 1112.3 1.25168 3.51266 0
M  V30 11770 N 1114.49 -1.10549 1.12324 0
M  V30 11771 C 1115.4 -2.20428 0.803032 0
M  V30 11772 C 1116.41 -1.72756 -0.207674 0
M  V30 11773 O 1117.59 -2.01357 -0.0415623 0
M  V30 11774 C 1114.65 -3.45716 0.261032 0
M  V30 11775 C 1113.72 -4.08129 1.33152 0
M  V30 11776 C 1112.95 -5.27436 0.815288 0
M  V30 11777 O 1113.17 -5.69317 -0.351361 0
M  V30 11778 O 1112.11 -5.80674 1.58434 0
M  V30 11779 H 1115.93 -2.50249 1.72073 0
M  V30 11780 H 1113.52 -1.19263 0.899815 0
M  V30 11781 H 1115.4 -4.21384 -0.0364007 0
M  V30 11782 H 1114.07 -3.17525 -0.629249 0
M  V30 11783 H 1112.98 -3.3415 1.6821 0
M  V30 11784 H 1114.31 -4.4052 2.19552 0
M  V30 11785 N 1115.97 -0.914965 -1.28321 0
M  V30 11786 C 1116.93 -0.409024 -2.25521 0
M  V30 11787 C 1117.93 0.465327 -1.5392 0
M  V30 11788 O 1119.12 0.26821 -1.72123 0
M  V30 11789 C 1116.25 0.413452 -3.38383 0
M  V30 11790 H 1117.44 -1.26767 -2.71791 0
M  V30 11791 H 1115 -0.694477 -1.40024 0
M  V30 11792 H 1115.73 1.29145 -2.97476 0
M  V30 11793 H 1115.52 -0.213268 -3.9152 0
M  V30 11794 H 1117.01 0.758232 -4.10659 0
M  V30 11795 N 1117.44 1.42219 -0.679077 0
M  V30 11796 C 1118.37 2.33493 -0.0174528 0
M  V30 11797 C 1119.35 1.50915 0.78477 0
M  V30 11798 O 1120.54 1.79504 0.741065 0
M  V30 11799 C 1117.67 3.34576 0.931463 0
M  V30 11800 C 1116.62 4.2734 0.237527 0
M  V30 11801 C 1115.95 5.18664 1.29967 0
M  V30 11802 C 1117.25 5.14729 -0.886082 0
M  V30 11803 H 1118.94 2.89068 -0.779748 0
M  V30 11804 H 1116.49 1.38993 -0.376419 0
M  V30 11805 H 1118.44 3.97343 1.40343 0
M  V30 11806 H 1117.17 2.77315 1.72523 0
M  V30 11807 H 1115.83 3.65973 -0.214245 0
M  V30 11808 H 1115.47 4.57727 2.08554 0
M  V30 11809 H 1115.17 5.81558 0.840463 0
M  V30 11810 H 1116.7 5.84308 1.77249 0
M  V30 11811 H 1118.11 5.71158 -0.495141 0
M  V30 11812 H 1116.51 5.86478 -1.27135 0
M  V30 11813 H 1117.58 4.52874 -1.733 0
M  V30 11814 N 1118.92 0.422693 1.51826 0
M  V30 11815 C 1119.85 -0.386913 2.30272 0
M  V30 11816 C 1120.83 -1.03411 1.35056 0
M  V30 11817 O 1122.02 -1.04055 1.6397 0
M  V30 11818 C 1119.15 -1.49645 3.13407 0
M  V30 11819 C 1118.1 -0.973532 4.16781 0
M  V30 11820 C 1117.43 -2.1777 4.88344 0
M  V30 11821 C 1118.73 -0.0181194 5.22297 0
M  V30 11822 H 1120.42 0.267697 2.98201 0
M  V30 11823 H 1117.97 0.130186 1.4341 0
M  V30 11824 H 1119.92 -2.06993 3.67059 0
M  V30 11825 H 1118.64 -2.17914 2.43272 0
M  V30 11826 H 1117.3 -0.42237 3.64159 0
M  V30 11827 H 1116.95 -2.84625 4.14726 0
M  V30 11828 H 1116.65 -1.83427 5.58237 0
M  V30 11829 H 1118.18 -2.75699 5.44814 0
M  V30 11830 H 1119.59 -0.500822 5.71108 0
M  V30 11831 H 1117.99 0.237163 5.99631 0
M  V30 11832 H 1119.06 0.923065 4.76033 0
M  V30 11833 N 1120.4 -1.5685 0.153553 0
M  V30 11834 C 1121.63 -2.00701 -0.502678 0
M  V30 11835 C 1122.04 -1.0337 -1.57988 0
M  V30 11836 O 1121.4 -0.0317233 -1.82472 0
M  V30 11837 C 1121.45 -3.44443 -1.09732 0
M  V30 11838 O 1121.17 -4.38054 -0.0631405 0
M  V30 11839 C 1122.67 -4.03605 -1.83352 0
M  V30 11840 H 1119.89 -0.658229 -0.130289 0
M  V30 11841 H 1122.44 -2.02965 0.250063 0
M  V30 11842 H 1120.59 -3.43009 -1.80065 0
M  V30 11843 H 1121.01 -5.22114 -0.499681 0
M  V30 11844 H 1122.48 -5.0616 -2.20241 0
M  V30 11845 H 1122.96 -3.44687 -2.7219 0
M  V30 11846 H 1123.56 -4.08688 -1.17703 0
M  V30 11847 N 1121.88 0.120221 -1.57141 0
M  V30 11848 C 1123.11 0.842441 -1.88972 0
M  V30 11849 C 1123.52 1.73494 -0.744671 0
M  V30 11850 O 1122.88 1.80268 0.284557 0
M  V30 11851 C 1122.93 1.67688 -3.20254 0
M  V30 11852 O 1122.65 0.820319 -4.30351 0
M  V30 11853 C 1124.15 2.50436 -3.65782 0
M  V30 11854 H 1121.37 0.242241 -0.625748 0
M  V30 11855 H 1123.91 0.104978 -2.0423 0
M  V30 11856 H 1122.07 2.36712 -3.0667 0
M  V30 11857 H 1122.48 1.39575 -5.05588 0
M  V30 11858 H 1123.96 3.04518 -4.60405 0
M  V30 11859 H 1124.43 3.27737 -2.92378 0
M  V30 11860 H 1125.04 1.86657 -3.82151 0
M  V30 11861 N 1123.36 1.52689 0.390367 0
M  V30 11862 C 1124.3 1.78007 1.4972 0
M  V30 11863 C 1125.3 0.647948 1.56518 0
M  V30 11864 O 1126.5 0.830398 1.59701 0
M  V30 11865 H 1122.88 0.56322 0.498284 0
M  V30 11866 H 1124.85 2.70698 1.25559 0
M  V30 11867 C 1123.6 1.96469 2.86872 0
M  V30 11868 H 1122.92 2.83012 2.82391 0
M  V30 11869 H 1124.36 2.18174 3.6356 0
M  V30 11870 C 1122.82 0.736847 3.28743 0
M  V30 11871 O 1123.35 -0.0863743 4.01607 0
M  V30 11872 N 1121.56 0.56735 2.85008 0
M  V30 11873 H 1121.1 1.23838 2.2588 0
M  V30 11874 H 1121.06 -0.252831 3.13382 0
M  V30 11875 N 1124.83 -0.648732 1.43629 0
M  V30 11876 C 1126.08 -1.40446 1.44768 0
M  V30 11877 C 1126.4 -1.95447 0.0773445 0
M  V30 11878 O 1127.6 -2.71479 -0.0337942 0
M  V30 11879 C 1126.06 -2.54194 2.54781 0
M  V30 11880 C 1125.67 -2.05781 3.97942 0
M  V30 11881 C 1127.41 -3.31529 2.65121 0
M  V30 11882 C 1125.32 -3.16767 4.99412 0
M  V30 11883 H 1124.25 -0.527717 0.538545 0
M  V30 11884 H 1126.9 -0.699756 1.69634 0
M  V30 11885 H 1125.28 -3.27156 2.23125 0
M  V30 11886 H 1126.45 -1.398 4.39081 0
M  V30 11887 H 1124.77 -1.41312 3.91688 0
M  V30 11888 H 1127.37 -4.14233 3.38105 0
M  V30 11889 H 1127.71 -3.79855 1.70341 0
M  V30 11890 H 1128.24 -2.65649 2.961 0
M  V30 11891 H 1124.98 -2.73404 5.9576 0
M  V30 11892 H 1124.5 -3.81445 4.62882 0
M  V30 11893 H 1126.18 -3.81827 5.22319 0
M  V30 11894 N 1126.31 -1.30234 -0.887518 0
M  V30 11895 C 1127.56 -1.19086 -1.64153 0
M  V30 11896 C 1127.89 0.254428 -1.92526 0
M  V30 11897 O 1127.17 1.18233 -1.54438 0
M  V30 11898 C 1127.45 -2.01723 -2.98295 0
M  V30 11899 C 1127.3 -3.54458 -2.76911 0
M  V30 11900 C 1128.62 -1.85307 -3.99186 0
M  V30 11901 H 1125.74 -0.433967 -0.595686 0
M  V30 11902 H 1128.38 -1.59839 -1.0272 0
M  V30 11903 H 1126.53 -1.67096 -3.5073 0
M  V30 11904 H 1128.2 -3.99131 -2.31284 0
M  V30 11905 H 1126.45 -3.78768 -2.11464 0
M  V30 11906 H 1127.12 -4.07565 -3.72283 0
M  V30 11907 H 1129.59 -2.15575 -3.55903 0
M  V30 11908 H 1128.47 -2.45456 -4.90961 0
M  V30 11909 H 1128.73 -0.811528 -4.34588 0
M  V30 11910 N 1127.79 1.09952 -1.12909 0
M  V30 11911 C 1129.2 1.63516 -0.901087 0
M  V30 11912 C 1129.55 1.87932 0.563547 0
M  V30 11913 O 1128.68 1.625 1.42908 0
M  V30 11914 C 1129.27 2.97054 -1.62924 0
M  V30 11915 C 1127.83 3.47464 -1.44725 0
M  V30 11916 C 1126.98 2.21979 -1.66194 0
M  V30 11917 H 1129.93 0.933858 -1.28315 0
M  V30 11918 H 1129.95 3.64757 -1.08318 0
M  V30 11919 H 1129.46 2.79251 -2.69519 0
M  V30 11920 H 1127.56 3.70402 -0.40409 0
M  V30 11921 H 1127.68 4.25254 -2.20671 0
M  V30 11922 H 1126.04 2.30368 -1.0864 0
M  V30 11923 H 1126.82 2.06702 -2.74097 0
M  V30 11924 N 1129.27 0.921757 1.27833 0
M  V30 11925 C 1130.2 0.360683 2.25332 0
M  V30 11926 C 1131.18 -0.53961 1.53385 0
M  V30 11927 O 1132.36 -0.48146 1.82248 0
M  V30 11928 C 1129.49 -0.483626 3.35229 0
M  V30 11929 C 1128.54 0.352405 4.25042 0
M  V30 11930 S 1129.37 1.76421 5.05605 0
M  V30 11931 C 1130.53 0.92742 6.18991 0
M  V30 11932 H 1130.76 1.18703 2.72574 0
M  V30 11933 H 1128.29 0.72354 1.36397 0
M  V30 11934 H 1130.25 -0.964914 3.98998 0
M  V30 11935 H 1128.91 -1.28444 2.86637 0
M  V30 11936 H 1128.1 -0.293558 5.03144 0
M  V30 11937 H 1127.71 0.767643 3.66037 0
M  V30 11938 H 1130 0.160698 6.77309 0
M  V30 11939 H 1130.94 1.68126 6.87851 0
M  V30 11940 H 1131.35 0.472056 5.62523 0
M  V30 11941 N 1130.75 -1.41857 0.686609 0
M  V30 11942 C 1131.98 -2.05401 0.222238 0
M  V30 11943 C 1132.38 -1.51731 -1.13023 0
M  V30 11944 O 1131.73 -0.656701 -1.71561 0
M  V30 11945 C 1131.79 -3.59381 0.0926608 0
M  V30 11946 C 1131.45 -4.35801 1.37573 0
M  V30 11947 C 1132.45 -4.65678 2.31171 0
M  V30 11948 C 1130.14 -4.75233 1.62661 0
M  V30 11949 C 1132.13 -5.33936 3.48125 0
M  V30 11950 C 1129.82 -5.43229 2.79902 0
M  V30 11951 C 1130.81 -5.72507 3.72458 0
M  V30 11952 O 1130.5 -6.39106 4.87646 0
M  V30 11953 H 1130.23 -0.668126 0.102876 0
M  V30 11954 H 1132.79 -1.82775 0.93714 0
M  V30 11955 H 1131.02 -3.80711 -0.67793 0
M  V30 11956 H 1132.71 -4.04529 -0.333364 0
M  V30 11957 H 1133.47 -4.35704 2.13042 0
M  V30 11958 H 1129.35 -4.51831 0.914862 0
M  V30 11959 H 1132.9 -5.56706 4.20386 0
M  V30 11960 H 1128.79 -5.72621 2.97951 0
M  V30 11961 H 1129.56 -6.576 4.87344 0
M  V30 11962 N 1132.22 -0.430739 -1.51599 0
M  V30 11963 C 1133.16 0.419726 -2.25324 0
M  V30 11964 C 1134.17 0.991925 -1.29092 0
M  V30 11965 O 1135.36 0.887188 -1.54891 0
M  V30 11966 C 1132.46 1.59844 -2.98836 0
M  V30 11967 C 1131.63 1.14629 -4.22112 0
M  V30 11968 C 1130.69 2.19437 -4.78261 0
M  V30 11969 O 1129.72 1.79141 -5.40275 0
M  V30 11970 N 1130.92 3.51849 -4.61717 0
M  V30 11971 H 1133.68 -0.212112 -2.98948 0
M  V30 11972 H 1131.24 -0.259269 -1.59811 0
M  V30 11973 H 1133.24 2.29567 -3.33288 0
M  V30 11974 H 1131.81 2.13575 -2.28264 0
M  V30 11975 H 1131.03 0.276367 -3.9323 0
M  V30 11976 H 1132.31 0.821488 -5.02124 0
M  V30 11977 H 1131.71 3.87324 -4.12306 0
M  V30 11978 H 1130.27 4.17486 -5.00548 0
M  V30 11979 N 1133.7 1.56767 -0.161869 0
M  V30 11980 C 1134.93 2.01401 0.49523 0
M  V30 11981 C 1135.35 1.04133 1.56646 0
M  V30 11982 O 1134.71 0.0193747 1.8129 0
M  V30 11983 C 1134.76 3.44695 1.05913 0
M  V30 11984 O 1133.86 3.50475 2.1735 0
M  V30 11985 H 1133.2 0.65314 0.1196 0
M  V30 11986 H 1135.73 2.02903 -0.26298 0
M  V30 11987 H 1135.74 3.83805 1.3841 0
M  V30 11988 H 1134.42 4.14991 0.274749 0
M  V30 11989 H 1133 3.23218 1.85969 0
M  V30 11990 N 1135.18 -0.111886 1.57202 0
M  V30 11991 C 1136.43 -0.818411 1.85225 0
M  V30 11992 C 1136.76 -1.79542 0.747991 0
M  V30 11993 O 1136.01 -1.93965 -0.260013 0
M  V30 11994 C 1136.31 -1.59644 3.19763 0
M  V30 11995 C 1135.98 -0.76308 4.44396 0
M  V30 11996 C 1134.64 -0.53329 4.78236 0
M  V30 11997 C 1136.99 -0.18266 5.2088 0
M  V30 11998 C 1134.32 0.287056 5.85997 0
M  V30 11999 C 1136.67 0.624916 6.29506 0
M  V30 12000 C 1135.33 0.864955 6.61872 0
M  V30 12001 H 1134.6 -0.299478 0.677786 0
M  V30 12002 H 1137.25 -0.0805082 1.91331 0
M  V30 12003 H 1135.56 -2.40545 3.09266 0
M  V30 12004 H 1137.25 -2.1472 3.38669 0
M  V30 12005 H 1133.84 -0.952278 4.17887 0
M  V30 12006 H 1138.03 -0.34739 4.95083 0
M  V30 12007 H 1133.28 0.482179 6.09496 0
M  V30 12008 H 1137.46 1.08162 6.87949 0
M  V30 12009 H 1135.08 1.50244 7.45205 0
M  V30 12010 N 1136.66 -1.52894 -0.382264 0
M  V30 12011 C 1137.59 -1.74413 -1.48703 0
M  V30 12012 C 1138.6 -0.624663 -1.50339 0
M  V30 12013 O 1139.79 -0.900527 -1.54119 0
M  V30 12014 C 1136.89 -1.79387 -2.8753 0
M  V30 12015 C 1136.07 -3.08794 -3.09783 0
M  V30 12016 C 1135.12 -3.05226 -4.2863 0
M  V30 12017 O 1134.15 -3.79073 -4.24609 0
M  V30 12018 N 1135.35 -2.2488 -5.35172 0
M  V30 12019 H 1138.12 -2.69734 -1.30628 0
M  V30 12020 H 1135.68 -1.51465 -0.571842 0
M  V30 12021 H 1137.67 -1.74498 -3.65147 0
M  V30 12022 H 1136.24 -0.914233 -2.98932 0
M  V30 12023 H 1135.46 -3.27118 -2.19971 0
M  V30 12024 H 1136.75 -3.94347 -3.21509 0
M  V30 12025 H 1136.15 -1.64363 -5.41296 0
M  V30 12026 H 1134.7 -2.25825 -6.1143 0
M  V30 12027 N 1138.14 0.641106 -1.43971 0
M  V30 12028 C 1139.38 1.40291 -1.46445 0
M  V30 12029 C 1139.72 1.93978 -0.0929004 0
M  V30 12030 O 1138.99 1.73043 0.888043 0
M  V30 12031 C 1139.27 2.57551 -2.51673 0
M  V30 12032 C 1139.13 2.09279 -3.98149 0
M  V30 12033 C 1140.45 3.59752 -2.53508 0
M  V30 12034 H 1137.57 0.508771 -0.533218 0
M  V30 12035 H 1140.21 0.725767 -1.75592 0
M  V30 12036 H 1138.36 3.15319 -2.2695 0
M  V30 12037 H 1140.03 1.56418 -4.33971 0
M  V30 12038 H 1138.27 1.40545 -4.10402 0
M  V30 12039 H 1138.94 2.93655 -4.67409 0
M  V30 12040 H 1141.42 3.11766 -2.75574 0
M  V30 12041 H 1140.3 4.39332 -3.29057 0
M  V30 12042 H 1140.56 4.13156 -1.57335 0
M  V30 12043 N 1139.62 1.30703 0.880598 0
M  V30 12044 C 1140.86 1.19142 1.62752 0
M  V30 12045 C 1141.18 -0.251795 1.93973 0
M  V30 12046 O 1142.38 -0.488971 2.67061 0
M  V30 12047 C 1140.84 2.08503 2.93351 0
M  V30 12048 C 1140.45 3.57758 2.69653 0
M  V30 12049 C 1142.19 2.05715 3.71324 0
M  V30 12050 C 1140.1 4.39161 3.96096 0
M  V30 12051 H 1139.03 0.442332 0.610622 0
M  V30 12052 H 1141.68 1.55483 0.974547 0
M  V30 12053 H 1140.06 1.65049 3.59965 0
M  V30 12054 H 1141.24 4.09388 2.11513 0
M  V30 12055 H 1139.55 3.62414 2.0505 0
M  V30 12056 H 1142.15 2.63783 4.65105 0
M  V30 12057 H 1142.49 1.04168 4.03057 0
M  V30 12058 H 1143.02 2.47313 3.11579 0
M  V30 12059 H 1139.76 5.4142 3.69519 0
M  V30 12060 H 1139.28 3.92293 4.53725 0
M  V30 12061 H 1140.96 4.50823 4.64077 0
M  V30 12062 N 1141.09 -1.09351 1.1349 0
M  V30 12063 C 1142.34 -1.81988 0.908397 0
M  V30 12064 C 1142.69 -1.84087 -0.559442 0
M  V30 12065 O 1141.99 -1.29866 -1.40873 0
M  V30 12066 C 1142.18 -3.27498 1.43108 0
M  V30 12067 C 1142.01 -3.39575 2.9482 0
M  V30 12068 C 1140.78 -3.51332 3.63172 0
M  V30 12069 C 1142.98 -3.3204 3.92752 0
M  V30 12070 N 1140.96 -3.521 5.02891 0
M  V30 12071 C 1142.33 -3.39686 5.18665 0
M  V30 12072 C 1144.39 -3.15712 3.85007 0
M  V30 12073 C 1143.09 -3.32686 6.3774 0
M  V30 12074 C 1145.12 -3.10038 5.03617 0
M  V30 12075 C 1144.48 -3.18277 6.28394 0
M  V30 12076 H 1140.58 -0.680196 0.385821 0
M  V30 12077 H 1143.16 -1.30683 1.44326 0
M  V30 12078 H 1141.33 -3.77271 0.923118 0
M  V30 12079 H 1143.06 -3.8815 1.14549 0
M  V30 12080 H 1139.82 -3.54813 3.13695 0
M  V30 12081 H 1140.24 -3.56066 5.758 0
M  V30 12082 H 1144.88 -3.08212 2.89422 0
M  V30 12083 H 1142.6 -3.38949 7.3358 0
M  V30 12084 H 1146.19 -2.98539 4.99365 0
M  V30 12085 H 1145.07 -3.13904 7.18634 0
M  V30 12086 N 1142.57 -0.928524 -1.27343 0
M  V30 12087 C 1143.99 -0.62889 -1.46687 0
M  V30 12088 C 1144.19 0.821592 -1.83989 0
M  V30 12089 O 1143.24 1.59941 -1.95385 0
M  V30 12090 C 1144.56 -1.57947 -2.55878 0
M  V30 12091 C 1146.1 -1.58778 -2.69738 0
M  V30 12092 C 1146.58 -2.52535 -3.82087 0
M  V30 12093 N 1148.07 -2.50747 -3.89462 0
M  V30 12094 C 1148.81 -3.19981 -4.75814 0
M  V30 12095 N 1148.3 -3.98598 -5.66649 0
M  V30 12096 N 1150.09 -3.08996 -4.69551 0
M  V30 12097 H 1142.25 -1.86625 -1.01414 0
M  V30 12098 H 1144.51 -0.801293 -0.50659 0
M  V30 12099 H 1144.21 -2.61427 -2.35264 0
M  V30 12100 H 1144.09 -1.3218 -3.53282 0
M  V30 12101 H 1146.48 -0.560292 -2.89732 0
M  V30 12102 H 1146.56 -1.88594 -1.72817 0
M  V30 12103 H 1146.2 -3.55395 -3.62846 0
M  V30 12104 H 1146.13 -2.20015 -4.78436 0
M  V30 12105 H 1148.62 -1.93651 -3.24511 0
M  V30 12106 H 1148.93 -4.4841 -6.29403 0
M  V30 12107 H 1147.28 -4.02701 -5.66442 0
M  V30 12108 H 1150.47 -2.4707 -3.97585 0
M  V30 12109 H 1150.64 -3.63223 -5.36631 0
M  V30 12110 N 1144.05 1.41491 -0.694123 0
M  V30 12111 C 1145.28 2.0528 -0.233128 0
M  V30 12112 C 1145.69 1.52329 1.12217 0
M  V30 12113 O 1145.03 0.66579 1.7121 0
M  V30 12114 C 1145.09 3.59326 -0.111718 0
M  V30 12115 C 1144.76 4.35065 -1.39882 0
M  V30 12116 C 1145.75 4.64446 -2.33637 0
M  V30 12117 C 1143.44 4.74364 -1.65179 0
M  V30 12118 C 1145.43 5.32083 -3.50951 0
M  V30 12119 C 1143.12 5.41737 -2.82779 0
M  V30 12120 C 1144.12 5.70524 -3.75488 0
M  V30 12121 O 1143.81 6.36511 -4.91029 0
M  V30 12122 H 1143.54 0.667571 -0.106418 0
M  V30 12123 H 1146.09 1.82276 -0.94682 0
M  V30 12124 H 1144.32 3.81065 0.65773 0
M  V30 12125 H 1146.01 4.047 0.311906 0
M  V30 12126 H 1146.78 4.34568 -2.1535 0
M  V30 12127 H 1142.66 4.5134 -0.93881 0
M  V30 12128 H 1146.2 5.54468 -4.23333 0
M  V30 12129 H 1142.1 5.71033 -3.00984 0
M  V30 12130 H 1142.86 6.55006 -4.90825 0
M  V30 12131 N 1145.53 0.438773 1.51369 0
M  V30 12132 C 1146.77 -0.127213 2.021 0
M  V30 12133 C 1147.1 -1.42587 1.32284 0
M  V30 12134 O 1146.36 -1.90986 0.426949 0
M  V30 12135 C 1146.66 -0.39186 3.55245 0
M  V30 12136 C 1146.32 0.821158 4.4336 0
M  V30 12137 C 1144.98 1.15381 4.67162 0
M  V30 12138 C 1147.34 1.6303 4.95046 0
M  V30 12139 C 1144.66 2.29626 5.39897 0
M  V30 12140 C 1147.02 2.76376 5.69033 0
M  V30 12141 C 1145.68 3.10094 5.91099 0
M  V30 12142 H 1144.95 -0.0465505 0.739536 0
M  V30 12143 H 1147.6 0.586261 1.82305 0
M  V30 12144 H 1145.9 -1.18724 3.73379 0
M  V30 12145 H 1147.6 -0.843228 3.92034 0
M  V30 12146 H 1144.19 0.551946 4.25031 0
M  V30 12147 H 1148.37 1.38651 4.76539 0
M  V30 12148 H 1143.63 2.56062 5.55196 0
M  V30 12149 H 1147.8 3.39442 6.08072 0
M  V30 12150 H 1145.43 3.98731 6.47238 0
M  V30 12151 N 1147.01 -1.56678 0.170181 0
M  V30 12152 C 1147.96 -2.14503 -0.772818 0
M  V30 12153 C 1148.94 -1.07896 -1.19362 0
M  V30 12154 O 1150.13 -1.34021 -1.15617 0
M  V30 12155 C 1147.26 -2.78844 -2.00253 0
M  V30 12156 C 1146.35 -3.92607 -1.60377 0
M  V30 12157 N 1146.74 -4.97464 -0.914519 0
M  V30 12158 C 1145.04 -4.03746 -1.89487 0
M  V30 12159 C 1145.74 -5.77248 -0.718343 0
M  V30 12160 N 1144.71 -5.2881 -1.25942 0
M  V30 12161 H 1148.51 -2.92941 -0.237231 0
M  V30 12162 H 1146.03 -1.62371 -0.0305396 0
M  V30 12163 H 1148.03 -3.18646 -2.68831 0
M  V30 12164 H 1146.69 -2.01886 -2.54307 0
M  V30 12165 H 1147.7 -5.14724 -0.572692 0
M  V30 12166 H 1144.37 -3.3789 -2.45227 0
M  V30 12167 H 1145.76 -6.71676 -0.173373 0
M  V30 12168 N 1148.48 0.103547 -1.57259 0
M  V30 12169 C 1149.76 0.839768 -1.76656 0
M  V30 12170 C 1150.14 1.9734 -0.749666 0
M  V30 12171 O 1149.49 2.27405 0.223466 0
M  V30 12172 C 1149.7 1.34218 -3.22159 0
M  V30 12173 C 1151.05 1.78835 -3.85102 0
M  V30 12174 O 1152.07 1.43861 -3.25857 0
M  V30 12175 O 1150.93 2.43474 -4.89267 0
M  V30 12176 H 1148.02 0.399928 -0.723869 0
M  V30 12177 H 1150.57 0.0860857 -1.69482 0
M  V30 12178 H 1149.34 0.52956 -3.877 0
M  V30 12179 H 1148.96 2.15811 -3.33933 0
M  V30 12180 N 1149.96 1.53094 0.37415 0
M  V30 12181 C 1151.19 1.72758 1.13852 0
M  V30 12182 C 1151.6 0.452638 1.83294 0
M  V30 12183 O 1150.96 -0.573906 1.73241 0
M  V30 12184 C 1151.01 2.88724 2.17534 0
M  V30 12185 O 1150.73 4.11284 1.5092 0
M  V30 12186 C 1152.23 3.2019 3.06584 0
M  V30 12187 H 1149.45 0.578028 0.340771 0
M  V30 12188 H 1152 1.99805 0.435683 0
M  V30 12189 H 1150.15 2.64096 2.83429 0
M  V30 12190 H 1150.57 4.76162 2.19932 0
M  V30 12191 H 1152.04 4.04759 3.75332 0
M  V30 12192 H 1152.52 2.35193 3.70919 0
M  V30 12193 H 1153.12 3.46712 2.46315 0
M  V30 12194 N 1151.44 -0.633461 1.44309 0
M  V30 12195 C 1152.37 -1.75676 1.53819 0
M  V30 12196 C 1153.35 -1.65537 0.391365 0
M  V30 12197 O 1154.54 -1.84332 0.611181 0
M  V30 12198 C 1151.67 -3.14197 1.47979 0
M  V30 12199 C 1150.62 -3.39122 2.61113 0
M  V30 12200 C 1149.95 -4.77648 2.40325 0
M  V30 12201 C 1151.25 -3.31914 4.03274 0
M  V30 12202 H 1152.94 -1.67974 2.47841 0
M  V30 12203 H 1150.49 -0.8067 1.19283 0
M  V30 12204 H 1152.44 -3.92553 1.53233 0
M  V30 12205 H 1151.16 -3.22677 0.504718 0
M  V30 12206 H 1149.82 -2.63145 2.55245 0
M  V30 12207 H 1149.47 -4.82829 1.41016 0
M  V30 12208 H 1149.17 -4.95284 3.16177 0
M  V30 12209 H 1150.69 -5.58237 2.47394 0
M  V30 12210 H 1152.11 -4.00178 4.10524 0
M  V30 12211 H 1150.5 -3.61085 4.7931 0
M  V30 12212 H 1151.57 -2.29761 4.2701 0
M  V30 12213 N 1152.92 -1.31168 -0.873655 0
M  V30 12214 C 1153.85 -1.21094 -1.99646 0
M  V30 12215 C 1154.83 -0.0989684 -1.69812 0
M  V30 12216 O 1156.01 -0.282939 -1.92128 0
M  V30 12217 C 1153.14 -0.913684 -3.35066 0
M  V30 12218 C 1152.1 -1.98482 -3.79195 0
M  V30 12219 C 1151.42 -1.54033 -5.12033 0
M  V30 12220 C 1152.72 -3.39745 -3.96699 0
M  V30 12221 H 1154.42 -2.1503 -2.08333 0
M  V30 12222 H 1151.96 -1.03521 -1.00097 0
M  V30 12223 H 1153.92 -0.829821 -4.13149 0
M  V30 12224 H 1152.64 0.0613471 -3.26542 0
M  V30 12225 H 1151.3 -2.05851 -3.03349 0
M  V30 12226 H 1150.95 -0.553261 -4.99948 0
M  V30 12227 H 1150.65 -2.25688 -5.4253 0
M  V30 12228 H 1152.17 -1.47047 -5.92629 0
M  V30 12229 H 1153.59 -3.35071 -4.65188 0
M  V30 12230 H 1151.98 -4.09585 -4.38589 0
M  V30 12231 H 1153.05 -3.80802 -3.00196 0
M  V30 12232 N 1154.4 1.08748 -1.14068 0
M  V30 12233 C 1155.81 1.33125 -0.880341 0
M  V30 12234 C 1156.01 1.9569 0.480396 0
M  V30 12235 O 1155.07 2.2077 1.22543 0
M  V30 12236 C 1156.38 2.23618 -2.01036 0
M  V30 12237 C 1157.93 2.37108 -2.04326 0
M  V30 12238 C 1158.4 3.30941 -3.1661 0
M  V30 12239 N 1159.9 3.38517 -3.16166 0
M  V30 12240 C 1160.63 4.11142 -3.99687 0
M  V30 12241 N 1160.13 4.86505 -4.93239 0
M  V30 12242 N 1161.92 4.06938 -3.87761 0
M  V30 12243 H 1154.07 0.665164 -2.01716 0
M  V30 12244 H 1156.33 0.355612 -0.878774 0
M  V30 12245 H 1156.04 1.84885 -2.99183 0
M  V30 12246 H 1155.91 3.24056 -1.93049 0
M  V30 12247 H 1158.3 2.75101 -1.06787 0
M  V30 12248 H 1158.38 1.36424 -2.16384 0
M  V30 12249 H 1158.03 2.93669 -4.14392 0
M  V30 12250 H 1157.96 4.31545 -3.01789 0
M  V30 12251 H 1160.45 2.84786 -2.48405 0
M  V30 12252 H 1160.76 5.39372 -5.53441 0
M  V30 12253 H 1159.1 4.8557 -4.9724 0
M  V30 12254 H 1162.3 3.47166 -3.13996 0
M  V30 12255 H 1162.47 4.63275 -4.53079 0
M  V30 12256 N 1155.87 0.935264 1.26849 0
M  V30 12257 C 1156.82 0.438896 2.26588 0
M  V30 12258 C 1157.79 -0.498267 1.5845 0
M  V30 12259 O 1158.98 -0.415771 1.86215 0
M  V30 12260 C 1156.12 -0.295293 3.43834 0
M  V30 12261 C 1155.23 0.676857 4.26665 0
M  V30 12262 C 1154.36 -0.0779349 5.31143 0
M  V30 12263 C 1153.4 0.886425 6.05648 0
M  V30 12264 N 1152.54 0.163771 7.01909 0
M  V30 12265 H 1157.38 1.29439 2.6842 0
M  V30 12266 H 1154.92 0.649523 1.31983 0
M  V30 12267 H 1156.88 -0.737354 4.10632 0
M  V30 12268 H 1155.51 -1.11497 3.02933 0
M  V30 12269 H 1154.56 1.23744 3.5971 0
M  V30 12270 H 1155.87 1.41355 4.78351 0
M  V30 12271 H 1155.02 -0.579557 6.03926 0
M  V30 12272 H 1153.76 -0.84755 4.80279 0
M  V30 12273 H 1152.77 1.39923 5.31697 0
M  V30 12274 H 1153.99 1.65595 6.58601 0
M  V30 12275 H 1151.94 -0.58746 6.53364 0
M  V30 12276 H 1151.86 0.839902 7.5132 0
M  V30 12277 H 1153.12 -0.316951 7.78855 0
M  V30 12278 N 1157.35 -1.41121 0.701616 0
M  V30 12279 C 1158.58 -2.05154 0.244011 0
M  V30 12280 C 1158.99 -1.52922 -1.11407 0
M  V30 12281 O 1158.33 -0.67486 -1.70855 0
M  V30 12282 C 1158.4 -3.59262 0.130773 0
M  V30 12283 C 1158.06 -4.34318 1.42187 0
M  V30 12284 C 1159.06 -4.632 2.36097 0
M  V30 12285 C 1156.74 -4.73481 1.67693 0
M  V30 12286 C 1158.74 -5.30214 3.53768 0
M  V30 12287 C 1156.42 -5.4023 2.85648 0
M  V30 12288 C 1157.42 -5.68524 3.78509 0
M  V30 12289 O 1157.11 -6.33898 4.94397 0
M  V30 12290 H 1156.84 -0.666997 0.109957 0
M  V30 12291 H 1159.39 -1.81771 0.956473 0
M  V30 12292 H 1157.62 -3.81409 -0.637512 0
M  V30 12293 H 1159.31 -4.0486 -0.29044 0
M  V30 12294 H 1160.08 -4.3342 2.17652 0
M  V30 12295 H 1155.96 -4.50835 0.962733 0
M  V30 12296 H 1159.5 -5.52215 4.26267 0
M  V30 12297 H 1155.4 -5.69429 3.04008 0
M  V30 12298 H 1156.17 -6.52394 4.94292 0
M  V30 12299 N 1158.83 -0.446794 -1.51134 0
M  V30 12300 C 1159.79 0.348311 -2.26538 0
M  V30 12301 C 1160.79 0.941566 -1.3035 0
M  V30 12302 O 1161.98 0.814537 -1.53984 0
M  V30 12303 C 1159.12 1.49371 -3.06433 0
M  V30 12304 H 1160.31 -0.312648 -2.98266 0
M  V30 12305 H 1157.86 -0.200201 -1.55013 0
M  V30 12306 H 1158.6 2.19045 -2.39144 0
M  V30 12307 H 1158.38 1.07439 -3.77093 0
M  V30 12308 H 1159.87 2.05522 -3.63525 0
M  V30 12309 N 1160.31 1.56586 -0.178487 0
M  V30 12310 C 1161.22 2.21903 0.761321 0
M  V30 12311 C 1162.23 1.21289 1.2476 0
M  V30 12312 O 1163.41 1.53974 1.29823 0
M  V30 12313 C 1160.48 2.85259 1.97048 0
M  V30 12314 C 1159.54 4.01095 1.53039 0
M  V30 12315 C 1158.77 4.61421 2.68191 0
M  V30 12316 O 1158.99 4.20644 3.85247 0
M  V30 12317 O 1157.93 5.51171 2.41855 0
M  V30 12318 H 1161.75 3.02788 0.235141 0
M  V30 12319 H 1159.34 1.49316 0.0500442 0
M  V30 12320 H 1161.22 3.25404 2.6775 0
M  V30 12321 H 1159.89 2.07366 2.48558 0
M  V30 12322 H 1158.8 3.65606 0.792661 0
M  V30 12323 H 1160.13 4.80603 1.06213 0
M  V30 12324 N 1161.79 -0.095206 1.57312 0
M  V30 12325 C 1162.7 -1.13388 2.05379 0
M  V30 12326 C 1163.71 -1.43868 0.978668 0
M  V30 12327 O 1164.89 -1.54512 1.29182 0
M  V30 12328 C 1161.95 -2.43444 2.46852 0
M  V30 12329 C 1161.01 -2.20146 3.68557 0
M  V30 12330 C 1160.25 -3.44001 4.08043 0
M  V30 12331 O 1160.47 -4.52233 3.47623 0
M  V30 12332 O 1159.4 -3.33596 5.00997 0
M  V30 12333 H 1163.23 -0.755622 2.9415 0
M  V30 12334 H 1160.82 -0.307707 1.46197 0
M  V30 12335 H 1162.7 -3.20027 2.74155 0
M  V30 12336 H 1161.37 -2.80696 1.61219 0
M  V30 12337 H 1160.28 -1.41345 3.46371 0
M  V30 12338 H 1161.61 -1.87787 4.54969 0
M  V30 12339 N 1163.26 -1.53291 -0.366026 0
M  V30 12340 C 1164.68 -1.43053 -0.707669 0
M  V30 12341 C 1164.88 -0.56925 -1.93292 0
M  V30 12342 O 1163.94 -0.0515214 -2.52447 0
M  V30 12343 C 1165.25 -2.86239 -0.921292 0
M  V30 12344 C 1166.8 -2.95868 -1.02133 0
M  V30 12345 C 1167.27 -4.40114 -1.26743 0
M  V30 12346 N 1168.76 -4.43541 -1.33514 0
M  V30 12347 C 1169.5 -5.52259 -1.54264 0
M  V30 12348 N 1168.99 -6.71024 -1.72335 0
M  V30 12349 N 1170.79 -5.39836 -1.5663 0
M  V30 12350 H 1162.94 -2.07795 0.43988 0
M  V30 12351 H 1165.2 -0.938376 0.134736 0
M  V30 12352 H 1164.91 -3.51578 -0.0928042 0
M  V30 12353 H 1164.78 -3.29862 -1.82951 0
M  V30 12354 H 1167.17 -2.30683 -1.84036 0
M  V30 12355 H 1167.25 -2.5564 -0.0905097 0
M  V30 12356 H 1166.89 -5.05872 -0.453409 0
M  V30 12357 H 1166.82 -4.77914 -2.21146 0
M  V30 12358 H 1169.31 -3.57949 -1.21165 0
M  V30 12359 H 1169.63 -7.49649 -1.8774 0
M  V30 12360 H 1167.97 -6.7401 -1.69514 0
M  V30 12361 H 1171.16 -4.46017 -1.4208 0
M  V30 12362 H 1171.34 -6.24629 -1.72461 0
M  V30 12363 N 1164.74 0.6258 -1.44643 0
M  V30 12364 C 1165.69 1.75869 -1.52226 0
M  V30 12365 C 1166.68 1.64765 -0.39355 0
M  V30 12366 O 1167.89 1.70779 -0.568718 0
M  V30 12367 H 1164.27 0.580712 -0.477784 0
M  V30 12368 H 1166.24 1.66596 -2.47565 0
M  V30 12369 C 1164.99 3.14217 -1.48873 0
M  V30 12370 H 1164.31 3.23411 -2.35043 0
M  V30 12371 H 1165.75 3.93365 -1.58239 0
M  V30 12372 C 1164.21 3.36243 -0.210299 0
M  V30 12373 O 1164.74 3.95243 0.717335 0
M  V30 12374 N 1162.94 2.90385 -0.111744 0
M  V30 12375 H 1162.49 2.42555 -0.867466 0
M  V30 12376 H 1162.45 3.05498 0.742871 0
M  V30 12377 N 1166.22 1.31629 0.866686 0
M  V30 12378 C 1167.47 1.21263 1.61678 0
M  V30 12379 C 1167.79 -0.228562 1.93656 0
M  V30 12380 O 1167.06 -1.15014 1.58583 0
M  V30 12381 H 1165.64 0.445817 0.59938 0
M  V30 12382 H 1168.3 1.64998 1.03739 0
M  V30 12383 H 1167.4 1.78669 2.55898 0
M  V30 12384 N 1167.7 -1.08142 1.14644 0
M  V30 12385 C 1168.95 -1.80849 0.917685 0
M  V30 12386 C 1169.28 -1.86123 -0.554249 0
M  V30 12387 O 1168.55 -1.33907 -1.41065 0
M  V30 12388 C 1168.84 -3.26325 1.52264 0
M  V30 12389 C 1168.69 -3.29244 3.06461 0
M  V30 12390 C 1170.01 -4.23375 1.20175 0
M  V30 12391 H 1167.13 -0.656559 0.334812 0
M  V30 12392 H 1169.77 -1.26595 1.41682 0
M  V30 12393 H 1167.92 -3.72656 1.09817 0
M  V30 12394 H 1169.59 -2.91216 3.57758 0
M  V30 12395 H 1167.83 -2.68438 3.40769 0
M  V30 12396 H 1168.51 -4.31785 3.43897 0
M  V30 12397 H 1170.98 -3.85394 1.56877 0
M  V30 12398 H 1169.86 -5.23472 1.65132 0
M  V30 12399 H 1170.12 -4.41944 0.117474 0
M  V30 12400 N 1169.18 -0.941978 -1.26351 0
M  V30 12401 C 1170.13 -0.443011 -2.28342 0
M  V30 12402 C 1171.12 0.48013 -1.62453 0
M  V30 12403 O 1172.33 0.358255 -1.76399 0
M  V30 12404 H 1168.7 -0.124728 -0.741584 0
M  V30 12405 H 1170.67 -1.31573 -2.67827 0
M  V30 12406 C 1169.42 0.275675 -3.46605 0
M  V30 12407 H 1168.74 -0.425504 -3.97529 0
M  V30 12408 H 1170.18 0.589012 -4.19889 0
M  V30 12409 C 1168.64 1.49376 -3.01974 0
M  V30 12410 O 1169.17 2.59203 -3.06883 0
M  V30 12411 N 1167.38 1.35061 -2.57307 0
M  V30 12412 H 1166.93 0.457045 -2.53513 0
M  V30 12413 H 1166.88 2.16681 -2.27809 0
M  V30 12414 N 1170.66 1.40747 -0.709091 0
M  V30 12415 C 1171.9 2.013 -0.246174 0
M  V30 12416 C 1172.23 1.56078 1.15556 0
M  V30 12417 O 1171.51 0.777941 1.78265 0
M  V30 12418 C 1171.79 3.58685 -0.318945 0
M  V30 12419 C 1171.65 4.13997 -1.75859 0
M  V30 12420 C 1172.96 4.38981 0.31358 0
M  V30 12421 H 1170.08 0.73137 -0.0909255 0
M  V30 12422 H 1172.73 1.67312 -0.900365 0
M  V30 12423 H 1170.88 3.8777 0.23805 0
M  V30 12424 H 1172.55 3.95735 -2.37047 0
M  V30 12425 H 1170.79 3.6853 -2.28841 0
M  V30 12426 H 1171.46 5.23158 -1.76095 0
M  V30 12427 H 1173.94 4.15789 -0.160939 0
M  V30 12428 H 1172.81 5.48409 0.232184 0
M  V30 12429 H 1173.07 4.19474 1.39621 0
M  V30 12430 N 1172.13 0.454803 1.50895 0
M  V30 12431 C 1173.38 -0.105927 2.02523 0
M  V30 12432 C 1173.71 -1.40825 1.33724 0
M  V30 12433 O 1172.99 -1.89038 0.457683 0
M  V30 12434 C 1173.27 -0.306635 3.58792 0
M  V30 12435 C 1173.12 1.01556 4.38185 0
M  V30 12436 C 1174.44 -1.06858 4.2693 0
M  V30 12437 H 1171.56 -0.0370232 0.736069 0
M  V30 12438 H 1174.2 0.597215 1.8037 0
M  V30 12439 H 1172.35 -0.905563 3.77799 0
M  V30 12440 H 1174.03 1.64981 4.30789 0
M  V30 12441 H 1172.27 1.61608 4.02574 0
M  V30 12442 H 1172.94 0.828959 5.4574 0
M  V30 12443 H 1175.42 -0.561086 4.123 0
M  V30 12444 H 1174.29 -1.1778 5.36115 0
M  V30 12445 H 1174.55 -2.10111 3.8898 0
M  V30 12446 N 1173.61 -1.56489 0.186789 0
M  V30 12447 C 1174.84 -2.02163 -0.463126 0
M  V30 12448 C 1175.26 -1.06612 -1.54969 0
M  V30 12449 O 1174.62 -0.0482139 -1.81236 0
M  V30 12450 C 1174.67 -3.46337 -1.00416 0
M  V30 12451 O 1173.77 -3.53889 -2.11747 0
M  V30 12452 H 1173.11 -0.65496 -0.109194 0
M  V30 12453 H 1175.64 -2.02459 0.295227 0
M  V30 12454 H 1175.65 -3.85959 -1.32287 0
M  V30 12455 H 1174.33 -4.15376 -0.208693 0
M  V30 12456 H 1172.9 -3.26136 -1.80803 0
M  V30 12457 N 1175.09 0.086862 -1.5736 0
M  V30 12458 C 1176.34 0.787281 -1.86135 0
M  V30 12459 C 1176.66 1.78866 -0.776667 0
M  V30 12460 O 1175.93 1.94915 0.19625 0
M  V30 12461 H 1174.51 0.293744 -0.686821 0
M  V30 12462 H 1177.17 0.0665326 -1.94786 0
M  V30 12463 H 1176.27 1.3128 -2.83147 0
M  V30 12464 N 1176.57 1.53483 0.357892 0
M  V30 12465 C 1177.98 1.61641 0.934289 0
M  V30 12466 C 1178.33 0.488655 1.90017 0
M  V30 12467 O 1177.45 -0.38378 2.1297 0
M  V30 12468 C 1178.05 2.92987 1.7013 0
M  V30 12469 C 1176.61 3.03456 2.22692 0
M  V30 12470 C 1175.76 2.56992 1.04165 0
M  V30 12471 H 1178.71 1.58112 0.136452 0
M  V30 12472 H 1178.73 2.81221 2.5631 0
M  V30 12473 H 1178.24 3.75047 0.998056 0
M  V30 12474 H 1176.34 2.25999 2.96235 0
M  V30 12475 H 1176.45 4.08673 2.50046 0
M  V30 12476 H 1174.82 2.12052 1.41088 0
M  V30 12477 H 1175.6 3.41477 0.353272 0
M  V30 12478 N 1178.05 -0.61812 1.44973 0
M  V30 12479 C 1179.29 -1.37944 1.48658 0
M  V30 12480 C 1179.62 -1.93805 0.123749 0
M  V30 12481 O 1178.9 -1.74434 -0.860401 0
M  V30 12482 C 1179.18 -2.53515 2.55739 0
M  V30 12483 C 1179.04 -2.02918 4.01428 0
M  V30 12484 C 1180.35 -3.55674 2.59199 0
M  V30 12485 H 1177.47 -0.500223 0.541244 0
M  V30 12486 H 1180.12 -0.69774 1.76725 0
M  V30 12487 H 1178.27 -3.11669 2.31937 0
M  V30 12488 H 1179.94 -1.49494 4.36405 0
M  V30 12489 H 1178.18 -1.33999 4.12586 0
M  V30 12490 H 1178.85 -2.86181 4.72021 0
M  V30 12491 H 1181.33 -3.07343 2.80499 0
M  V30 12492 H 1180.2 -4.34042 3.36004 0
M  V30 12493 H 1180.46 -4.10601 1.63888 0
M  V30 12494 N 1179.52 -1.32087 -0.859693 0
M  V30 12495 C 1180.77 -1.2236 -1.61351 0
M  V30 12496 C 1181.1 0.215796 -1.93299 0
M  V30 12497 O 1180.35 1.16742 -1.57066 0
M  V30 12498 C 1180.65 -2.0234 -2.94607 0
M  V30 12499 C 1180.32 -3.51746 -2.82109 0
M  V30 12500 C 1178.98 -3.92482 -2.78408 0
M  V30 12501 C 1181.33 -4.46776 -2.68403 0
M  V30 12502 C 1178.66 -5.265 -2.58873 0
M  V30 12503 C 1181.01 -5.80931 -2.50404 0
M  V30 12504 C 1179.68 -6.20875 -2.45092 0
M  V30 12505 H 1178.95 -0.447748 -0.590426 0
M  V30 12506 H 1181.59 -1.63461 -0.997637 0
M  V30 12507 H 1179.9 -1.53952 -3.60286 0
M  V30 12508 H 1181.6 -1.92187 -3.51945 0
M  V30 12509 H 1178.19 -3.19389 -2.85812 0
M  V30 12510 H 1182.37 -4.16228 -2.70311 0
M  V30 12511 H 1177.63 -5.5651 -2.53192 0
M  V30 12512 H 1181.8 -6.54185 -2.38777 0
M  V30 12513 H 1179.43 -7.24662 -2.29714 0
M  V30 12514 N 1181 1.07532 -1.15215 0
M  V30 12515 C 1182.28 1.76813 -0.83646 0
M  V30 12516 C 1182.66 2.00242 0.6683 0
M  V30 12517 O 1182.01 1.61941 1.61206 0
M  V30 12518 C 1182.22 3.0779 -1.64519 0
M  V30 12519 C 1183.56 3.82168 -1.85022 0
M  V30 12520 O 1184.59 3.17596 -1.61279 0
M  V30 12521 O 1183.45 4.98135 -2.24775 0
M  V30 12522 H 1180.54 0.767736 -0.307426 0
M  V30 12523 H 1183.09 1.13914 -1.25784 0
M  V30 12524 H 1181.86 2.86342 -2.6669 0
M  V30 12525 H 1181.48 3.78419 -1.22002 0
M  V30 12526 N 1182.48 0.948665 1.2585 0
M  V30 12527 C 1183.73 0.600236 1.934 0
M  V30 12528 C 1184.06 -0.86185 1.74363 0
M  V30 12529 O 1183.31 -1.63294 1.07858 0
M  V30 12530 C 1183.61 0.89784 3.45939 0
M  V30 12531 C 1183.28 2.345 3.85124 0
M  V30 12532 C 1181.94 2.74058 3.95532 0
M  V30 12533 C 1184.29 3.2851 4.04636 0
M  V30 12534 C 1181.62 4.06707 4.22855 0
M  V30 12535 C 1183.97 4.60764 4.3345 0
M  V30 12536 C 1182.63 5.00127 4.42074 0
M  V30 12537 H 1181.9 0.219642 0.707699 0
M  V30 12538 H 1184.55 1.19658 1.49513 0
M  V30 12539 H 1182.86 0.219037 3.91187 0
M  V30 12540 H 1184.55 0.606916 3.96381 0
M  V30 12541 H 1181.14 2.02819 3.77574 0
M  V30 12542 H 1185.33 2.99141 3.96015 0
M  V30 12543 H 1180.58 4.36856 4.27746 0
M  V30 12544 H 1184.76 5.33594 4.47493 0
M  V30 12545 H 1182.38 6.02939 4.63 0
M  V30 12546 N 1183.96 -1.40369 0.716545 0
M  V30 12547 C 1185.24 -1.94737 0.183576 0
M  V30 12548 C 1185.62 -1.65464 -1.31092 0
M  V30 12549 O 1184.96 -0.972832 -2.06756 0
M  V30 12550 C 1185.17 -3.45438 0.497339 0
M  V30 12551 C 1186.52 -4.2235 0.436526 0
M  V30 12552 O 1187.55 -3.53553 0.433454 0
M  V30 12553 O 1186.4 -5.44923 0.41489 0
M  V30 12554 H 1183.5 -0.82655 0.0272785 0
M  V30 12555 H 1186.04 -1.49972 0.794143 0
M  V30 12556 H 1184.82 -3.60107 1.53097 0
M  V30 12557 H 1184.44 -3.97342 -0.143141 0
M  V30 12558 N 1185.44 -0.462799 -1.50652 0
M  V30 12559 C 1186.67 0.0928413 -2.06391 0
M  V30 12560 C 1187.07 1.34791 -1.3277 0
M  V30 12561 O 1186.42 1.79555 -0.388048 0
M  V30 12562 C 1186.48 0.45517 -3.56607 0
M  V30 12563 C 1186.14 -0.696698 -4.51658 0
M  V30 12564 C 1187.14 -1.57633 -4.95427 0
M  V30 12565 C 1184.83 -0.884669 -4.94448 0
M  V30 12566 C 1186.82 -2.62841 -5.80684 0
M  V30 12567 C 1184.51 -1.93998 -5.79489 0
M  V30 12568 C 1185.5 -2.81022 -6.22508 0
M  V30 12569 O 1185.19 -3.84738 -7.05856 0
M  V30 12570 H 1184.92 -3.18898e-05 -0.676 0
M  V30 12571 H 1187.48 -0.648161 -1.94905 0
M  V30 12572 H 1185.71 1.24924 -3.65966 0
M  V30 12573 H 1187.4 0.944923 -3.94748 0
M  V30 12574 H 1188.16 -1.44276 -4.63044 0
M  V30 12575 H 1184.04 -0.216807 -4.6049 0
M  V30 12576 H 1187.59 -3.30797 -6.14182 0
M  V30 12577 H 1183.48 -2.07366 -6.11285 0
M  V30 12578 H 1184.25 -3.81626 -7.24088 0
M  V30 12579 N 1186.91 1.56388 -0.195085 0
M  V30 12580 C 1188.19 1.89329 0.491303 0
M  V30 12581 C 1188.57 1.10861 1.79647 0
M  V30 12582 O 1187.92 0.209696 2.27536 0
M  V30 12583 C 1188.13 3.417 0.710096 0
M  V30 12584 C 1189.48 4.11931 1.02947 0
M  V30 12585 O 1190.5 3.4715 0.797817 0
M  V30 12586 O 1189.36 5.26423 1.46767 0
M  V30 12587 H 1186.45 0.786335 0.256137 0
M  V30 12588 H 1189 1.68061 -0.235298 0
M  V30 12589 H 1187.77 3.90727 -0.211604 0
M  V30 12590 H 1187.4 3.6866 1.48916 0
M  V30 12591 N 1188.39 -0.0785156 1.57404 0
M  V30 12592 C 1189.64 -0.777399 1.8655 0
M  V30 12593 C 1189.96 -1.78451 0.786142 0
M  V30 12594 O 1189.23 -1.95016 -0.185911 0
M  V30 12595 H 1187.81 -0.290097 0.688369 0
M  V30 12596 H 1190.47 -0.0562017 1.94819 0
M  V30 12597 H 1189.57 -1.29776 2.83839 0
M  V30 12598 N 1189.87 -1.5367 -0.349747 0
M  V30 12599 C 1191.29 -1.43796 -0.692457 0
M  V30 12600 C 1191.49 -0.58972 -1.92677 0
M  V30 12601 O 1190.54 -0.078294 -2.52379 0
M  V30 12602 C 1191.86 -2.872 -0.890881 0
M  V30 12603 C 1193.4 -2.96935 -0.989892 0
M  V30 12604 C 1193.88 -4.41433 -1.22068 0
M  V30 12605 N 1195.37 -4.44932 -1.28802 0
M  V30 12606 C 1196.1 -5.53864 -1.48398 0
M  V30 12607 N 1195.6 -6.72814 -1.65208 0
M  V30 12608 N 1197.39 -5.41467 -1.50896 0
M  V30 12609 H 1189.54 -2.07317 0.461895 0
M  V30 12610 H 1191.81 -0.936895 0.144681 0
M  V30 12611 H 1191.51 -3.51656 -0.0555095 0
M  V30 12612 H 1191.39 -3.31784 -1.79442 0
M  V30 12613 H 1193.77 -2.32622 -1.81579 0
M  V30 12614 H 1193.86 -2.55721 -0.0633906 0
M  V30 12615 H 1193.5 -5.06325 -0.399729 0
M  V30 12616 H 1193.43 -4.80233 -2.16064 0
M  V30 12617 H 1195.92 -3.59214 -1.17361 0
M  V30 12618 H 1196.23 -7.51598 -1.79779 0
M  V30 12619 H 1194.58 -6.7577 -1.62356 0
M  V30 12620 H 1197.77 -4.47498 -1.37342 0
M  V30 12621 H 1197.94 -6.26423 -1.65826 0
M  V30 12622 N 1191.35 0.610423 -1.45298 0
M  V30 12623 C 1192.59 1.38085 -1.50705 0
M  V30 12624 C 1192.95 1.91459 -0.143997 0
M  V30 12625 O 1194.15 2.68702 -0.0727521 0
M  V30 12626 C 1192.42 2.50009 -2.55402 0
M  V30 12627 S 1193.98 3.37844 -2.80012 0
M  V30 12628 H 1190.8 0.470812 -0.532783 0
M  V30 12629 H 1193.4 0.704638 -1.8236 0
M  V30 12630 H 1192.11 2.09143 -3.53111 0
M  V30 12631 H 1191.64 3.22434 -2.25388 0
M  V30 12632 H 1193.65 4.48074 -2.13176 0
M  V30 12633 N 1192.83 1.32541 0.852676 0
M  V30 12634 C 1194.1 1.1383 1.59067 0
M  V30 12635 C 1194.48 -0.300584 2.08949 0
M  V30 12636 O 1193.83 -1.29751 1.88088 0
M  V30 12637 C 1194.04 2.16758 2.73527 0
M  V30 12638 C 1195.39 2.50194 3.43057 0
M  V30 12639 O 1196.41 2.15319 2.83754 0
M  V30 12640 O 1195.27 3.09985 4.50079 0
M  V30 12641 H 1192.37 0.439379 0.700625 0
M  V30 12642 H 1194.91 1.44078 0.896632 0
M  V30 12643 H 1193.68 3.13469 2.34207 0
M  V30 12644 H 1193.31 1.87515 3.50605 0
M  V30 12645 N 1194.3 -1.0692 1.15784 0
M  V30 12646 C 1195.53 -1.83849 0.959903 0
M  V30 12647 C 1195.95 -1.8169 -0.486873 0
M  V30 12648 O 1195.31 -1.21305 -1.34739 0
M  V30 12649 C 1195.36 -3.28642 1.48414 0
M  V30 12650 O 1194.46 -4.0665 0.686249 0
M  V30 12651 H 1193.81 -0.569115 0.342059 0
M  V30 12652 H 1196.34 -1.34851 1.53871 0
M  V30 12653 H 1196.35 -3.7947 1.49888 0
M  V30 12654 H 1195.02 -3.29529 2.53739 0
M  V30 12655 H 1193.6 -3.65453 0.741501 0
M  V30 12656 N 1195.78 -0.955326 -1.25345 0
M  V30 12657 C 1196.71 -0.494145 -2.28211 0
M  V30 12658 C 1197.69 0.459875 -1.63766 0
M  V30 12659 O 1198.88 0.358679 -1.90859 0
M  V30 12660 C 1196.01 0.228228 -3.46549 0
M  V30 12661 C 1194.96 -0.640601 -4.23179 0
M  V30 12662 C 1194.29 0.212553 -5.34277 0
M  V30 12663 C 1195.59 -1.91906 -4.85767 0
M  V30 12664 H 1197.28 -1.35391 -2.67039 0
M  V30 12665 H 1194.83 -0.652462 -1.2837 0
M  V30 12666 H 1196.78 0.561995 -4.17636 0
M  V30 12667 H 1195.51 1.12224 -3.06714 0
M  V30 12668 H 1194.16 -0.957462 -3.53876 0
M  V30 12669 H 1193.81 1.10634 -4.90682 0
M  V30 12670 H 1193.51 -0.365473 -5.86462 0
M  V30 12671 H 1195.04 0.541271 -6.08196 0
M  V30 12672 H 1196.45 -1.65165 -5.48993 0
M  V30 12673 H 1194.85 -2.44279 -5.48131 0
M  V30 12674 H 1195.92 -2.62173 -4.07914 0
M  V30 12675 N 1197.26 1.39987 -0.723979 0
M  V30 12676 C 1198.17 2.3447 -0.0780936 0
M  V30 12677 C 1199.19 1.57744 0.734368 0
M  V30 12678 O 1200.36 1.90091 0.665385 0
M  V30 12679 C 1197.43 3.36705 0.826492 0
M  V30 12680 C 1196.49 4.293 0.00303036 0
M  V30 12681 C 1195.72 5.26651 0.864535 0
M  V30 12682 O 1195.95 5.30194 2.10357 0
M  V30 12683 O 1194.88 6.01157 0.299057 0
M  V30 12684 H 1198.71 2.91338 -0.857646 0
M  V30 12685 H 1196.29 1.41324 -0.484536 0
M  V30 12686 H 1198.17 3.9938 1.34439 0
M  V30 12687 H 1196.85 2.82237 1.58505 0
M  V30 12688 H 1195.75 3.69883 -0.560136 0
M  V30 12689 H 1197.09 4.86942 -0.717494 0
M  V30 12690 N 1198.74 0.470782 1.50404 0
M  V30 12691 C 1199.69 -0.337584 2.30137 0
M  V30 12692 C 1200.68 -0.990673 1.37412 0
M  V30 12693 O 1201.89 -0.921813 1.54605 0
M  V30 12694 H 1198.26 -0.127707 0.741077 0
M  V30 12695 H 1200.23 0.355297 2.96277 0
M  V30 12696 C 1198.98 -1.40714 3.17954 0
M  V30 12697 H 1198.31 -0.913982 3.89213 0
M  V30 12698 H 1199.75 -1.94533 3.7674 0
M  V30 12699 C 1198.2 -2.40889 2.35529 0
M  V30 12700 O 1198.73 -3.46153 2.03816 0
M  V30 12701 N 1196.94 -2.126 1.98115 0
M  V30 12702 H 1196.49 -1.27023 2.24105 0
M  V30 12703 H 1196.45 -2.7986 1.43269 0
M  V30 12704 N 1200.22 -1.56282 0.203376 0
M  V30 12705 C 1201.15 -2.2247 -0.709183 0
M  V30 12706 C 1202.13 -1.19046 -1.21499 0
M  V30 12707 O 1203.31 -1.47578 -1.26231 0
M  V30 12708 C 1200.44 -2.8905 -1.92529 0
M  V30 12709 C 1199.4 -3.98789 -1.55407 0
M  V30 12710 C 1198.72 -4.52574 -2.84747 0
M  V30 12711 C 1200.02 -5.16774 -0.75775 0
M  V30 12712 H 1201.72 -2.98986 -0.157392 0
M  V30 12713 H 1199.26 -1.43808 -0.0742613 0
M  V30 12714 H 1201.22 -3.34038 -2.56898 0
M  V30 12715 H 1199.94 -2.09952 -2.50175 0
M  V30 12716 H 1198.6 -3.54504 -0.933928 0
M  V30 12717 H 1198.25 -3.70229 -3.40499 0
M  V30 12718 H 1197.95 -5.26627 -2.6065 0
M  V30 12719 H 1199.47 -5.00269 -3.5009 0
M  V30 12720 H 1200.89 -5.58256 -1.30472 0
M  V30 12721 H 1199.28 -5.96945 -0.614583 0
M  V30 12722 H 1200.35 -4.84308 0.239476 0
M  V30 12723 N 1201.7 0.070167 -1.57444 0
M  V30 12724 C 1203.11 0.424991 -1.53838 0
M  V30 12725 C 1203.31 1.79076 -0.923793 0
M  V30 12726 O 1202.37 2.46939 -0.527002 0
M  V30 12727 C 1203.68 0.364562 -2.98482 0
M  V30 12728 C 1205.23 0.444631 -3.09826 0
M  V30 12729 C 1205.7 0.414093 -4.56124 0
M  V30 12730 N 1207.19 0.474119 -4.60767 0
M  V30 12731 C 1207.93 0.472729 -5.71448 0
M  V30 12732 N 1207.43 0.426059 -6.91489 0
M  V30 12733 N 1209.22 0.519408 -5.59695 0
M  V30 12734 H 1201.37 -0.824117 -1.9576 0
M  V30 12735 H 1203.63 -0.309401 -0.896089 0
M  V30 12736 H 1203.34 -0.572343 -3.47012 0
M  V30 12737 H 1203.21 1.17414 -3.5846 0
M  V30 12738 H 1205.6 1.37196 -2.61269 0
M  V30 12739 H 1205.68 -0.393547 -2.52755 0
M  V30 12740 H 1205.32 -0.509394 -5.05339 0
M  V30 12741 H 1205.25 1.26983 -5.11061 0
M  V30 12742 H 1207.75 0.514371 -3.74383 0
M  V30 12743 H 1208.06 0.428969 -7.71609 0
M  V30 12744 H 1206.4 0.392722 -6.9389 0
M  V30 12745 H 1209.59 0.553573 -4.64815 0
M  V30 12746 H 1209.77 0.514856 -6.45951 0
M  V30 12747 N 1203.17 1.53854 0.341593 0
M  V30 12748 C 1204.11 1.78295 1.44027 0
M  V30 12749 C 1205.12 0.664303 1.4863 0
M  V30 12750 O 1206.31 0.941073 1.51678 0
M  V30 12751 C 1203.41 1.86947 2.82673 0
M  V30 12752 C 1202.58 3.16898 3.01487 0
M  V30 12753 C 1201.64 3.16483 4.20386 0
M  V30 12754 O 1200.67 3.90197 4.14409 0
M  V30 12755 N 1201.87 2.3899 5.29022 0
M  V30 12756 H 1204.63 2.73102 1.23431 0
M  V30 12757 H 1202.19 1.52928 0.531483 0
M  V30 12758 H 1204.19 1.84118 3.60392 0
M  V30 12759 H 1202.76 0.993169 2.96403 0
M  V30 12760 H 1201.98 3.32835 2.11221 0
M  V30 12761 H 1203.26 4.02733 3.1094 0
M  V30 12762 H 1202.66 1.78657 5.36748 0
M  V30 12763 H 1201.22 2.41957 6.05227 0
M  V30 12764 N 1204.65 -0.602709 1.4562 0
M  V30 12765 C 1205.6 -1.71312 1.54664 0
M  V30 12766 C 1206.57 -1.61403 0.392197 0
M  V30 12767 O 1207.75 -1.80911 0.606297 0
M  V30 12768 C 1204.89 -3.09629 1.52393 0
M  V30 12769 C 1204.01 -3.30308 2.78425 0
M  V30 12770 C 1203.14 -4.5876 2.67793 0
M  V30 12771 C 1202.18 -4.72713 3.88855 0
M  V30 12772 N 1201.32 -5.92469 3.76729 0
M  V30 12773 H 1206.16 -1.62918 2.49523 0
M  V30 12774 H 1203.69 -0.794324 1.2381 0
M  V30 12775 H 1205.65 -3.89661 1.49064 0
M  V30 12776 H 1204.28 -3.16968 0.610816 0
M  V30 12777 H 1203.33 -2.44018 2.9182 0
M  V30 12778 H 1204.65 -3.36491 3.68205 0
M  V30 12779 H 1203.8 -5.46993 2.62457 0
M  V30 12780 H 1202.54 -4.54983 1.75619 0
M  V30 12781 H 1201.54 -3.82903 3.94545 0
M  V30 12782 H 1202.77 -4.78284 4.82101 0
M  V30 12783 H 1200.72 -5.89728 2.87328 0
M  V30 12784 H 1200.63 -5.99833 4.60148 0
M  V30 12785 H 1201.9 -6.83187 3.75334 0
M  V30 12786 N 1206.13 -1.32992 -0.845635 0
M  V30 12787 C 1207.55 -1.12179 -1.13526 0
M  V30 12788 C 1207.75 0.091795 -2.01291 0
M  V30 12789 O 1206.8 0.774051 -2.40343 0
M  V30 12790 C 1208.11 -2.40584 -1.80388 0
M  V30 12791 C 1209.66 -2.46427 -1.92984 0
M  V30 12792 C 1210.14 -3.74776 -2.63261 0
M  V30 12793 N 1211.63 -3.75809 -2.7078 0
M  V30 12794 C 1212.36 -4.71829 -3.2583 0
M  V30 12795 N 1211.86 -5.78219 -3.81621 0
M  V30 12796 N 1213.65 -4.59313 -3.24018 0
M  V30 12797 H 1205.8 -2.10786 -0.261369 0
M  V30 12798 H 1208.07 -0.931053 -0.17845 0
M  V30 12799 H 1207.77 -3.29357 -1.23357 0
M  V30 12800 H 1207.65 -2.52225 -2.80468 0
M  V30 12801 H 1210.03 -1.58108 -2.4917 0
M  V30 12802 H 1210.11 -2.38732 -0.918732 0
M  V30 12803 H 1209.76 -4.63474 -2.07736 0
M  V30 12804 H 1209.69 -3.79746 -3.6483 0
M  V30 12805 H 1212.18 -2.98916 -2.31209 0
M  V30 12806 H 1212.49 -6.47531 -4.2181 0
M  V30 12807 H 1210.84 -5.81962 -3.79927 0
M  V30 12808 H 1214.03 -3.75358 -2.79685 0
M  V30 12809 H 1214.2 -5.34316 -3.6662 0
M  V30 12810 N 1207.61 1.06304 -1.1635 0
M  V30 12811 C 1209.02 1.31227 -0.90838 0
M  V30 12812 C 1209.22 1.96665 0.438779 0
M  V30 12813 O 1208.28 2.2332 1.17833 0
M  V30 12814 C 1209.59 2.19303 -2.05734 0
M  V30 12815 C 1211.14 2.3272 -2.09309 0
M  V30 12816 C 1211.62 3.24151 -3.23559 0
M  V30 12817 N 1213.11 3.31734 -3.23275 0
M  V30 12818 C 1213.84 4.02572 -4.08318 0
M  V30 12819 N 1213.34 4.75933 -5.03448 0
M  V30 12820 N 1215.13 3.98621 -3.96305 0
M  V30 12821 H 1207.28 0.622228 -2.03081 0
M  V30 12822 H 1209.54 0.336892 -0.886119 0
M  V30 12823 H 1209.25 1.78497 -3.03037 0
M  V30 12824 H 1209.12 3.19888 -1.99879 0
M  V30 12825 H 1211.51 2.72774 -1.12599 0
M  V30 12826 H 1211.59 1.31804 -2.19229 0
M  V30 12827 H 1211.24 2.84813 -4.20528 0
M  V30 12828 H 1211.17 4.25046 -3.10875 0
M  V30 12829 H 1213.66 2.79453 -2.5439 0
M  V30 12830 H 1213.97 5.27512 -5.64758 0
M  V30 12831 H 1212.32 4.74913 -5.07427 0
M  V30 12832 H 1215.51 3.40427 -3.21289 0
M  V30 12833 H 1215.68 4.5356 -4.62804 0
M  V30 12834 N 1209.09 0.96196 1.24836 0
M  V30 12835 C 1210.33 0.621634 1.93038 0
M  V30 12836 C 1210.66 -0.840257 1.75081 0
M  V30 12837 O 1209.94 -1.60381 1.10038 0
M  V30 12838 C 1210.22 0.990107 3.46221 0
M  V30 12839 C 1210.08 2.50827 3.73371 0
M  V30 12840 C 1211.39 0.520478 4.37011 0
M  V30 12841 H 1208.51 0.227312 0.701069 0
M  V30 12842 H 1211.16 1.19993 1.47315 0
M  V30 12843 H 1209.31 0.498008 3.85295 0
M  V30 12844 H 1210.98 3.07469 3.4389 0
M  V30 12845 H 1209.22 2.94277 3.18722 0
M  V30 12846 H 1209.89 2.71659 4.80526 0
M  V30 12847 H 1212.37 0.942703 4.05281 0
M  V30 12848 H 1211.24 0.806918 5.42937 0
M  V30 12849 H 1211.5 -0.579507 4.38285 0
M  V30 12850 N 1210.56 -1.39601 0.731392 0
M  V30 12851 C 1211.81 -1.99821 0.274661 0
M  V30 12852 C 1212.13 -1.58693 -1.1435 0
M  V30 12853 O 1213.33 -2.11724 -1.69957 0
M  V30 12854 C 1211.79 -3.57199 0.440124 0
M  V30 12855 C 1211.4 -4.07292 1.86594 0
M  V30 12856 C 1213.14 -4.24476 0.0449851 0
M  V30 12857 C 1211.05 -5.57229 1.98115 0
M  V30 12858 H 1209.98 -0.747481 0.0989383 0
M  V30 12859 H 1212.63 -1.59645 0.904755 0
M  V30 12860 H 1211.01 -3.95153 -0.25881 0
M  V30 12861 H 1212.18 -3.80679 2.59654 0
M  V30 12862 H 1210.5 -3.52665 2.21397 0
M  V30 12863 H 1213.1 -5.34587 0.110126 0
M  V30 12864 H 1213.44 -4.04129 -0.999269 0
M  V30 12865 H 1213.97 -3.91683 0.694942 0
M  V30 12866 H 1210.71 -5.82452 3.00716 0
M  V30 12867 H 1210.23 -5.85656 1.29487 0
M  V30 12868 H 1211.91 -6.22584 1.76063 0
M  V30 12869 N 1212.04 -0.478751 -1.50152 0
M  V30 12870 C 1213.46 -0.133356 -1.59042 0
M  V30 12871 C 1213.66 1.36069 -1.48618 0
M  V30 12872 O 1212.71 2.13468 -1.34862 0
M  V30 12873 C 1214.03 -0.690369 -2.92668 0
M  V30 12874 C 1215.58 -0.654481 -3.06081 0
M  V30 12875 C 1216.05 -1.18917 -4.42293 0
M  V30 12876 N 1217.54 -1.14891 -4.48725 0
M  V30 12877 C 1218.28 -1.53305 -5.52526 0
M  V30 12878 N 1217.77 -1.99205 -6.63543 0
M  V30 12879 N 1219.57 -1.4486 -5.43113 0
M  V30 12880 H 1211.72 -1.45037 -1.55171 0
M  V30 12881 H 1213.98 -0.600254 -0.733757 0
M  V30 12882 H 1213.69 -1.7373 -3.05795 0
M  V30 12883 H 1213.56 -0.138227 -3.76947 0
M  V30 12884 H 1215.95 0.383564 -2.92597 0
M  V30 12885 H 1216.03 -1.24352 -2.2354 0
M  V30 12886 H 1215.67 -2.22588 -4.56527 0
M  V30 12887 H 1215.6 -0.57628 -5.23437 0
M  V30 12888 H 1218.09 -0.812344 -3.69066 0
M  V30 12889 H 1218.41 -2.26645 -7.38818 0
M  V30 12890 H 1216.75 -2.03164 -6.64642 0
M  V30 12891 H 1219.94 -1.08836 -4.55272 0
M  V30 12892 H 1220.11 -1.75123 -6.23888 0
M  V30 12893 N 1213.52 1.56172 -0.211661 0
M  V30 12894 C 1214.47 2.21206 0.719063 0
M  V30 12895 C 1215.46 1.18835 1.20725 0
M  V30 12896 O 1216.67 1.36939 1.16823 0
M  V30 12897 H 1213.04 0.709129 0.250279 0
M  V30 12898 H 1215.01 2.98038 0.147022 0
M  V30 12899 C 1213.76 2.89826 1.92084 0
M  V30 12900 H 1213.09 3.68351 1.55428 0
M  V30 12901 H 1214.53 3.38744 2.55006 0
M  V30 12902 C 1212.99 1.91756 2.77004 0
M  V30 12903 O 1213.52 1.42826 3.75451 0
M  V30 12904 N 1211.72 1.59622 2.42836 0
M  V30 12905 H 1211.27 1.99606 1.62835 0
M  V30 12906 H 1211.23 0.942641 2.99936 0
M  V30 12907 N 1215 -0.0618163 1.57479 0
M  V30 12908 C 1215.93 -1.09931 2.01116 0
M  V30 12909 C 1216.94 -1.34405 0.91865 0
M  V30 12910 O 1218.13 -1.32469 1.19642 0
M  V30 12911 C 1215.23 -2.44814 2.34349 0
M  V30 12912 C 1214.41 -2.40157 3.65573 0
M  V30 12913 C 1213.46 -3.57226 3.86363 0
M  V30 12914 O 1212.49 -3.38202 4.5783 0
M  V30 12915 N 1213.69 -4.77937 3.2948 0
M  V30 12916 H 1216.46 -0.727621 2.90733 0
M  V30 12917 H 1214.02 -0.250315 1.59953 0
M  V30 12918 H 1216.01 -3.21792 2.45422 0
M  V30 12919 H 1214.58 -2.73947 1.50571 0
M  V30 12920 H 1213.8 -1.48496 3.65161 0
M  V30 12921 H 1215.09 -2.34156 4.51717 0
M  V30 12922 H 1214.49 -4.96296 2.7149 0
M  V30 12923 H 1213.04 -5.52392 3.45986 0
M  V30 12924 N 1216.48 -1.54033 -0.333429 0
M  V30 12925 C 1217.39 -1.85737 -1.43314 0
M  V30 12926 C 1218.4 -0.748398 -1.57083 0
M  V30 12927 O 1219.58 -1.04171 -1.72367 0
M  V30 12928 C 1216.64 -2.06942 -2.78165 0
M  V30 12929 C 1215.7 -3.30774 -2.73655 0
M  V30 12930 C 1214.94 -3.50957 -4.02075 0
M  V30 12931 O 1215.16 -2.74774 -4.99855 0
M  V30 12932 O 1214.09 -4.44412 -4.05933 0
M  V30 12933 H 1217.92 -2.7923 -1.19434 0
M  V30 12934 H 1215.51 -1.39814 -0.526546 0
M  V30 12935 H 1217.39 -2.22276 -3.58011 0
M  V30 12936 H 1216.06 -1.16638 -3.01956 0
M  V30 12937 H 1214.97 -3.20835 -1.92395 0
M  V30 12938 H 1216.3 -4.21103 -2.54819 0
M  V30 12939 N 1217.95 0.594978 -1.45938 0
M  V30 12940 C 1219.2 1.34976 -1.49881 0
M  V30 12941 C 1219.52 1.95025 -0.14983 0
M  V30 12942 O 1220.72 2.71417 -0.0669868 0
M  V30 12943 C 1219.18 2.44563 -2.6404 0
M  V30 12944 C 1218.79 1.9087 -4.05306 0
M  V30 12945 C 1220.53 3.21461 -2.77242 0
M  V30 12946 C 1218.44 2.98013 -5.10825 0
M  V30 12947 H 1217.37 0.507366 -0.55776 0
M  V30 12948 H 1220.02 0.636316 -1.72114 0
M  V30 12949 H 1218.4 3.1865 -2.35114 0
M  V30 12950 H 1219.57 1.23408 -4.43968 0
M  V30 12951 H 1217.89 1.26678 -3.96663 0
M  V30 12952 H 1220.49 4.01399 -3.53246 0
M  V30 12953 H 1220.83 3.73271 -1.84321 0
M  V30 12954 H 1221.36 2.54477 -3.05756 0
M  V30 12955 H 1218.1 2.51104 -6.05497 0
M  V30 12956 H 1217.62 3.64003 -4.7672 0
M  V30 12957 H 1219.3 3.62178 -5.36131 0
M  V30 12958 N 1219.43 1.33438 0.838571 0
M  V30 12959 C 1220.36 1.26344 1.96365 0
M  V30 12960 C 1221.34 0.143956 1.6949 0
M  V30 12961 O 1222.53 0.333779 1.9131 0
M  V30 12962 C 1219.66 1.0022 3.32526 0
M  V30 12963 C 1218.61 2.08466 3.73799 0
M  V30 12964 C 1217.94 1.67555 5.07769 0
M  V30 12965 C 1219.24 3.50144 3.87552 0
M  V30 12966 H 1220.93 2.20478 2.02558 0
M  V30 12967 H 1218.48 1.06139 0.973168 0
M  V30 12968 H 1220.43 0.939068 4.10803 0
M  V30 12969 H 1219.16 0.0252514 3.2659 0
M  V30 12970 H 1217.81 2.13822 2.97785 0
M  V30 12971 H 1217.46 0.685619 4.98305 0
M  V30 12972 H 1217.16 2.39993 5.36356 0
M  V30 12973 H 1218.69 1.62708 5.88522 0
M  V30 12974 H 1220.1 3.47287 4.56141 0
M  V30 12975 H 1218.5 4.21069 4.27575 0
M  V30 12976 H 1219.57 3.88628 2.89994 0
M  V30 12977 N 1220.91 -1.05686 1.16912 0
M  V30 12978 C 1222.16 -1.77987 0.948875 0
M  V30 12979 C 1222.47 -1.8845 -0.524011 0
M  V30 12980 O 1223.68 -2.57442 -0.862322 0
M  V30 12981 C 1222.13 -3.19927 1.64848 0
M  V30 12982 C 1221.74 -3.1761 3.15956 0
M  V30 12983 C 1223.49 -3.96719 1.51044 0
M  V30 12984 C 1221.39 -4.54307 3.78628 0
M  V30 12985 H 1220.32 -0.667119 0.35138 0
M  V30 12986 H 1222.97 -1.18496 1.40111 0
M  V30 12987 H 1221.36 -3.79714 1.12397 0
M  V30 12988 H 1222.53 -2.67369 3.75301 0
M  V30 12989 H 1220.85 -2.54317 3.29715 0
M  V30 12990 H 1223.44 -4.97779 1.95243 0
M  V30 12991 H 1223.79 -4.13748 0.460268 0
M  V30 12992 H 1224.32 -3.43468 2.00685 0
M  V30 12993 H 1221.06 -4.42484 4.8362 0
M  V30 12994 H 1220.58 -5.04717 3.24069 0
M  V30 12995 H 1222.26 -5.23255 3.80543 0
M  V30 12996 N 1222.39 -0.968567 -1.24324 0
M  V30 12997 C 1223.8 -0.66964 -1.74278 0
M  V30 12998 C 1224.15 0.81461 -1.7849 0
M  V30 12999 O 1223.28 1.63736 -1.4149 0
M  V30 13000 C 1223.87 -1.20885 -3.165 0
M  V30 13001 C 1222.43 -0.959808 -3.63957 0
M  V30 13002 C 1221.58 -1.34365 -2.42573 0
M  V30 13003 H 1224.53 -1.14379 -1.10015 0
M  V30 13004 H 1224.55 -0.57555 -3.76122 0
M  V30 13005 H 1224.06 -2.28912 -3.13402 0
M  V30 13006 H 1222.16 0.104894 -3.72452 0
M  V30 13007 H 1222.27 -1.60606 -4.51378 0
M  V30 13008 H 1220.64 -0.762039 -2.43033 0
M  V30 13009 H 1221.42 -2.43343 -2.42155 0
M  V30 13010 N 1223.87 1.39211 -0.738786 0
M  V30 13011 C 1225.09 2.04732 -0.298751 0
M  V30 13012 C 1225.51 1.55706 1.06776 0
M  V30 13013 O 1224.87 0.723605 1.67542 0
M  V30 13014 C 1224.92 3.60288 -0.29574 0
M  V30 13015 O 1224.64 4.07511 -1.60831 0
M  V30 13016 C 1226.14 4.43011 0.159994 0
M  V30 13017 H 1223.36 0.658296 -0.129952 0
M  V30 13018 H 1225.9 1.78186 -1.0035 0
M  V30 13019 H 1224.06 3.85722 0.360146 0
M  V30 13020 H 1224.47 5.01858 -1.52443 0
M  V30 13021 H 1225.95 5.51889 0.110941 0
M  V30 13022 H 1226.42 4.22325 1.20573 0
M  V30 13023 H 1227.03 4.22734 -0.466467 0
M  V30 13024 N 1225.34 0.486708 1.49896 0
M  V30 13025 C 1226.29 -0.318255 2.25768 0
M  V30 13026 C 1227.28 -0.94799 1.30008 0
M  V30 13027 O 1228.47 -0.857954 1.54816 0
M  V30 13028 C 1225.6 -1.39057 3.13876 0
M  V30 13029 C 1224.69 -0.767787 4.17092 0
M  V30 13030 N 1225.08 0.121163 5.05655 0
M  V30 13031 C 1223.37 -1.02999 4.33944 0
M  V30 13032 C 1224.08 0.47621 5.79747 0
M  V30 13033 N 1223.05 -0.152422 5.43386 0
M  V30 13034 H 1226.85 0.366294 2.91608 0
M  V30 13035 H 1224.37 0.301852 1.5957 0
M  V30 13036 H 1226.36 -1.98056 3.6685 0
M  V30 13037 H 1225.02 -2.07694 2.49586 0
M  V30 13038 H 1226.04 0.491043 5.15567 0
M  V30 13039 H 1222.71 -1.71018 3.80866 0
M  V30 13040 H 1224.1 1.20262 6.6105 0
M  V30 13041 N 1226.82 -1.56058 0.219941 0
M  V30 13042 C 1228.07 -1.9826 -0.412197 0
M  V30 13043 C 1228.4 -1.10754 -1.59887 0
M  V30 13044 O 1227.65 -0.15212 -1.95108 0
M  V30 13045 C 1227.95 -3.46113 -0.8911 0
M  V30 13046 C 1227.62 -4.50521 0.184877 0
M  V30 13047 C 1226.28 -4.78795 0.480462 0
M  V30 13048 C 1228.63 -5.13147 0.912652 0
M  V30 13049 C 1225.96 -5.66979 1.50837 0
M  V30 13050 C 1228.31 -6.02444 1.92988 0
M  V30 13051 C 1226.98 -6.29063 2.2324 0
M  V30 13052 H 1226.25 -0.725486 -0.150834 0
M  V30 13053 H 1228.89 -1.88771 0.322122 0
M  V30 13054 H 1227.2 -3.52797 -1.70415 0
M  V30 13055 H 1228.9 -3.76137 -1.39003 0
M  V30 13056 H 1225.49 -4.28564 -0.0556594 0
M  V30 13057 H 1229.67 -4.91374 0.697532 0
M  V30 13058 H 1224.93 -5.85868 1.74839 0
M  V30 13059 H 1229.1 -6.50022 2.49889 0
M  V30 13060 H 1226.73 -6.97191 3.03032 0
M  V30 13061 N 1228.3 0.053464 -1.57509 0
M  V30 13062 C 1229.55 0.749102 -1.88135 0
M  V30 13063 C 1229.88 1.76642 -0.814111 0
M  V30 13064 O 1229.13 1.94796 0.187845 0
M  V30 13065 C 1229.43 1.47666 -3.25468 0
M  V30 13066 C 1229.1 0.597619 -4.46922 0
M  V30 13067 C 1227.76 0.355429 -4.79886 0
M  V30 13068 C 1230.11 -0.0107869 -5.21199 0
M  V30 13069 C 1227.44 -0.504347 -5.84528 0
M  V30 13070 C 1229.79 -0.858123 -6.26753 0
M  V30 13071 C 1228.45 -1.11001 -6.58206 0
M  V30 13072 H 1227.72 0.274116 -0.688434 0
M  V30 13073 H 1230.37 0.00944162 -1.91498 0
M  V30 13074 H 1228.68 2.28901 -3.1798 0
M  V30 13075 H 1230.37 2.02002 -3.46404 0
M  V30 13076 H 1226.96 0.796526 -4.21134 0
M  V30 13077 H 1231.15 0.163404 -4.96031 0
M  V30 13078 H 1226.4 -0.708057 -6.07286 0
M  V30 13079 H 1230.58 -1.3362 -6.83461 0
M  V30 13080 H 1228.2 -1.77798 -7.39116 0
M  V30 13081 N 1229.78 1.54207 0.325255 0
M  V30 13082 C 1231.03 1.71544 1.06091 0
M  V30 13083 C 1231.34 0.495137 1.89229 0
M  V30 13084 O 1232.55 0.54982 2.65874 0
M  V30 13085 C 1231 3.03412 1.93569 0
M  V30 13086 C 1230.61 4.32842 1.1555 0
M  V30 13087 C 1232.36 3.30113 2.66881 0
M  V30 13088 C 1230.26 5.55773 2.02164 0
M  V30 13089 H 1229.19 0.639281 0.399795 0
M  V30 13090 H 1231.84 1.80701 0.319261 0
M  V30 13091 H 1230.23 2.88158 2.71626 0
M  V30 13092 H 1231.4 4.58857 0.42276 0
M  V30 13093 H 1229.71 4.12893 0.539277 0
M  V30 13094 H 1232.31 4.19151 3.31988 0
M  V30 13095 H 1232.65 2.47918 3.34428 0
M  V30 13096 H 1233.19 3.46227 1.95887 0
M  V30 13097 H 1229.93 6.40565 1.39128 0
M  V30 13098 H 1229.45 5.3398 2.73177 0
M  V30 13099 H 1231.13 5.92113 2.60789 0
M  V30 13100 N 1231.26 -0.58723 1.46251 0
M  V30 13101 C 1232.5 -1.3476 1.51551 0
M  V30 13102 C 1232.84 -1.93499 0.16483 0
M  V30 13103 O 1232.11 -1.7622 -0.823207 0
M  V30 13104 C 1232.39 -2.48033 2.61059 0
M  V30 13105 C 1232.25 -1.94358 4.05642 0
M  V30 13106 C 1233.57 -3.50096 2.66685 0
M  V30 13107 H 1230.69 -0.48863 0.551733 0
M  V30 13108 H 1233.33 -0.660097 1.78165 0
M  V30 13109 H 1231.48 -3.06679 2.38496 0
M  V30 13110 H 1233.15 -1.40204 4.39478 0
M  V30 13111 H 1231.39 -1.25217 4.15335 0
M  V30 13112 H 1232.06 -2.76105 4.77986 0
M  V30 13113 H 1234.54 -3.01324 2.86955 0
M  V30 13114 H 1233.42 -4.26817 3.45135 0
M  V30 13115 H 1233.68 -4.07032 1.7256 0
M  V30 13116 N 1232.74 -1.33881 -0.831482 0
M  V30 13117 C 1233.67 -1.27384 -1.95693 0
M  V30 13118 C 1234.65 -0.152943 -1.69411 0
M  V30 13119 O 1235.83 -0.34392 -1.9113 0
M  V30 13120 C 1232.96 -1.01982 -3.31989 0
M  V30 13121 C 1231.92 -2.10445 -3.72689 0
M  V30 13122 C 1231.24 -1.70245 -5.06873 0
M  V30 13123 C 1232.54 -3.52194 -3.8569 0
M  V30 13124 H 1234.24 -2.21549 -2.01386 0
M  V30 13125 H 1231.78 -1.06653 -0.967526 0
M  V30 13126 H 1233.73 -0.960841 -4.103 0
M  V30 13127 H 1232.46 -0.0425709 -3.26572 0
M  V30 13128 H 1231.12 -2.15398 -2.96647 0
M  V30 13129 H 1230.77 -0.712036 -4.97935 0
M  V30 13130 H 1230.47 -2.42834 -5.35075 0
M  V30 13131 H 1231.99 -1.65827 -5.87651 0
M  V30 13132 H 1233.4 -3.49701 -4.54293 0
M  V30 13133 H 1231.8 -4.23331 -4.25336 0
M  V30 13134 H 1232.87 -3.9016 -2.87929 0
M  V30 13135 N 1234.21 1.05064 -1.1747 0
M  V30 13136 C 1235.44 1.81761 -0.988464 0
M  V30 13137 C 1235.86 1.83028 0.463272 0
M  V30 13138 O 1235.21 1.25846 1.32171 0
M  V30 13139 C 1235.26 3.2782 -1.5237 0
M  V30 13140 O 1234.99 3.26726 -2.91859 0
M  V30 13141 C 1236.49 4.212 -1.38223 0
M  V30 13142 H 1233.71 0.572712 -0.349631 0
M  V30 13143 H 1236.25 1.32477 -1.55789 0
M  V30 13144 H 1234.41 3.7437 -0.996272 0
M  V30 13145 H 1234.82 4.18151 -3.16623 0
M  V30 13146 H 1236.29 5.2166 -1.80485 0
M  V30 13147 H 1236.77 4.37962 -0.329491 0
M  V30 13148 H 1237.38 3.80506 -1.89988 0
M  V30 13149 N 1235.69 0.975146 1.23809 0
M  V30 13150 C 1236.92 0.658605 1.96665 0
M  V30 13151 C 1237.34 -0.766744 1.71763 0
M  V30 13152 O 1236.7 -1.52151 0.985887 0
M  V30 13153 C 1236.75 0.948438 3.47904 0
M  V30 13154 O 1235.85 0.0377241 4.12383 0
M  V30 13155 H 1235.19 0.248231 0.615855 0
M  V30 13156 H 1237.72 1.30732 1.57386 0
M  V30 13157 H 1237.73 0.883 3.9833 0
M  V30 13158 H 1236.41 1.98717 3.65355 0
M  V30 13159 H 1234.98 0.157122 3.72569 0
M  V30 13160 N 1237.17 -1.38817 0.746158 0
M  V30 13161 C 1238.41 -2.02129 0.303843 0
M  V30 13162 C 1238.77 -1.57943 -1.0917 0
M  V30 13163 O 1239.97 -2.13532 -1.63272 0
M  V30 13164 C 1238.25 -3.5499 0.414379 0
M  V30 13165 S 1239.8 -4.38767 0.0535495 0
M  V30 13166 H 1236.62 -0.701084 0.118329 0
M  V30 13167 H 1239.22 -1.69444 0.975137 0
M  V30 13168 H 1237.93 -3.84638 1.43114 0
M  V30 13169 H 1237.46 -3.92442 -0.274355 0
M  V30 13170 H 1239.47 -4.82469 -1.15921 0
M  V30 13171 N 1238.65 -0.49465 -1.49636 0
M  V30 13172 C 1239.59 0.287153 -2.29007 0
M  V30 13173 C 1240.56 0.966099 -1.35114 0
M  V30 13174 O 1241.75 0.973991 -1.64067 0
M  V30 13175 C 1238.89 1.34941 -3.17624 0
M  V30 13176 C 1238 0.682879 -4.26569 0
M  V30 13177 C 1237.14 1.72503 -5.0241 0
M  V30 13178 C 1236.18 1.04003 -6.032 0
M  V30 13179 N 1235.31 2.0261 -6.7223 0
M  V30 13180 H 1240.15 -0.395941 -2.95358 0
M  V30 13181 H 1237.69 -0.207103 -1.45635 0
M  V30 13182 H 1239.65 1.9772 -3.67372 0
M  V30 13183 H 1238.28 2.00135 -2.5327 0
M  V30 13184 H 1237.33 -0.0580477 -3.80356 0
M  V30 13185 H 1238.64 0.143334 -4.98594 0
M  V30 13186 H 1237.8 2.42804 -5.55996 0
M  V30 13187 H 1236.54 2.29843 -4.30144 0
M  V30 13188 H 1235.54 0.322765 -5.48852 0
M  V30 13189 H 1236.77 0.473219 -6.77449 0
M  V30 13190 H 1234.71 2.58922 -6.0274 0
M  V30 13191 H 1234.63 1.53704 -7.4021 0
M  V30 13192 H 1235.9 2.72218 -7.30423 0
M  V30 13193 N 1240.13 1.55939 -0.228214 0
M  V30 13194 C 1241.4 1.90329 0.451033 0
M  V30 13195 C 1241.78 1.14646 1.77255 0
M  V30 13196 O 1241.13 0.257912 2.2704 0
M  V30 13197 C 1241.34 3.43129 0.637456 0
M  V30 13198 C 1242.69 4.14022 0.94186 0
M  V30 13199 O 1243.71 3.48764 0.724002 0
M  V30 13200 O 1242.57 5.29418 1.35568 0
M  V30 13201 H 1239.67 0.791591 0.2394 0
M  V30 13202 H 1242.21 1.67524 -0.270893 0
M  V30 13203 H 1240.98 3.90191 -0.294435 0
M  V30 13204 H 1240.61 3.71735 1.41062 0
M  V30 13205 N 1241.6 -0.0451101 1.57535 0
M  V30 13206 C 1242.83 -0.75132 1.92777 0
M  V30 13207 C 1243.25 -1.69743 0.826599 0
M  V30 13208 O 1242.6 -1.8142 -0.198224 0
M  V30 13209 C 1242.66 -1.52218 3.2789 0
M  V30 13210 O 1242.38 -0.614059 4.33775 0
M  V30 13211 C 1243.88 -2.32699 3.77314 0
M  V30 13212 H 1241.1 -0.21211 0.636593 0
M  V30 13213 H 1243.64 -0.0074174 2.04499 0
M  V30 13214 H 1241.8 -2.2181 3.17614 0
M  V30 13215 H 1242.21 -1.15294 5.11671 0
M  V30 13216 H 1243.68 -2.82205 4.7441 0
M  V30 13217 H 1244.16 -3.13414 3.07682 0
M  V30 13218 H 1244.77 -1.68212 3.90621 0
M  V30 13219 N 1243.08 -1.54377 -0.317073 0
M  V30 13220 C 1244.31 -1.77184 -1.07798 0
M  V30 13221 C 1244.73 -0.52204 -1.80711 0
M  V30 13222 O 1244.09 0.52672 -1.7348 0
M  V30 13223 C 1244.14 -2.96887 -2.04671 0
M  V30 13224 O 1243.24 -2.68887 -3.12688 0
M  V30 13225 H 1242.58 -0.586937 -0.310485 0
M  V30 13226 H 1245.11 -2.01419 -0.35939 0
M  V30 13227 H 1245.12 -3.24414 -2.47426 0
M  V30 13228 H 1243.8 -3.87518 -1.51005 0
M  V30 13229 H 1242.38 -2.52329 -2.74562 0
M  V30 13230 N 1244.56 0.579466 -1.4656 0
M  V30 13231 C 1245.49 1.70291 -1.53406 0
M  V30 13232 C 1246.51 1.57232 -0.422116 0
M  V30 13233 O 1247.69 1.64598 -0.69064 0
M  V30 13234 C 1244.79 3.08572 -1.40131 0
M  V30 13235 C 1243.97 3.47602 -2.65502 0
M  V30 13236 C 1243.03 4.64955 -2.4638 0
M  V30 13237 O 1242.05 4.70653 -3.20116 0
M  V30 13238 N 1243.25 5.60041 -1.52756 0
M  V30 13239 H 1246.02 1.64873 -2.50274 0
M  V30 13240 H 1243.58 0.765533 -1.42658 0
M  V30 13241 H 1245.57 3.84877 -1.25106 0
M  V30 13242 H 1244.14 3.0834 -0.514322 0
M  V30 13243 H 1243.36 2.60969 -2.95446 0
M  V30 13244 H 1244.65 3.70446 -3.48779 0
M  V30 13245 H 1244.05 5.58176 -0.919587 0
M  V30 13246 H 1242.61 6.35764 -1.43693 0
M  V30 13247 N 1246.04 1.3432 0.824371 0
M  V30 13248 C 1247.27 1.29669 1.61226 0
M  V30 13249 C 1247.68 -0.129532 1.88355 0
M  V30 13250 O 1247.04 -1.07616 1.47394 0
M  V30 13251 C 1247.09 2.08375 2.95402 0
M  V30 13252 O 1246.81 3.45434 2.69456 0
M  V30 13253 C 1248.31 2.11103 3.89808 0
M  V30 13254 H 1245.53 0.446137 0.501201 0
M  V30 13255 H 1248.08 1.76912 1.02579 0
M  V30 13256 H 1246.23 1.64777 3.5061 0
M  V30 13257 H 1246.64 3.86101 3.55001 0
M  V30 13258 H 1248.12 2.706 4.81124 0
M  V30 13259 H 1248.6 1.10505 4.25071 0
M  V30 13260 H 1249.2 2.54784 3.40537 0
M  V30 13261 N 1247.52 -1.0444 1.18026 0
M  V30 13262 C 1248.93 -1.5903 0.978076 0
M  V30 13263 C 1249.28 -1.90407 -0.473241 0
M  V30 13264 O 1248.4 -1.69133 -1.34992 0
M  V30 13265 C 1249 -2.88942 1.76912 0
M  V30 13266 C 1247.56 -3.40164 1.61139 0
M  V30 13267 C 1246.7 -2.13797 1.76596 0
M  V30 13268 H 1249.66 -0.871574 1.32625 0
M  V30 13269 H 1249.68 -3.59173 1.25598 0
M  V30 13270 H 1249.19 -2.66074 2.82535 0
M  V30 13271 H 1247.29 -3.68053 0.580353 0
M  V30 13272 H 1247.4 -4.14241 2.40709 0
M  V30 13273 H 1245.77 -2.24922 1.19507 0
M  V30 13274 H 1246.55 -1.93389 2.83647 0
M  V30 13275 N 1248.99 -0.981699 -1.2329 0
M  V30 13276 C 1249.92 -0.542441 -2.27112 0
M  V30 13277 C 1250.91 0.425034 -1.64704 0
M  V30 13278 O 1252.09 0.318114 -1.91577 0
M  V30 13279 C 1249.22 0.154668 -3.46955 0
M  V30 13280 C 1248.17 -0.73022 -4.21725 0
M  V30 13281 C 1247.5 0.0991766 -5.34608 0
M  V30 13282 C 1248.8 -2.02166 -4.81587 0
M  V30 13283 H 1250.49 -1.41024 -2.64107 0
M  V30 13284 H 1248.04 -0.679544 -1.26957 0
M  V30 13285 H 1249.99 0.473281 -4.18734 0
M  V30 13286 H 1248.72 1.05693 -3.09025 0
M  V30 13287 H 1247.38 -1.03231 -3.51765 0
M  V30 13288 H 1247.02 1.00201 -4.92919 0
M  V30 13289 H 1246.72 -0.489788 -5.85555 0
M  V30 13290 H 1248.25 0.412141 -6.09207 0
M  V30 13291 H 1249.66 -1.76773 -5.45366 0
M  V30 13292 H 1248.06 -2.55851 -5.42826 0
M  V30 13293 H 1249.13 -2.70766 -4.02261 0
M  V30 13294 N 1250.47 1.3842 -0.753509 0
M  V30 13295 C 1251.42 2.27774 -0.101443 0
M  V30 13296 C 1252.41 1.45196 0.693322 0
M  V30 13297 O 1253.6 1.67931 0.55929 0
M  V30 13298 C 1250.73 3.34064 0.790977 0
M  V30 13299 C 1249.81 4.24099 -0.010633 0
M  V30 13300 N 1250.2 4.94845 -1.047 0
M  V30 13301 C 1248.5 4.45476 0.216193 0
M  V30 13302 C 1249.2 5.61164 -1.53199 0
M  V30 13303 N 1248.18 5.36956 -0.847304 0
M  V30 13304 H 1251.98 2.79935 -0.895188 0
M  V30 13305 H 1249.5 1.51321 -0.589545 0
M  V30 13306 H 1251.49 3.96965 1.27375 0
M  V30 13307 H 1250.15 2.83461 1.58367 0
M  V30 13308 H 1251.16 4.97801 -1.42879 0
M  V30 13309 H 1247.84 4.05781 0.982238 0
M  V30 13310 H 1249.23 6.27756 -2.39525 0
M  V30 13311 N 1251.95 0.502579 1.49372 0
M  V30 13312 C 1253.19 -0.0397257 2.04361 0
M  V30 13313 C 1253.55 -1.34131 1.37379 0
M  V30 13314 O 1254.76 -1.96795 1.83099 0
M  V30 13315 C 1253.03 -0.187322 3.56909 0
M  V30 13316 S 1254.59 -0.683647 4.33442 0
M  V30 13317 H 1251.4 -0.00102134 0.710999 0
M  V30 13318 H 1254.01 0.676905 1.83407 0
M  V30 13319 H 1252.71 0.765255 4.03202 0
M  V30 13320 H 1252.24 -0.929146 3.8227 0
M  V30 13321 H 1254.26 -1.95255 4.56169 0
M  V30 13322 N 1253.43 -1.55816 0.23648 0
M  V30 13323 C 1254.34 -2.24576 -0.678439 0
M  V30 13324 C 1255.35 -1.25836 -1.20172 0
M  V30 13325 O 1256.53 -1.58686 -1.24019 0
M  V30 13326 C 1253.6 -2.92376 -1.86325 0
M  V30 13327 C 1252.66 -4.06499 -1.38047 0
M  V30 13328 C 1251.89 -4.71057 -2.50881 0
M  V30 13329 O 1252.11 -4.34652 -3.69369 0
M  V30 13330 O 1251.05 -5.59768 -2.21232 0
M  V30 13331 H 1254.87 -3.03452 -0.122601 0
M  V30 13332 H 1252.46 -1.49399 0.00540803 0
M  V30 13333 H 1254.34 -3.35117 -2.55488 0
M  V30 13334 H 1253.01 -2.16448 -2.40691 0
M  V30 13335 H 1251.92 -3.68296 -0.656422 0
M  V30 13336 H 1253.25 -4.84214 -0.883024 0
M  V30 13337 N 1254.91 0.036755 -1.57557 0
M  V30 13338 C 1255.85 1.05823 -2.07133 0
M  V30 13339 C 1256.85 1.37923 -0.983546 0
M  V30 13340 O 1258.05 1.36918 -1.16848 0
M  V30 13341 H 1254.43 0.358761 -0.660905 0
M  V30 13342 H 1256.4 0.614232 -2.9201 0
M  V30 13343 C 1255.15 2.35302 -2.55985 0
M  V30 13344 H 1254.47 2.11461 -3.393 0
M  V30 13345 H 1255.91 3.05139 -2.94391 0
M  V30 13346 C 1254.37 3.0373 -1.45773 0
M  V30 13347 O 1254.9 3.9325 -0.819587 0
M  V30 13348 N 1253.11 2.64931 -1.19416 0
M  V30 13349 H 1252.65 1.92219 -1.71492 0
M  V30 13350 H 1252.61 3.11033 -0.458865 0
M  V30 13351 N 1256.39 1.54543 0.308881 0
M  V30 13352 C 1257.32 1.87947 1.38557 0
M  V30 13353 C 1258.3 0.737622 1.53275 0
M  V30 13354 O 1259.48 0.992664 1.66913 0
M  V30 13355 C 1256.61 2.11982 2.75102 0
M  V30 13356 C 1255.57 3.2783 2.75158 0
M  V30 13357 C 1254.89 3.37266 4.14917 0
M  V30 13358 C 1256.19 4.65129 2.37598 0
M  V30 13359 H 1257.89 2.78123 1.1085 0
M  V30 13360 H 1255.43 1.3382 0.531808 0
M  V30 13361 H 1257.38 2.33935 3.50503 0
M  V30 13362 H 1256.11 1.18569 3.04317 0
M  V30 13363 H 1254.77 3.05787 2.02212 0
M  V30 13364 H 1254.42 2.41384 4.41296 0
M  V30 13365 H 1254.12 4.15135 4.15857 0
M  V30 13366 H 1255.64 3.61471 4.92109 0
M  V30 13367 H 1257.05 4.86865 3.02714 0
M  V30 13368 H 1255.45 5.45653 2.49765 0
M  V30 13369 H 1256.52 4.6638 1.32731 0
M  V30 13370 N 1257.86 -0.571685 1.46866 0
M  V30 13371 C 1259.14 -1.33216 1.43223 0
M  V30 13372 C 1259.52 -2.1075 0.121495 0
M  V30 13373 O 1258.87 -2.10157 -0.897003 0
M  V30 13374 C 1259.08 -2.24888 2.66882 0
M  V30 13375 C 1260.43 -2.86369 3.13493 0
M  V30 13376 O 1261.45 -2.35197 2.67509 0
M  V30 13377 O 1260.31 -3.79342 3.93398 0
M  V30 13378 H 1257.4 -0.599106 0.570089 0
M  V30 13379 H 1259.95 -0.591788 1.59047 0
M  V30 13380 H 1258.72 -1.67099 3.53827 0
M  V30 13381 H 1258.34 -3.06246 2.53573 0
M  V30 13382 N 1259.34 -1.34755 -0.817236 0
M  V30 13383 C 1260.57 -1.30522 -1.60536 0
M  V30 13384 C 1260.98 0.119541 -1.88421 0
M  V30 13385 O 1260.34 1.06833 -1.47962 0
M  V30 13386 C 1260.39 -2.09939 -2.94292 0
M  V30 13387 O 1260.11 -3.46858 -2.67621 0
M  V30 13388 C 1261.61 -2.13168 -3.88683 0
M  V30 13389 H 1258.83 -0.448789 -0.498828 0
M  V30 13390 H 1261.38 -1.77453 -1.01639 0
M  V30 13391 H 1259.53 -1.66634 -3.49731 0
M  V30 13392 H 1259.95 -3.87979 -3.52949 0
M  V30 13393 H 1261.42 -2.73147 -4.79682 0
M  V30 13394 H 1261.9 -1.12758 -4.24479 0
M  V30 13395 H 1262.5 -2.56587 -3.39181 0
M  V30 13396 N 1260.82 1.03812 -1.18578 0
M  V30 13397 C 1261.75 2.13802 -0.938665 0
M  V30 13398 C 1262.73 1.69643 0.124575 0
M  V30 13399 O 1263.92 1.94179 -0.0285421 0
M  V30 13400 C 1261.05 3.44154 -0.466392 0
M  V30 13401 C 1260 4.01949 -1.47041 0
M  V30 13402 C 1259.33 5.27811 -0.855558 0
M  V30 13403 C 1260.63 4.37827 -2.84789 0
M  V30 13404 H 1262.32 2.34732 -1.85852 0
M  V30 13405 H 1259.87 1.12808 -0.895007 0
M  V30 13406 H 1261.82 4.20463 -0.280856 0
M  V30 13407 H 1260.54 3.22918 0.489041 0
M  V30 13408 H 1259.2 3.27725 -1.64293 0
M  V30 13409 H 1258.85 5.02886 0.107142 0
M  V30 13410 H 1258.55 5.67441 -1.52592 0
M  V30 13411 H 1260.07 6.06795 -0.680609 0
M  V30 13412 H 1261.49 5.05112 -2.71173 0
M  V30 13413 H 1259.88 4.88514 -3.48532 0
M  V30 13414 H 1260.95 3.47541 -3.38147 0
M  V30 13415 N 1262.3 0.988223 1.22768 0
M  V30 13416 C 1263.26 0.539813 2.22752 0
M  V30 13417 C 1264.26 -0.374796 1.56371 0
M  V30 13418 O 1265.45 -0.167402 1.73394 0
M  V30 13419 C 1262.58 -0.215461 3.40218 0
M  V30 13420 H 1263.78 1.42397 2.63938 0
M  V30 13421 H 1261.33 0.774933 1.35737 0
M  V30 13422 H 1262.06 -1.11581 3.045 0
M  V30 13423 H 1261.85 0.441173 3.8961 0
M  V30 13424 H 1263.34 -0.517517 4.14381 0
M  V30 13425 N 1263.78 -1.38018 0.760839 0
M  V30 13426 C 1265.02 -1.99952 0.320241 0
M  V30 13427 C 1265.35 -1.60397 -1.10014 0
M  V30 13428 O 1264.61 -0.836407 -1.76926 0
M  V30 13429 C 1264.9 -3.55168 0.398778 0
M  V30 13430 C 1264.57 -4.14457 1.77585 0
M  V30 13431 C 1263.23 -4.30363 2.15269 0
M  V30 13432 C 1265.58 -4.47089 2.67883 0
M  V30 13433 C 1262.91 -4.762 3.4271 0
M  V30 13434 C 1265.26 -4.94345 3.94722 0
M  V30 13435 C 1263.93 -5.08458 4.32466 0
M  V30 13436 H 1263.2 -0.731675 0.117185 0
M  V30 13437 H 1265.85 -1.64955 0.972736 0
M  V30 13438 H 1264.15 -3.90346 -0.337273 0
M  V30 13439 H 1265.85 -4.00981 0.0393393 0
M  V30 13440 H 1262.44 -4.02496 1.47292 0
M  V30 13441 H 1266.62 -4.34395 2.40031 0
M  V30 13442 H 1261.88 -4.85312 3.71863 0
M  V30 13443 H 1266.05 -5.18563 4.64828 0
M  V30 13444 H 1263.68 -5.43735 5.31278 0
M  V30 13445 N 1265.25 -0.510493 -1.49103 0
M  V30 13446 C 1266.5 0.0325393 -2.01674 0
M  V30 13447 C 1266.82 1.37162 -1.39448 0
M  V30 13448 O 1268.02 2.00189 -1.83402 0
M  V30 13449 C 1266.48 0.108433 -3.59737 0
M  V30 13450 C 1266.09 -1.22458 -4.30939 0
M  V30 13451 C 1267.83 0.601326 -4.20219 0
M  V30 13452 C 1265.74 -1.11033 -5.80884 0
M  V30 13453 H 1264.67 0.0159333 -0.753832 0
M  V30 13454 H 1267.32 -0.651344 -1.71551 0
M  V30 13455 H 1265.7 0.856974 -3.86616 0
M  V30 13456 H 1266.87 -1.98715 -4.15751 0
M  V30 13457 H 1265.19 -1.65166 -3.82242 0
M  V30 13458 H 1267.79 0.704462 -5.30039 0
M  V30 13459 H 1268.13 1.60247 -3.84222 0
M  V30 13460 H 1268.66 -0.0909561 -3.97696 0
M  V30 13461 H 1265.4 -2.08603 -6.21422 0
M  V30 13462 H 1264.92 -0.388798 -5.98539 0
M  V30 13463 H 1266.6 -0.792949 -6.42123 0
M  V30 13464 N 1266.73 1.55688 -0.24474 0
M  V30 13465 C 1267.66 2.24272 0.64995 0
M  V30 13466 C 1268.64 1.22226 1.183 0
M  V30 13467 O 1269.83 1.50873 1.22274 0
M  V30 13468 C 1266.96 2.94053 1.84798 0
M  V30 13469 C 1265.91 4.02769 1.44779 0
M  V30 13470 C 1265.24 4.59965 2.72647 0
M  V30 13471 C 1266.54 5.18601 0.62047 0
M  V30 13472 H 1268.23 2.99298 0.0780654 0
M  V30 13473 H 1265.78 1.43955 0.0361069 0
M  V30 13474 H 1267.73 3.40732 2.47951 0
M  V30 13475 H 1266.45 2.16511 2.44521 0
M  V30 13476 H 1265.11 3.56856 0.839609 0
M  V30 13477 H 1264.76 3.79126 3.30564 0
M  V30 13478 H 1264.46 5.33352 2.46596 0
M  V30 13479 H 1265.99 5.09376 3.36703 0
M  V30 13480 H 1267.4 5.61519 1.15625 0
M  V30 13481 H 1265.8 5.98364 0.456097 0
M  V30 13482 H 1266.87 4.83503 -0.367798 0
M  V30 13483 N 1268.21 -0.0283989 1.57574 0
M  V30 13484 C 1269.62 -0.574912 1.77628 0
M  V30 13485 C 1269.97 -1.75563 0.875903 0
M  V30 13486 O 1269.1 -2.16284 0.0709141 0
M  V30 13487 C 1269.69 -1.04972 3.22128 0
M  V30 13488 C 1268.25 -1.54175 3.43376 0
M  V30 13489 C 1267.4 -0.480127 2.73112 0
M  V30 13490 H 1270.35 0.197826 1.57462 0
M  V30 13491 H 1270.37 -1.91705 3.28678 0
M  V30 13492 H 1269.88 -0.190173 3.87634 0
M  V30 13493 H 1267.98 -2.42313 2.83046 0
M  V30 13494 H 1268.1 -1.58879 4.51989 0
M  V30 13495 H 1266.46 -0.935314 2.36905 0
M  V30 13496 H 1267.24 0.369973 3.41301 0
M  V30 13497 N 1269.69 -1.54705 -0.300681 0
M  V30 13498 C 1270.64 -1.82062 -1.37249 0
M  V30 13499 C 1271.62 -0.677804 -1.45927 0
M  V30 13500 O 1272.81 -0.938447 -1.50074 0
M  V30 13501 C 1269.94 -2.07168 -2.73745 0
M  V30 13502 C 1269.03 -3.27634 -2.69289 0
M  V30 13503 N 1269.42 -4.48182 -2.34449 0
M  V30 13504 C 1267.72 -3.29668 -3.00391 0
M  V30 13505 C 1268.42 -5.30199 -2.39298 0
M  V30 13506 N 1267.39 -4.67929 -2.76665 0
M  V30 13507 H 1271.2 -2.72829 -1.09277 0
M  V30 13508 H 1268.71 -1.54209 -0.509259 0
M  V30 13509 H 1270.71 -2.24914 -3.51026 0
M  V30 13510 H 1269.37 -1.17668 -3.02629 0
M  V30 13511 H 1270.38 -4.74778 -2.06898 0
M  V30 13512 H 1267.06 -2.50276 -3.34168 0
M  V30 13513 H 1268.45 -6.36519 -2.15157 0
M  V30 13514 N 1271.17 0.563888 -1.47167 0
M  V30 13515 C 1272.58 0.889156 -1.32537 0
M  V30 13516 C 1272.78 1.99088 -0.310854 0
M  V30 13517 O 1271.84 2.50943 0.27998 0
M  V30 13518 C 1273.15 1.28871 -2.71685 0
M  V30 13519 C 1274.7 1.40051 -2.79919 0
M  V30 13520 C 1275.17 1.83364 -4.19692 0
M  V30 13521 N 1276.67 1.90526 -4.22201 0
M  V30 13522 C 1277.4 2.25355 -5.2726 0
M  V30 13523 N 1276.9 2.58844 -6.42629 0
M  V30 13524 N 1278.69 2.26071 -5.14634 0
M  V30 13525 H 1270.84 -0.163581 -2.11769 0
M  V30 13526 H 1273.1 -0.0105151 -0.947942 0
M  V30 13527 H 1272.81 0.553057 -3.47324 0
M  V30 13528 H 1272.68 2.24629 -3.03021 0
M  V30 13529 H 1275.07 2.12698 -2.04557 0
M  V30 13530 H 1275.15 0.424971 -2.52245 0
M  V30 13531 H 1274.8 1.11289 -4.95557 0
M  V30 13532 H 1274.73 2.81909 -4.44786 0
M  V30 13533 H 1277.22 1.67059 -3.38968 0
M  V30 13534 H 1277.53 2.84427 -7.18555 0
M  V30 13535 H 1275.87 2.56439 -6.4596 0
M  V30 13536 H 1279.07 1.99343 -4.23533 0
M  V30 13537 H 1279.24 2.52885 -5.96618 0
M  V30 13538 N 1272.64 1.35187 0.810078 0
M  V30 13539 C 1273.87 1.31371 1.59841 0
M  V30 13540 C 1274.29 -0.109547 1.88482 0
M  V30 13541 O 1273.64 -1.06047 1.48527 0
M  V30 13542 C 1273.7 2.11496 2.93175 0
M  V30 13543 O 1273.42 3.48273 2.65777 0
M  V30 13544 C 1274.92 2.15226 3.87547 0
M  V30 13545 H 1272.14 0.451428 0.496441 0
M  V30 13546 H 1274.68 1.7799 1.00697 0
M  V30 13547 H 1272.84 1.68486 3.48843 0
M  V30 13548 H 1273.25 3.89845 3.50886 0
M  V30 13549 H 1274.72 2.75687 4.78226 0
M  V30 13550 H 1275.2 1.15007 4.23875 0
M  V30 13551 H 1275.81 2.58382 3.37815 0
M  V30 13552 N 1274.12 -1.03182 1.19127 0
M  V30 13553 C 1275.4 -1.73586 0.901507 0
M  V30 13554 C 1275.78 -2.02585 -0.593521 0
M  V30 13555 O 1275.13 -1.67813 -1.55084 0
M  V30 13556 C 1275.34 -3.01472 1.75829 0
M  V30 13557 C 1276.69 -3.75037 1.99078 0
M  V30 13558 O 1277.71 -3.11392 1.72956 0
M  V30 13559 O 1276.57 -4.8945 2.43108 0
M  V30 13560 H 1273.66 -0.755797 0.335708 0
M  V30 13561 H 1276.21 -1.09167 1.29925 0
M  V30 13562 H 1274.98 -2.76247 2.77134 0
M  V30 13563 H 1274.6 -3.73631 1.35963 0
M  V30 13564 N 1275.6 -0.99472 -1.22242 0
M  V30 13565 C 1276.55 -0.53946 -2.26258 0
M  V30 13566 C 1277.54 0.410796 -1.64344 0
M  V30 13567 O 1278.75 0.283116 -1.7776 0
M  V30 13568 H 1275.12 -0.156069 -0.735627 0
M  V30 13569 H 1277.09 -1.42814 -2.62005 0
M  V30 13570 C 1275.84 0.12842 -3.47463 0
M  V30 13571 H 1275.17 -0.593727 -3.95367 0
M  V30 13572 H 1276.61 0.410393 -4.22009 0
M  V30 13573 C 1275.07 1.36433 -3.08038 0
M  V30 13574 O 1275.6 2.45953 -3.176 0
M  V30 13575 N 1273.8 1.24026 -2.62804 0
M  V30 13576 H 1273.35 0.349111 -2.55223 0
M  V30 13577 H 1273.31 2.06824 -2.36794 0
M  V30 13578 N 1277.08 1.37613 -0.768148 0
M  V30 13579 C 1278.3 2.04579 -0.340892 0
M  V30 13580 C 1278.73 1.57556 1.02751 0
M  V30 13581 O 1278.09 0.734151 1.65771 0
M  V30 13582 C 1278.13 3.58495 -0.389099 0
M  V30 13583 O 1277.24 4.07838 0.611741 0
M  V30 13584 H 1276.58 0.647246 -0.148216 0
M  V30 13585 H 1279.11 1.75999 -1.04333 0
M  V30 13586 H 1279.12 4.07263 -0.245116 0
M  V30 13587 H 1277.79 3.92076 -1.38742 0
M  V30 13588 H 1276.37 3.70399 0.431173 0
M  V30 13589 N 1278.56 0.518393 1.4883 0
M  V30 13590 C 1279.47 -0.254811 2.33212 0
M  V30 13591 C 1280.48 -0.950401 1.45751 0
M  V30 13592 O 1281.66 -0.927932 1.78749 0
M  V30 13593 C 1278.72 -1.29509 3.21603 0
M  V30 13594 C 1277.78 -0.611086 4.24928 0
M  V30 13595 C 1277.02 -1.6018 5.09095 0
M  V30 13596 O 1277.24 -2.83336 4.95052 0
M  V30 13597 O 1276.17 -1.14756 5.90859 0
M  V30 13598 H 1280 0.436329 3.00549 0
M  V30 13599 H 1277.59 0.27947 1.46763 0
M  V30 13600 H 1279.47 -1.89654 3.7631 0
M  V30 13601 H 1278.14 -1.96884 2.5694 0
M  V30 13602 H 1277.05 0.0305638 3.74088 0
M  V30 13603 H 1278.38 0.0205249 4.92196 0
M  V30 13604 N 1280.03 -1.55556 0.252993 0
M  V30 13605 C 1281.26 -2.03945 -0.376965 0
M  V30 13606 C 1281.68 -1.13089 -1.50308 0
M  V30 13607 O 1281.04 -0.125039 -1.80868 0
M  V30 13608 C 1281.09 -3.50284 -0.856363 0
M  V30 13609 O 1280.19 -3.62551 -1.96546 0
M  V30 13610 H 1279.54 -0.659002 -0.081317 0
M  V30 13611 H 1282.07 -2.01024 0.380831 0
M  V30 13612 H 1282.08 -3.91222 -1.15798 0
M  V30 13613 H 1280.75 -4.15887 -0.0323302 0
M  V30 13614 H 1279.33 -3.33511 -1.66808 0
M  V30 13615 N 1281.51 0.0200419 -1.57587 0
M  V30 13616 C 1282.75 0.713765 -1.91533 0
M  V30 13617 C 1283.12 1.72035 -0.852516 0
M  V30 13618 O 1284.32 2.46299 -1.07658 0
M  V30 13619 C 1282.59 1.35786 -3.30601 0
M  V30 13620 S 1284.15 2.07948 -3.86397 0
M  V30 13621 H 1280.97 0.236249 -0.670602 0
M  V30 13622 H 1283.57 -0.0318313 -1.95474 0
M  V30 13623 H 1282.27 0.612147 -4.05809 0
M  V30 13624 H 1281.8 2.14181 -3.29985 0
M  V30 13625 H 1283.82 3.3521 -3.65853 0
M  V30 13626 N 1282.99 1.54862 0.292472 0
M  V30 13627 C 1284.24 1.74807 1.02813 0
M  V30 13628 C 1284.57 0.536935 1.8663 0
M  V30 13629 O 1283.84 -0.465854 1.88839 0
M  V30 13630 C 1284.13 3.04202 1.927 0
M  V30 13631 C 1283.98 4.35631 1.12006 0
M  V30 13632 C 1285.3 3.29514 2.91734 0
M  V30 13633 H 1282.42 0.636015 0.372362 0
M  V30 13634 H 1285.06 1.87583 0.302069 0
M  V30 13635 H 1283.21 2.9344 2.54608 0
M  V30 13636 H 1284.88 4.58323 0.52319 0
M  V30 13637 H 1283.13 4.31733 0.42298 0
M  V30 13638 H 1283.8 5.22454 1.78172 0
M  V30 13639 H 1286.27 3.39941 2.39957 0
M  V30 13640 H 1285.15 4.21352 3.51786 0
M  V30 13641 H 1285.41 2.48216 3.65843 0
M  V30 13642 N 1284.47 -0.556076 1.47464 0
M  V30 13643 C 1285.42 -1.6586 1.56444 0
M  V30 13644 C 1286.4 -1.55233 0.423262 0
M  V30 13645 O 1287.59 -1.63696 0.673247 0
M  V30 13646 C 1284.72 -3.04633 1.58283 0
M  V30 13647 C 1283.81 -3.2046 2.77788 0
M  V30 13648 N 1284.2 -3.06347 4.02474 0
M  V30 13649 C 1282.5 -3.51462 2.74573 0
M  V30 13650 C 1283.2 -3.24893 4.82514 0
M  V30 13651 N 1282.18 -3.51278 4.14855 0
M  V30 13652 H 1285.98 -1.53519 2.50618 0
M  V30 13653 H 1283.49 -0.760862 1.43474 0
M  V30 13654 H 1285.49 -3.83797 1.62806 0
M  V30 13655 H 1284.15 -3.18085 0.652052 0
M  V30 13656 H 1285.16 -2.8365 4.33316 0
M  V30 13657 H 1281.84 -3.71434 1.90639 0
M  V30 13658 H 1283.23 -3.1894 5.91377 0
M  V30 13659 N 1285.95 -1.35615 -0.802897 0
M  V30 13660 C 1287.2 -1.28839 -1.55708 0
M  V30 13661 C 1287.52 0.135906 -1.94526 0
M  V30 13662 O 1286.79 1.07317 -1.6389 0
M  V30 13663 H 1285.37 -0.473906 -0.577427 0
M  V30 13664 H 1288.03 -1.69759 -0.957487 0
M  V30 13665 H 1287.12 -1.90675 -2.47082 0
M  V30 13666 N 1287.43 1.02549 -1.19673 0
M  V30 13667 C 1288.37 2.109 -0.937536 0
M  V30 13668 C 1289.34 1.65599 0.128923 0
M  V30 13669 O 1290.53 1.90795 -0.0139366 0
M  V30 13670 C 1287.67 3.4166 -0.48602 0
M  V30 13671 C 1286.78 4.0049 -1.61963 0
M  V30 13672 C 1285.92 5.19273 -1.11931 0
M  V30 13673 C 1284.95 5.70166 -2.22659 0
M  V30 13674 N 1284.09 6.80221 -1.73909 0
M  V30 13675 H 1288.93 2.32408 -1.86523 0
M  V30 13676 H 1286.47 1.13982 -0.929869 0
M  V30 13677 H 1288.43 4.16693 -0.205614 0
M  V30 13678 H 1287.06 3.20253 0.404678 0
M  V30 13679 H 1286.11 3.22638 -2.01516 0
M  V30 13680 H 1287.42 4.34273 -2.45374 0
M  V30 13681 H 1286.57 6.01478 -0.794336 0
M  V30 13682 H 1285.31 4.87033 -0.254972 0
M  V30 13683 H 1284.32 4.86572 -2.55983 0
M  V30 13684 H 1285.54 6.04444 -3.09554 0
M  V30 13685 H 1283.49 6.49826 -0.897889 0
M  V30 13686 H 1283.41 7.13149 -2.50907 0
M  V30 13687 H 1284.67 7.66011 -1.44386 0
M  V30 13688 N 1288.9 1.00119 1.21713 0
M  V30 13689 C 1289.85 0.529464 2.21767 0
M  V30 13690 C 1290.84 -0.406858 1.55671 0
M  V30 13691 O 1292.03 -0.232329 1.75469 0
M  V30 13692 C 1289.16 -0.146336 3.42988 0
M  V30 13693 C 1288.24 0.81078 4.16278 0
M  V30 13694 N 1288.64 1.96204 4.66195 0
M  V30 13695 C 1286.93 0.628371 4.41551 0
M  V30 13696 C 1287.63 2.56346 5.2217 0
M  V30 13697 N 1286.61 1.8454 5.11318 0
M  V30 13698 H 1290.41 1.40738 2.58012 0
M  V30 13699 H 1287.93 0.864518 1.37477 0
M  V30 13700 H 1289.92 -0.501726 4.1387 0
M  V30 13701 H 1288.58 -1.02029 3.08254 0
M  V30 13702 H 1289.59 2.34255 4.61893 0
M  V30 13703 H 1286.27 -0.198819 4.17026 0
M  V30 13704 H 1287.66 3.53688 5.71274 0
M  V30 13705 N 1290.38 -1.37203 0.775435 0
M  V30 13706 C 1291.66 -1.93783 0.266005 0
M  V30 13707 C 1292.04 -1.70875 -1.23956 0
M  V30 13708 O 1291.39 -1.05965 -2.02444 0
M  V30 13709 C 1291.6 -3.43018 0.643404 0
M  V30 13710 C 1292.94 -4.20119 0.615267 0
M  V30 13711 O 1293.97 -3.51396 0.583018 0
M  V30 13712 O 1292.83 -5.42673 0.645637 0
M  V30 13713 H 1289.92 -0.824649 0.0623107 0
M  V30 13714 H 1292.47 -1.46468 0.857036 0
M  V30 13715 H 1291.24 -3.5329 1.68232 0
M  V30 13716 H 1290.86 -3.97592 0.0255138 0
M  V30 13717 N 1291.86 -0.526279 -1.48553 0
M  V30 13718 C 1293.08 0.00731432 -2.07399 0
M  V30 13719 C 1293.51 1.27737 -1.38075 0
M  V30 13720 O 1292.87 1.75741 -0.445503 0
M  V30 13721 C 1292.92 0.218126 -3.5994 0
M  V30 13722 O 1292.02 1.28759 -3.91784 0
M  V30 13723 H 1291.36 -0.0374784 -0.662941 0
M  V30 13724 H 1293.89 -0.733133 -1.91014 0
M  V30 13725 H 1293.9 0.44192 -4.056 0
M  V30 13726 H 1292.58 -0.709668 -4.09801 0
M  V30 13727 H 1291.15 1.04674 -3.57907 0
M  V30 13728 N 1293.34 1.5542 -0.261239 0
M  V30 13729 C 1294.56 2.04142 0.366144 0
M  V30 13730 C 1294.99 1.13884 1.49706 0
M  V30 13731 O 1294.35 0.134629 1.80799 0
M  V30 13732 C 1294.39 3.50733 0.837774 0
M  V30 13733 O 1293.5 3.63588 1.94621 0
M  V30 13734 H 1292.84 0.659424 0.077821 0
M  V30 13735 H 1295.37 2.0082 -0.391487 0
M  V30 13736 H 1295.38 3.91831 1.13721 0
M  V30 13737 H 1294.05 4.15899 0.0102742 0
M  V30 13738 H 1292.63 3.34391 1.65037 0
M  V30 13739 N 1294.82 -0.0116844 1.57596 0
M  V30 13740 C 1296.06 -0.694423 1.91179 0
M  V30 13741 C 1296.42 -1.72025 0.861703 0
M  V30 13742 O 1295.71 -1.91175 -0.127545 0
M  V30 13743 C 1295.9 -1.38985 3.29269 0
M  V30 13744 C 1295.73 -0.432902 4.47611 0
M  V30 13745 C 1294.5 -0.0475684 5.05278 0
M  V30 13746 C 1296.7 0.296001 5.13447 0
M  V30 13747 N 1294.68 0.908817 6.07136 0
M  V30 13748 C 1296.05 1.10746 6.10029 0
M  V30 13749 C 1298.11 0.361088 4.96589 0
M  V30 13750 C 1296.81 1.97805 6.91568 0
M  V30 13751 C 1298.84 1.21887 5.78703 0
M  V30 13752 C 1298.2 2.0182 6.74869 0
M  V30 13753 H 1294.3 -0.227668 0.748125 0
M  V30 13754 H 1296.88 0.0459176 1.94646 0
M  V30 13755 H 1295.05 -2.10055 3.26698 0
M  V30 13756 H 1296.79 -2.02636 3.50315 0
M  V30 13757 H 1293.54 -0.413466 4.71792 0
M  V30 13758 H 1293.96 1.38203 6.62743 0
M  V30 13759 H 1298.61 -0.242613 4.22103 0
M  V30 13760 H 1296.32 2.59248 7.65386 0
M  V30 13761 H 1299.91 1.27299 5.67703 0
M  V30 13762 H 1298.79 2.67121 7.37303 0
M  V30 13763 N 1296.29 -1.55015 -0.284256 0
M  V30 13764 C 1297.54 -1.7535 -1.01884 0
M  V30 13765 C 1297.87 -0.546825 -1.86342 0
M  V30 13766 O 1297.15 0.455832 -1.89083 0
M  V30 13767 C 1297.43 -3.05219 -1.91084 0
M  V30 13768 C 1297.28 -4.36219 -1.09694 0
M  V30 13769 C 1298.6 -3.31056 -2.89983 0
M  V30 13770 H 1295.72 -0.637981 -0.368984 0
M  V30 13771 H 1298.36 -1.87741 -0.292116 0
M  V30 13772 H 1296.51 -2.94786 -2.53048 0
M  V30 13773 H 1298.19 -4.58594 -0.498876 0
M  V30 13774 H 1296.43 -4.31951 -0.400078 0
M  V30 13775 H 1297.1 -5.23392 -1.75399 0
M  V30 13776 H 1299.58 -3.41209 -2.38151 0
M  V30 13777 H 1298.45 -4.23212 -3.49547 0
M  V30 13778 H 1298.71 -2.50153 -3.64521 0
M  V30 13779 N 1297.77 0.548248 -1.47757 0
M  V30 13780 C 1298.68 1.68178 -1.63565 0
M  V30 13781 C 1299.7 1.661 -0.518351 0
M  V30 13782 O 1300.87 1.85384 -0.787061 0
M  V30 13783 C 1297.94 3.04673 -1.65454 0
M  V30 13784 C 1297 3.17749 -2.88677 0
M  V30 13785 C 1296.23 4.47733 -2.90466 0
M  V30 13786 O 1296.46 5.33736 -2.01201 0
M  V30 13787 O 1295.39 4.64789 -3.82433 0
M  V30 13788 H 1299.22 1.57781 -2.59497 0
M  V30 13789 H 1296.8 0.719277 -1.30946 0
M  V30 13790 H 1298.68 3.85885 -1.69324 0
M  V30 13791 H 1297.36 3.15433 -0.726912 0
M  V30 13792 H 1296.26 2.359 -2.90348 0
M  V30 13793 H 1297.6 3.11897 -3.80763 0
M  V30 13794 N 1299.25 1.36039 0.795694 0
M  V30 13795 C 1300.16 1.31991 1.93948 0
M  V30 13796 C 1301.18 0.223064 1.72564 0
M  V30 13797 O 1302.35 0.454344 1.96208 0
M  V30 13798 C 1299.42 1.10228 3.28711 0
M  V30 13799 C 1298.48 2.29328 3.62914 0
M  V30 13800 C 1297.71 2.08595 4.91247 0
M  V30 13801 O 1297.93 1.05793 5.60503 0
M  V30 13802 O 1296.87 2.96222 5.23962 0
M  V30 13803 H 1300.69 2.28274 2.00311 0
M  V30 13804 H 1298.28 1.16521 0.935048 0
M  V30 13805 H 1300.16 0.999842 4.09367 0
M  V30 13806 H 1298.84 0.17003 3.23253 0
M  V30 13807 H 1297.74 2.4514 2.8259 0
M  V30 13808 H 1299.08 3.21038 3.73089 0
M  V30 13809 N 1300.73 -1.01913 1.20215 0
M  V30 13810 C 1301.66 -2.12282 0.97256 0
M  V30 13811 C 1302.64 -1.6982 -0.0975709 0
M  V30 13812 O 1303.82 -1.94109 0.0594307 0
M  V30 13813 C 1300.95 -3.43369 0.521085 0
M  V30 13814 C 1299.91 -3.99559 1.53417 0
M  V30 13815 C 1299.23 -5.26383 0.93942 0
M  V30 13816 C 1300.53 -4.33241 2.91718 0
M  V30 13817 H 1302.23 -2.31746 1.89563 0
M  V30 13818 H 1299.77 -1.1137 0.912841 0
M  V30 13819 H 1301.73 -4.19963 0.347713 0
M  V30 13820 H 1300.45 -3.23655 -0.437605 0
M  V30 13821 H 1299.11 -3.25069 1.69486 0
M  V30 13822 H 1298.76 -5.02993 -0.0271236 0
M  V30 13823 H 1298.46 -5.64942 1.616 0
M  V30 13824 H 1299.98 -6.05635 0.777059 0
M  V30 13825 H 1301.4 -5.00734 2.79175 0
M  V30 13826 H 1299.79 -4.82907 3.56259 0
M  V30 13827 H 1300.86 -3.42118 3.43633 0
M  V30 13828 N 1302.21 -1.00763 -1.2118 0
M  V30 13829 C 1303.14 -0.590493 -2.2591 0
M  V30 13830 C 1304.12 0.390002 -1.65569 0
M  V30 13831 O 1305.3 0.277406 -1.92208 0
M  V30 13832 C 1302.43 0.0810388 -3.47205 0
M  V30 13833 C 1301.39 -0.81951 -4.20081 0
M  V30 13834 C 1300.71 -0.014244 -5.34698 0
M  V30 13835 C 1302.01 -2.12336 -4.7719 0
M  V30 13836 H 1303.71 -1.46595 -2.61056 0
M  V30 13837 H 1301.25 -0.706321 -1.25487 0
M  V30 13838 H 1303.21 0.384355 -4.19644 0
M  V30 13839 H 1301.93 0.991145 -3.11197 0
M  V30 13840 H 1300.59 -1.10669 -3.49497 0
M  V30 13841 H 1300.24 0.897233 -4.94933 0
M  V30 13842 H 1299.94 -0.613883 -5.84384 0
M  V30 13843 H 1301.46 0.282827 -6.09945 0
M  V30 13844 H 1302.87 -1.88301 -5.41494 0
M  V30 13845 H 1301.27 -2.67308 -5.37277 0
M  V30 13846 H 1302.34 -2.79238 -3.96427 0
M  V30 13847 N 1303.68 1.3679 -0.7827 0
M  V30 13848 C 1304.62 2.27871 -0.122531 0
M  V30 13849 C 1305.6 1.46885 0.697399 0
M  V30 13850 O 1306.78 1.76198 0.669819 0
M  V30 13851 C 1303.91 3.28314 0.832311 0
M  V30 13852 C 1302.95 4.26394 0.0950152 0
M  V30 13853 S 1303.79 5.2131 -1.22457 0
M  V30 13854 C 1304.94 6.25302 -0.273558 0
M  V30 13855 H 1305.17 2.83514 -0.894814 0
M  V30 13856 H 1302.71 1.43229 -0.5766 0
M  V30 13857 H 1304.67 3.86688 1.37778 0
M  V30 13858 H 1303.33 2.71597 1.57779 0
M  V30 13859 H 1302.52 4.97297 0.819278 0
M  V30 13860 H 1302.12 3.72067 -0.379778 0
M  V30 13861 H 1304.41 6.75263 0.550064 0
M  V30 13862 H 1305.36 7.01684 -0.951071 0
M  V30 13863 H 1305.76 5.64372 0.120115 0
M  V30 13864 N 1305.16 0.53415 1.48272 0
M  V30 13865 C 1306.09 -0.215037 2.32508 0
M  V30 13866 C 1307.07 -0.931083 1.42355 0
M  V30 13867 O 1308.26 -0.916051 1.71237 0
M  V30 13868 C 1305.39 -1.25985 3.23643 0
M  V30 13869 C 1304.34 -0.661692 4.22854 0
M  V30 13870 C 1303.67 -1.80946 5.03153 0
M  V30 13871 C 1304.97 0.369358 5.20992 0
M  V30 13872 H 1306.66 0.488158 2.95394 0
M  V30 13873 H 1304.21 0.236206 1.4205 0
M  V30 13874 H 1306.16 -1.79195 3.81402 0
M  V30 13875 H 1304.89 -1.99268 2.58766 0
M  V30 13876 H 1303.54 -0.151082 3.66289 0
M  V30 13877 H 1303.19 -2.53077 4.34696 0
M  V30 13878 H 1302.89 -1.41513 5.70305 0
M  V30 13879 H 1304.42 -2.34526 5.63764 0
M  V30 13880 H 1305.83 -0.0758076 5.7325 0
M  V30 13881 H 1304.23 0.681301 5.9622 0
M  V30 13882 H 1305.3 1.27363 4.67875 0
M  V30 13883 N 1306.64 -1.55279 0.269478 0
M  V30 13884 C 1307.59 -2.18984 -0.634838 0
M  V30 13885 C 1308.57 -1.15269 -1.12258 0
M  V30 13886 O 1309.77 -1.41103 -1.0686 0
M  V30 13887 C 1306.9 -2.91014 -1.82114 0
M  V30 13888 C 1305.98 -4.02011 -1.35084 0
M  V30 13889 N 1306.37 -5.02273 -0.596299 0
M  V30 13890 C 1304.67 -4.14979 -1.63427 0
M  V30 13891 C 1305.37 -5.80647 -0.349781 0
M  V30 13892 N 1304.35 -5.35749 -0.92057 0
M  V30 13893 H 1308.15 -2.93857 -0.0504516 0
M  V30 13894 H 1305.66 -1.62237 0.0727843 0
M  V30 13895 H 1307.66 -3.35098 -2.48022 0
M  V30 13896 H 1306.32 -2.1765 -2.40953 0
M  V30 13897 H 1307.33 -5.17324 -0.244188 0
M  V30 13898 H 1304.01 -3.52802 -2.23242 0
M  V30 13899 H 1305.4 -6.71419 0.254139 0
M  V30 13900 N 1308.12 0.00332656 -1.576 0
M  V30 13901 C 1309.53 0.359361 -1.55502 0
M  V30 13902 C 1309.73 1.74997 -0.998914 0
M  V30 13903 O 1308.79 2.44482 -0.631263 0
M  V30 13904 C 1310.1 0.237638 -2.9976 0
M  V30 13905 C 1311.65 0.312824 -3.11433 0
M  V30 13906 C 1312.13 0.220262 -4.5747 0
M  V30 13907 N 1313.62 0.278265 -4.62363 0
M  V30 13908 C 1314.35 0.229933 -5.72939 0
M  V30 13909 N 1313.85 0.132391 -6.92673 0
M  V30 13910 N 1315.64 0.281555 -5.61394 0
M  V30 13911 H 1307.79 -0.906404 -1.92089 0
M  V30 13912 H 1310.06 -0.347129 -0.88216 0
M  V30 13913 H 1309.76 -0.719007 -3.44272 0
M  V30 13914 H 1309.64 1.02105 -3.63118 0
M  V30 13915 H 1312.02 1.25991 -2.66852 0
M  V30 13916 H 1312.1 -0.500395 -2.50858 0
M  V30 13917 H 1311.75 -0.723267 -5.02724 0
M  V30 13918 H 1311.68 1.05192 -5.15987 0
M  V30 13919 H 1314.17 0.35512 -3.76228 0
M  V30 13920 H 1314.48 0.101317 -7.72734 0
M  V30 13921 H 1312.83 0.0980665 -6.94931 0
M  V30 13922 H 1316.02 0.355931 -4.66745 0
M  V30 13923 H 1316.19 0.240423 -6.47554 0
M  V30 13924 N 1309.6 1.55164 0.276031 0
M  V30 13925 C 1310.56 1.87065 1.32436 0
M  V30 13926 C 1311.56 0.745024 1.42499 0
M  V30 13927 O 1312.75 1.01321 1.41702 0
M  V30 13928 C 1309.88 2.07322 2.70611 0
M  V30 13929 H 1311.07 2.80775 1.05382 0
M  V30 13930 H 1308.63 1.47609 0.513947 0
M  V30 13931 H 1309.36 1.15983 3.0285 0
M  V30 13932 H 1309.15 2.89275 2.64693 0
M  V30 13933 H 1310.64 2.33287 3.46362 0
M  V30 13934 N 1311.07 -0.540404 1.48045 0
M  V30 13935 C 1312.49 -0.867958 1.33935 0
M  V30 13936 C 1312.69 -1.98568 0.342488 0
M  V30 13937 O 1311.75 -2.51357 -0.240022 0
M  V30 13938 C 1313.06 -1.24532 2.73701 0
M  V30 13939 C 1314.61 -1.3558 2.82112 0
M  V30 13940 C 1315.08 -1.76664 4.22556 0
M  V30 13941 N 1316.57 -1.83785 4.25179 0
M  V30 13942 C 1317.31 -2.16938 5.30778 0
M  V30 13943 N 1316.8 -2.48587 6.46666 0
M  V30 13944 N 1318.6 -2.17855 5.18166 0
M  V30 13945 H 1310.75 0.197251 2.11482 0
M  V30 13946 H 1313.01 0.0255947 0.947654 0
M  V30 13947 H 1312.72 -0.497731 3.4816 0
M  V30 13948 H 1312.59 -2.19779 3.06556 0
M  V30 13949 H 1314.98 -2.09417 2.07915 0
M  V30 13950 H 1315.06 -0.384787 2.52889 0
M  V30 13951 H 1314.7 -1.03391 4.97265 0
M  V30 13952 H 1314.63 -2.74797 4.49215 0
M  V30 13953 H 1317.12 -1.61645 3.41583 0
M  V30 13954 H 1317.44 -2.72959 7.22989 0
M  V30 13955 H 1315.78 -2.4613 6.49958 0
M  V30 13956 H 1318.97 -1.9258 4.2665 0
M  V30 13957 H 1319.15 -2.43361 6.00566 0
M  V30 13958 N 1312.55 -1.36459 -0.788468 0
M  V30 13959 C 1313.8 -1.3007 -1.54158 0
M  V30 13960 C 1314.11 0.117574 -1.95246 0
M  V30 13961 O 1315.32 0.303837 -2.69795 0
M  V30 13962 C 1313.78 -2.28216 -2.78291 0
M  V30 13963 C 1313.38 -3.75484 -2.44368 0
M  V30 13964 C 1315.13 -2.30806 -3.56271 0
M  V30 13965 C 1313.04 -4.65404 -3.64902 0
M  V30 13966 H 1311.97 -0.483345 -0.5787 0
M  V30 13967 H 1314.62 -1.61827 -0.865123 0
M  V30 13968 H 1313 -1.89454 -3.4774 0
M  V30 13969 H 1314.17 -4.22986 -1.82809 0
M  V30 13970 H 1312.49 -3.75678 -1.79597 0
M  V30 13971 H 1315.08 -2.95196 -4.45829 0
M  V30 13972 H 1315.43 -1.31687 -3.94923 0
M  V30 13973 H 1315.96 -2.68189 -2.93802 0
M  V30 13974 H 1312.7 -5.65589 -3.31344 0
M  V30 13975 H 1312.22 -4.22617 -4.25623 0
M  V30 13976 H 1313.9 -4.81721 -4.31919 0
M  V30 13977 N 1314.03 1.01274 -1.20754 0
M  V30 13978 C 1315.26 1.78524 -1.04579 0
M  V30 13979 C 1315.67 1.84409 0.404809 0
M  V30 13980 O 1315.03 1.29987 1.281 0
M  V30 13981 C 1315.08 3.22806 -1.62722 0
M  V30 13982 O 1314.8 3.17276 -3.02106 0
M  V30 13983 C 1316.3 4.16589 -1.51553 0
M  V30 13984 H 1313.52 0.561299 -0.367674 0
M  V30 13985 H 1316.07 1.27454 -1.59924 0
M  V30 13986 H 1314.22 3.71011 -1.11487 0
M  V30 13987 H 1314.64 4.07866 -3.29766 0
M  V30 13988 H 1316.11 5.15654 -1.9699 0
M  V30 13989 H 1316.59 4.36692 -0.468659 0
M  V30 13990 H 1317.19 3.74269 -2.01998 0
M  V30 13991 N 1315.51 1.01404 1.20644 0
M  V30 13992 C 1316.79 0.617088 1.85611 0
M  V30 13993 C 1317.17 -0.904947 1.9072 0
M  V30 13994 O 1316.51 -1.79562 1.41315 0
M  V30 13995 C 1316.72 1.26193 3.25386 0
M  V30 13996 C 1318.07 1.37575 4.01694 0
M  V30 13997 O 1319.1 1.21795 3.34731 0
M  V30 13998 O 1317.96 1.6305 5.2161 0
M  V30 13999 H 1315.05 0.212579 0.799211 0
M  V30 14000 H 1317.6 1.11126 1.28254 0
M  V30 14001 H 1316.37 2.30206 3.16419 0
M  V30 14002 H 1315.99 0.754679 3.90372 0
M  V30 14003 N 1316.99 -1.36373 0.789944 0
M  V30 14004 C 1318.23 -1.99523 0.363119 0
M  V30 14005 C 1318.57 -1.6255 -1.0626 0
M  V30 14006 O 1317.84 -0.880551 -1.73426 0
M  V30 14007 C 1318.12 -3.56215 0.527526 0
M  V30 14008 C 1317.98 -4.0304 1.99697 0
M  V30 14009 C 1319.3 -4.40063 -0.0571079 0
M  V30 14010 H 1316.42 -0.724824 0.133412 0
M  V30 14011 H 1319.06 -1.61778 0.996381 0
M  V30 14012 H 1317.21 -3.88498 -0.0115636 0
M  V30 14013 H 1318.88 -3.81241 2.59717 0
M  V30 14014 H 1317.12 -3.54561 2.49939 0
M  V30 14015 H 1317.79 -5.12001 2.06297 0
M  V30 14016 H 1320.27 -4.14143 0.403082 0
M  V30 14017 H 1319.15 -5.4883 0.0879494 0
M  V30 14018 H 1319.41 -4.26901 -1.14926 0
M  V30 14019 N 1318.47 -0.542005 -1.47987 0
M  V30 14020 C 1319.38 0.217677 -2.33588 0
M  V30 14021 C 1320.39 0.927093 -1.47245 0
M  V30 14022 O 1321.57 0.899378 -1.80203 0
M  V30 14023 C 1318.63 1.24376 -3.23622 0
M  V30 14024 C 1317.69 0.543407 -4.25847 0
M  V30 14025 C 1316.93 1.5206 -5.11579 0
M  V30 14026 O 1317.15 2.75425 -4.99497 0
M  V30 14027 O 1316.08 1.05341 -5.9261 0
M  V30 14028 H 1319.91 -0.484089 -2.99817 0
M  V30 14029 H 1317.49 -0.302783 -1.463 0
M  V30 14030 H 1319.38 1.83644 -3.7928 0
M  V30 14031 H 1318.05 1.92772 -2.6004 0
M  V30 14032 H 1316.96 -0.090074 -3.73992 0
M  V30 14033 H 1318.29 -0.0988264 -4.92101 0
M  V30 14034 N 1319.94 1.55134 -0.277709 0
M  V30 14035 C 1320.89 2.19317 0.623216 0
M  V30 14036 C 1321.88 1.15863 1.11645 0
M  V30 14037 O 1323.07 1.41668 1.0611 0
M  V30 14038 C 1320.2 2.91976 1.80568 0
M  V30 14039 C 1319.28 4.02722 1.3295 0
M  V30 14040 N 1319.68 5.02582 0.569654 0
M  V30 14041 C 1317.97 4.1584 1.61224 0
M  V30 14042 C 1318.67 5.80825 0.318983 0
M  V30 14043 N 1317.65 5.36229 0.892145 0
M  V30 14044 H 1321.45 2.93879 0.0348669 0
M  V30 14045 H 1318.97 1.62196 -0.0813871 0
M  V30 14046 H 1320.96 3.36408 2.46242 0
M  V30 14047 H 1319.62 2.18925 2.39796 0
M  V30 14048 H 1320.63 5.17446 0.216749 0
M  V30 14049 H 1317.31 3.53981 2.21368 0
M  V30 14050 H 1318.7 6.71275 -0.289742 0
M  V30 14051 N 1321.42 0.00503138 1.57599 0
M  V30 14052 C 1322.67 -0.677979 1.89964 0
M  V30 14053 C 1322.98 -1.74657 0.88059 0
M  V30 14054 O 1324.19 -2.48455 1.09463 0
M  V30 14055 C 1322.65 -1.25708 3.37232 0
M  V30 14056 C 1322.25 -0.223045 4.47444 0
M  V30 14057 C 1324 -1.91799 3.787 0
M  V30 14058 C 1321.9 -0.812416 5.85793 0
M  V30 14059 H 1320.83 -0.256991 0.708852 0
M  V30 14060 H 1323.49 0.0663988 1.8338 0
M  V30 14061 H 1321.87 -2.05228 3.3867 0
M  V30 14062 H 1323.04 0.54794 4.57531 0
M  V30 14063 H 1321.36 0.337714 4.15028 0
M  V30 14064 H 1323.95 -2.36808 4.79402 0
M  V30 14065 H 1324.3 -2.75067 3.1248 0
M  V30 14066 H 1324.83 -1.19004 3.79583 0
M  V30 14067 H 1321.57 -0.0184031 6.55497 0
M  V30 14068 H 1321.09 -1.55244 5.79361 0
M  V30 14069 H 1322.77 -1.30952 6.33609 0
M  V30 14070 N 1322.9 -1.55308 -0.267798 0
M  V30 14071 C 1324.13 -1.80191 -1.01681 0
M  V30 14072 C 1324.54 -0.57783 -1.7974 0
M  V30 14073 O 1323.9 0.4532 -1.76783 0
M  V30 14074 C 1323.95 -3.03023 -1.97127 0
M  V30 14075 O 1323.67 -4.20704 -1.22229 0
M  V30 14076 C 1325.17 -3.40549 -2.83798 0
M  V30 14077 H 1322.39 -0.60013 -0.300142 0
M  V30 14078 H 1324.94 -2.02332 -0.297007 0
M  V30 14079 H 1323.09 -2.82993 -2.64563 0
M  V30 14080 H 1323.51 -4.90181 -1.86608 0
M  V30 14081 H 1324.98 -4.29653 -3.46557 0
M  V30 14082 H 1325.46 -2.60186 -3.53836 0
M  V30 14083 H 1326.06 -3.62856 -2.21846 0
M  V30 14084 N 1324.38 0.532545 -1.4833 0
M  V30 14085 C 1325.63 1.28597 -1.55908 0
M  V30 14086 C 1325.95 1.93595 -0.233635 0
M  V30 14087 O 1325.22 1.81197 0.744605 0
M  V30 14088 H 1323.8 0.477619 -0.57436 0
M  V30 14089 H 1326.46 0.619922 -1.84778 0
M  V30 14090 H 1325.55 2.0666 -2.33877 0
M  V30 14091 N 1325.86 1.36875 0.78122 0
M  V30 14092 C 1326.79 1.34559 1.9083 0
M  V30 14093 C 1327.77 0.215713 1.68727 0
M  V30 14094 O 1328.95 0.41462 1.89722 0
M  V30 14095 C 1326.08 1.14233 3.27976 0
M  V30 14096 C 1325.04 2.24132 3.64621 0
M  V30 14097 C 1324.36 1.8894 5.00206 0
M  V30 14098 C 1325.66 3.66266 3.72353 0
M  V30 14099 H 1327.36 2.28871 1.93025 0
M  V30 14100 H 1324.9 1.10171 0.927275 0
M  V30 14101 H 1326.85 1.11246 4.06451 0
M  V30 14102 H 1325.58 0.163747 3.26189 0
M  V30 14103 H 1324.24 2.26259 2.88448 0
M  V30 14104 H 1323.89 0.896351 4.94949 0
M  V30 14105 H 1323.59 2.62525 5.25694 0
M  V30 14106 H 1325.11 1.87523 5.81092 0
M  V30 14107 H 1326.52 3.66321 4.41001 0
M  V30 14108 H 1324.92 4.38825 4.09332 0
M  V30 14109 H 1325.99 4.00578 2.7325 0
M  V30 14110 N 1327.33 -1.00632 1.21289 0
M  V30 14111 C 1328.56 -1.78503 1.05601 0
M  V30 14112 C 1328.98 -1.84015 -0.389879 0
M  V30 14113 O 1328.34 -1.28277 -1.2812 0
M  V30 14114 C 1328.39 -3.20313 1.65626 0
M  V30 14115 O 1327.49 -4.02441 0.900841 0
M  V30 14116 H 1326.83 -0.550183 0.371746 0
M  V30 14117 H 1329.36 -1.26505 1.60803 0
M  V30 14118 H 1329.37 -3.70992 1.69792 0
M  V30 14119 H 1328.05 -3.15616 2.7085 0
M  V30 14120 H 1326.63 -3.61009 0.934178 0
M  V30 14121 N 1328.81 -1.02043 -1.20104 0
M  V30 14122 C 1330.06 -0.711973 -1.89571 0
M  V30 14123 C 1330.39 0.758725 -1.79091 0
M  V30 14124 O 1329.64 1.56728 -1.17195 0
M  V30 14125 C 1329.94 -1.098 -3.40116 0
M  V30 14126 C 1329.61 -2.56555 -3.70797 0
M  V30 14127 C 1328.27 -2.96653 -3.78881 0
M  V30 14128 C 1330.62 -3.51543 -3.84795 0
M  V30 14129 C 1327.95 -4.30669 -3.98424 0
M  V30 14130 C 1330.3 -4.85252 -4.05849 0
M  V30 14131 C 1328.96 -5.2505 -4.12163 0
M  V30 14132 H 1328.23 -0.260529 -0.69369 0
M  V30 14133 H 1330.88 -1.28172 -1.42282 0
M  V30 14134 H 1329.19 -0.446738 -3.89245 0
M  V30 14135 H 1330.88 -0.836985 -3.92168 0
M  V30 14136 H 1327.47 -2.24488 -3.65107 0
M  V30 14137 H 1331.66 -3.21721 -3.77901 0
M  V30 14138 H 1326.91 -4.61052 -4.01548 0
M  V30 14139 H 1331.09 -5.58777 -4.15622 0
M  V30 14140 H 1328.71 -6.28908 -4.27059 0
M  V30 14141 N 1330.29 1.35952 -0.797165 0
M  V30 14142 C 1331.52 2.02986 -0.384758 0
M  V30 14143 C 1331.93 1.60233 1.00608 0
M  V30 14144 O 1331.27 0.790955 1.658 0
M  V30 14145 C 1331.33 3.57508 -0.37795 0
M  V30 14146 C 1331 4.23491 -1.71769 0
M  V30 14147 C 1331.99 4.45835 -2.67445 0
M  V30 14148 C 1329.68 4.60804 -1.99911 0
M  V30 14149 C 1331.67 5.04584 -3.89453 0
M  V30 14150 C 1329.36 5.19269 -3.22185 0
M  V30 14151 C 1330.36 5.41099 -4.16774 0
M  V30 14152 O 1330.05 5.98334 -5.36891 0
M  V30 14153 H 1329.78 0.657838 -0.155644 0
M  V30 14154 H 1332.33 1.7475 -1.07942 0
M  V30 14155 H 1330.56 3.84894 0.373253 0
M  V30 14156 H 1332.25 4.05899 0.0108505 0
M  V30 14157 H 1333.02 4.17397 -2.46992 0
M  V30 14158 H 1328.9 4.43132 -1.27102 0
M  V30 14159 H 1332.44 5.21539 -4.63296 0
M  V30 14160 H 1328.34 5.47134 -3.42512 0
M  V30 14161 H 1329.11 6.16794 -5.38059 0
M  V30 14162 N 1331.77 0.549846 1.47697 0
M  V30 14163 C 1332.7 -0.239345 2.27947 0
M  V30 14164 C 1333.71 -0.886206 1.36566 0
M  V30 14165 O 1334.9 -0.761298 1.61451 0
M  V30 14166 C 1332 -1.35591 3.10593 0
M  V30 14167 C 1331.18 -0.807234 4.29887 0
M  V30 14168 C 1330.23 -1.80738 4.94187 0
M  V30 14169 O 1329.26 -1.35641 5.52802 0
M  V30 14170 N 1330.46 -3.14046 4.88216 0
M  V30 14171 H 1333.23 0.449001 2.96318 0
M  V30 14172 H 1330.79 0.385443 1.57245 0
M  V30 14173 H 1332.78 -2.02356 3.50477 0
M  V30 14174 H 1331.35 -1.94761 2.44514 0
M  V30 14175 H 1330.57 0.0369877 3.94183 0
M  V30 14176 H 1331.86 -0.419877 5.07065 0
M  V30 14177 H 1331.26 -3.53335 4.41781 0
M  V30 14178 H 1329.81 -3.7639 5.32141 0
M  V30 14179 N 1333.25 -1.54984 0.285932 0
M  V30 14180 C 1334.18 -2.20365 -0.630236 0
M  V30 14181 C 1335.19 -1.19168 -1.10918 0
M  V30 14182 O 1336.38 -1.45839 -1.02923 0
M  V30 14183 C 1333.48 -2.8244 -1.87299 0
M  V30 14184 C 1332.65 -4.09429 -1.53905 0
M  V30 14185 C 1331.71 -4.55449 -2.63538 0
M  V30 14186 O 1330.74 -5.20985 -2.29267 0
M  V30 14187 N 1331.94 -4.26498 -3.93802 0
M  V30 14188 H 1334.71 -2.99617 -0.0706044 0
M  V30 14189 H 1332.27 -1.61543 0.107486 0
M  V30 14190 H 1334.26 -3.10167 -2.59959 0
M  V30 14191 H 1332.83 -2.07117 -2.34139 0
M  V30 14192 H 1332.05 -3.88875 -0.645774 0
M  V30 14193 H 1333.34 -4.92146 -1.29111 0
M  V30 14194 H 1332.73 -3.73964 -4.24461 0
M  V30 14195 H 1331.29 -4.5897 -4.62807 0
M  V30 14196 N 1334.72 -0.0133892 -1.57594 0
M  V30 14197 C 1336.14 0.342848 -1.55874 0
M  V30 14198 C 1336.34 1.73928 -1.01742 0
M  V30 14199 O 1335.4 2.43798 -0.657158 0
M  V30 14200 C 1336.71 0.205831 -2.99995 0
M  V30 14201 C 1338.26 0.279774 -3.11747 0
M  V30 14202 C 1338.73 0.171729 -4.57678 0
M  V30 14203 N 1340.22 0.22921 -4.62633 0
M  V30 14204 C 1340.96 0.169153 -5.7315 0
M  V30 14205 N 1340.45 0.0589166 -6.92775 0
M  V30 14206 N 1342.25 0.221995 -5.61661 0
M  V30 14207 H 1334.4 -0.926727 -1.91117 0
M  V30 14208 H 1336.66 -0.356466 -0.878428 0
M  V30 14209 H 1336.37 -0.755482 -3.4349 0
M  V30 14210 H 1336.24 0.982476 -3.6418 0
M  V30 14211 H 1338.63 1.23154 -2.68174 0
M  V30 14212 H 1338.71 -0.526974 -2.50313 0
M  V30 14213 H 1338.35 -0.776547 -5.01928 0
M  V30 14214 H 1338.28 0.997138 -5.17073 0
M  V30 14215 H 1340.77 0.315196 -3.76583 0
M  V30 14216 H 1341.09 0.0193526 -7.72798 0
M  V30 14217 H 1339.43 0.0243543 -6.94996 0
M  V30 14218 H 1342.62 0.306406 -4.67096 0
M  V30 14219 H 1342.8 0.171727 -6.47772 0
M  V30 14220 N 1336.2 1.55448 0.259558 0
M  V30 14221 C 1337.15 1.89248 1.32113 0
M  V30 14222 C 1338.12 0.745348 1.48438 0
M  V30 14223 O 1339.3 0.997854 1.62627 0
M  V30 14224 C 1336.44 2.18161 2.67394 0
M  V30 14225 C 1335.56 3.45614 2.59182 0
M  V30 14226 C 1334.69 3.6416 3.86731 0
M  V30 14227 C 1333.73 4.85258 3.73084 0
M  V30 14228 N 1332.87 5.00391 4.92497 0
M  V30 14229 H 1337.71 2.79785 1.02589 0
M  V30 14230 H 1335.25 1.38509 0.495338 0
M  V30 14231 H 1337.2 2.32927 3.46122 0
M  V30 14232 H 1335.83 1.30843 2.95093 0
M  V30 14233 H 1334.89 3.39248 1.72091 0
M  V30 14234 H 1336.2 4.34483 2.45002 0
M  V30 14235 H 1335.35 3.78817 4.73902 0
M  V30 14236 H 1334.09 2.73501 4.03793 0
M  V30 14237 H 1333.1 4.70591 2.84296 0
M  V30 14238 H 1334.32 5.77365 3.57528 0
M  V30 14239 H 1332.27 4.12666 5.09944 0
M  V30 14240 H 1332.18 5.83328 4.809 0
M  V30 14241 H 1333.45 5.19446 5.81202 0
M  V30 14242 N 1337.68 -0.524672 1.4861 0
M  V30 14243 C 1338.59 -1.65554 1.6622 0
M  V30 14244 C 1339.61 -1.65254 0.54471 0
M  V30 14245 O 1340.78 -1.84109 0.816454 0
M  V30 14246 C 1337.85 -3.02003 1.7028 0
M  V30 14247 C 1336.91 -3.13116 2.93695 0
M  V30 14248 C 1336.14 -4.43055 2.97553 0
M  V30 14249 O 1336.36 -5.30468 2.09667 0
M  V30 14250 O 1335.3 -4.58646 3.89779 0
M  V30 14251 H 1339.12 -1.53633 2.61974 0
M  V30 14252 H 1336.71 -0.698354 1.32073 0
M  V30 14253 H 1338.59 -3.83143 1.75441 0
M  V30 14254 H 1337.27 -3.14236 0.777002 0
M  V30 14255 H 1336.17 -2.31251 2.94064 0
M  V30 14256 H 1337.51 -3.058 3.85677 0
M  V30 14257 N 1339.16 -1.37287 -0.77395 0
M  V30 14258 C 1340.57 -1.28954 -1.3501 0
M  V30 14259 C 1340.92 0.0638301 -1.96096 0
M  V30 14260 O 1340.05 0.965624 -1.93661 0
M  V30 14261 C 1340.64 -2.3352 -2.45467 0
M  V30 14262 C 1339.2 -2.28828 -2.98856 0
M  V30 14263 C 1338.35 -2.17468 -1.72055 0
M  V30 14264 H 1341.3 -1.47941 -0.57438 0
M  V30 14265 H 1341.32 -1.98058 -3.24889 0
M  V30 14266 H 1340.83 -3.32009 -2.00977 0
M  V30 14267 H 1338.93 -1.33855 -3.47726 0
M  V30 14268 H 1339.04 -3.22152 -3.54619 0
M  V30 14269 H 1337.41 -1.63977 -1.94894 0
M  V30 14270 H 1338.19 -3.17868 -1.29672 0
M  V30 14271 N 1340.64 0.999871 -1.21821 0
M  V30 14272 C 1341.88 1.74098 -1.04009 0
M  V30 14273 C 1342.22 1.89499 0.424716 0
M  V30 14274 O 1341.49 1.43306 1.31505 0
M  V30 14275 C 1341.77 3.1506 -1.74382 0
M  V30 14276 C 1341.63 3.0735 -3.28414 0
M  V30 14277 C 1342.95 4.1409 -1.49055 0
M  V30 14278 H 1340.06 0.631935 -0.379245 0
M  V30 14279 H 1342.71 1.16534 -1.50066 0
M  V30 14280 H 1340.86 3.64206 -1.35227 0
M  V30 14281 H 1342.53 2.65879 -3.76969 0
M  V30 14282 H 1340.77 2.44325 -3.58452 0
M  V30 14283 H 1341.44 4.07069 -3.72825 0
M  V30 14284 H 1343.92 3.73672 -1.83054 0
M  V30 14285 H 1342.79 5.10853 -2.008 0
M  V30 14286 H 1343.06 4.40085 -0.421641 0
M  V30 14287 N 1342.11 1.02678 1.19562 0
M  V30 14288 C 1343.34 0.741424 1.93695 0
M  V30 14289 C 1343.76 -0.693203 1.74861 0
M  V30 14290 O 1343.12 -1.47833 1.04953 0
M  V30 14291 C 1343.17 1.09514 3.43568 0
M  V30 14292 O 1342.27 0.212596 4.11852 0
M  V30 14293 H 1341.62 0.274128 0.604773 0
M  V30 14294 H 1344.15 1.37289 1.517 0
M  V30 14295 H 1344.16 1.05115 3.94227 0
M  V30 14296 H 1342.83 2.14034 3.56598 0
M  V30 14297 H 1341.41 0.315 3.71567 0
M  V30 14298 N 1343.59 -1.35528 0.804364 0
M  V30 14299 C 1344.87 -1.93175 0.307049 0
M  V30 14300 C 1345.25 -1.73466 -1.20303 0
M  V30 14301 O 1344.6 -1.10235 -2.00151 0
M  V30 14302 C 1344.81 -3.41576 0.716018 0
M  V30 14303 C 1346.16 -4.18719 0.704242 0
M  V30 14304 O 1347.18 -3.50081 0.657423 0
M  V30 14305 O 1346.04 -5.41181 0.760601 0
M  V30 14306 H 1343.13 -0.823142 0.0797888 0
M  V30 14307 H 1345.68 -1.44617 0.887912 0
M  V30 14308 H 1344.45 -3.49642 1.75688 0
M  V30 14309 H 1344.07 -3.97448 0.109843 0
M  V30 14310 N 1345.07 -0.557671 -1.47404 0
M  V30 14311 C 1346.32 -0.0316382 -2.01675 0
M  V30 14312 C 1346.63 1.32656 -1.43742 0
M  V30 14313 O 1347.84 1.94253 -1.89678 0
M  V30 14314 C 1346.3 -0.00606931 -3.59899 0
M  V30 14315 C 1345.9 -1.36106 -4.26825 0
M  V30 14316 C 1347.65 0.467332 -4.2192 0
M  V30 14317 C 1345.55 -1.29457 -5.77057 0
M  V30 14318 H 1344.48 -0.00805738 -0.753957 0
M  V30 14319 H 1347.14 -0.705592 -1.69392 0
M  V30 14320 H 1345.52 0.733541 -3.89147 0
M  V30 14321 H 1346.69 -2.11842 -4.09218 0
M  V30 14322 H 1345.01 -1.77243 -3.76794 0
M  V30 14323 H 1347.6 0.535478 -5.32012 0
M  V30 14324 H 1347.95 1.47942 -3.89126 0
M  V30 14325 H 1348.48 -0.217434 -3.97205 0
M  V30 14326 H 1345.22 -2.28267 -6.14471 0
M  V30 14327 H 1344.74 -0.579022 -5.96999 0
M  V30 14328 H 1346.42 -0.996834 -6.39275 0
M  V30 14329 N 1346.55 1.54831 -0.294147 0
M  V30 14330 C 1347.48 2.26226 0.57827 0
M  V30 14331 C 1348.46 1.25928 1.14351 0
M  V30 14332 O 1349.65 1.54687 1.17412 0
M  V30 14333 C 1346.78 2.99783 1.75349 0
M  V30 14334 C 1345.73 4.07171 1.31892 0
M  V30 14335 C 1345.06 4.68406 2.57876 0
M  V30 14336 C 1346.36 5.20313 0.455167 0
M  V30 14337 H 1348.05 2.99395 -0.0171936 0
M  V30 14338 H 1345.6 1.43997 -0.00970944 0
M  V30 14339 H 1347.55 3.48448 2.36986 0
M  V30 14340 H 1346.27 2.24181 2.37509 0
M  V30 14341 H 1344.93 3.59346 0.725653 0
M  V30 14342 H 1344.58 3.89451 3.18335 0
M  V30 14343 H 1344.28 5.40927 2.29502 0
M  V30 14344 H 1345.8 5.1983 3.20327 0
M  V30 14345 H 1347.22 5.64913 0.977026 0
M  V30 14346 H 1345.61 5.99512 0.265501 0
M  V30 14347 H 1346.68 4.82088 -0.521434 0
M  V30 14348 N 1348.03 0.0217466 1.57585 0
M  V30 14349 C 1348.97 -0.962559 2.0977 0
M  V30 14350 C 1349.94 -1.32771 0.998053 0
M  V30 14351 O 1351.13 -1.42231 1.27181 0
M  V30 14352 C 1348.27 -2.24214 2.62339 0
M  V30 14353 C 1347.38 -1.9341 3.86286 0
M  V30 14354 C 1346.52 -3.15609 4.27275 0
M  V30 14355 C 1345.56 -2.8059 5.43999 0
M  V30 14356 N 1344.69 -3.95392 5.8018 0
M  V30 14357 H 1349.53 -0.510626 2.93593 0
M  V30 14358 H 1347.07 -0.240456 1.45121 0
M  V30 14359 H 1349.03 -2.99049 2.90905 0
M  V30 14360 H 1347.66 -2.67037 1.81358 0
M  V30 14361 H 1346.71 -1.08849 3.64494 0
M  V30 14362 H 1348.02 -1.63614 4.71203 0
M  V30 14363 H 1347.18 -3.9877 4.57239 0
M  V30 14364 H 1345.92 -3.48561 3.41111 0
M  V30 14365 H 1344.92 -1.9584 5.13738 0
M  V30 14366 H 1346.15 -2.48863 6.31858 0
M  V30 14367 H 1344.09 -4.282 4.96971 0
M  V30 14368 H 1344.01 -3.69195 6.59721 0
M  V30 14369 H 1345.28 -4.79279 6.14746 0
M  V30 14370 N 1349.51 -1.55583 -0.251311 0
M  V30 14371 C 1350.44 -1.9296 -1.31486 0
M  V30 14372 C 1351.42 -0.794001 -1.50431 0
M  V30 14373 O 1352.6 -1.05393 -1.63113 0
M  V30 14374 C 1349.73 -2.22046 -2.67045 0
M  V30 14375 C 1348.69 -3.37816 -2.62801 0
M  V30 14376 C 1348.01 -3.52433 -4.02113 0
M  V30 14377 C 1349.31 -4.73626 -2.20171 0
M  V30 14378 H 1351.01 -2.82046 -1.00451 0
M  V30 14379 H 1348.55 -1.35702 -0.481775 0
M  V30 14380 H 1350.5 -2.46783 -3.41579 0
M  V30 14381 H 1349.23 -1.29782 -2.99707 0
M  V30 14382 H 1347.89 -3.13081 -1.90724 0
M  V30 14383 H 1347.54 -2.57597 -4.32034 0
M  V30 14384 H 1347.24 -4.30283 -4.00163 0
M  V30 14385 H 1348.76 -3.79486 -4.78354 0
M  V30 14386 H 1350.17 -4.97764 -2.84436 0
M  V30 14387 H 1348.57 -5.54547 -2.29341 0
M  V30 14388 H 1349.64 -4.70985 -1.1533 0
M  V30 14389 N 1350.98 0.516783 -1.48886 0
M  V30 14390 C 1351.93 1.62003 -1.64389 0
M  V30 14391 C 1352.9 1.58842 -0.485633 0
M  V30 14392 O 1354.09 1.77068 -0.710742 0
M  V30 14393 C 1351.23 3.00218 -1.70186 0
M  V30 14394 C 1350.34 3.13513 -2.97209 0
M  V30 14395 C 1349.47 4.42366 -2.94084 0
M  V30 14396 C 1348.51 4.49238 -4.15754 0
M  V30 14397 N 1347.65 5.69497 -4.10631 0
M  V30 14398 H 1352.49 1.48093 -2.58597 0
M  V30 14399 H 1350.03 0.720788 -1.2823 0
M  V30 14400 H 1351.98 3.80307 -1.71529 0
M  V30 14401 H 1350.61 3.12868 -0.794578 0
M  V30 14402 H 1349.67 2.26589 -3.05551 0
M  V30 14403 H 1350.98 3.14451 -3.87197 0
M  V30 14404 H 1350.13 5.3076 -2.93902 0
M  V30 14405 H 1348.87 4.43969 -2.01847 0
M  V30 14406 H 1347.88 3.59248 -4.16198 0
M  V30 14407 H 1349.1 4.49363 -5.09166 0
M  V30 14408 H 1347.05 5.71973 -3.21222 0
M  V30 14409 H 1346.96 5.71985 -4.94337 0
M  V30 14410 H 1348.23 6.60142 -4.14527 0
M  V30 14411 N 1352.46 1.37696 0.766659 0
M  V30 14412 C 1353.69 1.3639 1.55581 0
M  V30 14413 C 1354.1 -0.0495272 1.88735 0
M  V30 14414 O 1353.46 -1.01268 1.51826 0
M  V30 14415 C 1353.51 2.20717 2.86298 0
M  V30 14416 O 1353.23 3.56552 2.54563 0
M  V30 14417 C 1354.73 2.27446 3.80504 0
M  V30 14418 H 1351.95 0.466993 0.481828 0
M  V30 14419 H 1354.5 1.81103 0.949834 0
M  V30 14420 H 1352.65 1.79499 3.43306 0
M  V30 14421 H 1353.07 4.00811 3.38306 0
M  V30 14422 H 1354.54 2.90762 4.69214 0
M  V30 14423 H 1355.02 1.28434 4.20002 0
M  V30 14424 H 1355.62 2.68998 3.29424 0
M  V30 14425 N 1353.94 -0.993397 1.22349 0
M  V30 14426 C 1354.89 -2.06784 0.960445 0
M  V30 14427 C 1355.87 -1.60655 -0.0887385 0
M  V30 14428 O 1357.07 -1.76581 0.121716 0
M  V30 14429 C 1354.19 -3.39034 0.539552 0
M  V30 14430 C 1353.28 -3.91798 1.62344 0
M  V30 14431 N 1353.67 -4.17791 2.85104 0
M  V30 14432 C 1351.97 -4.20197 1.49501 0
M  V30 14433 C 1352.67 -4.6067 3.55187 0
M  V30 14434 N 1351.65 -4.64333 2.82658 0
M  V30 14435 H 1355.45 -2.24821 1.89295 0
M  V30 14436 H 1352.96 -1.17509 1.12095 0
M  V30 14437 H 1354.96 -4.15573 0.332419 0
M  V30 14438 H 1353.62 -3.22397 -0.38606 0
M  V30 14439 H 1354.63 -4.05999 3.21536 0
M  V30 14440 H 1351.31 -4.12634 0.635546 0
M  V30 14441 H 1352.7 -4.89408 4.60358 0
M  V30 14442 N 1355.42 -1.03311 -1.19015 0
M  V30 14443 C 1356.35 -0.638279 -2.24607 0
M  V30 14444 C 1357.33 0.354795 -1.66359 0
M  V30 14445 O 1358.51 0.236574 -1.92754 0
M  V30 14446 C 1355.64 0.00737316 -3.47299 0
M  V30 14447 C 1354.6 -0.908431 -4.18248 0
M  V30 14448 C 1353.92 -0.127658 -5.34548 0
M  V30 14449 C 1355.22 -2.2241 -4.72579 0
M  V30 14450 H 1356.92 -1.52099 -2.57888 0
M  V30 14451 H 1354.46 -0.732779 -1.23961 0
M  V30 14452 H 1356.42 0.295256 -4.20364 0
M  V30 14453 H 1355.14 0.924912 -3.1323 0
M  V30 14454 H 1353.8 -1.18058 -3.47071 0
M  V30 14455 H 1353.45 0.792048 -4.96725 0
M  V30 14456 H 1353.15 -0.737702 -5.82951 0
M  V30 14457 H 1354.67 0.153385 -6.10407 0
M  V30 14458 H 1356.09 -1.99745 -5.37378 0
M  V30 14459 H 1354.48 -2.78644 -5.31486 0
M  V30 14460 H 1355.55 -2.87584 -3.90415 0
M  V30 14461 N 1356.9 1.35099 -0.81154 0
M  V30 14462 C 1358.31 1.81082 -0.454543 0
M  V30 14463 C 1358.66 1.67361 1.02395 0
M  V30 14464 O 1357.78 1.20707 1.79607 0
M  V30 14465 C 1358.38 3.2877 -0.818274 0
M  V30 14466 C 1356.94 3.72877 -0.513808 0
M  V30 14467 C 1356.08 2.57008 -1.04125 0
M  V30 14468 H 1359.03 1.23007 -1.00274 0
M  V30 14469 H 1359.06 3.80318 -0.117683 0
M  V30 14470 H 1358.57 3.38725 -1.89439 0
M  V30 14471 H 1356.67 3.68468 0.553368 0
M  V30 14472 H 1356.78 4.67455 -1.0499 0
M  V30 14473 H 1355.15 2.5045 -0.463337 0
M  V30 14474 H 1355.93 2.69738 -2.12358 0
M  V30 14475 N 1358.37 0.56548 1.47106 0
M  V30 14476 C 1359.6 0.0496298 2.0684 0
M  V30 14477 C 1360.02 -1.24777 1.4169 0
M  V30 14478 O 1359.37 -1.75046 0.516239 0
M  V30 14479 C 1359.42 -0.140987 3.61225 0
M  V30 14480 O 1359.15 1.10504 4.23934 0
M  V30 14481 C 1360.65 -0.693171 4.37847 0
M  V30 14482 H 1357.87 0.0496018 0.669164 0
M  V30 14483 H 1360.41 0.781247 1.88989 0
M  V30 14484 H 1358.57 -0.822762 3.78562 0
M  V30 14485 H 1358.98 0.907978 5.16581 0
M  V30 14486 H 1360.45 -0.7758 5.46521 0
M  V30 14487 H 1360.93 -1.70632 4.04699 0
M  V30 14488 H 1361.54 -0.046826 4.25274 0
M  V30 14489 N 1359.85 -1.54672 0.302354 0
M  V30 14490 C 1361.1 -2.00167 -0.306524 0
M  V30 14491 C 1361.43 -1.19073 -1.53791 0
M  V30 14492 O 1360.68 -0.255328 -1.94027 0
M  V30 14493 C 1360.98 -3.5035 -0.70638 0
M  V30 14494 C 1360.65 -4.48907 0.423429 0
M  V30 14495 C 1359.31 -4.75575 0.733586 0
M  V30 14496 C 1361.66 -5.07588 1.18338 0
M  V30 14497 C 1358.99 -5.58186 1.80679 0
M  V30 14498 C 1361.34 -5.91367 2.24651 0
M  V30 14499 C 1360.01 -6.16345 2.56272 0
M  V30 14500 H 1359.28 -0.732462 -0.112165 0
M  V30 14501 H 1361.92 -1.86798 0.421732 0
M  V30 14502 H 1360.23 -3.61335 -1.51474 0
M  V30 14503 H 1361.92 -3.82977 -1.18869 0
M  V30 14504 H 1358.51 -4.28256 0.171591 0
M  V30 14505 H 1362.7 -4.86985 0.957018 0
M  V30 14506 H 1357.95 -5.75776 2.05649 0
M  V30 14507 H 1362.13 -6.35862 2.83994 0
M  V30 14508 H 1359.76 -6.80148 3.39563 0
M  V30 14509 N 1361.33 -0.0301034 -1.57571 0
M  V30 14510 C 1362.56 0.662045 -1.9655 0
M  V30 14511 C 1362.98 1.64811 -0.906581 0
M  V30 14512 O 1362.34 1.80816 0.132415 0
M  V30 14513 C 1362.39 1.34389 -3.34622 0
M  V30 14514 O 1361.49 2.45919 -3.31056 0
M  V30 14515 H 1360.83 0.173842 -0.640839 0
M  V30 14516 H 1363.36 -0.092248 -2.04392 0
M  V30 14517 H 1363.37 1.70045 -3.70875 0
M  V30 14518 H 1362.05 0.621092 -4.11236 0
M  V30 14519 H 1360.62 2.12367 -3.06521 0
M  V30 14520 N 1362.81 1.55714 0.243056 0
M  V30 14521 C 1363.74 1.87093 1.32396 0
M  V30 14522 C 1364.75 0.757482 1.44104 0
M  V30 14523 O 1365.94 1.03563 1.45386 0
M  V30 14524 C 1363.04 2.04546 2.70212 0
M  V30 14525 C 1362.22 3.3543 2.80723 0
M  V30 14526 C 1361.27 3.42578 3.99408 0
M  V30 14527 O 1360.3 4.15762 3.88755 0
M  V30 14528 N 1361.5 2.7215 5.12752 0
M  V30 14529 H 1364.27 2.80399 1.05813 0
M  V30 14530 H 1361.83 1.55998 0.433151 0
M  V30 14531 H 1363.82 2.06665 3.47954 0
M  V30 14532 H 1362.39 1.17966 2.89487 0
M  V30 14533 H 1361.61 3.45594 1.89626 0
M  V30 14534 H 1362.9 4.21692 2.84698 0
M  V30 14535 H 1362.3 2.1243 5.24299 0
M  V30 14536 H 1360.85 2.79957 5.88615 0
M  V30 14537 N 1364.29 -0.50888 1.49158 0
M  V30 14538 C 1365.2 -1.63782 1.67966 0
M  V30 14539 C 1366.21 -1.64667 0.562207 0
M  V30 14540 O 1367.39 -1.83232 0.835935 0
M  V30 14541 C 1364.45 -3.00179 1.73474 0
M  V30 14542 C 1363.51 -3.09983 2.97 0
M  V30 14543 C 1362.75 -4.39875 3.02235 0
M  V30 14544 O 1362.97 -5.28214 2.15282 0
M  V30 14545 O 1361.9 -4.54486 3.94621 0
M  V30 14546 H 1365.73 -1.50846 2.63589 0
M  V30 14547 H 1363.32 -0.684306 1.32807 0
M  V30 14548 H 1365.2 -3.8126 1.79495 0
M  V30 14549 H 1363.87 -3.13394 0.810287 0
M  V30 14550 H 1362.78 -2.28119 2.965 0
M  V30 14551 H 1364.11 -3.01693 3.88899 0
M  V30 14552 N 1365.76 -1.381 -0.759346 0
M  V30 14553 C 1367.04 -1.24517 -1.50847 0
M  V30 14554 C 1367.42 0.155929 -2.10523 0
M  V30 14555 O 1366.77 1.16485 -1.96579 0
M  V30 14556 C 1366.98 -2.35086 -2.57945 0
M  V30 14557 C 1368.33 -2.73232 -3.25007 0
M  V30 14558 O 1369.35 -2.34355 -2.68247 0
M  V30 14559 O 1368.21 -3.40254 -4.27656 0
M  V30 14560 H 1365.3 -0.486599 -0.668693 0
M  V30 14561 H 1367.85 -1.49913 -0.795249 0
M  V30 14562 H 1366.62 -3.28858 -2.12056 0
M  V30 14563 H 1366.25 -2.11222 -3.36854 0
M  V30 14564 O 1367.28 0.899774 -1.34113 0
M  V30 14565 H 1367.97 1.53511 -1.18127 0
M  V30 END ATOM
M  V30 BEGIN BOND
M  V30 END BOND
M  V30 END CTAB
M  END
$$$$
