drugbank_target|P16930 Fumarylacetoacetase (DB01677; DB01762; DB01832)
 OpenBabel12092120543D

  0  0  0     0  0            999 V3000
M  V30 BEGIN CTAB
M  V30 COUNTS 6477 6570 0 0 0
M  V30 BEGIN ATOM
M  V30 1 H -0.908 1.98254 -0.117106 0
M  V30 2 N 0 1.576 0 0
M  V30 3 C 0.933 2.03868 1.02534 0
M  V30 4 C 1.911 0.928543 1.3348 0
M  V30 5 O 3.095 1.19667 1.45644 0
M  V30 6 C 0.222 2.43627 2.35294 0
M  V30 7 C -0.732 3.65373 2.2001 0
M  V30 8 S 0.101 5.13292 1.52614 0
M  V30 9 C 1.257 5.56322 2.86805 0
M  V30 10 H 1.49 2.90518 0.631377 0
M  V30 11 H -0.977 1.52953 0.210867 0
M  V30 12 H 0.981 2.67203 3.11629 0
M  V30 13 H -0.358 1.57376 2.7183 0
M  V30 14 H -1.165 3.90944 3.18086 0
M  V30 15 H -1.563 3.418 1.51819 0
M  V30 16 H 0.729 5.58782 3.83104 0
M  V30 17 H 1.672 6.56266 2.65933 0
M  V30 18 H 2.08 4.83886 2.90714 0
M  V30 19 N 1.4781 -0.272755 1.55222 0
M  V30 20 C 2.7031 -1.02683 1.80197 0
M  V30 21 C 3.1281 -1.79142 0.573551 0
M  V30 22 O 2.4861 -1.74917 -0.476849 0
M  V30 23 C 2.5341 -1.9609 3.02624 0
M  V30 24 O 1.6381 -3.04863 2.77727 0
M  V30 25 H 0.9791 -0.293557 0.595584 0
M  V30 26 H 3.5091 -0.30159 2.02365 0
M  V30 27 H 3.5191 -2.38039 3.31363 0
M  V30 28 H 2.1941 -1.39851 3.91682 0
M  V30 29 H 0.7711 -2.67228 2.60084 0
M  V30 30 N 2.9562 -1.48159 -0.537278 0
M  V30 31 C 4.2032 -1.55804 -1.29349 0
M  V30 32 C 4.5312 -0.228802 -1.9315 0
M  V30 33 O 3.7862 0.780242 -1.79473 0
M  V30 34 C 4.0852 -2.63956 -2.40961 0
M  V30 35 C 3.7512 -4.0662 -1.94861 0
M  V30 36 C 2.4132 -4.45452 -1.82006 0
M  V30 37 C 4.7652 -4.96055 -1.59933 0
M  V30 38 C 2.0932 -5.71531 -1.32547 0
M  V30 39 C 4.4452 -6.22617 -1.11939 0
M  V30 40 C 3.1092 -6.60312 -0.976951 0
M  V30 41 H 2.3792 -0.570129 -0.473322 0
M  V30 42 H 5.0262 -1.81845 -0.600372 0
M  V30 43 H 3.3312 -2.31747 -3.15912 0
M  V30 44 H 5.0282 -2.67089 -2.99107 0
M  V30 45 H 1.6182 -3.75949 -2.05815 0
M  V30 46 H 5.8022 -4.66738 -1.68728 0
M  V30 47 H 1.0582 -5.99468 -1.202 0
M  V30 48 H 5.2322 -6.91318 -0.839811 0
M  V30 49 H 2.8592 -7.57895 -0.591501 0
M  V30 50 N 4.4343 0.785586 -1.36625 0
M  V30 51 C 5.6833 1.53883 -1.30396 0
M  V30 52 C 5.9963 1.95271 0.113452 0
M  V30 53 O 7.2023 2.69858 0.298142 0
M  V30 54 C 5.6583 2.77808 -2.28802 0
M  V30 55 C 5.2663 2.43574 -3.75999 0
M  V30 56 C 7.0103 3.55783 -2.31558 0
M  V30 57 C 4.9173 3.63919 -4.66173 0
M  V30 58 H 3.8473 0.577678 -0.484566 0
M  V30 59 H 6.4983 0.861705 -1.62009 0
M  V30 60 H 4.8803 3.47339 -1.90188 0
M  V30 61 H 6.0543 1.81916 -4.23371 0
M  V30 62 H 4.3693 1.78803 -3.76056 0
M  V30 63 H 6.9663 4.45205 -2.96137 0
M  V30 64 H 7.3093 3.94644 -1.3252 0
M  V30 65 H 7.8423 2.93235 -2.68809 0
M  V30 66 H 4.5813 3.3015 -5.66287 0
M  V30 67 H 4.1013 4.2473 -4.23515 0
M  V30 68 H 5.7803 4.30901 -4.82632 0
M  V30 69 N 5.9124 1.20967 1.01018 0
M  V30 70 C 7.3234 1.02319 1.56165 0
M  V30 71 C 7.6744 -0.418546 1.91684 0
M  V30 72 O 6.7994 -1.30096 1.72928 0
M  V30 73 C 7.3944 1.85109 2.8376 0
M  V30 74 C 5.9534 1.70809 3.35412 0
M  V30 75 C 5.1004 1.82643 2.08655 0
M  V30 76 H 8.0514 1.35065 0.833255 0
M  V30 77 H 8.0724 1.35827 3.55431 0
M  V30 78 H 7.5844 2.90035 2.57878 0
M  V30 79 H 5.6854 0.685464 3.66241 0
M  V30 80 H 5.7984 2.52467 4.07182 0
M  V30 81 H 4.1624 1.25896 2.21409 0
M  V30 82 H 4.9454 2.89066 1.85191 0
M  V30 83 N 7.3905 -1.2043 1.01659 0
M  V30 84 C 8.6365 -1.90079 0.706963 0
M  V30 85 C 8.9695 -1.78648 -0.761474 0
M  V30 86 O 8.2445 -1.17069 -1.55323 0
M  V30 87 C 8.5275 -3.41469 1.14327 0
M  V30 88 C 8.3805 -3.61833 2.67201 0
M  V30 89 C 9.6995 -4.34261 0.714529 0
M  V30 90 H 6.8185 -0.690254 0.2583 0
M  V30 91 H 9.4605 -1.41826 1.26433 0
M  V30 92 H 7.6105 -3.82696 0.669056 0
M  V30 93 H 9.2825 -3.2986 3.22475 0
M  V30 94 H 7.5255 -3.05304 3.08175 0
M  V30 95 H 8.1965 -4.67955 2.92783 0
M  V30 96 H 10.6725 -4.00682 1.12221 0
M  V30 97 H 9.5485 -5.38806 1.04784 0
M  V30 98 H 9.8095 -4.40431 -0.383799 0
M  V30 99 N 8.8686 -0.792821 -1.36206 0
M  V30 100 C 9.8316 -0.199459 -2.2833 0
M  V30 101 C 10.8316 0.605189 -1.48977 0
M  V30 102 O 12.0216 0.425685 -1.68919 0
M  V30 103 C 9.1536 0.723523 -3.33134 0
M  V30 104 H 10.3466 -1.01181 -2.82316 0
M  V30 105 H 7.8996 -0.562485 -1.45828 0
M  V30 106 H 8.6346 1.56008 -2.84309 0
M  V30 107 H 8.4196 0.148436 -3.91819 0
M  V30 108 H 9.9096 1.13344 -4.01924 0
M  V30 109 N 10.3467 1.47872 -0.545128 0
M  V30 110 C 11.2567 2.33633 0.212746 0
M  V30 111 C 12.2727 1.4744 0.923983 0
M  V30 112 O 13.4487 1.80393 0.895572 0
M  V30 113 C 10.5137 3.23884 1.23693 0
M  V30 114 C 9.5747 4.25961 0.534417 0
M  V30 115 C 8.8077 5.11899 1.5098 0
M  V30 116 O 9.0307 5.00077 2.7437 0
M  V30 117 O 7.9647 5.92831 1.0409 0
M  V30 118 H 11.7907 2.99714 -0.490416 0
M  V30 119 H 9.3757 1.46235 -0.305871 0
M  V30 120 H 11.2577 3.79666 1.82843 0
M  V30 121 H 9.9327 2.60446 1.92222 0
M  V30 122 H 8.8397 3.73972 -0.0979679 0
M  V30 123 H 10.1727 4.92079 -0.109213 0
M  V30 124 N 11.8248 0.280983 1.55075 0
M  V30 125 C 13.1018 -0.386207 1.91749 0
M  V30 126 C 13.4818 -1.73264 1.20594 0
M  V30 127 O 12.8298 -2.26034 0.334784 0
M  V30 128 C 13.0398 -0.520687 3.45094 0
M  V30 129 C 14.3878 -0.800865 4.16979 0
M  V30 130 O 15.4118 -0.605271 3.5102 0
M  V30 131 O 14.2708 -1.1753 5.33712 0
M  V30 132 H 11.3648 -0.212408 0.799257 0
M  V30 133 H 13.9108 0.327568 1.66509 0
M  V30 134 H 12.6828 0.426633 3.88967 0
M  V30 135 H 12.3058 -1.2837 3.76307 0
M  V30 136 N 13.3029 -1.57598 0.00835791 0
M  V30 137 C 14.5279 -1.95617 -0.689103 0
M  V30 138 C 14.9529 -0.883753 -1.66046 0
M  V30 139 O 14.3109 0.157352 -1.80616 0
M  V30 140 C 14.3589 -3.32736 -1.38994 0
M  V30 141 O 13.4629 -3.27631 -2.50463 0
M  V30 142 H 12.8039 -0.638379 -0.182668 0
M  V30 143 H 15.3339 -2.045 0.064036 0
M  V30 144 H 15.3439 -3.68494 -1.75147 0
M  V30 145 H 14.0189 -4.1034 -0.677778 0
M  V30 146 H 12.5959 -3.03561 -2.16576 0
M  V30 147 N 14.781 0.264519 -1.55364 0
M  V30 148 C 16.058 1.01677 -1.67096 0
M  V30 149 C 16.438 2.03996 -0.543015 0
M  V30 150 O 15.786 2.23907 0.45585 0
M  V30 151 C 15.996 1.66596 -3.0667 0
M  V30 152 C 17.344 2.17442 -3.64697 0
M  V30 153 O 18.368 1.76568 -3.09358 0
M  V30 154 O 17.227 2.92439 -4.61673 0
M  V30 155 H 14.321 0.472161 -0.678965 0
M  V30 156 H 16.867 0.259703 -1.67701 0
M  V30 157 H 15.639 0.924962 -3.80211 0
M  V30 158 H 15.262 2.48968 -3.10001 0
M  V30 159 N 16.2591 1.48442 0.529413 0
M  V30 160 C 17.5061 1.56488 1.28521 0
M  V30 161 C 17.8341 0.239042 1.93025 0
M  V30 162 O 17.0891 -0.770713 1.79885 0
M  V30 163 C 17.3881 2.6523 2.39558 0
M  V30 164 C 17.0541 4.07648 1.92702 0
M  V30 165 C 15.7161 4.46411 1.79641 0
M  V30 166 C 18.0681 4.96896 1.573 0
M  V30 167 C 15.3961 5.72226 1.29514 0
M  V30 168 C 17.7481 6.23202 1.08636 0
M  V30 169 C 16.4121 6.60821 0.941919 0
M  V30 170 H 15.6821 0.572631 0.470292 0
M  V30 171 H 18.3291 1.82161 0.59072 0
M  V30 172 H 16.6341 2.33419 3.14679 0
M  V30 173 H 18.3311 2.68671 2.97686 0
M  V30 174 H 14.9211 3.77036 2.03819 0
M  V30 175 H 19.1051 4.67626 1.66251 0
M  V30 176 H 14.3611 6.00097 1.17019 0
M  V30 177 H 18.5351 6.91753 0.803136 0
M  V30 178 H 16.1621 7.58198 0.5513 0
M  V30 179 N 17.7372 -0.778329 1.37039 0
M  V30 180 C 19.1482 -1.35421 1.28523 0
M  V30 181 C 19.4992 -1.96075 -0.0700901 0
M  V30 182 O 18.6242 -1.93352 -0.971801 0
M  V30 183 C 19.2192 -2.46211 2.32735 0
M  V30 184 C 17.7782 -2.99585 2.27873 0
M  V30 185 C 16.9252 -1.72748 2.16918 0
M  V30 186 H 19.8762 -0.5791 1.47757 0
M  V30 187 H 19.8972 -3.2552 1.9702 0
M  V30 188 H 19.4092 -2.02036 3.31365 0
M  V30 189 H 17.5102 -3.48152 1.32745 0
M  V30 190 H 17.6232 -3.55646 3.21018 0
M  V30 191 H 15.9872 -1.95416 1.63354 0
M  V30 192 H 16.7702 -1.30686 3.17452 0
M  V30 193 N 19.2153 -1.21501 -1.00376 0
M  V30 194 C 20.4643 -1.02718 -1.73586 0
M  V30 195 C 20.7773 0.439589 -1.90596 0
M  V30 196 O 21.9833 0.746848 -2.61026 0
M  V30 197 C 20.4393 -1.78929 -3.1227 0
M  V30 198 C 20.0473 -3.29783 -3.03228 0
M  V30 199 C 21.7913 -1.68557 -3.89601 0
M  V30 200 C 19.6983 -3.98479 -4.36999 0
M  V30 201 H 18.6283 -0.380733 -0.650814 0
M  V30 202 H 21.2793 -1.45248 -1.1214 0
M  V30 203 H 19.6613 -1.29192 -3.74333 0
M  V30 204 H 20.8353 -3.86832 -2.50395 0
M  V30 205 H 19.1503 -3.40711 -2.39385 0
M  V30 206 H 21.7473 -2.17211 -4.88593 0
M  V30 207 H 22.0903 -0.644021 -4.11288 0
M  V30 208 H 22.6233 -2.15778 -3.34193 0
M  V30 209 H 19.3623 -5.02841 -4.20513 0
M  V30 210 H 18.8823 -3.46219 -4.89788 0
M  V30 211 H 20.5613 -4.03462 -5.05794 0
M  V30 212 N 20.6934 1.19889 -1.02296 0
M  V30 213 C 21.6434 2.20777 -0.56934 0
M  V30 214 C 22.6274 1.56379 0.378741 0
M  V30 215 O 23.8194 1.75859 0.200673 0
M  V30 216 C 20.9484 3.43196 0.0845077 0
M  V30 217 C 20.0344 4.14749 -0.88566 0
M  V30 218 N 20.4254 4.62584 -2.04573 0
M  V30 219 C 18.7234 4.40347 -0.707835 0
M  V30 220 C 19.4244 5.17466 -2.65714 0
M  V30 221 N 18.4004 5.0791 -1.93723 0
M  V30 222 H 22.2024 2.55434 -1.45365 0
M  V30 223 H 19.7164 1.35897 -0.88915 0
M  V30 224 H 21.7134 4.14707 0.427067 0
M  V30 225 H 20.3734 3.10042 0.964574 0
M  V30 226 H 21.3844 4.57597 -2.4254 0
M  V30 227 H 18.0614 4.17317 0.12364 0
M  V30 228 H 19.4514 5.64808 -3.63925 0
M  V30 229 N 22.1715 0.800033 1.35784 0
M  V30 230 C 23.1195 0.193851 2.31791 0
M  V30 231 C 24.1135 -0.652744 1.56319 0
M  V30 232 O 25.3195 -0.546641 1.71499 0
M  V30 233 H 21.6945 0.04392 0.750716 0
M  V30 234 H 23.6655 1.01883 2.80468 0
M  V30 235 C 22.4145 -0.648338 3.41602 0
M  V30 236 H 21.7375 -0.00624665 3.998 0
M  V30 237 H 23.1775 -1.03898 4.11073 0
M  V30 238 C 21.6365 -1.8111 2.84079 0
M  V30 239 O 22.1665 -2.90825 2.77099 0
M  V30 240 N 20.3725 -1.62056 2.41218 0
M  V30 241 H 19.9195 -0.728123 2.47095 0
M  V30 242 H 19.8775 -2.40013 2.03079 0
M  V30 243 N 23.6496 -1.47581 0.552962 0
M  V30 244 C 24.5796 -2.32762 -0.185451 0
M  V30 245 C 25.5606 -1.43527 -0.912905 0
M  V30 246 O 26.7456 -1.72388 -0.894201 0
M  V30 247 C 23.8756 -3.25219 -1.21859 0
M  V30 248 C 22.8296 -4.23661 -0.607864 0
M  V30 249 C 22.1556 -5.05413 -1.74533 0
M  V30 250 C 23.4556 -5.20481 0.435582 0
M  V30 251 H 25.1496 -2.94749 0.525684 0
M  V30 252 H 22.6956 -1.41738 0.254251 0
M  V30 253 H 24.6486 -3.8365 -1.7433 0
M  V30 254 H 23.3726 -2.61279 -1.95961 0
M  V30 255 H 22.0316 -3.66451 -0.104489 0
M  V30 256 H 21.6796 -4.3788 -2.47529 0
M  V30 257 H 21.3796 -5.72059 -1.34249 0
M  V30 258 H 22.9036 -5.66701 -2.27338 0
M  V30 259 H 24.3176 -5.733 -0.00290157 0
M  V30 260 H 22.7146 -5.95305 0.757067 0
M  V30 261 H 23.7846 -4.66217 1.33303 0
M  V30 262 N 25.1277 -0.289203 -1.54924 0
M  V30 263 C 26.5387 0.205791 -1.85562 0
M  V30 264 C 26.8897 1.54351 -1.2112 0
M  V30 265 O 26.0147 2.10435 -0.504601 0
M  V30 266 C 26.6097 0.380177 -3.3666 0
M  V30 267 C 25.1687 0.819395 -3.67373 0
M  V30 268 C 24.3157 -0.079159 -2.77187 0
M  V30 269 H 27.2667 -0.510577 -1.50262 0
M  V30 270 H 27.2877 1.21659 -3.60526 0
M  V30 271 H 26.7997 -0.593589 -3.83534 0
M  V30 272 H 24.9007 1.80413 -3.26009 0
M  V30 273 H 25.0137 0.646957 -4.74712 0
M  V30 274 H 23.3777 0.439565 -2.50878 0
M  V30 275 H 24.1607 -1.04906 -3.26878 0
M  V30 276 N 26.6058 1.57591 -0.0167156 0
M  V30 277 C 27.8358 1.95292 0.674149 0
M  V30 278 C 28.2438 0.891097 1.66901 0
M  V30 279 O 27.5868 -0.136908 1.83189 0
M  V30 280 C 27.6488 3.29072 1.44747 0
M  V30 281 C 27.3128 4.52879 0.612331 0
M  V30 282 C 28.3098 5.1979 -0.107126 0
M  V30 283 C 25.9948 4.99242 0.553381 0
M  V30 284 C 27.9888 6.31375 -0.874339 0
M  V30 285 C 25.6758 6.10713 -0.217546 0
M  V30 286 C 26.6738 6.76637 -0.930123 0
M  V30 287 O 26.3618 7.85969 -1.68844 0
M  V30 288 H 26.0938 0.648275 0.191615 0
M  V30 289 H 28.6478 2.05284 -0.0690148 0
M  V30 290 H 26.8778 3.15535 2.2355 0
M  V30 291 H 28.5668 3.51764 2.02526 0
M  V30 292 H 29.3328 4.84948 -0.0708392 0
M  V30 293 H 25.2118 4.47744 1.09757 0
M  V30 294 H 28.7558 6.82764 -1.43106 0
M  V30 295 H 24.6528 6.44994 -0.255593 0
M  V30 296 H 25.4208 8.02571 -1.6069 0
M  V30 297 N 28.0839 -0.256276 1.55502 0
M  V30 298 C 29.3319 -0.983672 1.76545 0
M  V30 299 C 29.6529 -1.86206 0.578982 0
M  V30 300 O 28.9229 -1.91656 -0.405577 0
M  V30 301 H 27.5029 -0.366191 0.651086 0
M  V30 302 H 30.1649 -0.276479 1.92929 0
M  V30 303 H 29.2609 -1.61087 2.67315 0
M  V30 304 N 29.562 -1.4872 -0.521534 0
M  V30 305 C 30.808 -1.574 -1.27879 0
M  V30 306 C 31.141 -0.250817 -1.92573 0
M  V30 307 O 30.416 0.743934 -1.79711 0
M  V30 308 C 30.699 -2.71843 -2.36164 0
M  V30 309 C 30.552 -4.13893 -1.76105 0
M  V30 310 C 31.871 -2.82008 -3.37875 0
M  V30 311 H 28.99 -0.572941 -0.463581 0
M  V30 312 H 31.632 -1.80927 -0.580119 0
M  V30 313 H 29.782 -2.51914 -2.95756 0
M  V30 314 H 31.454 -4.45284 -1.20499 0
M  V30 315 H 29.697 -4.20498 -1.06601 0
M  V30 316 H 30.368 -4.89804 -2.5455 0
M  V30 317 H 32.844 -3.00086 -2.88249 0
M  V30 318 H 31.72 -3.63796 -4.11028 0
M  V30 319 H 31.981 -1.90511 -3.98946 0
M  V30 320 N 31.0401 0.771051 -1.3745 0
M  V30 321 C 32.2871 1.52963 -1.32697 0
M  V30 322 C 32.6151 1.94299 0.0883274 0
M  V30 323 O 31.8701 1.64397 1.0617 0
M  V30 324 C 32.1691 2.80676 -2.2126 0
M  V30 325 C 31.8351 2.58389 -3.69521 0
M  V30 326 C 30.4971 2.52019 -4.09927 0
M  V30 327 C 32.8491 2.38469 -4.63446 0
M  V30 328 C 30.1771 2.23721 -5.42371 0
M  V30 329 C 32.5291 2.11694 -5.96128 0
M  V30 330 C 31.1931 2.03769 -6.35637 0
M  V30 331 H 30.4631 0.559732 -0.485573 0
M  V30 332 H 33.1101 0.888083 -1.69662 0
M  V30 333 H 31.4151 3.49392 -1.77291 0
M  V30 334 H 33.1121 3.38557 -2.14895 0
M  V30 335 H 29.7021 2.6421 -3.37478 0
M  V30 336 H 33.8861 2.4238 -4.33089 0
M  V30 337 H 29.1421 2.16081 -5.71943 0
M  V30 338 H 33.3161 1.9528 -6.6846 0
M  V30 339 H 30.9431 1.81606 -7.38189 0
M  V30 340 N 32.5182 1.22032 0.997298 0
M  V30 341 C 33.7432 1.06921 1.77715 0
M  V30 342 C 34.1682 -0.376226 1.84299 0
M  V30 343 O 33.5262 -1.27165 1.29223 0
M  V30 344 C 33.5742 1.67996 3.19076 0
M  V30 345 O 32.6782 0.930653 4.01762 0
M  V30 346 H 32.0192 0.375814 0.547412 0
M  V30 347 H 34.5492 1.61737 1.25309 0
M  V30 348 H 34.5592 1.72538 3.69723 0
M  V30 349 H 33.2342 2.73182 3.13599 0
M  V30 350 H 31.8112 0.960917 3.60307 0
M  V30 351 N 33.9963 -1.19345 1.0293 0
M  V30 352 C 35.2243 -1.92997 0.745644 0
M  V30 353 C 35.6393 -1.75519 -0.695589 0
M  V30 354 O 34.9963 -1.07737 -1.47306 0
M  V30 355 C 35.0473 -3.44741 1.08792 0
M  V30 356 O 34.7683 -3.61658 2.47256 0
M  V30 357 C 36.2693 -4.35515 0.827129 0
M  V30 358 H 33.4893 -0.613042 0.272801 0
M  V30 359 H 36.0333 -1.51473 1.3739 0
M  V30 360 H 34.1883 -3.84097 0.504832 0
M  V30 361 H 34.6023 -4.55514 2.60015 0
M  V30 362 H 36.0763 -5.40589 1.11658 0
M  V30 363 H 36.5533 -4.38552 -0.238436 0
M  V30 364 H 37.1593 -4.01841 1.39297 0
M  V30 365 N 35.4744 -0.807222 -1.35358 0
M  V30 366 C 36.8904 -0.491038 -1.51858 0
M  V30 367 C 37.0904 0.987648 -1.75635 0
M  V30 368 O 36.1464 1.77265 -1.79815 0
M  V30 369 C 37.4594 -1.33695 -2.69344 0
M  V30 370 C 39.0074 -1.33246 -2.83222 0
M  V30 371 C 39.4824 -2.1625 -4.03733 0
M  V30 372 N 40.9734 -2.1379 -4.10911 0
M  V30 373 C 41.7084 -2.74772 -5.03277 0
M  V30 374 N 41.2044 -3.44684 -6.0097 0
M  V30 375 N 42.9974 -2.6441 -4.96028 0
M  V30 376 H 35.1484 -1.76485 -1.18181 0
M  V30 377 H 37.4114 -0.751199 -0.578276 0
M  V30 378 H 37.1174 -2.38634 -2.58354 0
M  V30 379 H 36.9914 -0.990618 -3.6396 0
M  V30 380 H 39.3784 -0.290911 -2.93663 0
M  V30 381 H 39.4594 -1.71866 -1.89461 0
M  V30 382 H 39.1034 -3.20445 -3.94052 0
M  V30 383 H 39.0334 -1.74989 -4.96675 0
M  V30 384 H 41.5244 -1.62923 -3.40976 0
M  V30 385 H 41.8374 -3.88501 -6.68047 0
M  V30 386 H 40.1824 -3.48788 -6.01142 0
M  V30 387 H 43.3734 -2.0938 -4.18662 0
M  V30 388 H 43.5464 -3.12225 -5.6782 0
M  V30 389 N 36.9525 1.47285 -0.560781 0
M  V30 390 C 38.2005 2.02064 -0.0379868 0
M  V30 391 C 38.5215 1.43711 1.31803 0
M  V30 392 O 37.7915 0.61362 1.86042 0
M  V30 393 H 36.3715 0.746918 -0.0110531 0
M  V30 394 H 39.0335 1.80648 -0.731598 0
M  V30 395 H 38.1295 3.12064 0.0474463 0
M  V30 396 N 38.4306 0.297415 1.54768 0
M  V30 397 C 39.7076 -0.365847 1.92148 0
M  V30 398 C 40.0876 -1.71975 1.22424 0
M  V30 399 O 39.4356 -2.25666 0.358739 0
M  V30 400 C 39.6456 -0.484056 3.45627 0
M  V30 401 C 40.9936 -0.756594 4.17805 0
M  V30 402 O 42.0176 -0.568007 3.51642 0
M  V30 403 O 40.8766 -1.11863 5.34929 0
M  V30 404 H 37.9706 -0.203919 0.801465 0
M  V30 405 H 40.5166 0.34521 1.66152 0
M  V30 406 H 39.2886 0.467865 3.88493 0
M  V30 407 H 38.9116 -1.24372 3.77647 0
M  V30 408 N 39.9087 -1.5758 0.0250728 0
M  V30 409 C 41.3197 -1.79476 -0.514323 0
M  V30 410 C 41.6707 -0.934956 -1.72491 0
M  V30 411 O 40.7957 -0.144245 -2.15919 0
M  V30 412 C 41.3907 -3.25503 -0.939842 0
M  V30 413 C 39.9497 -3.48408 -1.42438 0
M  V30 414 C 39.0967 -2.74583 -0.387201 0
M  V30 415 H 42.0477 -1.567 0.25113 0
M  V30 416 H 42.0687 -3.34992 -1.80445 0
M  V30 417 H 41.5807 -3.88056 -0.0585628 0
M  V30 418 H 39.6817 -2.91103 -2.32572 0
M  V30 419 H 39.7947 -4.57119 -1.43455 0
M  V30 420 H 38.1587 -2.39942 -0.854409 0
M  V30 421 H 38.9417 -3.39849 0.485543 0
M  V30 422 N 41.3868 0.248026 -1.55636 0
M  V30 423 C 42.8028 0.596483 -1.48035 0
M  V30 424 C 43.0028 1.88386 -0.715039 0
M  V30 425 O 42.0588 2.51319 -0.243944 0
M  V30 426 C 43.3718 0.700258 -2.92433 0
M  V30 427 C 44.9198 0.792659 -3.02797 0
M  V30 428 C 45.3948 0.928005 -4.485 0
M  V30 429 N 46.8858 0.992903 -4.52433 0
M  V30 430 C 47.6208 1.11687 -5.62418 0
M  V30 431 N 47.1168 1.20645 -6.82214 0
M  V30 432 N 48.9098 1.14994 -5.50212 0
M  V30 433 H 41.0608 -0.597109 -2.03834 0
M  V30 434 H 43.3238 -0.205925 -0.925364 0
M  V30 435 H 43.0298 -0.175658 -3.51261 0
M  V30 436 H 42.9038 1.57255 -3.42857 0
M  V30 437 H 45.2908 1.65903 -2.4405 0
M  V30 438 H 45.3718 -0.104762 -2.55585 0
M  V30 439 H 45.0158 0.0661971 -5.07857 0
M  V30 440 H 44.9458 1.84045 -4.93391 0
M  V30 441 H 47.4368 0.935064 -3.66149 0
M  V30 442 H 47.7498 1.30008 -7.61786 0
M  V30 443 H 46.0948 1.17605 -6.84977 0
M  V30 444 H 49.2858 1.07643 -4.55555 0
M  V30 445 H 49.4588 1.24311 -6.35965 0
M  V30 446 N 42.8649 1.48995 0.513639 0
M  V30 447 C 44.2759 1.5119 1.09537 0
M  V30 448 C 44.6269 0.290906 1.94031 0
M  V30 449 O 43.7519 -0.60049 2.07902 0
M  V30 450 C 44.3469 2.73964 1.99322 0
M  V30 451 C 42.9059 2.78978 2.52682 0
M  V30 452 C 42.0529 2.44934 1.30009 0
M  V30 453 H 45.0039 1.55875 0.298125 0
M  V30 454 H 45.0249 2.53409 2.83838 0
M  V30 455 H 44.5369 3.62813 1.37799 0
M  V30 456 H 42.6379 1.94378 3.1788 0
M  V30 457 H 42.7509 3.8083 2.90698 0
M  V30 458 H 41.1149 1.9644 1.62122 0
M  V30 459 H 41.8979 3.36043 0.702131 0
M  V30 460 N 44.343 -0.763751 1.37857 0
M  V30 461 C 45.759 -1.06542 1.18832 0
M  V30 462 C 45.959 -2.01478 0.0299722 0
M  V30 463 O 45.015 -2.4458 -0.627447 0
M  V30 464 C 46.328 -1.65525 2.51042 0
M  V30 465 C 47.876 -1.77745 2.57635 0
M  V30 466 C 48.351 -2.4014 3.89996 0
M  V30 467 N 49.842 -2.47582 3.91481 0
M  V30 468 C 50.577 -2.96732 4.9065 0
M  V30 469 N 50.073 -3.45993 6.00217 0
M  V30 470 N 51.866 -2.95679 4.78048 0
M  V30 471 H 44.017 -0.133556 2.1198 0
M  V30 472 H 46.28 -0.121879 0.940133 0
M  V30 473 H 45.986 -1.03236 3.36207 0
M  V30 474 H 45.86 -2.64719 2.68707 0
M  V30 475 H 48.247 -2.39164 1.72872 0
M  V30 476 H 48.328 -0.772836 2.43846 0
M  V30 477 H 47.972 -1.79358 4.75177 0
M  V30 478 H 47.902 -3.41223 4.01092 0
M  V30 479 H 50.393 -2.1273 3.12337 0
M  V30 480 H 50.706 -3.81922 6.7183 0
M  V30 481 H 49.051 -3.44077 6.03851 0
M  V30 482 H 52.242 -2.56499 3.91568 0
M  V30 483 H 52.415 -3.33672 5.55488 0
M  V30 484 N 45.8211 -1.22559 -0.990812 0
M  V30 485 C 47.0701 -1.04553 -1.72486 0
M  V30 486 C 47.3831 0.419349 -1.91052 0
M  V30 487 O 48.5891 0.719121 -2.61803 0
M  V30 488 C 47.0451 -1.82231 -3.10355 0
M  V30 489 C 46.6531 -3.32981 -2.99713 0
M  V30 490 C 48.3971 -1.7268 -3.87791 0
M  V30 491 C 46.3041 -4.03091 -4.32748 0
M  V30 492 H 45.2341 -0.387614 -0.646739 0
M  V30 493 H 47.8851 -1.46429 -1.10593 0
M  V30 494 H 46.2671 -1.33155 -3.72942 0
M  V30 495 H 47.4411 -3.89466 -2.46278 0
M  V30 496 H 45.7561 -3.43231 -2.35758 0
M  V30 497 H 48.3531 -2.22381 -4.86262 0
M  V30 498 H 48.6961 -0.687607 -4.10582 0
M  V30 499 H 49.2291 -2.1931 -3.31885 0
M  V30 500 H 45.9681 -5.07273 -4.15156 0
M  V30 501 H 45.4881 -3.51394 -4.86089 0
M  V30 502 H 47.1671 -4.08804 -5.01486 0
M  V30 503 N 47.2992 1.18797 -1.03562 0
M  V30 504 C 48.5472 1.88278 -0.734569 0
M  V30 505 C 48.8682 1.8043 0.739586 0
M  V30 506 O 48.1382 1.21925 1.53333 0
M  V30 507 H 46.7182 0.696991 -0.268725 0
M  V30 508 H 49.3802 1.44192 -1.31129 0
M  V30 509 H 48.4762 2.94443 -1.03489 0
M  V30 510 N 48.7773 0.814389 1.34928 0
M  V30 511 C 50.0233 0.399013 1.98836 0
M  V30 512 C 50.3563 -1.03314 1.64438 0
M  V30 513 O 49.6313 -1.71811 0.911659 0
M  V30 514 C 49.9143 0.591629 3.55207 0
M  V30 515 C 49.7673 2.06928 3.99376 0
M  V30 516 C 51.0863 0.022199 4.40094 0
M  V30 517 H 48.2053 0.146451 0.722303 0
M  V30 518 H 50.8473 1.02537 1.59957 0
M  V30 519 H 48.9973 0.0584441 3.88456 0
M  V30 520 H 50.6693 2.66544 3.76499 0
M  V30 521 H 48.9123 2.56287 3.49999 0
M  V30 522 H 49.5833 2.1549 5.08201 0
M  V30 523 H 52.0593 0.477643 4.13349 0
M  V30 524 H 50.9353 0.186832 5.48582 0
M  V30 525 H 51.1963 -1.07215 4.28902 0
M  V30 526 N 50.2554 -1.46986 0.568584 0
M  V30 527 C 51.2184 -2.28624 -0.162366 0
M  V30 528 C 52.2184 -1.37596 -0.832103 0
M  V30 529 O 53.4084 -1.60115 -0.68622 0
M  V30 530 C 50.5404 -3.17596 -1.23878 0
M  V30 531 H 51.7334 -2.94722 0.554899 0
M  V30 532 H 49.2864 -1.52863 0.325976 0
M  V30 533 H 50.0214 -2.56214 -1.98808 0
M  V30 534 H 49.8064 -3.846 -0.763219 0
M  V30 535 H 51.2964 -3.79078 -1.75185 0
M  V30 536 N 51.7335 -0.305618 -1.54608 0
M  V30 537 C 52.9825 0.303098 -1.9941 0
M  V30 538 C 53.2955 1.54648 -1.19764 0
M  V30 539 O 54.5015 2.23007 -1.54855 0
M  V30 540 C 52.9575 0.590588 -3.55021 0
M  V30 541 C 52.5655 -0.634719 -4.43481 0
M  V30 542 C 54.3095 1.16025 -4.08336 0
M  V30 543 C 52.2165 -0.320126 -5.90533 0
M  V30 544 H 51.1465 0.117031 -0.744862 0
M  V30 545 H 53.7975 -0.415045 -1.78745 0
M  V30 546 H 52.1795 1.36845 -3.71604 0
M  V30 547 H 53.3535 -1.41079 -4.38672 0
M  V30 548 H 51.6685 -1.12333 -4.00962 0
M  V30 549 H 54.2655 1.40994 -5.15776 0
M  V30 550 H 54.6085 2.10397 -3.5922 0
M  V30 551 H 55.1415 0.443985 -3.95315 0
M  V30 552 H 51.8805 -1.23254 -6.43808 0
M  V30 553 H 51.4005 0.418579 -5.98338 0
M  V30 554 H 53.0795 0.0766241 -6.46955 0
M  V30 555 N 53.2116 1.57565 -0.0334293 0
M  V30 556 C 54.4596 1.91598 0.642999 0
M  V30 557 C 54.7806 0.910847 1.7242 0
M  V30 558 O 54.0506 -0.0469931 1.95844 0
M  V30 559 H 52.6306 0.707228 0.240496 0
M  V30 560 H 55.2926 1.94726 -0.0822488 0
M  V30 561 H 54.3886 2.92336 1.09298 0
M  V30 562 N 54.6897 -0.239769 1.55765 0
M  V30 563 C 55.9667 -0.990056 1.68693 0
M  V30 564 C 56.3467 -2.03107 0.5754 0
M  V30 565 O 55.6947 -2.24604 -0.42017 0
M  V30 566 C 55.9047 -1.61696 3.09282 0
M  V30 567 C 57.2527 -2.11613 3.6811 0
M  V30 568 O 58.2767 -1.71624 3.12127 0
M  V30 569 O 57.1357 -2.85057 4.66267 0
M  V30 570 H 54.2297 -0.461299 0.686391 0
M  V30 571 H 56.7757 -0.232991 1.68093 0
M  V30 572 H 55.5477 -0.864357 3.81634 0
M  V30 573 H 55.1707 -2.44005 3.13923 0
M  V30 574 N 56.1678 -1.49265 -0.50573 0
M  V30 575 C 57.0998 -1.617 -1.62437 0
M  V30 576 C 58.1128 -0.499924 -1.54934 0
M  V30 577 O 59.3018 -0.771785 -1.60953 0
M  V30 578 C 56.4018 -1.5533 -3.01207 0
M  V30 579 C 55.5748 -2.8249 -3.33943 0
M  V30 580 C 54.6338 -2.69238 -4.52103 0
M  V30 581 O 53.6598 -3.43167 -4.5412 0
M  V30 582 N 54.8618 -1.80468 -5.51735 0
M  V30 583 H 57.6268 -2.58177 -1.52199 0
M  V30 584 H 55.1878 -1.46294 -0.693511 0
M  V30 585 H 57.1798 -1.44125 -3.78167 0
M  V30 586 H 55.7498 -0.667297 -3.05395 0
M  V30 587 H 54.9698 -3.08081 -2.45926 0
M  V30 588 H 56.2578 -3.66802 -3.5261 0
M  V30 589 H 55.6558 -1.19653 -5.52901 0
M  V30 590 H 54.2128 -1.75188 -6.27816 0
M  V30 591 N 57.6459 0.756429 -1.3826 0
M  V30 592 C 58.8949 1.51082 -1.3363 0
M  V30 593 C 59.2079 1.95467 0.0720068 0
M  V30 594 O 60.4139 2.7043 0.240834 0
M  V30 595 C 58.8699 2.72893 -2.34644 0
M  V30 596 C 58.4779 2.35544 -3.81081 0
M  V30 597 C 60.2219 3.50791 -2.39052 0
M  V30 598 C 58.1289 3.53948 -4.73787 0
M  V30 599 H 57.0589 0.56727 -0.49671 0
M  V30 600 H 59.7099 0.827147 -1.638 0
M  V30 601 H 58.0919 3.43227 -1.97513 0
M  V30 602 H 59.2659 1.72894 -4.27135 0
M  V30 603 H 57.5809 1.70786 -3.79764 0
M  V30 604 H 60.1779 4.38823 -3.05513 0
M  V30 605 H 60.5209 3.91745 -1.40861 0
M  V30 606 H 61.0539 2.87467 -2.74968 0
M  V30 607 H 57.7929 3.18064 -5.73163 0
M  V30 608 H 57.3129 4.15651 -4.32428 0
M  V30 609 H 58.9919 4.20566 -4.91663 0
M  V30 610 N 59.124 1.23083 0.984299 0
M  V30 611 C 60.054 1.03292 2.09411 0
M  V30 612 C 61.035 -0.048923 1.7003 0
M  V30 613 O 62.22 0.114967 1.93859 0
M  V30 614 C 59.35 0.619155 3.41736 0
M  V30 615 C 58.304 1.64791 3.95004 0
M  V30 616 C 57.63 1.0897 5.23478 0
M  V30 617 C 58.93 3.03999 4.24714 0
M  V30 618 H 60.624 1.96119 2.26225 0
M  V30 619 H 58.17 0.944344 1.08711 0
M  V30 620 H 60.123 0.467777 4.18796 0
M  V30 621 H 58.847 -0.344786 3.24775 0
M  V30 622 H 57.506 1.78721 3.20085 0
M  V30 623 H 57.154 0.11686 5.02864 0
M  V30 624 H 56.854 1.77704 5.60085 0
M  V30 625 H 58.378 0.950093 6.03163 0
M  V30 626 H 59.792 2.93393 4.92538 0
M  V30 627 H 58.189 3.69936 4.72512 0
M  V30 628 H 59.259 3.53285 3.32142 0
M  V30 629 N 60.6021 -1.18246 1.0419 0
M  V30 630 C 61.8791 -1.84121 0.660208 0
M  V30 631 C 62.2591 -1.92778 -0.860221 0
M  V30 632 O 61.6071 -1.45464 -1.76217 0
M  V30 633 C 61.8171 -3.22355 1.33747 0
M  V30 634 C 63.1651 -3.98376 1.46906 0
M  V30 635 O 64.1891 -3.31799 1.29568 0
M  V30 636 O 63.0481 -5.17665 1.75171 0
M  V30 637 H 60.1421 -0.794036 0.231161 0
M  V30 638 H 62.6881 -1.25628 1.14087 0
M  V30 639 H 61.4601 -3.10964 2.37522 0
M  V30 640 H 61.0831 -3.88506 0.845515 0
M  V30 641 N 62.0802 -0.821533 -1.34494 0
M  V30 642 C 63.0102 -0.257138 -2.3208 0
M  V30 643 C 63.9912 0.625645 -1.58176 0
M  V30 644 O 65.1762 0.552811 -1.86166 0
M  V30 645 C 62.3062 0.582958 -3.42372 0
M  V30 646 C 61.2602 -0.202571 -4.2752 0
M  V30 647 C 60.5862 0.760179 -5.29269 0
M  V30 648 C 61.8862 -1.40998 -5.02908 0
M  V30 649 H 63.5802 -1.07247 -2.79532 0
M  V30 650 H 61.1262 -0.517163 -1.34393 0
M  V30 651 H 63.0792 0.987972 -4.09655 0
M  V30 652 H 61.8032 1.43133 -2.93565 0
M  V30 653 H 60.4622 -0.588936 -3.61838 0
M  V30 654 H 60.1102 1.60447 -4.76724 0
M  V30 655 H 59.8102 0.238809 -5.87115 0
M  V30 656 H 61.3342 1.16308 -5.9942 0
M  V30 657 H 62.7482 -1.07905 -5.63054 0
M  V30 658 H 61.1452 -1.86689 -5.70322 0
M  V30 659 H 62.2152 -2.1889 -4.32684 0
M  V30 660 N 63.5583 1.46682 -0.576371 0
M  V30 661 C 64.7833 2.07304 -0.0630475 0
M  V30 662 C 65.2083 1.42329 1.2298 0
M  V30 663 O 64.5663 0.504865 1.74129 0
M  V30 664 C 64.6143 3.60472 0.095895 0
M  V30 665 O 63.7183 3.95927 1.15394 0
M  V30 666 H 63.0593 0.661288 -0.0599463 0
M  V30 667 H 65.5893 1.88417 -0.797511 0
M  V30 668 H 65.5993 4.06865 0.304071 0
M  V30 669 H 64.2743 4.07157 -0.84828 0
M  V30 670 H 62.8513 3.61252 0.924724 0
M  V30 671 N 65.0364 0.313813 1.54444 0
M  V30 672 C 66.2854 -0.292519 1.99568 0
M  V30 673 C 66.5984 -1.54011 1.20582 0
M  V30 674 O 67.8044 -2.22183 1.56035 0
M  V30 675 C 66.2604 -0.571752 3.55329 0
M  V30 676 C 65.8684 0.658229 4.43138 0
M  V30 677 C 67.6124 -1.13857 4.08946 0
M  V30 678 C 65.5194 0.351439 5.90355 0
M  V30 679 H 64.4494 -0.113079 0.745472 0
M  V30 680 H 67.1004 0.424518 1.78522 0
M  V30 681 H 65.4824 -1.34872 3.72325 0
M  V30 682 H 66.6564 1.43403 4.37918 0
M  V30 683 H 64.9714 1.14458 4.0036 0
M  V30 684 H 67.5684 -1.38257 5.16516 0
M  V30 685 H 67.9114 -2.08489 3.6033 0
M  V30 686 H 68.4444 -0.423015 3.95544 0
M  V30 687 H 65.1834 1.26667 6.43145 0
M  V30 688 H 64.7034 -0.386842 5.98551 0
M  V30 689 H 66.3824 -0.0423134 6.46986 0
M  V30 690 N 66.5145 -1.57545 0.0417849 0
M  V30 691 C 67.7635 -1.91494 -0.633492 0
M  V30 692 C 68.0765 -0.921084 -1.72556 0
M  V30 693 O 69.2825 -1.15228 -2.45835 0
M  V30 694 C 67.7385 -3.40072 -1.17808 0
M  V30 695 C 67.3465 -4.47843 -0.118633 0
M  V30 696 C 69.0905 -3.8307 -1.82915 0
M  V30 697 C 66.9975 -5.87529 -0.675578 0
M  V30 698 H 65.9275 -0.714653 -0.24039 0
M  V30 699 H 68.5785 -1.83175 0.109148 0
M  V30 700 H 66.9605 -3.43364 -1.97274 0
M  V30 701 H 68.1345 -4.56128 0.654494 0
M  V30 702 H 66.4495 -4.14128 0.434414 0
M  V30 703 H 69.0465 -4.84794 -2.25563 0
M  V30 704 H 69.3895 -3.1881 -2.67705 0
M  V30 705 H 69.9225 -3.82255 -1.10119 0
M  V30 706 H 66.6615 -6.55362 0.134475 0
M  V30 707 H 66.1815 -5.82824 -1.4169 0
M  V30 708 H 67.8605 -6.36491 -1.1614 0
M  V30 709 N 67.9926 0.231505 -1.5589 0
M  V30 710 C 68.9396 1.28682 -1.91598 0
M  V30 711 C 69.9096 1.47071 -0.771974 0
M  V30 712 O 71.0946 1.60802 -1.027 0
M  V30 713 C 68.2346 2.6342 -2.22944 0
M  V30 714 C 67.3476 2.52912 -3.50228 0
M  V30 715 C 66.4826 3.80106 -3.7107 0
M  V30 716 C 65.5216 3.64279 -4.91902 0
M  V30 717 N 64.6586 4.834 -5.09184 0
M  V30 718 H 69.4986 0.975305 -2.81588 0
M  V30 719 H 67.0356 0.470299 -1.39379 0
M  V30 720 H 68.9936 3.41869 -2.39126 0
M  V30 721 H 67.6236 2.92687 -1.36139 0
M  V30 722 H 66.6756 1.6595 -3.42294 0
M  V30 723 H 67.9876 2.37133 -4.38827 0
M  V30 724 H 67.1416 4.66999 -3.87295 0
M  V30 725 H 65.8806 3.98799 -2.80733 0
M  V30 726 H 64.8856 2.7577 -4.75637 0
M  V30 727 H 66.1106 3.47067 -5.83714 0
M  V30 728 H 64.0566 5.02425 -4.21788 0
M  V30 729 H 63.9736 4.70311 -5.91898 0
M  V30 730 H 65.2416 5.71747 -5.29835 0
M  V30 731 N 69.4707 1.49531 0.497807 0
M  V30 732 C 70.4207 1.62829 1.59596 0
M  V30 733 C 71.4047 0.483824 1.53453 0
M  V30 734 O 72.5967 0.736937 1.60929 0
M  V30 735 C 69.7257 1.7011 2.98191 0
M  V30 736 C 68.8117 2.90144 3.09317 0
M  V30 737 N 69.2027 4.1418 2.90324 0
M  V30 738 C 67.5007 2.88148 3.40422 0
M  V30 739 C 68.2017 4.94886 3.05717 0
M  V30 740 N 67.1777 4.28314 3.34736 0
M  V30 741 H 70.9797 2.56446 1.4357 0
M  V30 742 H 68.4937 1.46347 0.704001 0
M  V30 743 H 70.4907 1.77735 3.77115 0
M  V30 744 H 69.1507 0.776315 3.15283 0
M  V30 745 H 70.1617 4.44109 2.66436 0
M  V30 746 H 66.8387 2.05061 3.63671 0
M  V30 747 H 68.2287 6.03432 2.95499 0
M  V30 748 N 70.9488 -0.749086 1.3866 0
M  V30 749 C 71.8788 -1.8764 1.38973 0
M  V30 750 C 72.8598 -1.68178 0.255004 0
M  V30 751 O 74.0448 -1.88704 0.458754 0
M  V30 752 C 71.1748 -3.25222 1.21851 0
M  V30 753 C 70.1288 -3.59295 2.32575 0
M  V30 754 C 69.4548 -4.95663 2.00555 0
M  V30 755 C 70.7548 -3.63709 3.7485 0
M  V30 756 H 72.4488 -1.87635 2.3331 0
M  V30 757 H 69.9948 -0.901329 1.12303 0
M  V30 758 H 71.9478 -4.03746 1.20695 0
M  V30 759 H 70.6718 -3.25719 0.239775 0
M  V30 760 H 69.3308 -2.83093 2.32925 0
M  V30 761 H 68.9788 -4.92724 1.01154 0
M  V30 762 H 68.6788 -5.19429 2.74714 0
M  V30 763 H 70.2028 -5.7656 2.01024 0
M  V30 764 H 71.6168 -4.32338 3.76506 0
M  V30 765 H 70.0138 -3.98986 4.48252 0
M  V30 766 H 71.0838 -2.63834 4.06841 0
M  V30 767 N 72.4269 -1.23603 -0.977757 0
M  V30 768 C 73.6739 -1.06971 -1.71941 0
M  V30 769 C 74.0019 0.393009 -1.90488 0
M  V30 770 O 73.2569 1.30719 -1.4564 0
M  V30 771 C 73.5559 -1.7433 -3.11999 0
M  V30 772 C 73.2219 -3.24252 -3.13323 0
M  V30 773 C 71.8839 -3.65156 -3.13392 0
M  V30 774 C 74.2359 -4.20141 -3.08433 0
M  V30 775 C 71.5639 -5.00403 -3.0629 0
M  V30 776 C 73.9159 -5.55384 -3.02873 0
M  V30 777 C 72.5799 -5.95647 -3.01265 0
M  V30 778 H 71.8499 -0.391433 -0.629175 0
M  V30 779 H 74.4969 -1.53572 -1.14403 0
M  V30 780 H 72.8019 -1.20096 -3.7294 0
M  V30 781 H 74.4989 -1.58936 -3.68158 0
M  V30 782 H 71.0889 -2.91692 -3.14029 0
M  V30 783 H 75.2729 -3.89547 -3.07517 0
M  V30 784 H 70.5289 -5.3081 -3.03399 0
M  V30 785 H 74.7029 -6.29398 -2.98046 0
M  V30 786 H 72.3299 -7.0041 -2.95516 0
M  V30 787 N 73.905 1.17692 -1.04816 0
M  V30 788 C 75.133 1.91786 -0.776254 0
M  V30 789 C 75.548 1.76604 0.667577 0
M  V30 790 O 74.905 1.10067 1.45573 0
M  V30 791 C 74.956 3.42967 -1.14263 0
M  V30 792 O 74.677 3.57678 -2.52978 0
M  V30 793 C 76.178 4.34144 -0.896311 0
M  V30 794 H 73.398 0.608624 -0.282519 0
M  V30 795 H 75.942 1.49268 -1.39783 0
M  V30 796 H 74.097 3.83245 -0.565874 0
M  V30 797 H 74.511 4.51319 -2.67229 0
M  V30 798 H 75.985 5.38744 -1.20244 0
M  V30 799 H 76.462 4.38876 0.168636 0
M  V30 800 H 77.068 3.99574 -1.45672 0
M  V30 801 N 75.3831 0.828654 1.34056 0
M  V30 802 C 76.6311 0.41863 1.97717 0
M  V30 803 C 76.9521 -1.02314 1.66002 0
M  V30 804 O 76.2221 -1.71119 0.953683 0
M  V30 805 H 74.8021 0.151809 0.731412 0
M  V30 806 H 77.4641 1.05936 1.63596 0
M  V30 807 H 76.5601 0.542318 3.07352 0
M  V30 808 N 76.8612 -1.46375 0.584142 0
M  V30 809 C 78.2722 -1.86031 0.157959 0
M  V30 810 C 78.6232 -1.48753 -1.27933 0
M  V30 811 O 77.7482 -0.903098 -1.96655 0
M  V30 812 C 78.3432 -3.37642 0.279892 0
M  V30 813 C 76.9022 -3.76289 -0.09143 0
M  V30 814 C 76.0492 -2.7039 0.615178 0
M  V30 815 H 79.0002 -1.37509 0.792274 0
M  V30 816 H 79.0212 -3.77275 -0.494364 0
M  V30 817 H 78.5332 -3.64742 1.32607 0
M  V30 818 H 76.6342 -3.54806 -1.13769 0
M  V30 819 H 76.7472 -4.78246 0.285886 0
M  V30 820 H 75.1112 -2.5464 0.0552833 0
M  V30 821 H 75.8942 -3.0033 1.66303 0
M  V30 822 N 78.3393 -0.321999 -1.54275 0
M  V30 823 C 79.5853 0.281461 -2.00837 0
M  V30 824 C 79.9183 1.51909 -1.20985 0
M  V30 825 O 79.1933 1.923 -0.291733 0
M  V30 826 C 79.4763 0.617162 -3.54772 0
M  V30 827 C 79.3293 -0.631064 -4.45351 0
M  V30 828 C 80.6483 1.43542 -4.16033 0
M  V30 829 H 77.7673 0.100826 -0.730071 0
M  V30 830 H 80.4093 -0.438268 -1.84876 0
M  V30 831 H 78.5593 1.23034 -3.68504 0
M  V30 832 H 80.2313 -1.26934 -4.43492 0
M  V30 833 H 78.4743 -1.26025 -4.15091 0
M  V30 834 H 79.1453 -0.351735 -5.50878 0
M  V30 835 H 81.6213 0.917134 -4.05867 0
M  V30 836 H 80.4973 1.63907 -5.23856 0
M  V30 837 H 80.7583 2.43108 -3.69257 0
M  V30 838 N 79.8174 1.5752 -0.0501392 0
M  V30 839 C 80.7474 2.14502 0.922566 0
M  V30 840 C 81.7284 1.06642 1.3252 0
M  V30 841 O 82.9134 1.34577 1.4001 0
M  V30 842 C 80.0434 2.68916 2.19776 0
M  V30 843 C 78.9974 3.8175 1.93523 0
M  V30 844 C 78.3234 4.22677 3.27487 0
M  V30 845 C 79.6234 5.06932 1.25765 0
M  V30 846 H 81.3174 2.9603 0.447952 0
M  V30 847 H 78.8634 1.42401 0.214024 0
M  V30 848 H 80.8164 3.07419 2.88222 0
M  V30 849 H 79.5404 1.84578 2.69441 0
M  V30 850 H 78.1994 3.43718 1.27489 0
M  V30 851 H 77.8474 3.35291 3.74952 0
M  V30 852 H 77.5474 4.98725 3.1072 0
M  V30 853 H 79.0714 4.63779 3.97166 0
M  V30 854 H 80.4854 5.42888 1.84244 0
M  V30 855 H 78.8824 5.88116 1.19328 0
M  V30 856 H 79.9524 4.84337 0.233536 0
M  V30 857 N 81.2955 -0.223234 1.56011 0
M  V30 858 C 82.5205 -0.968978 1.83373 0
M  V30 859 C 82.9455 -1.77227 0.630254 0
M  V30 860 O 82.3035 -1.76345 -0.420959 0
M  V30 861 C 82.3515 -1.86363 3.08709 0
M  V30 862 O 81.4555 -2.95873 2.87285 0
M  V30 863 H 80.7965 -0.274461 0.604622 0
M  V30 864 H 83.3265 -0.237056 2.03222 0
M  V30 865 H 83.3365 -2.27376 3.38768 0
M  V30 866 H 82.0115 -1.27319 3.95933 0
M  V30 867 H 80.5885 -2.58818 2.68454 0
M  V30 868 N 82.7736 -1.49793 -0.48987 0
M  V30 869 C 83.7206 -1.67281 -1.59014 0
M  V30 870 C 84.6906 -0.514177 -1.57941 0
M  V30 871 O 85.8756 -0.742533 -1.75759 0
M  V30 872 C 83.0156 -1.75569 -2.97102 0
M  V30 873 C 82.1286 -3.0281 -3.08107 0
M  V30 874 C 81.2636 -3.02008 -4.36995 0
M  V30 875 C 80.3026 -4.23782 -4.41673 0
M  V30 876 N 79.4396 -4.20826 -5.62005 0
M  V30 877 H 84.2796 -2.61224 -1.43409 0
M  V30 878 H 81.8166 -1.29508 -0.697565 0
M  V30 879 H 83.7746 -1.78354 -3.77155 0
M  V30 880 H 82.4046 -0.850827 -3.11385 0
M  V30 881 H 81.4566 -3.09584 -2.21047 0
M  V30 882 H 82.7686 -3.92801 -3.07423 0
M  V30 883 H 81.9226 -3.03418 -5.25378 0
M  V30 884 H 80.6616 -2.09815 -4.4026 0
M  V30 885 H 79.6666 -4.22604 -3.5169 0
M  V30 886 H 80.8916 -5.17181 -4.40115 0
M  V30 887 H 78.8376 -3.31476 -5.66091 0
M  V30 888 H 78.7546 -5.04564 -5.62984 0
M  V30 889 H 80.0226 -4.26355 -6.52565 0
M  V30 890 N 84.2517 0.741722 -1.39055 0
M  V30 891 C 85.2017 1.84661 -1.33732 0
M  V30 892 C 86.1857 1.59397 -0.219401 0
M  V30 893 O 87.3777 1.71015 -0.456375 0
M  V30 894 C 84.5067 3.22512 -1.17647 0
M  V30 895 C 83.5927 3.53628 -2.34112 0
M  V30 896 N 83.9837 3.55723 -3.59576 0
M  V30 897 C 82.2817 3.83956 -2.26923 0
M  V30 898 C 82.9827 3.84443 -4.36553 0
M  V30 899 N 81.9587 4.01877 -3.66055 0
M  V30 900 H 85.7607 1.84576 -2.28711 0
M  V30 901 H 83.2747 0.939647 -1.32455 0
M  V30 902 H 85.2717 4.01597 -1.11917 0
M  V30 903 H 83.9317 3.2384 -0.236124 0
M  V30 904 H 84.9427 3.37196 -3.93089 0
M  V30 905 H 81.6197 3.92929 -1.41113 0
M  V30 906 H 83.0097 3.92588 -5.45274 0
M  V30 907 N 85.7298 1.2412 0.971189 0
M  V30 908 C 86.6618 0.988349 2.06795 0
M  V30 909 C 87.6748 -0.0409541 1.62748 0
M  V30 910 O 88.8638 0.195673 1.77424 0
M  V30 911 C 85.9638 0.469023 3.35639 0
M  V30 912 C 85.1368 1.56065 4.08611 0
M  V30 913 C 84.1958 1.04458 5.15728 0
M  V30 914 O 83.2218 1.73553 5.42096 0
M  V30 915 N 84.4238 -0.122817 5.8037 0
M  V30 916 H 87.1888 1.93265 2.29061 0
M  V30 917 H 84.7498 1.15102 1.13856 0
M  V30 918 H 86.7418 0.108613 4.04554 0
M  V30 919 H 85.3118 -0.380919 3.1027 0
M  V30 920 H 84.5318 2.09341 3.34021 0
M  V30 921 H 85.8198 2.29449 4.54126 0
M  V30 922 H 85.2178 -0.700563 5.61345 0
M  V30 923 H 83.7748 -0.424404 6.50417 0
M  V30 924 N 87.2079 -1.17134 1.05439 0
M  V30 925 C 88.4849 -1.83411 0.679699 0
M  V30 926 C 88.8649 -1.9368 -0.839726 0
M  V30 927 O 88.2129 -1.47325 -1.74664 0
M  V30 928 C 88.4229 -3.20918 1.37159 0
M  V30 929 C 89.7709 -3.96796 1.51123 0
M  V30 930 O 90.7949 -3.30406 1.3308 0
M  V30 931 O 89.6539 -5.15778 1.80651 0
M  V30 932 H 86.7479 -0.79154 0.239569 0
M  V30 933 H 89.2939 -1.24411 1.15413 0
M  V30 934 H 88.0659 -3.08428 2.40807 0
M  V30 935 H 87.6889 -3.87587 0.886674 0
M  V30 936 N 88.686 -0.835752 -1.33615 0
M  V30 937 C 89.932 -0.430596 -1.98176 0
M  V30 938 C 90.265 1.00684 -1.66061 0
M  V30 939 O 89.54 1.70339 -0.938877 0
M  V30 940 C 89.823 -0.648065 -3.5422 0
M  V30 941 C 89.676 -2.13255 -3.96033 0
M  V30 942 C 90.995 -0.0922113 -4.40003 0
M  V30 943 H 88.114 -0.157924 -0.719881 0
M  V30 944 H 90.756 -1.05069 -1.58305 0
M  V30 945 H 88.906 -0.120237 -3.88314 0
M  V30 946 H 90.578 -2.725 -3.72211 0
M  V30 947 H 88.821 -2.61823 -3.45878 0
M  V30 948 H 89.492 -2.23547 -5.04708 0
M  V30 949 H 91.968 -0.543343 -4.12537 0
M  V30 950 H 90.844 -0.274083 -5.48215 0
M  V30 951 H 91.105 1.00378 -4.30554 0
M  V30 952 N 90.1641 1.46063 -0.591896 0
M  V30 953 C 91.4111 2.02338 -0.0809991 0
M  V30 954 C 91.7391 1.46228 1.28249 0
M  V30 955 O 90.9941 0.620818 1.85592 0
M  V30 956 C 91.2931 3.57391 0.0249813 0
M  V30 957 C 90.9591 4.32583 -1.27211 0
M  V30 958 C 89.6211 4.52844 -1.62745 0
M  V30 959 C 91.9731 4.75687 -2.13005 0
M  V30 960 C 89.3011 5.13462 -2.83855 0
M  V30 961 C 91.6531 5.37644 -3.3335 0
M  V30 962 C 90.3171 5.5613 -3.69155 0
M  V30 963 H 89.5871 0.740407 -0.0296397 0
M  V30 964 H 92.2341 1.75321 -0.770374 0
M  V30 965 H 90.5391 3.83597 0.797537 0
M  V30 966 H 92.2361 3.98621 0.436184 0
M  V30 967 H 88.8261 4.17116 -0.985499 0
M  V30 968 H 93.0101 4.59782 -1.86855 0
M  V30 969 H 88.2661 5.25965 -3.11722 0
M  V30 970 H 92.4401 5.7 -4.00092 0
M  V30 971 H 90.0671 6.0287 -4.63089 0
M  V30 972 N 91.6422 0.330177 1.54103 0
M  V30 973 C 92.5902 -0.548226 2.26047 0
M  V30 974 C 93.5842 -1.11309 1.27698 0
M  V30 975 O 94.7902 -1.06036 1.45452 0
M  V30 976 H 91.1652 -0.195456 0.726155 0
M  V30 977 H 93.1362 0.0807567 2.98291 0
M  V30 978 C 91.8852 -1.69415 3.03634 0
M  V30 979 H 91.2082 -1.26876 3.79134 0
M  V30 980 H 92.6482 -2.28423 3.5721 0
M  V30 981 C 91.1072 -2.61569 2.12328 0
M  V30 982 O 91.6372 -3.63462 1.7105 0
M  V30 983 N 89.8432 -2.29952 1.77681 0
M  V30 984 H 89.3902 -1.47134 2.11446 0
M  V30 985 H 89.3482 -2.91871 1.16869 0
M  V30 986 N 93.1203 -1.57491 0.0584922 0
M  V30 987 C 94.0523 -2.08916 -0.942694 0
M  V30 988 C 95.0653 -1.0185 -1.27006 0
M  V30 989 O 96.2543 -1.29398 -1.22957 0
M  V30 990 C 93.3543 -2.52341 -2.26224 0
M  V30 991 C 92.5273 -3.82827 -2.1157 0
M  V30 992 C 91.5863 -4.12487 -3.26712 0
M  V30 993 O 90.6123 -4.82295 -3.02292 0
M  V30 994 N 91.8143 -3.64978 -4.5141 0
M  V30 995 H 94.5793 -2.95437 -0.503722 0
M  V30 996 H 92.1403 -1.61397 -0.12757 0
M  V30 997 H 94.1323 -2.69254 -3.02133 0
M  V30 998 H 92.7023 -1.7103 -2.61663 0
M  V30 999 H 91.9223 -3.75425 -1.20208 0
M  V30 1000 H 93.2103 -4.68263 -1.99015 0
M  V30 1001 H 92.6083 -3.08558 -4.7414 0
M  V30 1002 H 91.1653 -3.87115 -5.2439 0
M  V30 1003 N 94.5984 0.214957 -1.56127 0
M  V30 1004 C 96.0094 0.781386 -1.69562 0
M  V30 1005 C 96.3604 1.84707 -0.66165 0
M  V30 1006 O 95.4854 2.156 0.185927 0
M  V30 1007 C 96.0804 1.42411 -3.07416 0
M  V30 1008 C 94.6394 1.93786 -3.22683 0
M  V30 1009 C 93.7864 0.800438 -2.65496 0
M  V30 1010 H 96.7374 -0.00980633 -1.58697 0
M  V30 1011 H 96.7584 2.29309 -3.0364 0
M  V30 1012 H 96.2704 0.64826 -3.82648 0
M  V30 1013 H 94.3714 2.74152 -2.52332 0
M  V30 1014 H 94.4844 2.1133 -4.29973 0
M  V30 1015 H 92.8484 1.2095 -2.2415 0
M  V30 1016 H 93.6314 0.0371471 -3.4328 0
M  V30 1017 N 96.0765 1.50051 0.48192 0
M  V30 1018 C 97.3045 1.64237 1.25832 0
M  V30 1019 C 97.7195 0.321336 1.86045 0
M  V30 1020 O 97.0765 -0.695478 1.68729 0
M  V30 1021 C 97.1275 2.72548 2.37487 0
M  V30 1022 O 96.8485 3.99529 1.79745 0
M  V30 1023 C 98.3495 2.9761 3.28547 0
M  V30 1024 H 95.5695 0.55237 0.380957 0
M  V30 1025 H 98.1135 1.96207 0.576467 0
M  V30 1026 H 96.2685 2.43303 3.01467 0
M  V30 1027 H 96.6825 4.59342 2.5319 0
M  V30 1028 H 98.1565 3.77084 4.03127 0
M  V30 1029 H 98.6335 2.0826 3.86684 0
M  V30 1030 H 99.2395 3.28345 2.70314 0
M  V30 1031 N 97.5546 -0.734337 1.39446 0
M  V30 1032 C 98.4846 -1.86155 1.40955 0
M  V30 1033 C 99.4656 -1.67898 0.272827 0
M  V30 1034 O 100.651 -1.88207 0.478743 0
M  V30 1035 C 97.7806 -3.23912 1.25294 0
M  V30 1036 C 96.7346 -3.56808 2.36373 0
M  V30 1037 C 96.0606 -4.93508 2.058 0
M  V30 1038 C 97.3606 -3.59713 3.78687 0
M  V30 1039 H 99.0546 -1.8515 2.35287 0
M  V30 1040 H 96.6006 -0.889367 1.13253 0
M  V30 1041 H 98.5536 -4.02443 1.2497 0
M  V30 1042 H 97.2776 -3.25446 0.274308 0
M  V30 1043 H 95.9366 -2.80606 2.35914 0
M  V30 1044 H 95.5846 -4.91623 1.06374 0
M  V30 1045 H 95.2846 -5.16486 2.80208 0
M  V30 1046 H 96.8086 -5.74396 2.07128 0
M  V30 1047 H 98.2226 -4.2832 3.81071 0
M  V30 1048 H 96.6196 -3.94209 4.52459 0
M  V30 1049 H 97.6896 -2.59504 4.09617 0
M  V30 1050 N 99.0327 -1.24633 -0.964593 0
M  V30 1051 C 99.9807 -1.03917 -2.08096 0
M  V30 1052 C 100.975 0.0268581 -1.69379 0
M  V30 1053 O 102.181 -0.127952 -1.79545 0
M  V30 1054 H 98.5557 -0.319044 -0.680966 0
M  V30 1055 H 100.527 -1.98581 -2.22729 0
M  V30 1056 C 99.2757 -0.663983 -3.41301 0
M  V30 1057 H 98.5987 -1.47605 -3.71555 0
M  V30 1058 H 100.039 -0.558663 -4.20303 0
M  V30 1059 C 98.4977 0.629169 -3.30973 0
M  V30 1060 O 99.0277 1.67404 -3.65156 0
M  V30 1061 N 97.2337 0.611057 -2.84103 0
M  V30 1062 H 96.7807 -0.239593 -2.56483 0
M  V30 1063 H 96.7387 1.47647 -2.77575 0
M  V30 1064 N 100.511 1.16574 -1.06058 0
M  V30 1065 C 101.736 1.91493 -0.796562 0
M  V30 1066 C 102.161 1.76773 0.642868 0
M  V30 1067 O 101.519 1.09142 1.44768 0
M  V30 1068 C 101.567 3.40293 -1.19303 0
M  V30 1069 O 100.671 4.11074 -0.330394 0
M  V30 1070 H 100.012 0.596678 -0.291326 0
M  V30 1071 H 102.542 1.47708 -1.41575 0
M  V30 1072 H 102.552 3.91057 -1.16356 0
M  V30 1073 H 101.227 3.50326 -2.24153 0
M  V30 1074 H 99.8038 3.70513 -0.421225 0
M  V30 1075 N 101.989 0.842826 1.3317 0
M  V30 1076 C 103.236 0.440447 1.97652 0
M  V30 1077 C 103.564 -1.00123 1.6675 0
M  V30 1078 O 102.819 -1.7155 0.941761 0
M  V30 1079 C 103.118 0.612607 3.52111 0
M  V30 1080 C 102.784 2.02297 4.02972 0
M  V30 1081 C 101.446 2.40874 4.16573 0
M  V30 1082 C 103.798 2.94402 4.30089 0
M  V30 1083 C 101.126 3.70852 4.54627 0
M  V30 1084 C 103.478 4.23865 4.69597 0
M  V30 1085 C 102.142 4.62392 4.81404 0
M  V30 1086 H 101.412 0.161171 0.72326 0
M  V30 1087 H 104.059 1.07061 1.58777 0
M  V30 1088 H 102.364 -0.100849 3.9167 0
M  V30 1089 H 104.061 0.2815 4.00011 0
M  V30 1090 H 100.651 1.71338 3.92863 0
M  V30 1091 H 104.835 2.65835 4.19101 0
M  V30 1092 H 100.091 4.00501 4.61962 0
M  V30 1093 H 104.265 4.95306 4.89536 0
M  V30 1094 H 101.892 5.63154 5.10648 0
M  V30 1095 N 103.467 -1.45747 0.599634 0
M  V30 1096 C 104.4 -2.27547 -0.172552 0
M  V30 1097 C 105.378 -1.36657 -0.881116 0
M  V30 1098 O 106.562 -1.66081 -0.891595 0
M  V30 1099 C 103.689 -3.14829 -1.24903 0
M  V30 1100 C 102.735 -4.21603 -0.644465 0
M  V30 1101 S 103.568 -5.32754 0.541606 0
M  V30 1102 C 104.724 -6.23604 -0.535656 0
M  V30 1103 H 104.957 -2.92691 0.521468 0
M  V30 1104 H 102.49 -1.49473 0.386947 0
M  V30 1105 H 104.448 -3.65675 -1.86527 0
M  V30 1106 H 103.109 -2.48965 -1.91508 0
M  V30 1107 H 102.302 -4.82566 -1.45417 0
M  V30 1108 H 101.904 -3.73857 -0.103534 0
M  V30 1109 H 104.196 -6.62519 -1.41686 0
M  V30 1110 H 105.139 -7.0809 0.0376246 0
M  V30 1111 H 105.547 -5.58103 -0.84741 0
M  V30 1112 N 104.945 -0.338344 -1.53925 0
M  V30 1113 C 106.193 0.259245 -2.0043 0
M  V30 1114 C 106.514 1.51484 -1.22791 0
M  V30 1115 O 105.784 1.93037 -0.33368 0
M  V30 1116 H 104.364 0.0987845 -0.740439 0
M  V30 1117 H 107.026 -0.458302 -1.89435 0
M  V30 1118 H 106.122 0.505334 -3.07982 0
M  V30 1119 N 106.423 1.57458 -0.0668435 0
M  V30 1120 C 107.353 2.15468 0.899764 0
M  V30 1121 C 108.334 1.08042 1.31381 0
M  V30 1122 O 109.519 1.36054 1.38574 0
M  V30 1123 C 106.649 2.71232 2.16911 0
M  V30 1124 C 105.603 3.83781 1.89463 0
M  V30 1125 C 104.929 4.26127 3.22986 0
M  V30 1126 C 106.229 5.08238 1.20381 0
M  V30 1127 H 107.923 2.96488 0.416529 0
M  V30 1128 H 105.469 1.4262 0.198908 0
M  V30 1129 H 107.422 3.10458 2.84945 0
M  V30 1130 H 106.146 1.87426 2.67468 0
M  V30 1131 H 104.805 3.45051 1.23836 0
M  V30 1132 H 104.453 3.39249 3.71374 0
M  V30 1133 H 104.153 5.01993 3.05413 0
M  V30 1134 H 105.677 4.67966 3.92225 0
M  V30 1135 H 107.091 5.44811 1.78475 0
M  V30 1136 H 105.488 5.89349 1.13083 0
M  V30 1137 H 106.558 4.84558 0.182153 0
M  V30 1138 N 107.901 -0.206675 1.56239 0
M  V30 1139 C 109.149 -0.927007 1.79586 0
M  V30 1140 C 109.47 -1.8427 0.637929 0
M  V30 1141 O 108.74 -1.92849 -0.344398 0
M  V30 1142 H 107.32 -0.345292 0.662407 0
M  V30 1143 H 109.982 -0.21496 1.93711 0
M  V30 1144 H 109.078 -1.52501 2.72305 0
M  V30 1145 N 109.379 -1.50304 -0.473955 0
M  V30 1146 C 110.311 -1.65109 -1.58971 0
M  V30 1147 C 111.324 -0.532676 -1.53839 0
M  V30 1148 O 112.513 -0.805751 -1.59279 0
M  V30 1149 C 109.613 -1.61684 -2.97845 0
M  V30 1150 C 108.786 -2.8951 -3.27876 0
M  V30 1151 C 107.845 -2.78768 -4.4629 0
M  V30 1152 O 106.871 -3.52722 -4.46739 0
M  V30 1153 N 108.073 -1.9213 -5.47783 0
M  V30 1154 H 110.838 -2.61347 -1.46689 0
M  V30 1155 H 108.399 -1.47732 -0.662324 0
M  V30 1156 H 110.391 -1.52114 -3.75024 0
M  V30 1157 H 108.961 -0.731925 -3.03911 0
M  V30 1158 H 108.181 -3.13228 -2.39336 0
M  V30 1159 H 109.469 -3.74199 -3.4475 0
M  V30 1160 H 108.867 -1.31353 -5.50239 0
M  V30 1161 H 107.424 -1.88466 -6.23958 0
M  V30 1162 N 110.857 0.726932 -1.39834 0
M  V30 1163 C 111.82 1.82269 -1.38962 0
M  V30 1164 C 112.82 1.58248 -0.285334 0
M  V30 1165 O 114.01 1.65499 -0.54366 0
M  V30 1166 C 111.142 3.20186 -1.17019 0
M  V30 1167 H 112.335 1.84443 -2.36476 0
M  V30 1168 H 109.888 0.931416 -1.25516 0
M  V30 1169 H 110.623 3.23669 -0.202204 0
M  V30 1170 H 110.408 3.3902 -1.96998 0
M  V30 1171 H 111.898 4.00235 -1.1917 0
M  V30 1172 N 112.336 1.25143 0.95797 0
M  V30 1173 C 113.299 1.05321 2.03569 0
M  V30 1174 C 114.299 0.007152 1.60798 0
M  V30 1175 O 115.489 0.24903 1.72411 0
M  V30 1176 C 112.621 0.598394 3.35607 0
M  V30 1177 H 113.814 2.00986 2.22586 0
M  V30 1178 H 111.367 1.07502 1.13459 0
M  V30 1179 H 112.102 -0.361014 3.22284 0
M  V30 1180 H 111.887 1.35351 3.67998 0
M  V30 1181 H 113.377 0.48104 4.1482 0
M  V30 1182 N 113.814 -1.1601 1.06675 0
M  V30 1183 C 115.06 -1.87145 0.796766 0
M  V30 1184 C 115.415 -1.8037 -0.669658 0
M  V30 1185 O 114.708 -1.21116 -1.48463 0
M  V30 1186 C 114.902 -3.35547 1.23057 0
M  V30 1187 C 114.731 -3.56769 2.73762 0
M  V30 1188 C 113.501 -3.72635 3.41279 0
M  V30 1189 C 115.699 -3.55166 3.7197 0
M  V30 1190 N 113.681 -3.81845 4.80695 0
M  V30 1191 C 115.052 -3.70406 4.97191 0
M  V30 1192 C 117.107 -3.384 3.65226 0
M  V30 1193 C 115.81 -3.70615 6.16471 0
M  V30 1194 C 117.836 -3.39904 4.83962 0
M  V30 1195 C 117.198 -3.55667 6.08013 0
M  V30 1196 H 113.297 -0.702267 0.344014 0
M  V30 1197 H 115.881 -1.39165 1.36166 0
M  V30 1198 H 114.052 -3.82159 0.693456 0
M  V30 1199 H 115.784 -3.94363 0.908844 0
M  V30 1200 H 112.539 -3.73121 2.91681 0
M  V30 1201 H 112.963 -3.90209 5.53232 0
M  V30 1202 H 117.605 -3.25138 2.70269 0
M  V30 1203 H 115.323 -3.82658 7.11757 0
M  V30 1204 H 118.909 -3.28169 4.80413 0
M  V30 1205 H 117.789 -3.56755 6.98352 0
M  V30 1206 N 115.292 -0.849877 -1.32721 0
M  V30 1207 C 116.239 -0.289033 -2.28983 0
M  V30 1208 C 117.209 0.601324 -1.54833 0
M  V30 1209 O 118.394 0.537253 -1.8308 0
M  V30 1210 C 115.534 0.520623 -3.4115 0
M  V30 1211 C 114.647 -0.394989 -4.3019 0
M  V30 1212 C 113.782 0.426834 -5.29482 0
M  V30 1213 C 112.821 -0.486476 -6.10164 0
M  V30 1214 N 111.958 0.297879 -7.01468 0
M  V30 1215 H 116.798 -1.11519 -2.76347 0
M  V30 1216 H 114.335 -0.56138 -1.35967 0
M  V30 1217 H 116.293 1.00563 -4.04899 0
M  V30 1218 H 114.923 1.31165 -2.9495 0
M  V30 1219 H 113.975 -0.99836 -3.67065 0
M  V30 1220 H 115.287 -1.09612 -4.86607 0
M  V30 1221 H 114.441 0.975205 -5.98811 0
M  V30 1222 H 113.18 1.16136 -4.73671 0
M  V30 1223 H 112.185 -1.04677 -5.39743 0
M  V30 1224 H 113.41 -1.21953 -6.6806 0
M  V30 1225 H 111.356 1.01558 -6.48091 0
M  V30 1226 H 111.273 -0.344318 -7.55216 0
M  V30 1227 H 112.541 0.828131 -7.75089 0
M  V30 1228 N 116.77 1.45427 -0.607355 0
M  V30 1229 C 117.68 2.34325 0.113463 0
M  V30 1230 C 118.696 1.51226 0.860617 0
M  V30 1231 O 119.872 1.84029 0.818255 0
M  V30 1232 C 116.937 3.28839 1.09844 0
M  V30 1233 C 115.998 4.27844 0.353271 0
M  V30 1234 C 115.231 5.17842 1.29133 0
M  V30 1235 O 115.454 5.11264 2.52913 0
M  V30 1236 O 114.388 5.96713 0.788523 0
M  V30 1237 H 118.214 2.97364 -0.617094 0
M  V30 1238 H 115.799 1.44807 -0.367619 0
M  V30 1239 H 117.681 3.8708 1.66575 0
M  V30 1240 H 116.356 2.68365 1.81003 0
M  V30 1241 H 115.263 3.7322 -0.256494 0
M  V30 1242 H 116.596 4.91173 -0.317822 0
M  V30 1243 N 118.248 0.346503 1.53744 0
M  V30 1244 C 119.211 -0.496439 2.23759 0
M  V30 1245 C 120.211 -1.0252 1.2388 0
M  V30 1246 O 121.401 -0.913974 1.48297 0
M  V30 1247 C 118.533 -1.69187 2.95954 0
M  V30 1248 H 119.726 0.115952 2.99676 0
M  V30 1249 H 117.279 0.0978939 1.55993 0
M  V30 1250 H 118.014 -2.34288 2.24231 0
M  V30 1251 H 117.799 -1.31989 3.69217 0
M  V30 1252 H 119.289 -2.28969 3.49232 0
M  V30 1253 N 119.726 -1.57421 0.075193 0
M  V30 1254 C 121.142 -1.57099 -0.281444 0
M  V30 1255 C 121.342 -1.08486 -1.69803 0
M  V30 1256 O 120.398 -0.752279 -2.41033 0
M  V30 1257 C 121.711 -3.00571 -0.0880041 0
M  V30 1258 C 123.259 -3.12605 -0.157281 0
M  V30 1259 C 123.734 -4.57999 0.0079207 0
M  V30 1260 N 125.225 -4.63176 -0.0475725 0
M  V30 1261 C 125.96 -5.73373 0.0557876 0
M  V30 1262 N 125.456 -6.92473 0.21286 0
M  V30 1263 N 127.249 -5.621 -0.00152098 0
M  V30 1264 H 119.4 -1.87335 1.00098 0
M  V30 1265 H 121.663 -0.86377 0.390646 0
M  V30 1266 H 121.369 -3.40262 0.889629 0
M  V30 1267 H 121.243 -3.67754 -0.838875 0
M  V30 1268 H 123.63 -2.72798 -1.1254 0
M  V30 1269 H 123.711 -2.48053 0.62475 0
M  V30 1270 H 123.355 -4.98496 0.972824 0
M  V30 1271 H 123.285 -5.20586 -0.793556 0
M  V30 1272 H 125.776 -3.7753 -0.167244 0
M  V30 1273 H 126.089 -7.72279 0.283781 0
M  V30 1274 H 124.434 -6.94556 0.248267 0
M  V30 1275 H 127.625 -4.67938 -0.122958 0
M  V30 1276 H 127.798 -6.47948 0.0824844 0
M  V30 1277 N 121.204 0.198386 -1.56346 0
M  V30 1278 C 122.45 0.920648 -1.80698 0
M  V30 1279 C 122.783 1.83045 -0.648697 0
M  V30 1280 O 122.058 1.91308 0.350925 0
M  V30 1281 C 122.341 1.73971 -3.15287 0
M  V30 1282 C 122.194 0.85485 -4.41602 0
M  V30 1283 C 123.513 2.71296 -3.46535 0
M  V30 1284 H 120.632 0.333261 -0.657348 0
M  V30 1285 H 123.274 0.188198 -1.89066 0
M  V30 1286 H 121.424 2.36416 -3.08285 0
M  V30 1287 H 123.096 0.245362 -4.60647 0
M  V30 1288 H 121.339 0.161398 -4.335 0
M  V30 1289 H 122.01 1.46286 -5.32264 0
M  V30 1290 H 124.486 2.18983 -3.53816 0
M  V30 1291 H 123.362 3.2569 -4.41834 0
M  V30 1292 H 123.623 3.5018 -2.69864 0
M  V30 1293 N 122.682 1.50554 0.465978 0
M  V30 1294 C 123.929 1.61798 1.21768 0
M  V30 1295 C 124.257 0.320696 1.91838 0
M  V30 1296 O 123.512 -0.693724 1.82992 0
M  V30 1297 C 123.811 2.75152 2.28093 0
M  V30 1298 C 123.477 4.15454 1.75239 0
M  V30 1299 C 122.139 4.53628 1.60546 0
M  V30 1300 C 124.491 5.03121 1.36083 0
M  V30 1301 C 121.819 5.77204 1.05128 0
M  V30 1302 C 124.171 6.27249 0.821056 0
M  V30 1303 C 122.835 6.64221 0.660795 0
M  V30 1304 H 122.105 0.592063 0.445582 0
M  V30 1305 H 124.752 1.84503 0.512927 0
M  V30 1306 H 123.057 2.46556 3.04496 0
M  V30 1307 H 124.754 2.81055 2.86023 0
M  V30 1308 H 121.344 3.85341 1.87644 0
M  V30 1309 H 125.528 4.74257 1.46267 0
M  V30 1310 H 120.784 6.0452 0.91462 0
M  V30 1311 H 124.958 6.94537 0.509018 0
M  V30 1312 H 122.585 7.59854 0.229226 0
M  V30 1313 N 124.16 -0.719506 1.40217 0
M  V30 1314 C 125.09 -1.8465 1.42922 0
M  V30 1315 C 126.071 -1.67599 0.29062 0
M  V30 1316 O 127.256 -1.87688 0.498677 0
M  V30 1317 C 124.386 -3.22565 1.28722 0
M  V30 1318 C 123.34 -3.54281 2.40144 0
M  V30 1319 C 122.666 -4.91298 2.11023 0
M  V30 1320 C 123.966 -3.55676 3.82481 0
M  V30 1321 H 125.66 -1.82644 2.37237 0
M  V30 1322 H 123.206 -0.877305 1.1419 0
M  V30 1323 H 125.159 -4.01095 1.29232 0
M  V30 1324 H 123.883 -3.25137 0.308811 0
M  V30 1325 H 122.542 -2.78088 2.38877 0
M  V30 1326 H 122.19 -4.90468 1.11582 0
M  V30 1327 H 121.89 -5.13485 2.8567 0
M  V30 1328 H 123.414 -5.72166 2.13209 0
M  V30 1329 H 124.828 -4.24254 3.85592 0
M  V30 1330 H 123.225 -3.89388 4.56614 0
M  V30 1331 H 124.295 -2.55144 4.12346 0
M  V30 1332 N 125.638 -1.25649 -0.95132 0
M  V30 1333 C 126.57 -1.02112 -2.05197 0
M  V30 1334 C 127.583 0.0150571 -1.62793 0
M  V30 1335 O 128.772 -0.223874 -1.77091 0
M  V30 1336 C 125.872 -0.522361 -3.3485 0
M  V30 1337 C 125.045 -1.62546 -4.06076 0
M  V30 1338 C 124.104 -1.12649 -5.14001 0
M  V30 1339 O 123.13 -1.82156 -5.39266 0
M  V30 1340 N 124.332 0.03047 -5.80492 0
M  V30 1341 H 127.097 -1.96885 -2.25957 0
M  V30 1342 H 124.658 -1.16899 -1.1201 0
M  V30 1343 H 126.65 -0.172961 -4.0433 0
M  V30 1344 H 125.22 0.33151 -3.10837 0
M  V30 1345 H 124.44 -2.14628 -3.30649 0
M  V30 1346 H 125.728 -2.36644 -4.50419 0
M  V30 1347 H 125.126 0.611169 -5.62389 0
M  V30 1348 H 123.683 0.320875 -6.5101 0
M  V30 1349 N 127.117 1.15442 -1.07289 0
M  V30 1350 C 128.065 2.22225 -0.686952 0
M  V30 1351 C 129.059 1.66688 0.30193 0
M  V30 1352 O 130.265 1.79236 0.165712 0
M  V30 1353 H 126.64 0.723783 -0.204064 0
M  V30 1354 H 128.611 2.52056 -1.5972 0
M  V30 1355 C 127.36 3.47556 -0.100149 0
M  V30 1356 H 126.683 3.90612 -0.852211 0
M  V30 1357 H 128.123 4.23794 0.132235 0
M  V30 1358 C 126.582 3.16337 1.159 0
M  V30 1359 O 127.112 3.33074 2.24555 0
M  V30 1360 N 125.318 2.70385 1.06491 0
M  V30 1361 H 124.865 2.56966 0.180668 0
M  V30 1362 H 124.823 2.49871 1.90819 0
M  V30 1363 N 128.595 0.856903 1.32268 0
M  V30 1364 C 129.525 0.31858 2.31316 0
M  V30 1365 C 130.506 -0.583487 1.59779 0
M  V30 1366 O 131.691 -0.503259 1.87566 0
M  V30 1367 C 128.821 -0.491979 3.43798 0
M  V30 1368 C 127.775 0.315849 4.26833 0
M  V30 1369 C 127.101 -0.619586 5.31098 0
M  V30 1370 C 128.401 1.54282 4.98993 0
M  V30 1371 H 130.095 1.14621 2.76591 0
M  V30 1372 H 127.641 0.552613 1.32974 0
M  V30 1373 H 129.594 -0.879012 4.1213 0
M  V30 1374 H 128.318 -1.35299 2.97257 0
M  V30 1375 H 126.977 0.684664 3.6015 0
M  V30 1376 H 126.625 -1.47751 4.8081 0
M  V30 1377 H 126.325 -0.0830621 5.87541 0
M  V30 1378 H 127.849 -1.00375 6.02293 0
M  V30 1379 H 129.263 1.22796 5.59995 0
M  V30 1380 H 127.66 2.01745 5.65172 0
M  V30 1381 H 128.73 2.30285 4.26728 0
M  V30 1382 N 130.073 -1.45103 0.615059 0
M  V30 1383 C 131.003 -2.33339 -0.0865619 0
M  V30 1384 C 131.984 -1.4727 -0.851209 0
M  V30 1385 O 133.169 -1.76026 -0.820281 0
M  V30 1386 C 130.299 -3.30095 -1.07956 0
M  V30 1387 C 129.253 -4.25858 -0.427628 0
M  V30 1388 C 128.579 -5.12361 -1.5294 0
M  V30 1389 C 129.879 -5.18165 0.655944 0
M  V30 1390 H 131.573 -2.92254 0.650224 0
M  V30 1391 H 129.119 -1.40532 0.314138 0
M  V30 1392 H 131.072 -3.90698 -1.57901 0
M  V30 1393 H 129.796 -2.69355 -1.84703 0
M  V30 1394 H 128.455 -3.66564 0.0510292 0
M  V30 1395 H 128.103 -4.47984 -2.28734 0
M  V30 1396 H 127.803 -5.77238 -1.09865 0
M  V30 1397 H 129.327 -5.75833 -2.03098 0
M  V30 1398 H 130.741 -5.72796 0.240257 0
M  V30 1399 H 129.138 -5.91559 1.00888 0
M  V30 1400 H 130.208 -4.60144 1.52957 0
M  V30 1401 N 131.551 -0.354651 -1.53558 0
M  V30 1402 C 132.776 0.242153 -2.05981 0
M  V30 1403 C 133.201 1.42553 -1.2272 0
M  V30 1404 O 132.559 1.79656 -0.243604 0
M  V30 1405 C 132.607 0.624367 -3.55154 0
M  V30 1406 O 131.711 1.72301 -3.74681 0
M  V30 1407 H 131.052 0.0378432 -0.662921 0
M  V30 1408 H 133.582 -0.512087 -1.98088 0
M  V30 1409 H 133.592 0.898433 -3.97985 0
M  V30 1410 H 132.267 -0.240989 -4.15201 0
M  V30 1411 H 130.844 1.44535 -3.4375 0
M  V30 1412 N 133.029 1.57378 -0.0835403 0
M  V30 1413 C 134.275 1.94217 0.583733 0
M  V30 1414 C 134.608 0.964653 1.68547 0
M  V30 1415 O 133.883 -0.00422258 1.945 0
M  V30 1416 C 134.166 3.41253 1.14972 0
M  V30 1417 C 134.019 4.49768 0.0538277 0
M  V30 1418 C 135.338 3.89352 2.05166 0
M  V30 1419 H 132.457 0.706233 0.210724 0
M  V30 1420 H 135.099 1.89392 -0.1519 0
M  V30 1421 H 133.249 3.45496 1.77665 0
M  V30 1422 H 134.921 4.57641 -0.579851 0
M  V30 1423 H 133.164 4.29432 -0.614068 0
M  V30 1424 H 133.835 5.49817 0.490452 0
M  V30 1425 H 136.311 3.87189 1.52393 0
M  V30 1426 H 135.187 4.92822 2.41698 0
M  V30 1427 H 135.448 3.27973 2.96456 0
M  V30 1428 N 134.507 -0.190092 1.56449 0
M  V30 1429 C 135.732 -0.929864 1.85387 0
M  V30 1430 C 136.157 -1.7585 0.667704 0
M  V30 1431 O 135.515 -1.77198 -0.383459 0
M  V30 1432 C 135.563 -1.79773 3.12593 0
M  V30 1433 O 134.667 -2.89713 2.93496 0
M  V30 1434 H 134.008 -0.261574 0.610307 0
M  V30 1435 H 136.538 -0.193896 2.03679 0
M  V30 1436 H 136.548 -2.20139 3.43515 0
M  V30 1437 H 135.223 -1.18892 3.98544 0
M  V30 1438 H 133.8 -2.53065 2.73884 0
M  V30 1439 N 135.985 -1.50799 -0.457987 0
M  V30 1440 C 136.917 -1.66786 -1.57211 0
M  V30 1441 C 137.93 -0.548962 -1.53265 0
M  V30 1442 O 139.119 -0.8226 -1.58416 0
M  V30 1443 C 136.219 -1.64834 -2.96113 0
M  V30 1444 C 135.392 -2.92971 -3.24787 0
M  V30 1445 C 134.451 -2.83485 -4.43309 0
M  V30 1446 O 133.477 -3.5744 -4.42973 0
M  V30 1447 N 134.679 -1.97929 -5.45714 0
M  V30 1448 H 137.444 -2.62889 -1.43909 0
M  V30 1449 H 135.005 -1.48427 -0.646617 0
M  V30 1450 H 136.997 -1.56084 -3.7339 0
M  V30 1451 H 135.567 -0.764118 -3.03117 0
M  V30 1452 H 134.787 -3.15749 -2.36 0
M  V30 1453 H 136.075 -3.77834 -3.40762 0
M  V30 1454 H 135.473 -1.37182 -5.48815 0
M  V30 1455 H 134.03 -1.95073 -6.21924 0
M  V30 1456 N 137.463 0.71206 -1.40597 0
M  V30 1457 C 138.426 1.80785 -1.40888 0
M  V30 1458 C 139.426 1.57937 -0.302103 0
M  V30 1459 O 140.616 1.64913 -0.561182 0
M  V30 1460 C 137.748 3.18927 -1.20409 0
M  V30 1461 H 138.941 1.81924 -2.38419 0
M  V30 1462 H 136.494 0.91805 -1.26497 0
M  V30 1463 H 137.229 3.23436 -0.236522 0
M  V30 1464 H 137.014 3.36911 -2.00582 0
M  V30 1465 H 138.504 3.98949 -1.23408 0
M  V30 1466 N 138.941 1.26152 0.944643 0
M  V30 1467 C 140.357 1.03189 1.21754 0
M  V30 1468 C 140.557 -0.245112 2.00004 0
M  V30 1469 O 139.613 -0.955176 2.33736 0
M  V30 1470 C 140.926 2.26119 1.98219 0
M  V30 1471 C 142.474 2.30984 2.11224 0
M  V30 1472 C 142.949 3.53597 2.91089 0
M  V30 1473 N 144.44 3.54053 2.98664 0
M  V30 1474 C 145.175 4.45593 3.60881 0
M  V30 1475 N 144.671 5.47416 4.24626 0
M  V30 1476 N 146.464 4.33252 3.58119 0
M  V30 1477 H 138.615 2.08177 0.421437 0
M  V30 1478 H 140.878 0.914723 0.248969 0
M  V30 1479 H 140.584 3.18984 1.48128 0
M  V30 1480 H 140.458 2.3009 2.98895 0
M  V30 1481 H 142.845 1.38635 2.60508 0
M  V30 1482 H 142.926 2.31026 1.09821 0
M  V30 1483 H 142.57 4.46273 2.42493 0
M  V30 1484 H 142.5 3.50802 3.92741 0
M  V30 1485 H 144.991 2.80403 2.53343 0
M  V30 1486 H 145.304 6.13459 4.69987 0
M  V30 1487 H 143.649 5.51278 4.23223 0
M  V30 1488 H 146.84 3.52924 3.0751 0
M  V30 1489 H 147.013 5.04786 4.06319 0
M  V30 1490 N 140.419 -1.14872 1.07899 0
M  V30 1491 C 141.349 -2.2193 0.725887 0
M  V30 1492 C 142.33 -1.67622 -0.28927 0
M  V30 1493 O 143.515 -1.93533 -0.160787 0
M  V30 1494 C 140.645 -3.47061 0.128856 0
M  V30 1495 C 139.599 -4.14363 1.07178 0
M  V30 1496 C 138.925 -5.33636 0.337229 0
M  V30 1497 C 140.225 -4.63492 2.40775 0
M  V30 1498 H 141.919 -2.51724 1.62097 0
M  V30 1499 H 139.465 -1.20991 0.780838 0
M  V30 1500 H 141.418 -4.21199 -0.130147 0
M  V30 1501 H 140.142 -3.16617 -0.80134 0
M  V30 1502 H 138.801 -3.42173 1.3158 0
M  V30 1503 H 138.449 -4.99449 -0.596606 0
M  V30 1504 H 138.149 -5.79609 0.965788 0
M  V30 1505 H 139.673 -6.10539 0.0861567 0
M  V30 1506 H 141.087 -5.2913 2.20669 0
M  V30 1507 H 139.484 -5.20148 2.99276 0
M  V30 1508 H 140.554 -3.78834 3.02676 0
M  V30 1509 N 141.898 -0.863906 -1.31812 0
M  V30 1510 C 143.314 -0.555004 -1.49639 0
M  V30 1511 C 143.514 0.912266 -1.79666 0
M  V30 1512 O 142.57 1.69479 -1.87171 0
M  V30 1513 C 143.883 -1.44998 -2.63431 0
M  V30 1514 C 145.431 -1.45138 -2.77316 0
M  V30 1515 C 145.906 -2.33179 -3.94197 0
M  V30 1516 N 147.397 -2.31025 -4.01474 0
M  V30 1517 C 148.132 -2.95871 -4.9117 0
M  V30 1518 N 147.628 -3.69863 -5.8581 0
M  V30 1519 N 149.421 -2.85211 -4.84367 0
M  V30 1520 H 141.572 -1.81339 -1.10589 0
M  V30 1521 H 143.835 -0.77505 -0.545895 0
M  V30 1522 H 143.541 -2.49377 -2.48 0
M  V30 1523 H 143.415 -1.14409 -3.59431 0
M  V30 1524 H 145.802 -0.415201 -2.92164 0
M  V30 1525 H 145.883 -1.79747 -1.82001 0
M  V30 1526 H 145.527 -3.3687 -3.80107 0
M  V30 1527 H 145.457 -1.95897 -4.88807 0
M  V30 1528 H 147.948 -1.77238 -3.33759 0
M  V30 1529 H 148.261 -4.16486 -6.50968 0
M  V30 1530 H 146.606 -3.73971 -5.85808 0
M  V30 1531 H 149.797 -2.26948 -4.09405 0
M  V30 1532 H 149.97 -3.36027 -5.54066 0
M  V30 1533 N 143.376 1.44774 -0.622745 0
M  V30 1534 C 144.653 1.95522 -0.0551974 0
M  V30 1535 C 145.033 1.5649 1.41683 0
M  V30 1536 O 144.381 0.834848 2.12703 0
M  V30 1537 C 144.591 3.4796 -0.269242 0
M  V30 1538 C 145.939 4.24306 -0.158014 0
M  V30 1539 O 146.963 3.55637 -0.200162 0
M  V30 1540 O 145.822 5.46471 -0.0558693 0
M  V30 1541 H 142.916 0.826556 0.0271015 0
M  V30 1542 H 145.462 1.54866 -0.693864 0
M  V30 1543 H 144.234 3.6939 -1.29099 0
M  V30 1544 H 143.857 3.95543 0.403966 0
M  V30 1545 N 144.854 0.36279 1.53368 0
M  V30 1546 C 146.131 -0.284021 1.93527 0
M  V30 1547 C 146.511 -1.66628 1.29608 0
M  V30 1548 O 145.859 -2.23942 0.45413 0
M  V30 1549 C 146.069 -0.337028 3.47369 0
M  V30 1550 C 147.417 -0.578708 4.20638 0
M  V30 1551 O 148.441 -0.418352 3.53735 0
M  V30 1552 O 147.3 -0.89074 5.39192 0
M  V30 1553 H 144.394 -0.169743 0.809393 0
M  V30 1554 H 146.94 0.41537 1.64538 0
M  V30 1555 H 145.712 0.632217 3.86159 0
M  V30 1556 H 145.335 -1.08243 3.82582 0
M  V30 1557 N 146.332 -1.57332 0.0918853 0
M  V30 1558 C 147.56 -1.98574 -0.581048 0
M  V30 1559 C 147.975 -0.970903 -1.61923 0
M  V30 1560 O 147.332 0.0399054 -1.82456 0
M  V30 1561 C 147.383 -3.39872 -1.23164 0
M  V30 1562 O 147.104 -4.37469 -0.234989 0
M  V30 1563 C 148.605 -3.96099 -1.99049 0
M  V30 1564 H 145.825 -0.65261 -0.156018 0
M  V30 1565 H 148.369 -2.0379 0.170225 0
M  V30 1566 H 146.524 -3.35679 -1.93386 0
M  V30 1567 H 146.938 -5.19751 -0.70418 0
M  V30 1568 H 148.412 -4.97127 -2.39934 0
M  V30 1569 H 148.889 -3.3374 -2.85507 0
M  V30 1570 H 149.495 -4.03755 -1.3365 0
M  V30 1571 N 147.81 0.181792 -1.56548 0
M  V30 1572 C 148.72 1.24538 -1.98815 0
M  V30 1573 C 149.736 1.49045 -0.897861 0
M  V30 1574 O 150.912 1.61399 -1.20467 0
M  V30 1575 C 147.977 2.56683 -2.33055 0
M  V30 1576 C 147.038 2.40131 -3.55859 0
M  V30 1577 C 146.271 3.65975 -3.88456 0
M  V30 1578 O 146.494 4.70711 -3.22161 0
M  V30 1579 O 145.428 3.6071 -4.81842 0
M  V30 1580 H 149.254 0.916647 -2.89536 0
M  V30 1581 H 146.839 0.387842 -1.44278 0
M  V30 1582 H 148.721 3.34655 -2.56094 0
M  V30 1583 H 147.396 2.89157 -1.45498 0
M  V30 1584 H 146.303 1.60226 -3.38051 0
M  V30 1585 H 147.636 2.12585 -4.43924 0
M  V30 1586 N 149.288 1.51039 0.449983 0
M  V30 1587 C 150.218 1.74379 1.55288 0
M  V30 1588 C 151.199 0.593236 1.5942 0
M  V30 1589 O 152.384 0.834625 1.7535 0
M  V30 1590 C 149.514 1.85728 2.93466 0
M  V30 1591 C 148.468 3.01078 3.04197 0
M  V30 1592 C 147.794 2.97595 4.44231 0
M  V30 1593 C 149.094 4.41254 2.7945 0
M  V30 1594 H 150.788 2.66725 1.36008 0
M  V30 1595 H 148.334 1.2835 0.652864 0
M  V30 1596 H 150.287 2.0064 3.70569 0
M  V30 1597 H 149.011 0.900207 3.13949 0
M  V30 1598 H 147.67 2.85851 2.29531 0
M  V30 1599 H 147.318 1.99691 4.61663 0
M  V30 1600 H 147.018 3.75046 4.52343 0
M  V30 1601 H 148.542 3.14583 5.23326 0
M  V30 1602 H 149.956 4.56897 3.46292 0
M  V30 1603 H 148.353 5.20315 2.98985 0
M  V30 1604 H 149.423 4.52164 1.75144 0
M  V30 1605 N 150.766 -0.704594 1.40972 0
M  V30 1606 C 152.182 -1.01406 1.23244 0
M  V30 1607 C 152.382 -2.01169 0.115399 0
M  V30 1608 O 151.438 -2.47021 -0.523147 0
M  V30 1609 C 152.751 -1.54728 2.57836 0
M  V30 1610 C 154.299 -1.66658 2.64942 0
M  V30 1611 C 154.774 -2.23383 3.9983 0
M  V30 1612 N 156.265 -2.30756 4.01629 0
M  V30 1613 C 157 -2.75655 5.02794 0
M  V30 1614 N 156.496 -3.20225 6.14352 0
M  V30 1615 N 158.289 -2.75138 4.90159 0
M  V30 1616 H 150.44 -0.0435285 2.12355 0
M  V30 1617 H 152.703 -0.0818951 0.944456 0
M  V30 1618 H 152.409 -0.888832 3.40283 0
M  V30 1619 H 152.283 -2.53084 2.79693 0
M  V30 1620 H 154.67 -2.31617 1.8286 0
M  V30 1621 H 154.751 -0.668717 2.46904 0
M  V30 1622 H 154.395 -1.59043 4.82357 0
M  V30 1623 H 154.325 -3.23904 4.15203 0
M  V30 1624 H 156.816 -1.99291 3.21079 0
M  V30 1625 H 157.129 -3.53084 6.87424 0
M  V30 1626 H 155.474 -3.18156 6.17901 0
M  V30 1627 H 158.665 -2.39661 4.02095 0
M  V30 1628 H 158.838 -3.09812 5.6914 0
M  V30 1629 N 152.244 -1.26651 -0.937939 0
M  V30 1630 C 153.191 -1.0849 -2.03712 0
M  V30 1631 C 154.161 0.011033 -1.66096 0
M  V30 1632 O 155.346 -0.149353 -1.90215 0
M  V30 1633 C 152.486 -0.72735 -3.37348 0
M  V30 1634 C 151.599 -1.89986 -3.87981 0
M  V30 1635 C 150.734 -1.48513 -5.10017 0
M  V30 1636 C 149.773 -2.62575 -5.5292 0
M  V30 1637 N 148.91 -2.21762 -6.66158 0
M  V30 1638 H 153.75 -2.02551 -2.18579 0
M  V30 1639 H 151.287 -1.00844 -1.07093 0
M  V30 1640 H 153.245 -0.50092 -4.14182 0
M  V30 1641 H 151.875 0.176298 -3.22318 0
M  V30 1642 H 150.927 -2.23913 -3.07518 0
M  V30 1643 H 152.239 -2.75586 -4.15757 0
M  V30 1644 H 151.393 -1.21934 -5.94321 0
M  V30 1645 H 150.132 -0.60009 -4.83994 0
M  V30 1646 H 149.137 -2.8988 -4.67172 0
M  V30 1647 H 150.362 -3.51685 -5.80943 0
M  V30 1648 H 148.308 -1.35696 -6.41812 0
M  V30 1649 H 148.225 -3.00903 -6.93537 0
M  V30 1650 H 149.493 -1.98403 -7.53828 0
M  V30 1651 N 153.722 1.14298 -1.08507 0
M  V30 1652 C 154.962 1.87016 -0.824894 0
M  V30 1653 C 155.326 1.81099 0.637735 0
M  V30 1654 O 156.527 2.48963 1.01345 0
M  V30 1655 C 154.798 3.31584 -1.33368 0
M  V30 1656 S 156.357 4.21903 -1.20596 0
M  V30 1657 H 153.175 0.645259 -0.2986 0
M  V30 1658 H 155.777 1.37822 -1.38656 0
M  V30 1659 H 154.481 3.33439 -2.39262 0
M  V30 1660 H 154.012 3.85836 -0.767734 0
M  V30 1661 H 156.027 4.95971 -0.150891 0
M  V30 1662 N 155.201 0.870884 1.31352 0
M  V30 1663 C 156.164 0.332243 2.26779 0
M  V30 1664 C 157.164 -0.517302 1.52252 0
M  V30 1665 O 158.354 -0.326477 1.71113 0
M  V30 1666 C 155.486 -0.528066 3.36785 0
M  V30 1667 H 156.679 1.17469 2.75937 0
M  V30 1668 H 154.232 0.64655 1.423 0
M  V30 1669 H 154.967 -1.39167 2.92922 0
M  V30 1670 H 154.752 0.0802582 3.92018 0
M  V30 1671 H 156.242 -0.897179 4.07849 0
M  V30 1672 N 156.679 -1.44442 0.630414 0
M  V30 1673 C 157.926 -2.02052 0.134617 0
M  V30 1674 C 158.254 -1.49576 -1.24327 0
M  V30 1675 O 157.509 -0.669806 -1.83881 0
M  V30 1676 C 157.808 -3.57332 0.0697835 0
M  V30 1677 C 157.474 -4.29058 1.38635 0
M  V30 1678 C 156.136 -4.4837 1.74694 0
M  V30 1679 C 158.488 -4.69872 2.25543 0
M  V30 1680 C 155.816 -5.05756 2.97369 0
M  V30 1681 C 158.168 -5.28616 3.47487 0
M  V30 1682 C 156.832 -5.46147 3.8377 0
M  V30 1683 H 156.102 -0.739361 0.0492598 0
M  V30 1684 H 158.749 -1.73217 0.816586 0
M  V30 1685 H 157.054 -3.85577 -0.695553 0
M  V30 1686 H 158.751 -3.99637 -0.330344 0
M  V30 1687 H 155.341 -4.14357 1.09574 0
M  V30 1688 H 159.525 -4.54666 1.98979 0
M  V30 1689 H 154.781 -5.17515 3.25558 0
M  V30 1690 H 158.955 -5.59192 4.15063 0
M  V30 1691 H 156.582 -5.9038 4.7891 0
M  V30 1692 N 158.157 -0.370918 -1.53173 0
M  V30 1693 C 159.406 0.218249 -2.00516 0
M  V30 1694 C 159.719 1.49429 -1.26215 0
M  V30 1695 O 160.925 2.16239 -1.64174 0
M  V30 1696 C 159.381 0.43948 -3.57207 0
M  V30 1697 C 158.989 -0.822244 -4.4039 0
M  V30 1698 C 160.733 0.986012 -4.1289 0
M  V30 1699 C 158.64 -0.570304 -5.88644 0
M  V30 1700 H 157.57 0.0853333 -0.749156 0
M  V30 1701 H 160.221 -0.490483 -1.76823 0
M  V30 1702 H 158.603 1.20961 -3.77074 0
M  V30 1703 H 159.777 -1.59557 -4.32294 0
M  V30 1704 H 158.092 -1.29238 -3.95836 0
M  V30 1705 H 160.689 1.18991 -5.21292 0
M  V30 1706 H 161.032 1.94972 -3.6782 0
M  V30 1707 H 161.565 0.27592 -3.96842 0
M  V30 1708 H 158.304 -1.50449 -6.38001 0
M  V30 1709 H 157.824 0.164427 -5.99575 0
M  V30 1710 H 159.503 -0.19784 -6.46697 0
M  V30 1711 N 159.635 1.57281 -0.100228 0
M  V30 1712 C 160.86 1.99302 0.573881 0
M  V30 1713 C 161.285 0.979059 1.60611 0
M  V30 1714 O 160.643 -0.0517803 1.81226 0
M  V30 1715 C 160.691 3.40274 1.19358 0
M  V30 1716 O 159.795 3.41676 2.30935 0
M  V30 1717 H 159.136 0.647944 0.145138 0
M  V30 1718 H 161.666 2.03779 -0.183156 0
M  V30 1719 H 161.676 3.78078 1.53365 0
M  V30 1720 H 160.351 4.13594 0.437385 0
M  V30 1721 H 158.928 3.15672 1.98509 0
M  V30 1722 N 161.113 -0.173488 1.56642 0
M  V30 1723 C 162.045 -1.23935 1.92802 0
M  V30 1724 C 163.058 -1.40589 0.820889 0
M  V30 1725 O 164.247 -1.40631 1.09933 0
M  V30 1726 C 161.347 -2.60837 2.16373 0
M  V30 1727 C 160.52 -2.6551 3.47596 0
M  V30 1728 C 159.579 -3.8376 3.60021 0
M  V30 1729 O 158.605 -3.69859 4.32658 0
M  V30 1730 N 159.807 -5.00127 2.94709 0
M  V30 1731 H 162.572 -0.932236 2.84832 0
M  V30 1732 H 160.133 -0.363268 1.57772 0
M  V30 1733 H 162.125 -3.38407 2.21952 0
M  V30 1734 H 160.695 -2.83948 1.30738 0
M  V30 1735 H 159.915 -1.74052 3.53694 0
M  V30 1736 H 161.203 -2.65641 4.33949 0
M  V30 1737 H 160.601 -5.14322 2.35563 0
M  V30 1738 H 159.158 -5.75567 3.05886 0
M  V30 1739 N 162.591 -1.51276 -0.441967 0
M  V30 1740 C 163.554 -1.7167 -1.51862 0
M  V30 1741 C 164.554 -0.586793 -1.49711 0
M  V30 1742 O 165.744 -0.854276 -1.51815 0
M  V30 1743 C 162.876 -1.76889 -2.91416 0
M  V30 1744 H 164.069 -2.67754 -1.35084 0
M  V30 1745 H 161.622 -1.41196 -0.670333 0
M  V30 1746 H 162.357 -0.826026 -3.13604 0
M  V30 1747 H 162.142 -2.59001 -2.94382 0
M  V30 1748 H 163.632 -1.94522 -3.69528 0
M  V30 1749 N 164.069 0.697108 -1.41344 0
M  V30 1750 C 165.294 1.49096 -1.44171 0
M  V30 1751 C 165.719 1.88038 -0.0481568 0
M  V30 1752 O 165.077 1.54525 0.948243 0
M  V30 1753 C 165.125 2.73088 -2.3549 0
M  V30 1754 O 164.229 3.70514 -1.81088 0
M  V30 1755 H 163.57 0.448801 -0.489361 0
M  V30 1756 H 166.1 0.856992 -1.85787 0
M  V30 1757 H 166.11 3.21413 -2.51312 0
M  V30 1758 H 164.785 2.44081 -3.36745 0
M  V30 1759 H 163.362 3.29441 -1.74708 0
M  V30 1760 N 165.547 1.27147 0.931209 0
M  V30 1761 C 166.51 1.09615 2.01289 0
M  V30 1762 C 167.51 0.0412581 1.60747 0
M  V30 1763 O 168.7 0.285545 1.71844 0
M  V30 1764 C 165.832 0.669447 3.34262 0
M  V30 1765 H 167.025 2.05662 2.18273 0
M  V30 1766 H 164.578 1.09885 1.11153 0
M  V30 1767 H 165.313 -0.292572 3.22978 0
M  V30 1768 H 165.098 1.43127 3.65044 0
M  V30 1769 H 166.588 0.568921 4.13706 0
M  V30 1770 N 167.025 -1.13721 1.09112 0
M  V30 1771 C 168.253 -1.88773 0.846899 0
M  V30 1772 C 168.668 -1.7896 -0.601572 0
M  V30 1773 O 168.025 -1.15394 -1.41388 0
M  V30 1774 C 168.076 -3.3849 1.26913 0
M  V30 1775 O 167.797 -3.48043 2.66079 0
M  V30 1776 C 169.298 -4.30518 1.05682 0
M  V30 1777 H 166.518 -0.59772 0.304914 0
M  V30 1778 H 169.062 -1.43977 1.45227 0
M  V30 1779 H 167.217 -3.80881 0.707723 0
M  V30 1780 H 167.631 -4.4109 2.83795 0
M  V30 1781 H 169.105 -5.3391 1.40156 0
M  V30 1782 H 169.582 -4.392 -0.00563416 0
M  V30 1783 H 170.188 -3.93893 1.60402 0
M  V30 1784 N 168.503 -0.877838 -1.30888 0
M  V30 1785 C 169.436 -0.283995 -2.26426 0
M  V30 1786 C 170.414 0.591361 -1.51465 0
M  V30 1787 O 171.598 0.54304 -1.80509 0
M  V30 1788 C 168.725 0.597129 -3.33395 0
M  V30 1789 C 167.771 -0.207937 -4.25993 0
M  V30 1790 S 168.604 -1.59158 -5.11301 0
M  V30 1791 C 169.76 -0.716791 -6.21782 0
M  V30 1792 H 169.993 -1.09383 -2.76446 0
M  V30 1793 H 167.526 -0.676828 -1.38775 0
M  V30 1794 H 169.484 1.09978 -3.95493 0
M  V30 1795 H 168.145 1.38099 -2.82113 0
M  V30 1796 H 167.338 0.464163 -5.01858 0
M  V30 1797 H 166.94 -0.642963 -3.68432 0
M  V30 1798 H 169.232 0.0692833 -6.77465 0
M  V30 1799 H 170.175 -1.44682 -6.93161 0
M  V30 1800 H 170.583 -0.280855 -5.63801 0
M  V30 1801 N 169.982 1.44106 -0.638065 0
M  V30 1802 C 170.932 2.27843 0.0847285 0
M  V30 1803 C 171.916 1.39055 0.809471 0
M  V30 1804 O 173.108 1.62808 0.694435 0
M  V30 1805 C 170.237 3.26497 1.06089 0
M  V30 1806 C 169.323 4.22772 0.33541 0
M  V30 1807 N 169.714 5.01737 -0.639787 0
M  V30 1808 C 168.012 4.42227 0.578921 0
M  V30 1809 C 168.713 5.71792 -1.06904 0
M  V30 1810 N 167.689 5.42079 -0.406395 0
M  V30 1811 H 171.491 2.86305 -0.663814 0
M  V30 1812 H 169.005 1.55627 -0.464122 0
M  V30 1813 H 171.002 3.8525 1.59337 0
M  V30 1814 H 169.662 2.69595 1.80966 0
M  V30 1815 H 170.673 5.07799 -1.01789 0
M  V30 1816 H 167.35 3.96415 1.31003 0
M  V30 1817 H 168.74 6.45205 -1.8751 0
M  V30 1818 N 171.46 0.379036 1.52974 0
M  V30 1819 C 172.39 -0.452706 2.29069 0
M  V30 1820 C 173.371 -1.07237 1.32039 0
M  V30 1821 O 174.556 -1.08708 1.60923 0
M  V30 1822 C 171.686 -1.5856 3.08992 0
M  V30 1823 C 170.64 -1.0925 4.13822 0
M  V30 1824 C 169.966 -2.31668 4.81907 0
M  V30 1825 C 171.266 -0.167702 5.22031 0
M  V30 1826 H 172.96 0.182181 2.98845 0
M  V30 1827 H 170.506 0.0890592 1.43724 0
M  V30 1828 H 172.459 -2.1742 3.6098 0
M  V30 1829 H 171.183 -2.24792 2.36931 0
M  V30 1830 H 169.842 -0.526494 3.628 0
M  V30 1831 H 169.49 -2.96386 4.06404 0
M  V30 1832 H 169.19 -1.9934 5.52754 0
M  V30 1833 H 170.714 -2.91189 5.36695 0
M  V30 1834 H 172.128 -0.664186 5.6944 0
M  V30 1835 H 170.525 0.0653265 6.00064 0
M  V30 1836 H 171.595 0.786347 4.78482 0
M  V30 1837 N 172.938 -1.57226 0.108567 0
M  V30 1838 C 174.349 -1.8195 -0.418464 0
M  V30 1839 C 174.7 -1.02508 -1.67292 0
M  V30 1840 O 173.825 -0.258496 -2.14851 0
M  V30 1841 C 174.42 -3.30028 -0.765979 0
M  V30 1842 C 172.979 -3.55469 -1.23769 0
M  V30 1843 C 172.126 -2.7625 -0.241106 0
M  V30 1844 H 175.077 -1.55149 0.33384 0
M  V30 1845 H 175.098 -3.44086 -1.62434 0
M  V30 1846 H 174.61 -3.87821 0.147219 0
M  V30 1847 H 172.711 -3.03022 -2.16814 0
M  V30 1848 H 172.824 -4.6408 -1.19022 0
M  V30 1849 H 171.188 -2.44133 -0.72602 0
M  V30 1850 H 171.971 -3.36797 0.665007 0
M  V30 1851 N 174.416 0.165178 -1.56732 0
M  V30 1852 C 175.379 1.18822 -1.95995 0
M  V30 1853 C 176.379 1.3685 -0.84431 0
M  V30 1854 O 177.569 1.34152 -1.11126 0
M  V30 1855 C 174.701 2.5521 -2.26011 0
M  V30 1856 H 175.894 0.851825 -2.87548 0
M  V30 1857 H 173.447 0.407857 -1.50885 0
M  V30 1858 H 174.182 2.93852 -1.37191 0
M  V30 1859 H 173.967 2.43489 -3.07336 0
M  V30 1860 H 175.457 3.28927 -2.57288 0
M  V30 1861 N 175.894 1.51508 0.433938 0
M  V30 1862 C 177.122 1.68157 1.20543 0
M  V30 1863 C 177.537 0.380362 1.84929 0
M  V30 1864 O 176.894 -0.641446 1.70856 0
M  V30 1865 C 176.945 2.79965 2.28696 0
M  V30 1866 O 176.666 4.05045 1.66943 0
M  V30 1867 C 178.167 3.07912 3.18912 0
M  V30 1868 H 175.387 0.56421 0.363191 0
M  V30 1869 H 177.931 1.97941 0.513754 0
M  V30 1870 H 176.086 2.5277 2.93574 0
M  V30 1871 H 176.5 4.67165 2.38448 0
M  V30 1872 H 177.974 3.89719 3.90926 0
M  V30 1873 H 178.451 2.20456 3.79863 0
M  V30 1874 H 179.057 3.36779 2.59731 0
M  V30 1875 N 177.372 -0.689602 1.41712 0
M  V30 1876 C 178.621 -1.44534 1.40686 0
M  V30 1877 C 178.934 -1.95588 0.0213352 0
M  V30 1878 O 180.14 -2.71271 -0.111534 0
M  V30 1879 C 178.596 -2.61387 2.47396 0
M  V30 1880 C 178.204 -2.17094 3.91885 0
M  V30 1881 C 179.948 -3.38986 2.55517 0
M  V30 1882 C 177.855 -3.3094 4.90135 0
M  V30 1883 H 176.785 -0.542925 0.52321 0
M  V30 1884 H 179.436 -0.748054 1.6756 0
M  V30 1885 H 177.818 -3.33412 2.13664 0
M  V30 1886 H 178.992 -1.52318 4.34897 0
M  V30 1887 H 177.307 -1.52473 3.8748 0
M  V30 1888 H 179.904 -4.23747 3.26102 0
M  V30 1889 H 180.247 -3.84578 1.59391 0
M  V30 1890 H 180.78 -2.74021 2.8837 0
M  V30 1891 H 177.519 -2.90355 5.87685 0
M  V30 1892 H 177.039 -3.94546 4.51767 0
M  V30 1893 H 178.718 -3.9663 5.11169 0
M  V30 1894 N 178.85 -1.27639 -0.924453 0
M  V30 1895 C 180.098 -1.13941 -1.66918 0
M  V30 1896 C 180.419 0.314589 -1.92446 0
M  V30 1897 O 179.689 1.21964 -1.53303 0
M  V30 1898 H 178.269 -0.418678 -0.618642 0
M  V30 1899 H 180.931 -1.60213 -1.10985 0
M  V30 1900 H 180.027 -1.67094 -2.63602 0
M  V30 1901 N 180.328 1.1314 -1.09713 0
M  V30 1902 C 181.605 1.80762 -0.747302 0
M  V30 1903 C 181.985 1.96663 0.767265 0
M  V30 1904 O 181.333 1.53706 1.69076 0
M  V30 1905 C 181.543 3.15606 -1.48975 0
M  V30 1906 C 182.891 3.90914 -1.65746 0
M  V30 1907 O 183.915 3.25239 -1.45251 0
M  V30 1908 O 182.774 5.08718 -1.9967 0
M  V30 1909 H 179.868 0.782103 -0.268782 0
M  V30 1910 H 182.414 1.20041 -1.19951 0
M  V30 1911 H 181.186 2.99278 -2.52088 0
M  V30 1912 H 180.809 3.84029 -1.02991 0
M  V30 1913 N 181.806 0.884767 1.30421 0
M  V30 1914 C 183.036 0.517293 2.00019 0
M  V30 1915 C 183.444 -0.898632 1.66497 0
M  V30 1916 O 182.787 -1.60245 0.898181 0
M  V30 1917 C 182.849 0.612025 3.54252 0
M  V30 1918 C 182.513 1.99222 4.1129 0
M  V30 1919 C 183.51 2.9616 4.273 0
M  V30 1920 C 181.195 2.29755 4.46674 0
M  V30 1921 C 183.189 4.21764 4.77906 0
M  V30 1922 C 180.876 3.55606 4.96979 0
M  V30 1923 C 181.874 4.51425 5.12547 0
M  V30 1924 O 181.562 5.75043 5.61766 0
M  V30 1925 H 181.294 0.198529 0.64619 0
M  V30 1926 H 183.848 1.1919 1.67281 0
M  V30 1927 H 182.078 -0.119561 3.86515 0
M  V30 1928 H 183.767 0.255859 4.05093 0
M  V30 1929 H 184.533 2.73882 4.00267 0
M  V30 1930 H 180.412 1.55942 4.33824 0
M  V30 1931 H 183.956 4.96561 4.89972 0
M  V30 1932 H 179.853 3.7772 5.23448 0
M  V30 1933 H 180.621 5.77422 5.80109 0
M  V30 1934 N 183.284 -1.43765 0.645699 0
M  V30 1935 C 184.512 -2.06253 0.163556 0
M  V30 1936 C 184.927 -1.48352 -1.16778 0
M  V30 1937 O 184.284 -0.611932 -1.71935 0
M  V30 1938 C 184.335 -3.61453 0.0583186 0
M  V30 1939 O 184.056 -4.172 1.33702 0
M  V30 1940 C 185.557 -4.41002 -0.450795 0
M  V30 1941 H 182.777 -0.665413 0.0864077 0
M  V30 1942 H 185.321 -1.84396 0.884222 0
M  V30 1943 H 183.476 -3.82522 -0.612865 0
M  V30 1944 H 183.89 -5.10791 1.19131 0
M  V30 1945 H 185.364 -5.49966 -0.473403 0
M  V30 1946 H 185.841 -4.13488 -1.48068 0
M  V30 1947 H 186.447 -4.24886 0.187637 0
M  V30 1948 N 184.763 -0.387143 -1.52771 0
M  V30 1949 C 186.04 0.253197 -1.93954 0
M  V30 1950 C 186.42 1.64545 -1.32243 0
M  V30 1951 O 185.768 2.23191 -0.489699 0
M  V30 1952 C 185.978 0.281722 -3.47861 0
M  V30 1953 C 187.326 0.511715 -4.21505 0
M  V30 1954 O 188.35 0.362023 -3.54356 0
M  V30 1955 O 187.209 0.804847 -5.40541 0
M  V30 1956 H 184.303 0.156845 -0.811991 0
M  V30 1957 H 186.849 -0.441494 -1.63856 0
M  V30 1958 H 185.621 -0.693571 -3.85104 0
M  V30 1959 H 185.244 1.02142 -3.84256 0
M  V30 1960 N 186.241 1.57166 -0.116904 0
M  V30 1961 C 187.488 1.95123 0.541603 0
M  V30 1962 C 187.816 1.00006 1.6682 0
M  V30 1963 O 187.071 0.0235658 1.95686 0
M  V30 1964 C 187.37 3.39508 1.11664 0
M  V30 1965 C 187.036 4.50762 0.111606 0
M  V30 1966 C 185.698 4.80918 -0.164758 0
M  V30 1967 C 188.05 5.18036 -0.573438 0
M  V30 1968 C 185.378 5.75666 -1.13249 0
M  V30 1969 C 187.73 6.13824 -1.52978 0
M  V30 1970 C 186.394 6.42374 -1.81415 0
M  V30 1971 H 185.664 0.714005 0.198187 0
M  V30 1972 H 188.311 1.9048 -0.197365 0
M  V30 1973 H 186.616 3.40835 1.93232 0
M  V30 1974 H 188.313 3.66189 1.63422 0
M  V30 1975 H 184.903 4.27272 0.337192 0
M  V30 1976 H 189.087 4.94896 -0.373092 0
M  V30 1977 H 184.343 5.96092 -1.35958 0
M  V30 1978 H 188.517 6.65039 -2.06629 0
M  V30 1979 H 186.144 7.15599 -2.56557 0
M  V30 1980 N 187.719 -0.156864 1.56817 0
M  V30 1981 C 188.949 -0.885031 1.86684 0
M  V30 1982 C 189.357 -1.75696 0.701954 0
M  V30 1983 O 188.7 -1.80569 -0.337732 0
M  V30 1984 C 188.762 -1.80092 3.11138 0
M  V30 1985 C 188.426 -1.10714 4.43386 0
M  V30 1986 C 189.423 -0.465714 5.1781 0
M  V30 1987 C 187.108 -1.09959 4.90117 0
M  V30 1988 C 189.102 0.174002 6.37162 0
M  V30 1989 C 186.789 -0.456055 6.09396 0
M  V30 1990 C 187.787 0.179622 6.82764 0
M  V30 1991 O 187.475 0.812975 7.99779 0
M  V30 1992 H 187.207 -0.261813 0.623242 0
M  V30 1993 H 189.761 -0.157383 2.04796 0
M  V30 1994 H 187.991 -2.56926 2.89009 0
M  V30 1995 H 189.68 -2.40018 3.27332 0
M  V30 1996 H 190.446 -0.463427 4.82781 0
M  V30 1997 H 186.325 -1.58378 4.3294 0
M  V30 1998 H 189.869 0.670765 6.94368 0
M  V30 1999 H 185.766 -0.455975 6.43888 0
M  V30 2000 H 186.534 0.71366 8.15383 0
M  V30 2001 N 189.197 -1.51736 -0.425897 0
M  V30 2002 C 190.422 -1.69082 -1.20108 0
M  V30 2003 C 190.847 -0.392398 -1.83962 0
M  V30 2004 O 190.205 0.64858 -1.69302 0
M  V30 2005 C 190.253 -2.81604 -2.25237 0
M  V30 2006 O 189.357 -2.46004 -3.30992 0
M  V30 2007 H 188.698 -0.563408 -0.35138 0
M  V30 2008 H 191.228 -1.98358 -0.501512 0
M  V30 2009 H 191.238 -3.06025 -2.69838 0
M  V30 2010 H 189.913 -3.75817 -1.78142 0
M  V30 2011 H 188.49 -2.32195 -2.91787 0
M  V30 2012 N 190.675 0.682077 -1.42076 0
M  V30 2013 C 191.9 1.47558 -1.45744 0
M  V30 2014 C 192.325 1.87977 -0.0680981 0
M  V30 2015 O 191.683 1.55522 0.9318 0
M  V30 2016 C 191.731 2.70575 -2.38373 0
M  V30 2017 O 190.835 3.68573 -1.85007 0
M  V30 2018 H 190.176 0.443585 -0.494093 0
M  V30 2019 H 192.706 0.837238 -1.86686 0
M  V30 2020 H 192.716 3.18729 -2.54707 0
M  V30 2021 H 191.391 2.40495 -3.39315 0
M  V30 2022 H 189.968 3.2757 -1.78192 0
M  V30 2023 N 192.153 1.28127 0.917671 0
M  V30 2024 C 193.569 1.05749 1.19538 0
M  V30 2025 C 193.769 -0.202633 2.00479 0
M  V30 2026 O 192.825 -0.905382 2.3571 0
M  V30 2027 C 194.138 2.30273 1.93378 0
M  V30 2028 C 195.686 2.35412 2.06277 0
M  V30 2029 C 196.161 3.59692 2.83524 0
M  V30 2030 N 197.652 3.60309 2.91087 0
M  V30 2031 C 198.387 4.53147 3.51348 0
M  V30 2032 N 197.883 5.563 4.12919 0
M  V30 2033 N 199.676 4.40751 3.48849 0
M  V30 2034 H 191.827 2.09024 0.377184 0
M  V30 2035 H 194.09 0.919798 0.22951 0
M  V30 2036 H 193.796 3.22055 1.41328 0
M  V30 2037 H 193.67 2.36378 2.93947 0
M  V30 2038 H 196.057 1.4413 2.57508 0
M  V30 2039 H 196.138 2.33304 1.04895 0
M  V30 2040 H 195.782 4.51316 2.32973 0
M  V30 2041 H 195.712 3.59054 3.85211 0
M  V30 2042 H 198.203 2.85714 2.47338 0
M  V30 2043 H 198.516 6.2329 4.56869 0
M  V30 2044 H 196.861 5.60131 4.11435 0
M  V30 2045 H 200.052 3.59367 2.99955 0
M  V30 2046 H 200.225 5.13291 3.9552 0
M  V30 2047 N 193.631 -1.12557 1.10312 0
M  V30 2048 C 194.563 -2.17971 0.708625 0
M  V30 2049 C 195.576 -1.60806 -0.254027 0
M  V30 2050 O 196.765 -1.78458 -0.0386891 0
M  V30 2051 C 193.865 -3.38891 0.0248198 0
M  V30 2052 C 193.038 -4.25548 1.01132 0
M  V30 2053 C 192.097 -5.24972 0.35924 0
M  V30 2054 O 191.123 -5.60174 1.00965 0
M  V30 2055 N 192.325 -5.73747 -0.882847 0
M  V30 2056 H 195.09 -2.52427 1.61557 0
M  V30 2057 H 192.651 -1.27967 0.991771 0
M  V30 2058 H 194.643 -4.02485 -0.422852 0
M  V30 2059 H 193.213 -3.02596 -0.784514 0
M  V30 2060 H 192.433 -3.58589 1.6373 0
M  V30 2061 H 193.721 -4.80294 1.67914 0
M  V30 2062 H 193.119 -5.4731 -1.43065 0
M  V30 2063 H 191.676 -6.39234 -1.27369 0
M  V30 2064 N 195.109 -0.891671 -1.2995 0
M  V30 2065 C 196.059 -0.334811 -2.25528 0
M  V30 2066 C 197.043 0.540553 -1.51548 0
M  V30 2067 O 198.235 0.383882 -1.72787 0
M  V30 2068 C 195.364 0.44374 -3.4042 0
M  V30 2069 C 194.45 -0.44609 -4.21747 0
M  V30 2070 N 194.841 -1.54963 -4.81477 0
M  V30 2071 C 193.139 -0.242415 -4.45341 0
M  V30 2072 C 193.84 -2.10015 -5.42465 0
M  V30 2073 N 192.816 -1.39423 -5.25416 0
M  V30 2074 H 196.618 -1.17792 -2.69262 0
M  V30 2075 H 194.132 -0.741822 -1.44467 0
M  V30 2076 H 196.129 0.859362 -4.07947 0
M  V30 2077 H 194.789 1.28421 -2.98225 0
M  V30 2078 H 195.8 -1.93244 -4.80497 0
M  V30 2079 H 192.477 0.560342 -4.13723 0
M  V30 2080 H 193.867 -3.02724 -5.9984 0
M  V30 2081 N 196.587 1.43421 -0.653314 0
M  V30 2082 C 197.55 2.29182 0.0287951 0
M  V30 2083 C 198.55 1.42213 0.750465 0
M  V30 2084 O 199.74 1.63843 0.591701 0
M  V30 2085 C 196.872 3.24278 1.05151 0
M  V30 2086 H 198.065 2.90985 -0.725786 0
M  V30 2087 H 195.618 1.50702 -0.414545 0
M  V30 2088 H 196.353 2.6737 1.83532 0
M  V30 2089 H 196.138 3.88396 0.537687 0
M  V30 2090 H 197.628 3.88647 1.52786 0
M  V30 2091 N 198.065 0.39524 1.52563 0
M  V30 2092 C 199.293 -0.184943 2.06072 0
M  V30 2093 C 199.708 -1.40021 1.26647 0
M  V30 2094 O 199.065 -1.79767 0.314672 0
M  V30 2095 C 199.116 -0.549179 3.57304 0
M  V30 2096 O 198.837 0.617813 4.33722 0
M  V30 2097 C 200.338 -1.18459 4.2718 0
M  V30 2098 H 197.558 -0.0265025 0.670476 0
M  V30 2099 H 200.102 0.562184 1.96621 0
M  V30 2100 H 198.257 -1.2462 3.66809 0
M  V30 2101 H 198.671 0.317091 5.23541 0
M  V30 2102 H 200.145 -1.38976 5.34219 0
M  V30 2103 H 200.622 -2.15368 3.82771 0
M  V30 2104 H 201.228 -0.528163 4.22008 0
M  V30 2105 N 199.544 -1.57102 0.125237 0
M  V30 2106 C 200.492 -2.16905 -0.839927 0
M  V30 2107 C 201.486 -1.11998 -1.27094 0
M  V30 2108 O 202.692 -1.3029 -1.24195 0
M  V30 2109 H 199.067 -0.694252 -0.288995 0
M  V30 2110 H 201.038 -2.96774 -0.311115 0
M  V30 2111 C 199.787 -2.78795 -2.07771 0
M  V30 2112 H 199.11 -3.59221 -1.755 0
M  V30 2113 H 200.55 -3.2417 -2.73295 0
M  V30 2114 C 199.009 -1.76193 -2.87155 0
M  V30 2115 O 199.539 -1.21909 -3.82755 0
M  V30 2116 N 197.745 -1.45991 -2.51267 0
M  V30 2117 H 197.292 -1.90325 -1.73592 0
M  V30 2118 H 197.25 -0.775844 -3.04677 0
M  V30 2119 N 201.022 0.148545 -1.56898 0
M  V30 2120 C 202.268 0.862694 -1.83536 0
M  V30 2121 C 202.601 1.80889 -0.706604 0
M  V30 2122 O 201.876 1.92328 0.289885 0
M  V30 2123 C 202.159 1.63853 -3.20662 0
M  V30 2124 C 202.012 0.713925 -4.44098 0
M  V30 2125 C 203.331 2.60133 -3.54991 0
M  V30 2126 H 200.45 0.312179 -0.667618 0
M  V30 2127 H 203.092 0.127953 -1.89569 0
M  V30 2128 H 201.242 2.26489 -3.1565 0
M  V30 2129 H 202.914 0.098686 -4.61194 0
M  V30 2130 H 201.157 0.0234019 -4.33794 0
M  V30 2131 H 201.828 1.29278 -5.36648 0
M  V30 2132 H 204.304 2.07616 -3.60603 0
M  V30 2133 H 203.18 3.11468 -4.51972 0
M  V30 2134 H 203.441 3.41417 -2.80868 0
M  V30 2135 N 202.5 1.5196 0.417844 0
M  V30 2136 C 203.748 1.65263 1.16329 0
M  V30 2137 C 204.069 0.380634 1.91249 0
M  V30 2138 O 203.339 -0.604214 1.86349 0
M  V30 2139 H 201.919 0.60912 0.432414 0
M  V30 2140 H 204.581 1.88969 0.477162 0
M  V30 2141 H 203.677 2.4896 1.88217 0
M  V30 2142 N 203.978 -0.674533 1.42435 0
M  V30 2143 C 205.227 -1.43034 1.42212 0
M  V30 2144 C 205.54 -1.95555 0.0420788 0
M  V30 2145 O 206.746 -2.71374 -0.0827558 0
M  V30 2146 C 205.202 -2.58748 2.50155 0
M  V30 2147 C 204.81 -2.12925 3.94166 0
M  V30 2148 C 206.554 -3.36257 2.59098 0
M  V30 2149 C 204.461 -3.25723 4.93618 0
M  V30 2150 H 203.391 -0.537345 0.528939 0
M  V30 2151 H 206.042 -0.73024 1.68344 0
M  V30 2152 H 204.424 -3.31128 2.17188 0
M  V30 2153 H 205.598 -1.47697 4.36488 0
M  V30 2154 H 203.913 -1.48354 3.89076 0
M  V30 2155 H 206.51 -4.20264 3.30578 0
M  V30 2156 H 206.853 -3.82866 1.63461 0
M  V30 2157 H 207.386 -2.70947 2.9126 0
M  V30 2158 H 204.125 -2.84105 5.90732 0
M  V30 2159 H 203.645 -3.89732 4.55926 0
M  V30 2160 H 205.324 -3.91186 5.15347 0
M  V30 2161 N 205.456 -1.28612 -0.910864 0
M  V30 2162 C 206.389 -1.07109 -2.01502 0
M  V30 2163 C 207.367 0.013706 -1.62594 0
M  V30 2164 O 208.551 -0.134796 -1.88017 0
M  V30 2165 C 205.678 -0.628255 -3.32822 0
M  V30 2166 C 204.724 -1.71012 -3.90714 0
M  V30 2167 S 205.557 -3.30676 -4.21205 0
M  V30 2168 C 206.713 -2.88234 -5.55583 0
M  V30 2169 H 206.946 -2.00591 -2.19432 0
M  V30 2170 H 204.479 -1.12633 -1.05609 0
M  V30 2171 H 206.437 -0.37946 -4.08742 0
M  V30 2172 H 205.098 0.28678 -3.12788 0
M  V30 2173 H 204.291 -1.35195 -4.85529 0
M  V30 2174 H 203.893 -1.91186 -3.21441 0
M  V30 2175 H 206.185 -2.34584 -6.35591 0
M  V30 2176 H 207.128 -3.81857 -5.96314 0
M  V30 2177 H 207.536 -2.26862 -5.16908 0
M  V30 2178 N 206.934 1.1197 -1.10907 0
M  V30 2179 C 208.181 1.83588 -0.854507 0
M  V30 2180 C 208.509 1.84357 0.6199 0
M  V30 2181 O 207.764 1.28809 1.47332 0
M  V30 2182 C 208.063 3.30749 -1.35425 0
M  V30 2183 C 207.729 3.50146 -2.84093 0
M  V30 2184 C 206.391 3.55148 -3.2469 0
M  V30 2185 C 208.743 3.56857 -3.79872 0
M  V30 2186 C 206.071 3.6441 -4.59806 0
M  V30 2187 C 208.423 3.6765 -5.14797 0
M  V30 2188 C 207.087 3.7091 -5.54961 0
M  V30 2189 H 206.357 0.671795 -0.312686 0
M  V30 2190 H 209.004 1.32091 -1.38652 0
M  V30 2191 H 207.309 3.84703 -0.742361 0
M  V30 2192 H 209.006 3.8464 -1.1337 0
M  V30 2193 H 205.596 3.46919 -2.51685 0
M  V30 2194 H 209.78 3.52258 -3.49611 0
M  V30 2195 H 205.036 3.65208 -4.9034 0
M  V30 2196 H 209.21 3.71786 -5.88853 0
M  V30 2197 H 206.837 3.7784 -6.59652 0
M  V30 2198 N 208.412 0.89855 1.29475 0
M  V30 2199 C 209.828 0.594483 1.48115 0
M  V30 2200 C 210.028 -0.86431 1.82022 0
M  V30 2201 O 209.084 -1.64457 1.91599 0
M  V30 2202 C 210.397 1.51932 2.59494 0
M  V30 2203 C 211.945 1.5244 2.7337 0
M  V30 2204 C 212.42 2.43548 3.87877 0
M  V30 2205 N 213.911 2.41589 3.95208 0
M  V30 2206 C 214.646 3.08789 4.83153 0
M  V30 2207 N 214.142 3.85265 5.75798 0
M  V30 2208 N 215.935 2.97952 4.76635 0
M  V30 2209 H 208.086 1.84207 1.05742 0
M  V30 2210 H 210.349 0.789251 0.525154 0
M  V30 2211 H 210.055 2.55865 2.41301 0
M  V30 2212 H 209.929 1.23899 3.56271 0
M  V30 2213 H 212.316 0.492518 2.90961 0
M  V30 2214 H 212.397 1.8451 1.77172 0
M  V30 2215 H 212.041 3.46829 3.71041 0
M  V30 2216 H 211.971 2.08788 4.83441 0
M  V30 2217 H 214.462 1.86025 3.28943 0
M  V30 2218 H 214.775 4.33598 6.39697 0
M  V30 2219 H 213.12 3.89371 5.75687 0
M  V30 2220 H 216.311 2.37723 4.03244 0
M  V30 2221 H 216.484 3.50599 5.44962 0
M  V30 2222 N 209.89 -1.43072 0.660911 0
M  V30 2223 C 211.167 -1.95307 0.107017 0
M  V30 2224 C 211.547 -1.60192 -1.37484 0
M  V30 2225 O 210.895 -0.890949 -2.10415 0
M  V30 2226 C 211.105 -3.47124 0.361402 0
M  V30 2227 C 212.453 -4.23738 0.270455 0
M  V30 2228 O 213.477 -3.54981 0.294382 0
M  V30 2229 O 212.336 -5.46131 0.200737 0
M  V30 2230 H 209.43 -0.826984 -0.00517729 0
M  V30 2231 H 211.976 -1.52972 0.734681 0
M  V30 2232 H 210.748 -3.65837 1.38848 0
M  V30 2233 H 210.371 -3.96475 -0.298953 0
M  V30 2234 N 211.368 -0.403325 -1.52352 0
M  V30 2235 C 212.315 0.425011 -2.26853 0
M  V30 2236 C 213.285 1.04598 -1.29029 0
M  V30 2237 O 214.47 1.07135 -1.57882 0
M  V30 2238 C 211.61 1.53888 -3.08889 0
M  V30 2239 C 210.723 0.939396 -4.21663 0
M  V30 2240 C 209.858 2.02547 -4.91068 0
M  V30 2241 C 208.897 1.40263 -5.95813 0
M  V30 2242 N 208.034 2.4286 -6.58759 0
M  V30 2243 H 212.874 -0.21674 -2.97211 0
M  V30 2244 H 210.411 -0.118722 -1.4662 0
M  V30 2245 H 212.369 2.19558 -3.54753 0
M  V30 2246 H 210.999 2.15074 -2.40714 0
M  V30 2247 H 210.051 0.171898 -3.80011 0
M  V30 2248 H 211.363 0.44436 -4.96817 0
M  V30 2249 H 210.517 2.75958 -5.40308 0
M  V30 2250 H 209.256 2.55415 -4.15469 0
M  V30 2251 H 208.261 0.653833 -5.45898 0
M  V30 2252 H 209.486 0.881719 -6.73352 0
M  V30 2253 H 207.432 2.94871 -5.85992 0
M  V30 2254 H 207.349 1.98152 -7.2957 0
M  V30 2255 H 208.617 3.15858 -7.12639 0
M  V30 2256 N 212.846 1.57033 -0.133567 0
M  V30 2257 C 213.756 2.19632 0.824564 0
M  V30 2258 C 214.772 1.17666 1.28182 0
M  V30 2259 O 215.948 1.50193 1.3418 0
M  V30 2260 C 213.013 2.79499 2.05137 0
M  V30 2261 C 212.074 3.96548 1.64464 0
M  V30 2262 C 211.307 4.5355 2.81297 0
M  V30 2263 O 211.53 4.09438 3.97136 0
M  V30 2264 O 210.464 5.44018 2.57542 0
M  V30 2265 H 214.29 3.01991 0.321766 0
M  V30 2266 H 211.875 1.49112 0.0927889 0
M  V30 2267 H 213.757 3.17602 2.7696 0
M  V30 2268 H 212.432 2.00162 2.54395 0
M  V30 2269 H 211.339 3.63186 0.897048 0
M  V30 2270 H 212.672 4.77364 1.19934 0
M  V30 2271 N 214.325 -0.140222 1.56975 0
M  V30 2272 C 215.273 -1.19207 1.99731 0
M  V30 2273 C 216.267 -1.44089 0.890777 0
M  V30 2274 O 217.473 -1.44301 1.07597 0
M  V30 2275 H 213.848 -0.40142 0.635898 0
M  V30 2276 H 215.819 -0.804813 2.87342 0
M  V30 2277 C 214.568 -2.51617 2.39967 0
M  V30 2278 H 213.891 -2.33303 3.24669 0
M  V30 2279 H 215.331 -3.23827 2.73701 0
M  V30 2280 C 213.79 -3.12654 1.25496 0
M  V30 2281 O 214.32 -3.97786 0.559371 0
M  V30 2282 N 212.526 -2.72206 1.01746 0
M  V30 2283 H 212.073 -2.03074 1.58489 0
M  V30 2284 H 212.031 -3.13377 0.253461 0
M  V30 2285 N 215.803 -1.52179 -0.40978 0
M  V30 2286 C 216.766 -1.74853 -1.48186 0
M  V30 2287 C 217.766 -0.618417 -1.48433 0
M  V30 2288 O 218.956 -0.886286 -1.49969 0
M  V30 2289 C 216.088 -1.8303 -2.87598 0
M  V30 2290 H 217.281 -2.70559 -1.29374 0
M  V30 2291 H 214.834 -1.42586 -0.640233 0
M  V30 2292 H 215.569 -0.89236 -3.11781 0
M  V30 2293 H 215.354 -2.65187 -2.88822 0
M  V30 2294 H 216.844 -2.02316 -3.65319 0
M  V30 2295 N 217.281 0.66697 -1.42791 0
M  V30 2296 C 218.211 1.79218 -1.49677 0
M  V30 2297 C 219.192 1.66405 -0.352623 0
M  V30 2298 O 220.377 1.85708 -0.567993 0
M  V30 2299 C 217.507 3.17565 -1.40605 0
M  V30 2300 C 216.461 3.45124 -2.53127 0
M  V30 2301 C 215.787 4.83127 -2.29112 0
M  V30 2302 C 217.087 3.41236 -3.95418 0
M  V30 2303 H 218.781 1.73713 -2.43853 0
M  V30 2304 H 216.327 0.83432 -1.17367 0
M  V30 2305 H 218.28 3.96022 -1.44029 0
M  V30 2306 H 217.004 3.23767 -0.429271 0
M  V30 2307 H 215.663 2.69031 -2.49034 0
M  V30 2308 H 215.311 4.85988 -1.29709 0
M  V30 2309 H 215.011 5.02528 -3.04531 0
M  V30 2310 H 216.535 5.63859 -2.34297 0
M  V30 2311 H 217.949 4.09651 -4.01073 0
M  V30 2312 H 216.346 3.72173 -4.70752 0
M  V30 2313 H 217.416 2.39665 -4.21532 0
M  V30 2314 N 218.759 1.29093 0.90403 0
M  V30 2315 C 219.692 1.08176 2.00931 0
M  V30 2316 C 220.67 -0.005083 1.62599 0
M  V30 2317 O 221.854 0.144765 1.87943 0
M  V30 2318 C 218.981 0.645897 3.32484 0
M  V30 2319 C 218.027 1.73081 3.89801 0
M  V30 2320 S 218.86 3.32905 4.19446 0
M  V30 2321 C 220.016 2.91176 5.54046 0
M  V30 2322 H 220.249 2.01752 2.18365 0
M  V30 2323 H 217.782 1.13191 1.0501 0
M  V30 2324 H 219.74 0.401131 4.08535 0
M  V30 2325 H 218.401 -0.270188 3.12936 0
M  V30 2326 H 217.594 1.37768 4.84805 0
M  V30 2327 H 217.196 1.92888 3.20422 0
M  V30 2328 H 219.488 2.37952 6.34338 0
M  V30 2329 H 220.431 3.85014 5.94281 0
M  V30 2330 H 220.839 2.296 5.15698 0
M  V30 2331 N 220.237 -1.11381 1.11499 0
M  V30 2332 C 221.648 -1.6465 0.880191 0
M  V30 2333 C 221.999 -1.87199 -0.587434 0
M  V30 2334 O 221.124 -1.60667 -1.44966 0
M  V30 2335 C 221.719 -2.99105 1.59128 0
M  V30 2336 C 220.278 -3.49279 1.40289 0
M  V30 2337 C 219.425 -2.24077 1.63354 0
M  V30 2338 H 222.376 -0.950123 1.27116 0
M  V30 2339 H 222.397 -3.66107 1.03664 0
M  V30 2340 H 221.909 -2.82661 2.65941 0
M  V30 2341 H 220.01 -3.70887 0.356888 0
M  V30 2342 H 220.123 -4.2803 2.15238 0
M  V30 2343 H 218.487 -2.31733 1.05698 0
M  V30 2344 H 219.27 -2.10175 2.71443 0
M  V30 2345 N 221.715 -0.905404 -1.28997 0
M  V30 2346 C 222.663 -0.377431 -2.29517 0
M  V30 2347 C 223.657 0.526461 -1.61012 0
M  V30 2348 O 224.863 0.40863 -1.753 0
M  V30 2349 H 221.238 -0.103437 -0.744852 0
M  V30 2350 H 223.209 -1.23848 -2.71485 0
M  V30 2351 C 221.958 0.374833 -3.45674 0
M  V30 2352 H 221.281 -0.311474 -3.98585 0
M  V30 2353 H 222.721 0.70903 -4.1803 0
M  V30 2354 C 221.18 1.57963 -2.97572 0
M  V30 2355 O 221.71 2.67886 -2.99333 0
M  V30 2356 N 219.916 1.42375 -2.53333 0
M  V30 2357 H 219.463 0.529466 -2.521 0
M  V30 2358 H 219.421 2.23117 -2.21509 0
M  V30 2359 N 223.193 1.4272 -0.668489 0
M  V30 2360 C 224.439 2.02443 -0.197076 0
M  V30 2361 C 224.794 1.51882 1.18109 0
M  V30 2362 O 224.087 0.708618 1.78015 0
M  V30 2363 C 224.281 3.57021 -0.164499 0
M  V30 2364 C 224.11 4.22583 -1.53797 0
M  V30 2365 C 222.88 4.58019 -2.13416 0
M  V30 2366 C 225.078 4.50588 -2.47941 0
M  V30 2367 N 223.06 5.08729 -3.4361 0
M  V30 2368 C 224.431 5.02782 -3.62782 0
M  V30 2369 C 226.486 4.32571 -2.46551 0
M  V30 2370 C 225.189 5.38852 -4.76478 0
M  V30 2371 C 227.215 4.69713 -3.59338 0
M  V30 2372 C 226.577 5.22053 -4.72906 0
M  V30 2373 H 222.676 0.773214 -0.116894 0
M  V30 2374 H 225.26 1.73673 -0.880108 0
M  V30 2375 H 223.431 3.85323 0.487925 0
M  V30 2376 H 225.163 4.03439 0.319207 0
M  V30 2377 H 221.918 4.43566 -1.65969 0
M  V30 2378 H 222.342 5.38521 -4.10273 0
M  V30 2379 H 226.984 3.91365 -1.59978 0
M  V30 2380 H 224.702 5.78993 -5.63731 0
M  V30 2381 H 228.288 4.57454 -3.59482 0
M  V30 2382 H 227.168 5.50258 -5.58736 0
M  V30 2383 N 224.671 0.411399 1.52136 0
M  V30 2384 C 225.601 -0.404015 2.29978 0
M  V30 2385 C 226.582 -1.04412 1.34284 0
M  V30 2386 O 227.767 -1.0527 1.63192 0
M  V30 2387 C 224.897 -1.5197 3.12286 0
M  V30 2388 C 223.851 -1.00448 4.16046 0
M  V30 2389 C 223.177 -2.21393 4.86712 0
M  V30 2390 C 224.477 -0.0569336 5.22269 0
M  V30 2391 H 226.171 0.245529 2.98392 0
M  V30 2392 H 223.717 0.119525 1.43503 0
M  V30 2393 H 225.67 -2.09715 3.6551 0
M  V30 2394 H 224.394 -2.19716 2.41646 0
M  V30 2395 H 223.053 -0.449421 3.63835 0
M  V30 2396 H 222.701 -2.87699 4.12599 0
M  V30 2397 H 222.401 -1.87571 5.56858 0
M  V30 2398 H 223.925 -2.7974 5.4275 0
M  V30 2399 H 225.339 -0.54325 5.7072 0
M  V30 2400 H 223.736 0.192594 5.99791 0
M  V30 2401 H 224.806 0.887663 4.76706 0
M  V30 2402 N 226.149 -1.5696 0.141893 0
M  V30 2403 C 227.099 -2.13074 -0.811383 0
M  V30 2404 C 228.083 -1.05726 -1.21288 0
M  V30 2405 O 229.275 -1.31914 -1.18015 0
M  V30 2406 C 226.404 -2.75186 -2.0525 0
M  V30 2407 C 225.49 -3.8965 -1.67432 0
M  V30 2408 N 225.881 -4.95733 -1.0041 0
M  V30 2409 C 224.179 -4.00262 -1.96739 0
M  V30 2410 C 224.88 -5.75858 -0.822345 0
M  V30 2411 N 223.856 -5.26452 -1.3546 0
M  V30 2412 H 227.658 -2.92465 -0.290031 0
M  V30 2413 H 225.172 -1.6229 -0.0598218 0
M  V30 2414 H 227.169 -3.13745 -2.74535 0
M  V30 2415 H 225.829 -1.97266 -2.57907 0
M  V30 2416 H 226.84 -5.13607 -0.665441 0
M  V30 2417 H 223.517 -3.33412 -2.51282 0
M  V30 2418 H 224.907 -6.71254 -0.294496 0
M  V30 2419 N 227.627 0.131896 -1.57047 0
M  V30 2420 C 228.557 1.16384 -2.02428 0
M  V30 2421 C 229.538 1.43936 -0.90644 0
M  V30 2422 O 230.723 1.54599 -1.17528 0
M  V30 2423 C 227.853 2.49328 -2.4177 0
M  V30 2424 C 226.807 2.36266 -3.56879 0
M  V30 2425 C 226.133 3.74057 -3.8208 0
M  V30 2426 C 227.433 1.834 -4.89042 0
M  V30 2427 H 229.127 0.786433 -2.88887 0
M  V30 2428 H 226.673 0.376855 -1.38981 0
M  V30 2429 H 228.626 3.21759 -2.7212 0
M  V30 2430 H 227.35 2.88934 -1.52266 0
M  V30 2431 H 226.009 1.66286 -3.26718 0
M  V30 2432 H 225.657 4.11125 -2.89803 0
M  V30 2433 H 225.357 3.66174 -4.59554 0
M  V30 2434 H 226.881 4.48012 -4.1487 0
M  V30 2435 H 228.295 2.45636 -5.18011 0
M  V30 2436 H 226.692 1.8637 -5.70426 0
M  V30 2437 H 227.762 0.790662 -4.7841 0
M  V30 2438 N 229.106 1.52395 0.401703 0
M  V30 2439 C 230.517 1.58899 0.980202 0
M  V30 2440 C 230.868 0.434032 1.91339 0
M  V30 2441 O 229.993 -0.444619 2.11783 0
M  V30 2442 C 230.588 2.87994 1.78451 0
M  V30 2443 C 229.147 2.96953 2.31292 0
M  V30 2444 C 228.294 2.53903 1.11483 0
M  V30 2445 H 231.245 1.57657 0.18168 0
M  V30 2446 H 231.266 2.73765 2.64259 0
M  V30 2447 H 230.778 3.72035 1.10506 0
M  V30 2448 H 228.879 2.17422 3.02586 0
M  V30 2449 H 228.992 4.01344 2.61649 0
M  V30 2450 H 227.356 2.07925 1.47104 0
M  V30 2451 H 228.139 3.40326 0.450928 0
M  V30 2452 N 230.584 -0.659388 1.43143 0
M  V30 2453 C 231.83 -1.42145 1.44647 0
M  V30 2454 C 232.163 -1.9408 0.0681907 0
M  V30 2455 O 231.438 -1.71899 -0.910007 0
M  V30 2456 C 231.721 -2.60735 2.48373 0
M  V30 2457 C 231.574 -2.14332 3.95451 0
M  V30 2458 C 232.893 -3.62951 2.48906 0
M  V30 2459 H 230.012 -0.51552 0.526696 0
M  V30 2460 H 232.654 -0.748069 1.74654 0
M  V30 2461 H 230.804 -3.18184 2.22916 0
M  V30 2462 H 232.476 -1.61932 4.31944 0
M  V30 2463 H 230.719 -1.4576 4.08578 0
M  V30 2464 H 231.39 -2.99583 4.63631 0
M  V30 2465 H 233.866 -3.1525 2.71582 0
M  V30 2466 H 232.742 -4.43487 3.23435 0
M  V30 2467 H 233.003 -4.15126 1.52061 0
M  V30 2468 N 232.062 -1.29571 -0.897171 0
M  V30 2469 C 233.31 -1.17456 -1.64464 0
M  V30 2470 C 233.631 0.273698 -1.9307 0
M  V30 2471 O 232.901 1.18684 -1.55855 0
M  V30 2472 H 231.481 -0.431706 -0.609622 0
M  V30 2473 H 234.143 -1.62531 -1.07562 0
M  V30 2474 H 233.239 -1.72648 -2.59998 0
M  V30 2475 N 233.54 1.10788 -1.12088 0
M  V30 2476 C 234.77 1.86191 -0.895351 0
M  V30 2477 C 235.178 1.80763 0.558702 0
M  V30 2478 O 234.521 1.19188 1.39785 0
M  V30 2479 C 234.583 3.35659 -1.28737 0
M  V30 2480 C 234.247 3.64849 -2.75198 0
M  V30 2481 C 235.244 3.61757 -3.734 0
M  V30 2482 C 232.929 3.93641 -3.12013 0
M  V30 2483 C 234.923 3.87045 -5.06434 0
M  V30 2484 C 232.61 4.18585 -4.4523 0
M  V30 2485 C 233.608 4.15277 -5.42249 0
M  V30 2486 O 233.296 4.3959 -6.73065 0
M  V30 2487 H 233.028 0.595425 -0.32007 0
M  V30 2488 H 235.582 1.40992 -1.49367 0
M  V30 2489 H 233.812 3.81497 -0.63224 0
M  V30 2490 H 235.501 3.92441 -1.03656 0
M  V30 2491 H 236.267 3.39557 -3.46303 0
M  V30 2492 H 232.146 3.95348 -2.37109 0
M  V30 2493 H 235.69 3.84378 -5.82151 0
M  V30 2494 H 231.587 4.40264 -4.72057 0
M  V30 2495 H 232.355 4.57123 -6.78956 0
M  V30 2496 N 235.018 0.912232 1.28515 0
M  V30 2497 C 235.968 0.370649 2.24967 0
M  V30 2498 C 236.952 -0.516375 1.52389 0
M  V30 2499 O 238.144 -0.356345 1.73376 0
M  V30 2500 C 235.273 -0.389526 3.41083 0
M  V30 2501 C 234.359 0.51313 4.20984 0
M  V30 2502 N 234.75 1.62604 4.78951 0
M  V30 2503 C 233.048 0.313235 4.44899 0
M  V30 2504 C 233.749 2.18619 5.39055 0
M  V30 2505 N 232.725 1.47765 5.23132 0
M  V30 2506 H 236.527 1.22061 2.67354 0
M  V30 2507 H 234.041 0.764712 1.43269 0
M  V30 2508 H 236.038 -0.794353 4.09262 0
M  V30 2509 H 234.698 -1.2366 3.0023 0
M  V30 2510 H 235.709 2.00864 4.77362 0
M  V30 2511 H 232.386 -0.494452 4.14562 0
M  V30 2512 H 233.776 3.12228 5.94948 0
M  V30 2513 N 236.496 -1.42363 0.676048 0
M  V30 2514 C 237.744 -2.01123 0.198437 0
M  V30 2515 C 238.065 -1.53731 -1.19966 0
M  V30 2516 O 237.335 -0.759518 -1.80577 0
M  V30 2517 H 235.915 -0.743678 0.0703721 0
M  V30 2518 H 238.577 -1.74263 0.872837 0
M  V30 2519 H 237.673 -3.11454 0.200686 0
M  V30 2520 N 237.974 -0.419461 -1.51915 0
M  V30 2521 C 239.39 -0.0708431 -1.59443 0
M  V30 2522 C 239.59 1.41796 -1.43164 0
M  V30 2523 O 238.646 2.18596 -1.26381 0
M  V30 2524 C 239.959 -0.574991 -2.95151 0
M  V30 2525 C 241.507 -0.533867 -3.08413 0
M  V30 2526 C 241.982 -1.01469 -4.46618 0
M  V30 2527 N 243.473 -0.971939 -4.52888 0
M  V30 2528 C 244.208 -1.31505 -5.58116 0
M  V30 2529 N 243.704 -1.73014 -6.70849 0
M  V30 2530 N 245.497 -1.23436 -5.48379 0
M  V30 2531 H 237.648 -1.38836 -1.60743 0
M  V30 2532 H 239.911 -0.570998 -0.756747 0
M  V30 2533 H 239.617 -1.61597 -3.12377 0
M  V30 2534 H 239.491 0.00979777 -3.77199 0
M  V30 2535 H 241.878 0.498086 -2.90866 0
M  V30 2536 H 241.959 -1.15484 -2.28248 0
M  V30 2537 H 241.603 -2.04502 -4.6491 0
M  V30 2538 H 241.533 -0.370433 -5.25295 0
M  V30 2539 H 244.024 -0.666893 -3.71969 0
M  V30 2540 H 244.337 -1.97479 -7.47143 0
M  V30 2541 H 242.682 -1.76926 -6.72103 0
M  V30 2542 H 245.873 -0.908869 -4.59192 0
M  V30 2543 H 246.046 -1.50506 -6.30279 0
M  V30 2544 N 239.452 1.56882 -0.150215 0
M  V30 2545 C 240.415 2.1573 0.774157 0
M  V30 2546 C 241.415 1.0999 1.17298 0
M  V30 2547 O 242.605 1.35613 1.09338 0
M  V30 2548 C 239.737 2.72302 2.05096 0
M  V30 2549 H 240.93 2.98752 0.262201 0
M  V30 2550 H 238.483 1.55985 0.099248 0
M  V30 2551 H 239.218 1.92956 2.6065 0
M  V30 2552 H 239.003 3.49665 1.77416 0
M  V30 2553 H 240.493 3.17632 2.71109 0
M  V30 2554 N 240.93 -0.123565 1.57115 0
M  V30 2555 C 242.155 -0.850398 1.89164 0
M  V30 2556 C 242.58 -1.7286 0.741688 0
M  V30 2557 O 241.938 -1.78665 -0.307958 0
M  V30 2558 C 241.986 -1.66353 3.19936 0
M  V30 2559 O 241.09 -2.77004 3.0552 0
M  V30 2560 H 240.431 -0.235454 0.620852 0
M  V30 2561 H 242.961 -0.107335 2.04318 0
M  V30 2562 H 242.971 -2.05372 3.52543 0
M  V30 2563 H 241.646 -1.01881 4.03228 0
M  V30 2564 H 240.223 -2.41221 2.84371 0
M  V30 2565 N 242.408 -1.52605 -0.393616 0
M  V30 2566 C 243.633 -1.71592 -1.16495 0
M  V30 2567 C 244.058 -0.43133 -1.83088 0
M  V30 2568 O 243.416 0.612523 -1.7064 0
M  V30 2569 C 243.464 -2.86318 -2.19213 0
M  V30 2570 O 242.568 -2.52969 -3.257 0
M  V30 2571 H 241.909 -0.570734 -0.33935 0
M  V30 2572 H 244.439 -1.99377 -0.459324 0
M  V30 2573 H 244.449 -3.1168 -2.63286 0
M  V30 2574 H 243.124 -3.79511 -1.7013 0
M  V30 2575 H 241.701 -2.38332 -2.86797 0
M  V30 2576 N 243.887 0.651787 -1.4349 0
M  V30 2577 C 245.133 1.41376 -1.45398 0
M  V30 2578 C 245.466 1.94041 -0.0784823 0
M  V30 2579 O 244.741 1.72379 0.900878 0
M  V30 2580 C 245.024 2.59414 -2.49752 0
M  V30 2581 C 244.877 2.12232 -3.96582 0
M  V30 2582 C 246.196 3.61626 -2.50827 0
M  V30 2583 H 243.315 0.512719 -0.529422 0
M  V30 2584 H 245.957 0.738796 -1.75048 0
M  V30 2585 H 244.107 3.16997 -2.246 0
M  V30 2586 H 245.779 1.59639 -4.32797 0
M  V30 2587 H 244.022 1.43592 -4.09346 0
M  V30 2588 H 244.693 2.9712 -4.65214 0
M  V30 2589 H 247.169 3.13805 -2.7325 0
M  V30 2590 H 246.045 4.41766 -3.25783 0
M  V30 2591 H 246.306 4.14314 -1.5426 0
M  V30 2592 N 245.365 1.30045 0.890287 0
M  V30 2593 C 246.611 1.18737 1.64406 0
M  V30 2594 C 246.944 -0.258525 1.92472 0
M  V30 2595 O 246.219 -1.18562 1.54186 0
M  V30 2596 C 246.502 2.01087 2.98724 0
M  V30 2597 C 246.355 3.53867 2.77665 0
M  V30 2598 C 247.674 1.84457 3.9958 0
M  V30 2599 H 244.793 0.432698 0.596608 0
M  V30 2600 H 247.435 1.5962 1.0306 0
M  V30 2601 H 245.585 1.66349 3.51084 0
M  V30 2602 H 247.257 3.98637 2.32133 0
M  V30 2603 H 245.5 3.78318 2.12269 0
M  V30 2604 H 246.171 4.06772 3.7315 0
M  V30 2605 H 248.647 2.14817 3.56361 0
M  V30 2606 H 247.523 2.44411 4.91482 0
M  V30 2607 H 247.784 0.802276 4.3476 0
M  V30 2608 N 246.843 -1.10192 1.12674 0
M  V30 2609 C 248.089 -1.82475 0.884915 0
M  V30 2610 C 248.422 -1.85093 -0.58773 0
M  V30 2611 O 247.697 -1.3134 -1.43457 0
M  V30 2612 C 247.98 -3.29018 1.46353 0
M  V30 2613 C 247.833 -3.34718 3.00473 0
M  V30 2614 C 249.152 -4.25473 1.12519 0
M  V30 2615 H 246.271 -0.662492 0.322915 0
M  V30 2616 H 248.913 -1.2913 1.39375 0
M  V30 2617 H 247.063 -3.74576 1.03077 0
M  V30 2618 H 248.735 -2.97622 3.52447 0
M  V30 2619 H 246.978 -2.74541 3.35872 0
M  V30 2620 H 247.649 -4.37918 3.36053 0
M  V30 2621 H 250.125 -3.88161 1.499 0
M  V30 2622 H 249.001 -5.26365 1.55663 0
M  V30 2623 H 249.262 -4.42084 0.0377407 0
M  V30 2624 N 248.321 -0.919034 -1.28029 0
M  V30 2625 C 249.546 -0.570357 -1.99403 0
M  V30 2626 C 249.971 0.842486 -1.68178 0
M  V30 2627 O 249.329 1.56391 -0.917141 0
M  V30 2628 C 249.377 -0.792541 -3.51783 0
M  V30 2629 O 248.481 0.145988 -4.12142 0
M  V30 2630 H 247.822 -0.220555 -0.6263 0
M  V30 2631 H 250.352 -1.23592 -1.63053 0
M  V30 2632 H 250.362 -0.704708 -4.01868 0
M  V30 2633 H 249.037 -1.82247 -3.73844 0
M  V30 2634 H 247.614 0.00897528 -3.72899 0
M  V30 2635 N 249.799 1.42003 -0.683588 0
M  V30 2636 C 251.047 2.01015 -0.209101 0
M  V30 2637 C 251.368 1.54365 1.19149 0
M  V30 2638 O 250.638 0.769083 1.80172 0
M  V30 2639 H 249.218 0.743294 -0.074315 0
M  V30 2640 H 251.88 1.73798 -0.882066 0
M  V30 2641 H 250.976 3.11343 -0.2172 0
M  V30 2642 N 251.277 0.427512 1.51691 0
M  V30 2643 C 252.505 -0.141191 2.06418 0
M  V30 2644 C 252.92 -1.37303 1.29589 0
M  V30 2645 O 252.277 -1.79059 0.352732 0
M  V30 2646 C 252.328 -0.473266 3.58389 0
M  V30 2647 O 252.049 0.709673 4.32314 0
M  V30 2648 C 253.55 -1.09371 4.29596 0
M  V30 2649 H 250.77 -0.0122747 0.670888 0
M  V30 2650 H 253.314 0.603764 1.95384 0
M  V30 2651 H 251.469 -1.16812 3.69369 0
M  V30 2652 H 251.883 0.42807 5.2275 0
M  V30 2653 H 253.357 -1.27613 5.37046 0
M  V30 2654 H 253.834 -2.072 3.87253 0
M  V30 2655 H 254.44 -0.43853 4.23033 0
M  V30 2656 N 252.755 -1.56801 0.158532 0
M  V30 2657 C 254.166 -1.83189 -0.360366 0
M  V30 2658 C 254.517 -1.07778 -1.63946 0
M  V30 2659 O 253.642 -0.326718 -2.13919 0
M  V30 2660 C 254.237 -3.32297 -0.660595 0
M  V30 2661 C 252.796 -3.59227 -1.12398 0
M  V30 2662 C 251.943 -2.76877 -0.153097 0
M  V30 2663 H 254.894 -1.54008 0.383031 0
M  V30 2664 H 254.915 -3.4908 -1.51405 0
M  V30 2665 H 254.427 -3.87156 0.270527 0
M  V30 2666 H 252.528 -3.09766 -2.07064 0
M  V30 2667 H 252.641 -4.67632 -1.04197 0
M  V30 2668 H 251.005 -2.46319 -0.647983 0
M  V30 2669 H 251.788 -3.34511 0.77182 0
M  V30 2670 N 254.233 0.115231 -1.57178 0
M  V30 2671 C 255.482 0.820945 -1.84237 0
M  V30 2672 C 255.795 1.80866 -0.744761 0
M  V30 2673 O 257.001 2.56083 -0.901871 0
M  V30 2674 C 255.457 1.51072 -3.26658 0
M  V30 2675 C 255.065 0.563795 -4.44438 0
M  V30 2676 C 256.809 2.20134 -3.62962 0
M  V30 2677 C 254.716 1.25701 -5.77887 0
M  V30 2678 H 253.646 0.310328 -0.687177 0
M  V30 2679 H 256.297 0.0737134 -1.83352 0
M  V30 2680 H 254.679 2.30471 -3.22024 0
M  V30 2681 H 255.853 -0.197247 -4.60378 0
M  V30 2682 H 254.168 -0.0200638 -4.16395 0
M  V30 2683 H 256.765 2.72696 -4.59936 0
M  V30 2684 H 257.108 2.98107 -2.90582 0
M  V30 2685 H 257.641 1.47619 -3.69396 0
M  V30 2686 H 254.38 0.518493 -6.53446 0
M  V30 2687 H 253.9 1.98997 -5.65827 0
M  V30 2688 H 255.579 1.78915 -6.2177 0
M  V30 2689 N 255.711 1.52812 0.385517 0
M  V30 2690 C 257.127 1.4214 0.725829 0
M  V30 2691 C 257.327 0.544589 1.94001 0
M  V30 2692 O 256.383 0.0193693 2.52493 0
M  V30 2693 C 257.696 2.85042 0.957668 0
M  V30 2694 C 259.244 2.94543 1.05892 0
M  V30 2695 C 259.719 4.38464 1.32337 0
M  V30 2696 N 261.21 4.41804 1.39151 0
M  V30 2697 C 261.945 5.5025 1.61285 0
M  V30 2698 N 261.441 6.68775 1.80866 0
M  V30 2699 N 263.234 5.37798 1.63492 0
M  V30 2700 H 255.385 2.08338 -0.413383 0
M  V30 2701 H 257.648 0.940016 -0.122775 0
M  V30 2702 H 257.354 3.51431 0.137568 0
M  V30 2703 H 257.228 3.27505 1.87137 0
M  V30 2704 H 259.615 2.28321 1.86959 0
M  V30 2705 H 259.696 2.55504 0.123057 0
M  V30 2706 H 259.34 5.05254 0.517793 0
M  V30 2707 H 259.27 4.75059 2.27214 0
M  V30 2708 H 261.761 3.56377 1.25713 0
M  V30 2709 H 262.074 7.47197 1.97271 0
M  V30 2710 H 260.419 6.71797 1.78083 0
M  V30 2711 H 263.61 4.44171 1.47749 0
M  V30 2712 H 263.783 6.22382 1.80402 0
M  V30 2713 N 257.189 -0.644168 1.43834 0
M  V30 2714 C 258.605 -0.960875 1.27434 0
M  V30 2715 C 258.805 -2.00499 0.200618 0
M  V30 2716 O 257.861 -2.49018 -0.417906 0
M  V30 2717 C 259.174 -1.43653 2.64167 0
M  V30 2718 C 260.722 -1.55271 2.71772 0
M  V30 2719 C 261.197 -2.06224 4.08944 0
M  V30 2720 N 262.688 -2.13513 4.11055 0
M  V30 2721 C 263.423 -2.54081 5.14033 0
M  V30 2722 N 262.919 -2.9388 6.27381 0
M  V30 2723 N 264.712 -2.54101 5.01387 0
M  V30 2724 H 256.863 0.0465779 2.12349 0
M  V30 2725 H 259.126 -0.0417638 0.94708 0
M  V30 2726 H 258.832 -0.743706 3.43747 0
M  V30 2727 H 258.706 -2.40993 2.90176 0
M  V30 2728 H 261.093 -2.23653 1.92519 0
M  V30 2729 H 261.174 -0.563395 2.49519 0
M  V30 2730 H 260.818 -1.38441 4.88668 0
M  V30 2731 H 260.748 -3.06003 4.28567 0
M  V30 2732 H 263.239 -1.85493 3.29242 0
M  V30 2733 H 263.552 -3.2361 7.01781 0
M  V30 2734 H 261.897 -2.91663 6.30839 0
M  V30 2735 H 265.088 -2.22391 4.11898 0
M  V30 2736 H 265.261 -2.85394 5.81768 0
M  V30 2737 N 258.668 -1.30515 -0.883378 0
M  V30 2738 C 260.079 -1.17509 -1.45081 0
M  V30 2739 C 260.43 0.223605 -1.94922 0
M  V30 2740 O 259.555 1.12041 -1.85137 0
M  V30 2741 C 260.15 -2.12715 -2.63701 0
M  V30 2742 C 258.709 -2.03682 -3.16529 0
M  V30 2743 C 257.856 -2.02706 -1.89224 0
M  V30 2744 H 260.807 -1.42762 -0.693165 0
M  V30 2745 H 260.828 -1.70891 -3.39965 0
M  V30 2746 H 260.34 -3.14505 -2.27395 0
M  V30 2747 H 258.441 -1.05039 -3.57488 0
M  V30 2748 H 258.554 -2.92146 -3.7972 0
M  V30 2749 H 256.918 -1.4753 -2.07622 0
M  V30 2750 H 257.701 -3.06229 -1.55174 0
M  V30 2751 N 260.146 1.09593 -1.13257 0
M  V30 2752 C 261.079 2.15451 -0.752061 0
M  V30 2753 C 262.057 1.60493 0.260913 0
M  V30 2754 O 263.241 1.8788 0.152819 0
M  V30 2755 C 260.368 3.38506 -0.114594 0
M  V30 2756 C 259.414 4.12183 -1.09579 0
M  V30 2757 S 260.247 4.6661 -2.62745 0
M  V30 2758 C 261.403 5.92966 -2.00354 0
M  V30 2759 H 261.636 2.47395 -1.64872 0
M  V30 2760 H 259.169 1.21515 -0.952545 0
M  V30 2761 H 261.127 4.09757 0.246808 0
M  V30 2762 H 259.788 3.04784 0.759309 0
M  V30 2763 H 258.981 5.00445 -0.597545 0
M  V30 2764 H 258.583 3.46785 -1.40057 0
M  V30 2765 H 260.875 6.63882 -1.35156 0
M  V30 2766 H 261.818 6.47467 -2.86691 0
M  V30 2767 H 262.226 5.45405 -1.4558 0
M  V30 2768 N 261.624 0.925811 1.2754 0
M  V30 2769 C 262.872 0.564138 1.94067 0
M  V30 2770 C 263.193 -0.897188 1.73134 0
M  V30 2771 O 262.463 -1.63573 1.07799 0
M  V30 2772 H 261.043 0.205645 0.718136 0
M  V30 2773 H 263.705 1.1778 1.55287 0
M  V30 2774 H 262.801 0.76881 3.02483 0
M  V30 2775 N 263.102 -1.41638 0.69111 0
M  V30 2776 C 264.034 -2.29194 -0.0161523 0
M  V30 2777 C 265.047 -1.44549 -0.748955 0
M  V30 2778 O 266.236 -1.681 -0.6004 0
M  V30 2779 C 263.336 -3.22325 -1.0469 0
M  V30 2780 C 262.509 -4.35706 -0.384621 0
M  V30 2781 C 261.568 -5.09443 -1.31737 0
M  V30 2782 O 260.594 -5.63386 -0.811451 0
M  V30 2783 N 261.796 -5.16487 -2.64993 0
M  V30 2784 H 264.561 -2.90534 0.735523 0
M  V30 2785 H 262.122 -1.52742 0.53679 0
M  V30 2786 H 264.114 -3.68522 -1.67252 0
M  V30 2787 H 262.684 -2.62323 -1.70015 0
M  V30 2788 H 261.904 -3.91948 0.420804 0
M  V30 2789 H 263.192 -5.08743 0.0760765 0
M  V30 2790 H 262.59 -4.741 -3.08619 0
M  V30 2791 H 261.147 -5.66276 -3.22761 0
M  V30 2792 N 264.58 -0.43555 -1.51462 0
M  V30 2793 C 265.513 0.421989 -2.24264 0
M  V30 2794 C 266.491 1.02619 -1.26127 0
M  V30 2795 O 267.675 1.069 -1.55257 0
M  V30 2796 C 264.802 1.588 -2.99166 0
M  V30 2797 C 263.848 1.10465 -4.11946 0
M  V30 2798 S 264.681 0.048146 -5.35478 0
M  V30 2799 C 265.837 1.21887 -6.13917 0
M  V30 2800 H 266.07 -0.196102 -2.96653 0
M  V30 2801 H 263.603 -0.220054 -1.52824 0
M  V30 2802 H 265.561 2.25647 -3.42919 0
M  V30 2803 H 264.222 2.1775 -2.26371 0
M  V30 2804 H 263.415 1.97654 -4.63626 0
M  V30 2805 H 263.017 0.51445 -3.70445 0
M  V30 2806 H 265.309 2.13756 -6.42895 0
M  V30 2807 H 266.252 0.742076 -7.04201 0
M  V30 2808 H 266.66 1.45663 -5.45383 0
M  V30 2809 N 266.058 1.56714 -0.166846 0
M  V30 2810 C 267.005 2.17746 0.765193 0
M  V30 2811 C 267.975 1.11614 1.23011 0
M  V30 2812 O 269.16 1.39745 1.29908 0
M  V30 2813 C 266.3 2.81882 1.9909 0
M  V30 2814 C 265.413 4.02462 1.56997 0
M  V30 2815 C 264.548 4.54537 2.749 0
M  V30 2816 C 263.587 5.67538 2.29275 0
M  V30 2817 N 262.724 6.14142 3.40255 0
M  V30 2818 H 267.564 2.97048 0.237952 0
M  V30 2819 H 265.101 1.4672 0.105725 0
M  V30 2820 H 267.059 3.17221 2.70974 0
M  V30 2821 H 265.689 2.05191 2.49192 0
M  V30 2822 H 264.741 3.72973 0.748037 0
M  V30 2823 H 266.053 4.84273 1.19503 0
M  V30 2824 H 265.207 4.92035 3.54946 0
M  V30 2825 H 263.946 3.71774 3.1565 0
M  V30 2826 H 262.951 5.29597 1.47674 0
M  V30 2827 H 264.176 6.52099 1.89588 0
M  V30 2828 H 262.122 5.3431 3.8059 0
M  V30 2829 H 262.039 6.9093 3.06841 0
M  V30 2830 H 263.307 6.56289 4.206 0
M  V30 2831 N 267.536 -0.106894 1.57237 0
M  V30 2832 C 268.947 -0.662723 1.74542 0
M  V30 2833 C 269.298 -1.7971 0.787319 0
M  V30 2834 O 268.423 -2.16368 -0.0369636 0
M  V30 2835 C 269.018 -1.20896 3.16496 0
M  V30 2836 C 267.577 -1.71096 3.35266 0
M  V30 2837 C 266.724 -0.615642 2.7038 0
M  V30 2838 H 269.675 0.119106 1.58252 0
M  V30 2839 H 269.696 -2.07847 3.18716 0
M  V30 2840 H 269.208 -0.383122 3.86204 0
M  V30 2841 H 267.309 -2.56119 2.70618 0
M  V30 2842 H 267.422 -1.81208 4.43509 0
M  V30 2843 H 265.786 -1.05222 2.31949 0
M  V30 2844 H 266.569 0.199419 3.4272 0
M  V30 2845 N 269.014 -1.53014 -0.377408 0
M  V30 2846 C 270.291 -1.59215 -1.13622 0
M  V30 2847 C 270.671 -0.392407 -2.07421 0
M  V30 2848 O 270.019 0.618342 -2.19975 0
M  V30 2849 C 270.229 -2.93669 -1.88573 0
M  V30 2850 C 271.577 -3.47822 -2.43526 0
M  V30 2851 O 272.601 -2.9562 -1.98715 0
M  V30 2852 O 271.46 -4.39055 -3.25412 0
M  V30 2853 H 268.554 -0.642625 -0.52054 0
M  V30 2854 H 271.1 -1.65353 -0.381625 0
M  V30 2855 H 269.872 -3.7243 -1.20048 0
M  V30 2856 H 269.495 -2.90968 -2.70968 0
M  V30 2857 N 270.492 0.636531 -1.44174 0
M  V30 2858 C 271.769 1.39463 -1.37148 0
M  V30 2859 C 272.149 2.11082 -0.027507 0
M  V30 2860 O 271.497 2.05954 0.989716 0
M  V30 2861 C 271.707 2.36552 -2.56601 0
M  V30 2862 C 273.055 3.00048 -3.00427 0
M  V30 2863 O 274.079 2.46878 -2.56767 0
M  V30 2864 O 272.938 3.96488 -3.76111 0
M  V30 2865 H 270.032 0.623903 -0.542839 0
M  V30 2866 H 272.578 0.662039 -1.56253 0
M  V30 2867 H 271.35 1.82692 -3.46034 0
M  V30 2868 H 270.973 3.17236 -2.39681 0
M  V30 2869 N 271.97 1.30982 0.876444 0
M  V30 2870 C 273.195 1.23373 1.66715 0
M  V30 2871 C 273.62 -0.19885 1.87046 0
M  V30 2872 O 272.978 -1.1427 1.40756 0
M  V30 2873 C 273.026 1.97644 3.01611 0
M  V30 2874 O 272.13 1.30935 3.91062 0
M  V30 2875 H 271.471 0.426279 0.509099 0
M  V30 2876 H 274.001 1.72944 1.09323 0
M  V30 2877 H 274.011 2.06992 3.51594 0
M  V30 2878 H 272.686 3.01829 2.86133 0
M  V30 2879 H 271.263 1.29996 3.49507 0
M  V30 2880 N 273.449 -1.08991 1.13837 0
M  V30 2881 C 274.396 -2.15748 0.819835 0
M  V30 2882 C 275.366 -1.64636 -0.220026 0
M  V30 2883 O 276.551 -1.90582 -0.0912757 0
M  V30 2884 C 273.691 -3.4382 0.296913 0
M  V30 2885 C 272.804 -4.0881 1.39636 0
M  V30 2886 C 271.939 -5.24655 0.831314 0
M  V30 2887 C 270.978 -5.81575 1.90886 0
M  V30 2888 N 270.115 -6.88774 1.36142 0
M  V30 2889 H 274.955 -2.42338 1.73426 0
M  V30 2890 H 272.492 -1.18935 0.865613 0
M  V30 2891 H 274.45 -4.17193 -0.0244339 0
M  V30 2892 H 273.08 -3.17535 -0.580628 0
M  V30 2893 H 272.132 -3.33258 1.83422 0
M  V30 2894 H 273.444 -4.47141 2.21058 0
M  V30 2895 H 272.598 -6.04942 0.461515 0
M  V30 2896 H 271.337 -4.87698 -0.013932 0
M  V30 2897 H 270.342 -4.99946 2.28767 0
M  V30 2898 H 271.567 -6.20592 2.75758 0
M  V30 2899 H 269.513 -6.53788 0.538254 0
M  V30 2900 H 269.43 -7.25898 2.11208 0
M  V30 2901 H 270.698 -7.72806 1.01933 0
M  V30 2902 N 274.927 -0.932562 -1.27047 0
M  V30 2903 C 276.338 -0.619451 -1.76124 0
M  V30 2904 C 276.689 0.865397 -1.76083 0
M  V30 2905 O 275.814 1.67722 -1.36742 0
M  V30 2906 C 276.409 -1.11771 -3.19832 0
M  V30 2907 C 274.968 -0.855174 -3.66557 0
M  V30 2908 C 274.115 -1.27362 -2.46321 0
M  V30 2909 H 277.066 -1.11181 -1.13245 0
M  V30 2910 H 277.087 -0.46759 -3.77616 0
M  V30 2911 H 276.599 -2.19842 -3.1983 0
M  V30 2912 H 274.7 0.211524 -3.71999 0
M  V30 2913 H 274.813 -1.47613 -4.55793 0
M  V30 2914 H 273.177 -0.692119 -2.45116 0
M  V30 2915 H 273.96 -2.36307 -2.49025 0
M  V30 2916 N 276.405 1.4127 -0.698611 0
M  V30 2917 C 277.816 1.84187 -0.305289 0
M  V30 2918 C 278.167 1.58449 1.15708 0
M  V30 2919 O 277.292 1.05651 1.88856 0
M  V30 2920 C 277.887 3.3435 -0.547314 0
M  V30 2921 C 276.446 3.75826 -0.207878 0
M  V30 2922 C 275.593 2.64647 -0.828099 0
M  V30 2923 H 278.544 1.30778 -0.89904 0
M  V30 2924 H 278.565 3.8001 0.192998 0
M  V30 2925 H 278.077 3.53051 -1.61172 0
M  V30 2926 H 276.178 3.62725 0.852143 0
M  V30 2927 H 276.291 4.74462 -0.665021 0
M  V30 2928 H 274.655 2.53395 -0.257458 0
M  V30 2929 H 275.438 2.86165 -1.89643 0
M  V30 2930 N 277.883 0.443576 1.51229 0
M  V30 2931 C 279.129 -0.120975 2.02439 0
M  V30 2932 C 279.462 -1.41815 1.32674 0
M  V30 2933 O 278.737 -1.89373 0.443622 0
M  V30 2934 C 279.02 -0.333291 3.58554 0
M  V30 2935 C 278.873 0.982968 4.38928 0
M  V30 2936 C 280.192 -1.10028 4.26124 0
M  V30 2937 H 277.311 -0.0424923 0.735774 0
M  V30 2938 H 279.953 0.583794 1.80809 0
M  V30 2939 H 278.103 -0.933614 3.77115 0
M  V30 2940 H 279.775 1.61775 4.32003 0
M  V30 2941 H 278.018 1.58611 4.03763 0
M  V30 2942 H 278.689 0.788379 5.46341 0
M  V30 2943 H 281.165 -0.591711 4.11871 0
M  V30 2944 H 280.041 -1.21761 5.35225 0
M  V30 2945 H 280.302 -2.12996 3.87408 0
M  V30 2946 N 279.361 -1.56624 0.175154 0
M  V30 2947 C 280.591 -2.01082 -0.474283 0
M  V30 2948 C 280.999 -1.05447 -1.57091 0
M  V30 2949 O 280.342 -0.0480595 -1.83637 0
M  V30 2950 C 280.404 -3.41963 -1.10911 0
M  V30 2951 C 280.068 -4.56742 -0.153666 0
M  V30 2952 C 281.065 -5.16076 0.629448 0
M  V30 2953 C 278.75 -5.02277 -0.0483776 0
M  V30 2954 C 280.744 -6.19377 1.50501 0
M  V30 2955 C 278.431 -6.05427 0.830768 0
M  V30 2956 C 279.429 -6.63849 1.60605 0
M  V30 2957 O 279.117 -7.64998 2.47049 0
M  V30 2958 H 278.849 -0.664261 -0.125432 0
M  V30 2959 H 281.403 -2.03549 0.275163 0
M  V30 2960 H 279.633 -3.36422 -1.90676 0
M  V30 2961 H 281.322 -3.70352 -1.66114 0
M  V30 2962 H 282.088 -4.81776 0.558297 0
M  V30 2963 H 277.967 -4.56513 -0.641611 0
M  V30 2964 H 281.511 -6.64906 2.1106 0
M  V30 2965 H 277.408 -6.39151 0.903107 0
M  V30 2966 H 278.176 -7.82336 2.40607 0
M  V30 2967 N 280.839 0.0985539 -1.57292 0
M  V30 2968 C 282.087 0.801092 -1.85545 0
M  V30 2969 C 282.408 1.79438 -0.763353 0
M  V30 2970 O 281.678 1.94763 0.21073 0
M  V30 2971 H 280.258 0.29884 -0.684619 0
M  V30 2972 H 282.92 0.0810064 -1.94732 0
M  V30 2973 H 282.016 1.3338 -2.82163 0
M  V30 2974 N 282.317 1.53212 0.369288 0
M  V30 2975 C 283.28 1.7872 1.43498 0
M  V30 2976 C 284.28 0.657554 1.46741 0
M  V30 2977 O 285.47 0.925736 1.47566 0
M  V30 2978 C 282.602 1.90591 2.82645 0
M  V30 2979 H 283.795 2.73894 1.22156 0
M  V30 2980 H 281.348 1.44233 0.602203 0
M  V30 2981 H 282.083 0.974709 3.09306 0
M  V30 2982 H 281.868 2.72751 2.8169 0
M  V30 2983 H 283.358 2.11931 3.59826 0
M  V30 2984 N 283.795 -0.628877 1.44509 0
M  V30 2985 C 285.035 -1.39993 1.48934 0
M  V30 2986 C 285.399 -1.91627 0.119604 0
M  V30 2987 O 286.6 -2.68772 0.0385283 0
M  V30 2988 C 284.871 -2.53241 2.52198 0
M  V30 2989 S 286.43 -3.41383 2.75687 0
M  V30 2990 H 283.248 -0.477558 0.526744 0
M  V30 2991 H 285.85 -0.727804 1.81448 0
M  V30 2992 H 284.554 -2.13622 3.50419 0
M  V30 2993 H 284.085 -3.25278 2.21264 0
M  V30 2994 H 286.1 -4.50752 2.07453 0
M  V30 2995 N 285.273 -1.31445 -0.869486 0
M  V30 2996 C 286.22 -1.19135 -1.97675 0
M  V30 2997 C 287.19 -0.0770266 -1.65921 0
M  V30 2998 O 288.375 -0.249972 -1.89155 0
M  V30 2999 C 285.515 -0.905149 -3.33018 0
M  V30 3000 C 284.628 -2.10285 -3.77365 0
M  V30 3001 C 283.763 -1.75339 -5.01427 0
M  V30 3002 C 282.802 -2.91515 -5.38224 0
M  V30 3003 N 281.939 -2.56762 -6.53466 0
M  V30 3004 H 286.779 -2.13853 -2.07535 0
M  V30 3005 H 284.316 -1.06379 -1.01597 0
M  V30 3006 H 286.274 -0.719765 -4.10944 0
M  V30 3007 H 284.904 0.00519624 -3.228 0
M  V30 3008 H 283.956 -2.39899 -2.95216 0
M  V30 3009 H 285.268 -2.97237 -4.00564 0
M  V30 3010 H 284.422 -1.53266 -5.87022 0
M  V30 3011 H 283.161 -0.855801 -4.80133 0
M  V30 3012 H 282.166 -3.14237 -4.51149 0
M  V30 3013 H 283.391 -3.81985 -5.61484 0
M  V30 3014 H 281.337 -1.69526 -6.33717 0
M  V30 3015 H 281.254 -3.37243 -6.76612 0
M  V30 3016 H 282.522 -2.38083 -7.42251 0
M  V30 3017 N 286.751 1.08385 -1.14413 0
M  V30 3018 C 287.681 2.17321 -0.854044 0
M  V30 3019 C 288.662 1.69024 0.191049 0
M  V30 3020 O 289.847 1.94141 0.0476779 0
M  V30 3021 C 286.977 3.45719 -0.330983 0
M  V30 3022 C 285.931 4.07409 -1.31155 0
M  V30 3023 C 285.257 5.30762 -0.64778 0
M  V30 3024 C 286.557 4.48665 -2.67388 0
M  V30 3025 H 288.251 2.41845 -1.76498 0
M  V30 3026 H 285.797 1.16233 -0.850051 0
M  V30 3027 H 287.75 4.21241 -0.115645 0
M  V30 3028 H 286.474 3.2075 0.615381 0
M  V30 3029 H 285.133 3.33919 -1.51306 0
M  V30 3030 H 284.781 5.02078 0.304398 0
M  V30 3031 H 284.481 5.72992 -1.30207 0
M  V30 3032 H 286.005 6.08998 -0.441972 0
M  V30 3033 H 287.419 5.15364 -2.51143 0
M  V30 3034 H 285.816 5.01814 -3.29093 0
M  V30 3035 H 286.886 3.60543 -3.24248 0
M  V30 3036 N 288.23 0.939286 1.26551 0
M  V30 3037 C 289.16 0.465044 2.28822 0
M  V30 3038 C 290.141 -0.480692 1.63167 0
M  V30 3039 O 291.326 -0.382955 1.90387 0
M  V30 3040 C 288.456 -0.27234 3.46231 0
M  V30 3041 C 287.41 0.58666 4.2396 0
M  V30 3042 C 286.736 -0.280573 5.33963 0
M  V30 3043 C 288.036 1.85704 4.88171 0
M  V30 3044 H 289.73 1.31979 2.68741 0
M  V30 3045 H 287.276 0.636061 1.29191 0
M  V30 3046 H 289.229 -0.615133 4.16886 0
M  V30 3047 H 287.953 -1.16121 3.0526 0
M  V30 3048 H 286.612 0.91232 3.55067 0
M  V30 3049 H 286.26 -1.16874 4.89234 0
M  V30 3050 H 285.96 0.29076 5.8688 0
M  V30 3051 H 287.484 -0.618678 6.07458 0
M  V30 3052 H 288.898 1.58161 5.51052 0
M  V30 3053 H 287.295 2.37279 5.51197 0
M  V30 3054 H 288.365 2.56957 4.11219 0
M  V30 3055 N 289.708 -1.40897 0.706093 0
M  V30 3056 C 290.985 -1.94868 0.169099 0
M  V30 3057 C 291.365 -1.64485 -1.32318 0
M  V30 3058 O 290.713 -0.95744 -2.07474 0
M  V30 3059 C 290.923 -3.45798 0.471654 0
M  V30 3060 C 292.271 -4.22663 0.405127 0
M  V30 3061 O 293.295 -3.53865 0.407168 0
M  V30 3062 O 292.154 -5.45216 0.374383 0
M  V30 3063 H 289.248 -0.82673 0.0211352 0
M  V30 3064 H 291.794 -1.50558 0.782976 0
M  V30 3065 H 290.566 -3.61235 1.50416 0
M  V30 3066 H 290.189 -3.97225 -0.172666 0
M  V30 3067 N 291.186 -0.45159 -1.50991 0
M  V30 3068 C 292.119 0.398179 -2.24699 0
M  V30 3069 C 293.097 1.01276 -1.27208 0
M  V30 3070 O 294.281 1.05247 -1.56382 0
M  V30 3071 C 291.408 1.55618 -3.00833 0
M  V30 3072 C 290.454 1.0609 -4.13095 0
M  V30 3073 S 291.287 -0.00865136 -5.35499 0
M  V30 3074 C 292.443 1.15369 -6.15175 0
M  V30 3075 H 292.676 -0.227555 -2.96428 0
M  V30 3076 H 290.209 -0.236251 -1.52582 0
M  V30 3077 H 292.167 2.21997 -3.45293 0
M  V30 3078 H 290.828 2.15337 -2.28667 0
M  V30 3079 H 290.021 1.92726 -4.65696 0
M  V30 3080 H 289.623 0.47513 -3.7097 0
M  V30 3081 H 291.915 2.06925 -6.45126 0
M  V30 3082 H 292.858 0.667344 -7.04948 0
M  V30 3083 H 293.266 1.3987 -5.46897 0
M  V30 3084 N 292.664 1.56529 -0.183458 0
M  V30 3085 C 293.574 2.22144 0.754272 0
M  V30 3086 C 294.59 1.21684 1.24374 0
M  V30 3087 O 295.766 1.54385 1.29333 0
M  V30 3088 C 292.831 2.85884 1.96141 0
M  V30 3089 C 291.892 4.01579 1.51765 0
M  V30 3090 C 291.125 4.6227 2.66725 0
M  V30 3091 O 291.348 4.21865 3.83909 0
M  V30 3092 O 290.282 5.51936 2.40104 0
M  V30 3093 H 294.108 3.02861 0.225527 0
M  V30 3094 H 291.693 1.49331 0.0453032 0
M  V30 3095 H 293.575 3.26253 2.66715 0
M  V30 3096 H 292.25 2.08154 2.47899 0
M  V30 3097 H 291.157 3.65856 0.781049 0
M  V30 3098 H 292.49 4.80938 1.04686 0
M  V30 3099 N 294.142 -0.090211 1.57342 0
M  V30 3100 C 295.072 -1.10976 2.05443 0
M  V30 3101 C 296.053 -1.41482 0.944284 0
M  V30 3102 O 297.238 -1.51428 1.21586 0
M  V30 3103 C 294.368 -2.42831 2.48295 0
M  V30 3104 C 293.322 -2.26721 3.63018 0
M  V30 3105 C 292.648 -3.63796 3.91863 0
M  V30 3106 C 293.948 -1.7037 4.93732 0
M  V30 3107 H 295.642 -0.709564 2.9087 0
M  V30 3108 H 293.188 -0.339874 1.39932 0
M  V30 3109 H 295.141 -3.14431 2.80555 0
M  V30 3110 H 293.865 -2.84795 1.59873 0
M  V30 3111 H 292.524 -1.57565 3.31012 0
M  V30 3112 H 292.172 -4.03297 3.00601 0
M  V30 3113 H 291.872 -3.53861 4.69101 0
M  V30 3114 H 293.396 -4.36855 4.26603 0
M  V30 3115 H 294.81 -2.31816 5.24342 0
M  V30 3116 H 293.207 -1.71181 5.75167 0
M  V30 3117 H 294.277 -0.663542 4.80339 0
M  V30 3118 N 295.62 -1.53406 -0.361157 0
M  V30 3119 C 296.53 -1.83122 -1.4664 0
M  V30 3120 C 297.546 -0.719943 -1.58407 0
M  V30 3121 O 298.722 -1.01046 -1.74218 0
M  V30 3122 C 295.787 -2.01891 -2.81853 0
M  V30 3123 C 294.848 -3.25784 -2.79577 0
M  V30 3124 C 294.081 -3.43648 -4.0834 0
M  V30 3125 O 294.304 -2.65714 -5.0473 0
M  V30 3126 O 293.238 -4.37018 -4.13883 0
M  V30 3127 H 297.064 -2.7703 -1.24451 0
M  V30 3128 H 294.649 -1.38841 -0.551678 0
M  V30 3129 H 296.531 -2.15782 -3.61962 0
M  V30 3130 H 295.206 -1.11173 -3.0401 0
M  V30 3131 H 294.113 -3.17312 -1.98151 0
M  V30 3132 H 295.446 -4.16439 -2.62373 0
M  V30 3133 N 297.098 0.621204 -1.44841 0
M  V30 3134 C 298.031 1.7459 -1.46947 0
M  V30 3135 C 299.009 1.59273 -0.327238 0
M  V30 3136 O 300.193 1.81021 -0.525706 0
M  V30 3137 C 297.32 3.12274 -1.31159 0
M  V30 3138 C 296.366 3.46216 -2.49072 0
M  V30 3139 S 297.199 3.4258 -4.11581 0
M  V30 3140 C 298.355 4.82867 -3.98233 0
M  V30 3141 H 298.588 1.72538 -2.42111 0
M  V30 3142 H 296.121 0.796683 -1.32259 0
M  V30 3143 H 298.079 3.91722 -1.22737 0
M  V30 3144 H 296.74 3.11855 -0.374885 0
M  V30 3145 H 295.933 4.4643 -2.33915 0
M  V30 3146 H 295.535 2.74253 -2.54286 0
M  V30 3147 H 297.827 5.7234 -3.62537 0
M  V30 3148 H 298.77 5.0308 -4.98313 0
M  V30 3149 H 299.178 4.57908 -3.30121 0
M  V30 3150 N 298.576 1.31904 0.862503 0
M  V30 3151 C 299.539 1.20131 1.95195 0
M  V30 3152 C 300.539 0.126409 1.60302 0
M  V30 3153 O 301.729 0.376234 1.70089 0
M  V30 3154 C 298.861 0.845691 3.30244 0
M  V30 3155 H 300.054 2.16943 2.07064 0
M  V30 3156 H 297.607 1.15622 1.05172 0
M  V30 3157 H 298.342 -0.120957 3.24074 0
M  V30 3158 H 298.127 1.62276 3.56944 0
M  V30 3159 H 299.617 0.787418 4.10109 0
M  V30 3160 N 300.054 -1.07777 1.14986 0
M  V30 3161 C 301.301 -1.8029 0.922056 0
M  V30 3162 C 301.629 -1.86531 -0.55105 0
M  V30 3163 O 300.884 -1.34189 -1.42449 0
M  V30 3164 C 301.183 -3.25495 1.47608 0
M  V30 3165 C 300.849 -3.39361 2.96893 0
M  V30 3166 C 299.511 -3.42852 3.37647 0
M  V30 3167 C 301.863 -3.42512 3.92854 0
M  V30 3168 C 299.191 -3.47094 4.73015 0
M  V30 3169 C 301.543 -3.4829 5.28088 0
M  V30 3170 C 300.207 -3.50058 5.68345 0
M  V30 3171 H 299.477 -0.659727 0.337404 0
M  V30 3172 H 302.124 -1.26854 1.43459 0
M  V30 3173 H 300.429 -3.81683 0.88463 0
M  V30 3174 H 302.126 -3.80168 1.27568 0
M  V30 3175 H 298.716 -3.37339 2.64387 0
M  V30 3176 H 302.9 -3.3904 3.62444 0
M  V30 3177 H 298.156 -3.46758 5.03556 0
M  V30 3178 H 302.33 -3.49675 6.02246 0
M  V30 3179 H 299.957 -3.53097 6.73221 0
M  V30 3180 N 301.532 -0.945985 -1.26051 0
M  V30 3181 C 302.779 -0.596118 -1.93527 0
M  V30 3182 C 303.107 0.865559 -1.74179 0
M  V30 3183 O 302.362 1.63524 -1.0751 0
M  V30 3184 C 302.661 -0.890475 -3.46129 0
M  V30 3185 C 302.327 -2.3368 -3.85622 0
M  V30 3186 C 300.989 -2.73216 -3.96114 0
M  V30 3187 C 303.341 -3.27648 -4.05334 0
M  V30 3188 C 300.669 -4.05806 -4.2372 0
M  V30 3189 C 303.021 -4.59841 -4.3443 0
M  V30 3190 C 301.685 -4.99185 -4.43137 0
M  V30 3191 H 300.955 -0.218135 -0.708165 0
M  V30 3192 H 303.602 -1.1934 -1.49768 0
M  V30 3193 H 301.907 -0.210711 -3.91233 0
M  V30 3194 H 303.604 -0.598478 -3.96509 0
M  V30 3195 H 300.194 -2.02015 -3.78005 0
M  V30 3196 H 304.378 -2.98298 -3.96651 0
M  V30 3197 H 299.634 -4.35945 -4.28675 0
M  V30 3198 H 303.808 -5.32641 -4.48628 0
M  V30 3199 H 301.435 -6.01952 -4.64282 0
M  V30 3200 N 303.011 1.40521 -0.713556 0
M  V30 3201 C 304.257 2.01221 -0.252564 0
M  V30 3202 C 304.59 1.56444 1.1506 0
M  V30 3203 O 303.865 0.783597 1.78017 0
M  V30 3204 C 304.148 3.58582 -0.330332 0
M  V30 3205 C 304.001 4.13437 -1.77173 0
M  V30 3206 C 305.32 4.39079 0.299641 0
M  V30 3207 H 302.439 0.731077 -0.0932471 0
M  V30 3208 H 305.081 1.67026 -0.905673 0
M  V30 3209 H 303.231 3.87844 0.225737 0
M  V30 3210 H 304.903 3.9498 -2.38303 0
M  V30 3211 H 303.146 3.67801 -2.3001 0
M  V30 3212 H 303.817 5.22597 -1.77755 0
M  V30 3213 H 306.293 4.15735 -0.174139 0
M  V30 3214 H 305.169 5.4848 0.214771 0
M  V30 3215 H 305.43 4.19915 1.38288 0
M  V30 3216 N 304.489 0.459591 1.5075 0
M  V30 3217 C 305.737 -0.0991532 2.01857 0
M  V30 3218 C 306.058 -1.41247 1.34441 0
M  V30 3219 O 305.328 -1.89775 0.486022 0
M  V30 3220 H 303.908 -0.039633 0.745948 0
M  V30 3221 H 306.57 0.607387 1.85194 0
M  V30 3222 H 305.666 -0.258998 3.11023 0
M  V30 3223 N 305.967 -1.56429 0.191757 0
M  V30 3224 C 307.378 -1.83912 -0.321428 0
M  V30 3225 C 307.729 -1.11231 -1.61623 0
M  V30 3226 O 306.854 -0.37202 -2.13178 0
M  V30 3227 C 307.449 -3.33624 -0.589961 0
M  V30 3228 C 306.008 -3.6153 -1.04753 0
M  V30 3229 C 305.155 -2.7714 -0.0943327 0
M  V30 3230 H 308.106 -1.53161 0.415612 0
M  V30 3231 H 308.127 -3.52213 -1.43966 0
M  V30 3232 H 307.639 -3.86495 0.352588 0
M  V30 3233 H 305.74 -3.14089 -2.00447 0
M  V30 3234 H 305.853 -4.69737 -0.942549 0
M  V30 3235 H 304.217 -2.47638 -0.595589 0
M  V30 3236 H 305 -3.32799 0.842601 0
M  V30 3237 N 307.445 0.0818655 -1.57387 0
M  V30 3238 C 308.693 0.781368 -1.86384 0
M  V30 3239 C 309.014 1.78618 -0.782342 0
M  V30 3240 O 308.284 1.94976 0.190061 0
M  V30 3241 H 306.864 0.291562 -0.687751 0
M  V30 3242 H 309.526 0.060348 -1.94807 0
M  V30 3243 H 308.622 1.3038 -2.83562 0
M  V30 3244 N 308.923 1.53595 0.353017 0
M  V30 3245 C 309.871 1.81605 1.45335 0
M  V30 3246 C 310.865 0.685923 1.54892 0
M  V30 3247 O 312.071 0.869095 1.57628 0
M  V30 3248 H 308.446 0.575204 0.484401 0
M  V30 3249 H 310.417 2.73679 1.18921 0
M  V30 3250 C 309.166 2.03406 2.81995 0
M  V30 3251 H 308.489 2.89814 2.75405 0
M  V30 3252 H 309.929 2.26975 3.58132 0
M  V30 3253 C 308.388 0.816794 3.26849 0
M  V30 3254 O 308.918 0.0115856 4.01698 0
M  V30 3255 N 307.124 0.636682 2.8354 0
M  V30 3256 H 306.671 1.2931 2.22793 0
M  V30 3257 H 306.629 -0.176336 3.13905 0
M  V30 3258 N 310.401 -0.613514 1.45168 0
M  V30 3259 C 311.817 -0.933629 1.29443 0
M  V30 3260 C 312.017 -2.00028 0.243101 0
M  V30 3261 O 311.073 -2.49848 -0.364992 0
M  V30 3262 C 312.386 -1.38018 2.67155 0
M  V30 3263 C 313.934 -1.49471 2.75004 0
M  V30 3264 C 314.409 -1.97503 4.13227 0
M  V30 3265 N 315.9 -2.04746 4.15491 0
M  V30 3266 C 316.635 -2.43121 5.19307 0
M  V30 3267 N 316.131 -2.80506 6.33473 0
M  V30 3268 N 317.924 -2.43408 5.06664 0
M  V30 3269 H 310.075 0.0916097 2.12202 0
M  V30 3270 H 312.338 -0.0216655 0.947752 0
M  V30 3271 H 312.044 -0.670625 3.45247 0
M  V30 3272 H 311.918 -2.34784 2.95222 0
M  V30 3273 H 314.305 -2.19519 1.9722 0
M  V30 3274 H 314.386 -0.510342 2.50657 0
M  V30 3275 H 314.03 -1.28045 4.91495 0
M  V30 3276 H 313.96 -2.96843 4.34962 0
M  V30 3277 H 316.451 -1.78468 3.33103 0
M  V30 3278 H 316.764 -3.08652 7.08487 0
M  V30 3279 H 315.109 -2.78216 6.36884 0
M  V30 3280 H 318.3 -2.13604 4.16523 0
M  V30 3281 H 318.473 -2.72989 5.87691 0
M  V30 3282 N 311.879 -1.3236 -0.855495 0
M  V30 3283 C 312.809 -1.23833 -1.97958 0
M  V30 3284 C 313.79 -0.122361 -1.69659 0
M  V30 3285 O 314.975 -0.30939 -1.9172 0
M  V30 3286 C 312.105 -0.959772 -3.33775 0
M  V30 3287 C 311.059 -2.03689 -3.76424 0
M  V30 3288 C 310.385 -1.61075 -5.09862 0
M  V30 3289 C 311.685 -3.4518 -3.9198 0
M  V30 3290 H 313.379 -2.1788 -2.0535 0
M  V30 3291 H 310.925 -1.04891 -0.986605 0
M  V30 3292 H 312.878 -0.886678 -4.11966 0
M  V30 3293 H 311.602 0.0163404 -3.26596 0
M  V30 3294 H 310.261 -2.10012 -3.00484 0
M  V30 3295 H 309.909 -0.622107 -4.99138 0
M  V30 3296 H 309.609 -2.33143 -5.39368 0
M  V30 3297 H 311.133 -1.55201 -5.90546 0
M  V30 3298 H 312.547 -3.4145 -4.60526 0
M  V30 3299 H 310.944 -4.1559 -4.32903 0
M  V30 3300 H 312.014 -3.84903 -2.94919 0
M  V30 3301 N 313.357 1.07166 -1.15556 0
M  V30 3302 C 314.605 1.79443 -0.929764 0
M  V30 3303 C 314.926 1.87246 0.544414 0
M  V30 3304 O 314.196 1.37473 1.39564 0
M  V30 3305 H 312.776 0.664625 -0.341003 0
M  V30 3306 H 315.438 1.29499 -1.45657 0
M  V30 3307 H 314.534 2.81832 -1.34079 0
M  V30 3308 N 314.835 0.952656 1.25548 0
M  V30 3309 C 315.745 0.47782 2.29682 0
M  V30 3310 C 316.761 -0.453859 1.67977 0
M  V30 3311 O 317.937 -0.330587 1.98668 0
M  V30 3312 C 315.002 -0.238655 3.45878 0
M  V30 3313 C 314.063 0.730994 4.23031 0
M  V30 3314 C 313.296 0.0486165 5.33678 0
M  V30 3315 O 313.519 -1.16612 5.58353 0
M  V30 3316 O 312.453 0.733152 5.97418 0
M  V30 3317 H 316.279 1.34312 2.72386 0
M  V30 3318 H 313.864 0.719026 1.30959 0
M  V30 3319 H 315.746 -0.641774 4.16484 0
M  V30 3320 H 314.421 -1.07916 3.05181 0
M  V30 3321 H 313.328 1.18428 3.5486 0
M  V30 3322 H 314.661 1.53946 4.67506 0
M  V30 3323 N 316.313 -1.40141 0.720998 0
M  V30 3324 C 317.724 -1.83678 0.334553 0
M  V30 3325 C 318.075 -1.6027 -1.13173 0
M  V30 3326 O 317.2 -1.08643 -1.87152 0
M  V30 3327 C 317.795 -3.33437 0.600437 0
M  V30 3328 C 316.354 -3.75447 0.267642 0
M  V30 3329 C 315.501 -2.63296 0.870097 0
M  V30 3330 H 318.452 -1.29331 0.919732 0
M  V30 3331 H 318.473 -3.80269 -0.132517 0
M  V30 3332 H 317.985 -3.50442 1.66768 0
M  V30 3333 H 316.086 -3.64035 -0.794329 0
M  V30 3334 H 316.199 -4.73344 0.74042 0
M  V30 3335 H 314.563 -2.52954 0.297739 0
M  V30 3336 H 315.346 -2.83112 1.94172 0
M  V30 3337 N 317.792 -0.46758 -1.50504 0
M  V30 3338 C 319.041 0.0902868 -2.01498 0
M  V30 3339 C 319.354 1.411 -1.35463 0
M  V30 3340 O 320.56 2.0536 -1.77594 0
M  V30 3341 C 319.016 0.21142 -3.59278 0
M  V30 3342 C 318.624 -1.10065 -4.34269 0
M  V30 3343 C 320.368 0.721433 -4.18325 0
M  V30 3344 C 318.275 -0.943505 -5.83825 0
M  V30 3345 H 317.205 0.037517 -0.753066 0
M  V30 3346 H 319.856 -0.601943 -1.73346 0
M  V30 3347 H 318.238 0.967352 -3.84003 0
M  V30 3348 H 319.412 -1.86726 -4.21272 0
M  V30 3349 H 317.727 -1.5415 -3.86816 0
M  V30 3350 H 320.324 0.85598 -5.27804 0
M  V30 3351 H 320.667 1.71186 -3.79475 0
M  V30 3352 H 321.2 0.0229843 -3.97793 0
M  V30 3353 H 317.939 -1.90719 -6.27141 0
M  V30 3354 H 317.459 -0.217213 -5.99407 0
M  V30 3355 H 319.138 -0.608715 -6.4413 0
M  V30 3356 N 319.27 1.56325 -0.20005 0
M  V30 3357 C 320.681 1.8408 0.31167 0
M  V30 3358 C 321.032 1.12087 1.61031 0
M  V30 3359 O 320.157 0.38332 2.12978 0
M  V30 3360 C 320.752 3.33932 0.57226 0
M  V30 3361 C 319.311 3.6208 1.02834 0
M  V30 3362 C 318.458 2.77186 0.079634 0
M  V30 3363 H 321.409 1.52939 -0.423729 0
M  V30 3364 H 321.43 3.52971 1.42096 0
M  V30 3365 H 320.942 3.86303 -0.37308 0
M  V30 3366 H 319.043 3.15147 1.98778 0
M  V30 3367 H 319.156 4.7023 0.917624 0
M  V30 3368 H 317.52 2.47951 0.582448 0
M  V30 3369 H 318.303 3.32347 -0.860238 0
M  V30 3370 N 320.748 -0.0735177 1.57428 0
M  V30 3371 C 321.997 -0.771809 1.86349 0
M  V30 3372 C 322.31 -1.78828 0.792452 0
M  V30 3373 O 323.516 -2.53602 0.96945 0
M  V30 3374 C 321.972 -1.42358 3.30548 0
M  V30 3375 C 321.58 -0.445761 4.45777 0
M  V30 3376 C 323.324 -2.10434 3.6867 0
M  V30 3377 C 321.231 -1.10335 5.81016 0
M  V30 3378 H 320.161 -0.291999 0.695164 0
M  V30 3379 H 322.812 -0.0250749 1.83483 0
M  V30 3380 H 321.194 -2.21852 3.28021 0
M  V30 3381 H 322.368 0.319239 4.59693 0
M  V30 3382 H 320.683 0.130457 4.16196 0
M  V30 3383 H 323.28 -2.60405 4.67004 0
M  V30 3384 H 323.623 -2.90298 2.98383 0
M  V30 3385 H 324.156 -1.37773 3.7318 0
M  V30 3386 H 320.895 -0.345061 6.54591 0
M  V30 3387 H 320.415 -1.83925 5.70904 0
M  V30 3388 H 322.094 -1.62367 6.26295 0
M  V30 3389 N 322.226 -1.5378 -0.344866 0
M  V30 3390 C 323.451 -1.75211 -1.10977 0
M  V30 3391 C 323.876 -0.48936 -1.81623 0
M  V30 3392 O 323.234 0.557925 -1.72502 0
M  V30 3393 C 323.282 -2.93147 -2.09993 0
M  V30 3394 O 322.386 -2.63203 -3.17487 0
M  V30 3395 H 321.727 -0.581241 -0.321021 0
M  V30 3396 H 324.257 -2.00738 -0.395661 0
M  V30 3397 H 324.267 -3.19898 -2.53237 0
M  V30 3398 H 322.942 -3.84731 -1.5797 0
M  V30 3399 H 321.519 -2.47336 -2.79069 0
M  V30 3400 N 323.704 0.605807 -1.45491 0
M  V30 3401 C 324.651 1.7164 -1.54299 0
M  V30 3402 C 325.621 1.61486 -0.388761 0
M  V30 3403 O 326.806 1.81039 -0.602445 0
M  V30 3404 C 323.946 3.09953 -1.51734 0
M  V30 3405 C 323.059 3.309 -2.77721 0
M  V30 3406 C 322.194 4.59329 -2.66816 0
M  V30 3407 C 321.233 4.7354 -3.87848 0
M  V30 3408 N 320.37 5.9327 -3.75467 0
M  V30 3409 H 325.21 1.63449 -2.49176 0
M  V30 3410 H 322.747 0.796957 -1.23641 0
M  V30 3411 H 324.705 3.89977 -1.48235 0
M  V30 3412 H 323.335 3.17098 -0.604068 0
M  V30 3413 H 322.387 2.44639 -2.913 0
M  V30 3414 H 323.699 3.37274 -3.67488 0
M  V30 3415 H 322.853 5.4755 -2.61292 0
M  V30 3416 H 321.592 4.55355 -1.74651 0
M  V30 3417 H 320.597 3.83741 -3.93729 0
M  V30 3418 H 321.822 4.79309 -4.81082 0
M  V30 3419 H 319.768 5.90338 -2.86072 0
M  V30 3420 H 319.685 6.00811 -4.5887 0
M  V30 3421 H 320.953 6.83984 -3.73879 0
M  V30 3422 N 325.182 1.32811 0.848464 0
M  V30 3423 C 326.145 1.22194 1.9391 0
M  V30 3424 C 327.145 0.143404 1.60159 0
M  V30 3425 O 328.335 0.394253 1.6968 0
M  V30 3426 C 325.467 0.88067 3.29328 0
M  V30 3427 H 326.66 2.19127 2.04752 0
M  V30 3428 H 324.213 1.16731 1.0394 0
M  V30 3429 H 324.948 -0.0865776 3.24184 0
M  V30 3430 H 324.733 1.66052 3.55203 0
M  V30 3431 H 326.223 0.830871 4.09251 0
M  V30 3432 N 326.66 -1.06551 1.16123 0
M  V30 3433 C 327.61 -2.12209 0.833736 0
M  V30 3434 C 328.594 -1.59825 -0.185656 0
M  V30 3435 O 329.786 -1.76994 0.0147906 0
M  V30 3436 C 326.915 -3.41674 0.333697 0
M  V30 3437 C 326.001 -4.00892 1.38372 0
M  V30 3438 N 326.392 -4.34256 2.59337 0
M  V30 3439 C 324.69 -4.28463 1.23836 0
M  V30 3440 C 325.391 -4.81291 3.26701 0
M  V30 3441 N 324.367 -4.80565 2.54083 0
M  V30 3442 H 328.169 -2.35849 1.75364 0
M  V30 3443 H 325.683 -1.24068 1.04789 0
M  V30 3444 H 327.68 -4.16822 0.0806918 0
M  V30 3445 H 326.34 -3.19475 -0.58017 0
M  V30 3446 H 327.351 -4.24687 2.96415 0
M  V30 3447 H 324.028 -4.15721 0.38504 0
M  V30 3448 H 325.418 -5.16332 4.29943 0
M  V30 3449 N 328.138 -0.959301 -1.25041 0
M  V30 3450 C 329.048 -0.489994 -2.29426 0
M  V30 3451 C 330.064 0.444944 -1.68215 0
M  V30 3452 O 331.24 0.320046 -1.98841 0
M  V30 3453 C 328.305 0.220309 -3.45999 0
M  V30 3454 C 327.366 -0.753418 -4.22637 0
M  V30 3455 C 326.599 -0.076918 -5.33645 0
M  V30 3456 O 326.822 1.13649 -5.58963 0
M  V30 3457 O 325.756 -0.764824 -5.97021 0
M  V30 3458 H 329.582 -1.35755 -2.71669 0
M  V30 3459 H 327.167 -0.725961 -1.30576 0
M  V30 3460 H 329.049 0.619677 -4.16819 0
M  V30 3461 H 327.724 1.06296 -3.0575 0
M  V30 3462 H 326.631 -1.20308 -3.54227 0
M  V30 3463 H 327.964 -1.56423 -4.66683 0
M  V30 3464 N 329.616 1.39756 -0.72842 0
M  V30 3465 C 330.566 2.2792 -0.0603424 0
M  V30 3466 C 331.55 1.43922 0.719399 0
M  V30 3467 O 332.742 1.66895 0.589489 0
M  V30 3468 C 329.871 3.32582 0.851104 0
M  V30 3469 C 328.957 4.24049 0.0658641 0
M  V30 3470 N 329.348 4.96653 -0.957578 0
M  V30 3471 C 327.646 4.45013 0.296509 0
M  V30 3472 C 328.347 5.63836 -1.43052 0
M  V30 3473 N 327.323 5.38397 -0.750315 0
M  V30 3474 H 331.125 2.81504 -0.84455 0
M  V30 3475 H 328.639 1.5236 -0.562155 0
M  V30 3476 H 330.636 3.94603 1.34514 0
M  V30 3477 H 329.296 2.80558 1.63454 0
M  V30 3478 H 330.307 5.00297 -1.33877 0
M  V30 3479 H 326.984 4.03943 1.05527 0
M  V30 3480 H 328.374 6.31974 -2.28163 0
M  V30 3481 N 331.094 0.475555 1.50254 0
M  V30 3482 C 332.343 -0.0795996 2.01543 0
M  V30 3483 C 332.656 -1.4038 1.36209 0
M  V30 3484 O 333.862 -2.04415 1.7868 0
M  V30 3485 C 332.318 -0.192363 3.59386 0
M  V30 3486 C 331.926 1.12367 4.33679 0
M  V30 3487 C 333.67 -0.699238 4.18701 0
M  V30 3488 C 331.577 0.974453 5.83317 0
M  V30 3489 H 330.507 -0.0335228 0.753254 0
M  V30 3490 H 333.158 0.611128 1.73025 0
M  V30 3491 H 331.54 -0.946974 3.84511 0
M  V30 3492 H 332.714 1.88958 4.20276 0
M  V30 3493 H 331.029 1.562 3.85993 0
M  V30 3494 H 333.626 -0.827978 5.28251 0
M  V30 3495 H 333.969 -1.69171 3.80377 0
M  V30 3496 H 334.502 -0.00188807 3.978 0
M  V30 3497 H 331.241 1.94042 6.26121 0
M  V30 3498 H 330.761 0.248998 5.99283 0
M  V30 3499 H 332.44 0.642867 6.43798 0
M  V30 3500 N 332.573 -1.56217 0.208337 0
M  V30 3501 C 333.82 -1.97949 -0.42692 0
M  V30 3502 C 334.148 -1.09562 -1.60706 0
M  V30 3503 O 333.403 -0.137616 -1.95216 0
M  V30 3504 C 333.702 -3.45441 -0.916797 0
M  V30 3505 C 333.368 -4.50646 0.151391 0
M  V30 3506 C 332.03 -4.79139 0.444867 0
M  V30 3507 C 334.382 -5.13811 0.874492 0
M  V30 3508 C 331.71 -5.68084 1.46619 0
M  V30 3509 C 334.062 -6.03861 1.88506 0
M  V30 3510 C 332.726 -6.30704 2.18559 0
M  V30 3511 H 331.996 -0.724345 -0.156221 0
M  V30 3512 H 334.643 -1.89006 0.308084 0
M  V30 3513 H 332.948 -3.51521 -1.73032 0
M  V30 3514 H 334.645 -3.75094 -1.41794 0
M  V30 3515 H 331.235 -4.28511 -0.0875068 0
M  V30 3516 H 335.419 -4.91879 0.660996 0
M  V30 3517 H 330.675 -5.87151 1.7048 0
M  V30 3518 H 334.849 -6.51861 2.45051 0
M  V30 3519 H 332.476 -6.99424 2.97843 0
M  V30 3520 N 334.051 0.0651679 -1.57465 0
M  V30 3521 C 335.299 0.761555 -1.87202 0
M  V30 3522 C 335.62 1.77778 -0.801243 0
M  V30 3523 O 334.89 1.95166 0.16937 0
M  V30 3524 H 333.47 0.284251 -0.690804 0
M  V30 3525 H 336.132 0.0396827 -1.9486 0
M  V30 3526 H 335.228 1.27365 -2.84929 0
M  V30 3527 N 335.529 1.53961 0.336706 0
M  V30 3528 C 336.462 1.77255 1.43722 0
M  V30 3529 C 337.44 0.62193 1.50236 0
M  V30 3530 O 338.624 0.857874 1.67847 0
M  V30 3531 C 335.751 1.87733 2.81912 0
M  V30 3532 C 334.797 3.09933 2.92991 0
M  V30 3533 S 335.63 4.68836 2.58753 0
M  V30 3534 C 336.786 4.82202 3.99039 0
M  V30 3535 H 337.019 2.70322 1.23748 0
M  V30 3536 H 334.552 1.44917 0.532777 0
M  V30 3537 H 336.51 1.94455 3.61521 0
M  V30 3538 H 335.171 0.956666 2.99177 0
M  V30 3539 H 334.364 3.1396 3.94265 0
M  V30 3540 H 333.966 3.01472 2.21338 0
M  V30 3541 H 336.258 4.64032 4.9364 0
M  V30 3542 H 337.201 5.84298 4.00002 0
M  V30 3543 H 337.609 4.10604 3.87382 0
M  V30 3544 N 337.007 -0.598083 1.45811 0
M  V30 3545 C 338.253 -1.35882 1.50545 0
M  V30 3546 C 338.586 -1.93616 0.150445 0
M  V30 3547 O 337.861 -1.75604 -0.83628 0
M  V30 3548 C 338.144 -2.49966 2.59208 0
M  V30 3549 C 337.997 -1.97367 4.04186 0
M  V30 3550 C 339.316 -3.52068 2.64076 0
M  V30 3551 H 336.435 -0.492717 0.548087 0
M  V30 3552 H 339.077 -0.673319 1.77669 0
M  V30 3553 H 337.227 -3.08443 2.3621 0
M  V30 3554 H 338.899 -1.43466 4.38423 0
M  V30 3555 H 337.142 -1.283 4.14393 0
M  V30 3556 H 337.813 -2.79649 4.75921 0
M  V30 3557 H 340.289 -3.03448 2.84708 0
M  V30 3558 H 339.165 -4.2937 3.41954 0
M  V30 3559 H 339.426 -4.08304 1.69531 0
M  V30 3560 N 338.485 -1.33259 -0.841409 0
M  V30 3561 C 339.415 -1.25926 -1.96634 0
M  V30 3562 C 340.396 -0.140349 -1.6952 0
M  V30 3563 O 341.581 -0.329707 -1.91381 0
M  V30 3564 C 338.711 -0.99512 -3.32738 0
M  V30 3565 C 337.665 -2.0767 -3.74242 0
M  V30 3566 C 336.991 -1.66474 -5.08125 0
M  V30 3567 C 338.291 -3.49318 -3.88297 0
M  V30 3568 H 339.985 -2.20046 -2.03027 0
M  V30 3569 H 337.531 -1.05931 -0.975425 0
M  V30 3570 H 339.484 -0.930323 -4.11002 0
M  V30 3571 H 338.208 -0.0183004 -3.26595 0
M  V30 3572 H 336.867 -2.13187 -2.98239 0
M  V30 3573 H 336.515 -0.675012 -4.9845 0
M  V30 3574 H 336.215 -2.3885 -5.36865 0
M  V30 3575 H 337.739 -1.61455 -5.88867 0
M  V30 3576 H 339.153 -3.46316 -4.56879 0
M  V30 3577 H 337.55 -4.20158 -4.28471 0
M  V30 3578 H 338.62 -3.8801 -2.9082 0
M  V30 3579 N 339.963 1.05934 -1.16686 0
M  V30 3580 C 340.896 2.1295 -0.820225 0
M  V30 3581 C 341.874 1.61242 0.209722 0
M  V30 3582 O 343.058 1.88271 0.0929688 0
M  V30 3583 C 340.185 3.3797 -0.22223 0
M  V30 3584 C 339.231 4.08488 -1.22637 0
M  V30 3585 S 340.064 4.58015 -2.77457 0
M  V30 3586 C 341.22 5.86292 -2.19117 0
M  V30 3587 H 341.453 2.42025 -1.72659 0
M  V30 3588 H 338.986 1.18423 -0.990722 0
M  V30 3589 H 340.944 4.10335 0.116322 0
M  V30 3590 H 339.605 3.07045 0.66196 0
M  V30 3591 H 338.798 4.98291 -0.756455 0
M  V30 3592 H 338.4 3.42154 -1.51019 0
M  V30 3593 H 340.692 6.59246 -1.56209 0
M  V30 3594 H 341.635 6.38019 -3.07144 0
M  V30 3595 H 342.043 5.40497 -1.62858 0
M  V30 3596 N 341.441 0.965919 1.2453 0
M  V30 3597 C 342.389 0.486506 2.27455 0
M  V30 3598 C 343.383 -0.449041 1.6334 0
M  V30 3599 O 344.589 -0.324527 1.7705 0
M  V30 3600 H 340.964 0.138857 0.739069 0
M  V30 3601 H 342.935 1.3666 2.65267 0
M  V30 3602 C 341.684 -0.209481 3.47068 0
M  V30 3603 H 341.007 0.50129 3.96645 0
M  V30 3604 H 342.447 -0.508775 4.20936 0
M  V30 3605 C 340.906 -1.43586 3.0477 0
M  V30 3606 O 341.436 -2.53299 3.11773 0
M  V30 3607 N 339.642 -1.30126 2.59838 0
M  V30 3608 H 339.189 -0.408583 2.54339 0
M  V30 3609 H 339.147 -2.12294 2.31902 0
M  V30 3610 N 342.919 -1.39368 0.735821 0
M  V30 3611 C 344.196 -1.94465 0.210395 0
M  V30 3612 C 344.576 -1.67254 -1.28799 0
M  V30 3613 O 343.924 -1.00123 -2.05396 0
M  V30 3614 C 344.134 -3.4472 0.544897 0
M  V30 3615 C 345.482 -4.21708 0.494689 0
M  V30 3616 O 346.506 -3.52922 0.482136 0
M  V30 3617 O 345.365 -5.44299 0.489947 0
M  V30 3618 H 342.459 -0.826096 0.0386666 0
M  V30 3619 H 345.005 -1.48863 0.814735 0
M  V30 3620 H 343.777 -3.57963 1.58045 0
M  V30 3621 H 343.4 -3.97502 -0.08837 0
M  V30 3622 N 344.397 -0.483516 -1.5 0
M  V30 3623 C 345.643 0.0593261 -2.03313 0
M  V30 3624 C 345.998 1.36288 -1.35806 0
M  V30 3625 O 345.291 1.85519 -0.478897 0
M  V30 3626 C 345.485 0.286226 -3.56252 0
M  V30 3627 C 345.314 -0.993788 -4.38582 0
M  V30 3628 C 344.084 -1.54064 -4.81241 0
M  V30 3629 C 346.282 -1.89249 -4.78215 0
M  V30 3630 N 344.264 -2.76838 -5.47936 0
M  V30 3631 C 345.635 -2.96606 -5.44449 0
M  V30 3632 C 347.69 -1.90138 -4.60165 0
M  V30 3633 C 346.393 -4.04857 -5.94544 0
M  V30 3634 C 348.419 -2.97353 -5.1121 0
M  V30 3635 C 347.781 -4.03429 -5.77429 0
M  V30 3636 H 343.88 -0.0186322 -0.781778 0
M  V30 3637 H 346.464 -0.654489 -1.8337 0
M  V30 3638 H 344.635 0.969086 -3.76116 0
M  V30 3639 H 346.367 0.824515 -3.96212 0
M  V30 3640 H 343.122 -1.08813 -4.6093 0
M  V30 3641 H 343.546 -3.39221 -5.85882 0
M  V30 3642 H 348.188 -1.09441 -4.0839 0
M  V30 3643 H 345.906 -4.86363 -6.4535 0
M  V30 3644 H 349.492 -2.99039 -4.99066 0
M  V30 3645 H 348.372 -4.85025 -6.16214 0
M  V30 3646 N 345.875 1.56104 -0.216619 0
M  V30 3647 C 347.1 2.0301 0.424462 0
M  V30 3648 C 347.525 1.0955 1.52907 0
M  V30 3649 O 346.883 0.0827914 1.81111 0
M  V30 3650 C 346.931 3.4819 0.937883 0
M  V30 3651 O 346.035 3.57865 2.04955 0
M  V30 3652 H 345.376 0.656925 0.0966755 0
M  V30 3653 H 347.906 2.01859 -0.33381 0
M  V30 3654 H 347.916 3.88413 1.24897 0
M  V30 3655 H 346.591 4.15699 0.129387 0
M  V30 3656 H 345.168 3.29527 1.74546 0
M  V30 3657 N 347.353 -0.0568162 1.57498 0
M  V30 3658 C 348.316 -1.05038 2.03715 0
M  V30 3659 C 349.316 -1.30709 0.936577 0
M  V30 3660 O 350.506 -1.26178 1.20103 0
M  V30 3661 C 347.638 -2.39034 2.43055 0
M  V30 3662 H 348.831 -0.651715 2.92733 0
M  V30 3663 H 346.384 -0.302947 1.53336 0
M  V30 3664 H 347.119 -2.83703 1.57108 0
M  V30 3665 H 346.904 -2.21739 3.2338 0
M  V30 3666 H 348.394 -3.10421 2.79336 0
M  V30 3667 N 348.832 -1.54138 -0.328536 0
M  V30 3668 C 350.248 -1.44736 -0.672574 0
M  V30 3669 C 350.448 -0.616217 -1.91846 0
M  V30 3670 O 349.504 -0.113067 -2.52247 0
M  V30 3671 C 350.817 -2.884 -0.851217 0
M  V30 3672 C 352.365 -2.98271 -0.948877 0
M  V30 3673 C 352.84 -4.43074 -1.15973 0
M  V30 3674 N 354.331 -4.46665 -1.22658 0
M  V30 3675 C 355.066 -5.55857 -1.40751 0
M  V30 3676 N 354.562 -6.75026 -1.5592 0
M  V30 3677 N 356.355 -5.43495 -1.4342 0
M  V30 3678 H 348.506 -2.06661 0.490421 0
M  V30 3679 H 350.769 -0.934812 0.157579 0
M  V30 3680 H 350.475 -3.51699 -0.00704236 0
M  V30 3681 H 350.349 -3.34225 -1.74853 0
M  V30 3682 H 352.736 -2.35102 -1.78356 0
M  V30 3683 H 352.817 -2.55785 -0.0281435 0
M  V30 3684 H 352.461 -5.06827 -0.329915 0
M  V30 3685 H 352.391 -4.83165 -2.09426 0
M  V30 3686 H 354.882 -3.60797 -1.124 0
M  V30 3687 H 355.195 -7.54004 -1.69404 0
M  V30 3688 H 353.54 -6.77944 -1.53027 0
M  V30 3689 H 356.731 -4.49349 -1.31162 0
M  V30 3690 H 356.904 -6.28649 -1.57178 0
M  V30 3691 N 350.31 0.590341 -1.46126 0
M  V30 3692 C 351.587 1.35029 -1.41515 0
M  V30 3693 C 351.967 2.10888 -0.0946472 0
M  V30 3694 O 351.315 2.08998 0.923693 0
M  V30 3695 C 351.525 2.28269 -2.63997 0
M  V30 3696 C 352.873 2.90338 -3.09821 0
M  V30 3697 O 353.897 2.38585 -2.64492 0
M  V30 3698 O 352.756 3.84321 -3.88535 0
M  V30 3699 H 349.85 0.606317 -0.562413 0
M  V30 3700 H 352.396 0.611994 -1.58281 0
M  V30 3701 H 351.168 1.71591 -3.51671 0
M  V30 3702 H 350.791 3.0945 -2.49652 0
M  V30 3703 N 351.788 1.33704 0.83433 0
M  V30 3704 C 353.037 1.24763 1.58484 0
M  V30 3705 C 353.35 -0.183775 1.94735 0
M  V30 3706 O 354.556 -0.395234 2.68608 0
M  V30 3707 C 353.012 2.18638 2.85876 0
M  V30 3708 C 352.62 3.66974 2.56971 0
M  V30 3709 C 354.364 2.18581 3.63899 0
M  V30 3710 C 352.271 4.5275 3.80488 0
M  V30 3711 H 351.201 0.463425 0.594772 0
M  V30 3712 H 353.852 1.58797 0.919551 0
M  V30 3713 H 352.234 1.77542 3.5397 0
M  V30 3714 H 353.408 4.16538 1.9706 0
M  V30 3715 H 351.723 3.69366 1.92244 0
M  V30 3716 H 354.32 2.79894 4.55591 0
M  V30 3717 H 354.663 1.18207 3.99165 0
M  V30 3718 H 355.196 2.58062 3.02735 0
M  V30 3719 H 351.935 5.54017 3.5035 0
M  V30 3720 H 351.455 4.07927 4.39722 0
M  V30 3721 H 353.134 4.66784 4.4802 0
M  V30 3722 N 353.266 -1.05314 1.17247 0
M  V30 3723 C 354.198 -2.13023 0.845812 0
M  V30 3724 C 355.211 -1.62096 -0.151246 0
M  V30 3725 O 356.4 -1.78343 0.0748818 0
M  V30 3726 C 353.5 -3.38047 0.240292 0
M  V30 3727 C 352.673 -4.18255 1.27991 0
M  V30 3728 C 351.732 -5.21625 0.692375 0
M  V30 3729 O 350.758 -5.52619 1.36385 0
M  V30 3730 N 351.96 -5.78201 -0.516178 0
M  V30 3731 H 354.725 -2.41642 1.77283 0
M  V30 3732 H 352.286 -1.21401 1.07115 0
M  V30 3733 H 354.278 -4.04359 -0.16603 0
M  V30 3734 H 352.848 -3.06972 -0.590487 0
M  V30 3735 H 352.068 -3.47451 1.86203 0
M  V30 3736 H 353.356 -4.68643 1.98119 0
M  V30 3737 H 352.754 -5.55301 -1.07969 0
M  V30 3738 H 351.311 -6.4604 -0.86458 0
M  V30 3739 N 354.744 -0.972509 -1.24016 0
M  V30 3740 C 355.691 -0.505969 -2.25186 0
M  V30 3741 C 356.661 0.451009 -1.5986 0
M  V30 3742 O 357.846 0.360307 -1.87367 0
M  V30 3743 C 354.986 0.193089 -3.44559 0
M  V30 3744 C 354.099 -0.803222 -4.24467 0
M  V30 3745 C 353.234 -0.0797793 -5.3114 0
M  V30 3746 C 352.273 -1.06583 -6.02749 0
M  V30 3747 N 351.41 -0.372074 -7.01113 0
M  V30 3748 H 356.25 -1.37351 -2.64459 0
M  V30 3749 H 353.787 -0.688419 -1.29997 0
M  V30 3750 H 355.745 0.615125 -4.1264 0
M  V30 3751 H 354.375 1.02455 -3.06109 0
M  V30 3752 H 353.427 -1.34368 -3.55878 0
M  V30 3753 H 354.739 -1.55494 -4.73944 0
M  V30 3754 H 353.893 0.400015 -6.0538 0
M  V30 3755 H 352.632 0.704597 -4.82583 0
M  V30 3756 H 351.637 -1.55645 -5.27309 0
M  V30 3757 H 352.862 -1.85074 -6.53395 0
M  V30 3758 H 350.808 0.393238 -6.5482 0
M  V30 3759 H 350.725 -1.06258 -7.48495 0
M  V30 3760 H 351.993 0.0855932 -7.79453 0
M  V30 3761 N 356.222 1.38976 -0.743202 0
M  V30 3762 C 357.468 2.01114 -0.304109 0
M  V30 3763 C 357.823 1.57929 1.09892 0
M  V30 3764 O 357.116 0.801983 1.74008 0
M  V30 3765 C 357.31 3.55647 -0.353517 0
M  V30 3766 C 357.139 4.13837 -1.75981 0
M  V30 3767 C 355.909 4.46062 -2.37395 0
M  V30 3768 C 358.107 4.36812 -2.71477 0
M  V30 3769 N 356.089 4.898 -3.70093 0
M  V30 3770 C 357.46 4.82844 -3.88923 0
M  V30 3771 C 359.515 4.18893 -2.69134 0
M  V30 3772 C 358.218 5.12837 -5.04371 0
M  V30 3773 C 360.244 4.50005 -3.83731 0
M  V30 3774 C 359.606 4.96251 -4.99914 0
M  V30 3775 H 355.705 0.765931 -0.157716 0
M  V30 3776 H 358.289 1.68763 -0.970931 0
M  V30 3777 H 356.46 3.87368 0.282987 0
M  V30 3778 H 358.192 4.04564 0.104904 0
M  V30 3779 H 354.947 4.34145 -1.89248 0
M  V30 3780 H 355.371 5.16016 -4.38242 0
M  V30 3781 H 360.013 3.82335 -1.80499 0
M  V30 3782 H 357.731 5.48297 -5.9363 0
M  V30 3783 H 361.317 4.37755 -3.83225 0
M  V30 3784 H 360.197 5.19867 -5.87118 0
M  V30 3785 N 357.7 0.491464 1.49741 0
M  V30 3786 C 358.61 -0.296835 2.32715 0
M  V30 3787 C 359.626 -0.976536 1.44013 0
M  V30 3788 O 360.802 -0.960023 1.77047 0
M  V30 3789 C 357.867 -1.35288 3.19215 0
M  V30 3790 C 356.928 -0.687632 4.23757 0
M  V30 3791 C 356.161 -1.69336 5.06123 0
M  V30 3792 O 356.384 -2.92219 4.89861 0
M  V30 3793 O 355.318 -1.25394 5.88693 0
M  V30 3794 H 359.144 0.382048 3.01287 0
M  V30 3795 H 356.729 0.252953 1.47243 0
M  V30 3796 H 358.611 -1.96411 3.72828 0
M  V30 3797 H 357.286 -2.01487 2.53347 0
M  V30 3798 H 356.193 -0.0369159 3.74082 0
M  V30 3799 H 357.526 -0.0682566 4.92153 0
M  V30 3800 N 359.178 -1.55987 0.224894 0
M  V30 3801 C 360.408 -2.02489 -0.41007 0
M  V30 3802 C 360.816 -1.10391 -1.53657 0
M  V30 3803 O 360.159 -0.106458 -1.83391 0
M  V30 3804 C 360.221 -3.45319 -0.999757 0
M  V30 3805 C 359.885 -4.56999 -0.00827976 0
M  V30 3806 C 360.882 -5.13812 0.793314 0
M  V30 3807 C 358.567 -5.02176 0.111442 0
M  V30 3808 C 360.561 -6.14276 1.7013 0
M  V30 3809 C 358.248 -6.02477 1.02296 0
M  V30 3810 C 359.246 -6.58403 1.81643 0
M  V30 3811 O 358.934 -7.56751 2.71262 0
M  V30 3812 H 358.666 -0.667915 -0.104235 0
M  V30 3813 H 361.22 -2.0257 0.339782 0
M  V30 3814 H 359.45 -3.42318 -1.79876 0
M  V30 3815 H 361.139 -3.7545 -1.54248 0
M  V30 3816 H 361.905 -4.79756 0.711288 0
M  V30 3817 H 357.784 -4.58323 -0.49605 0
M  V30 3818 H 361.328 -6.57854 2.32107 0
M  V30 3819 H 357.225 -6.35954 1.10599 0
M  V30 3820 H 357.993 -7.74286 2.65375 0
M  V30 3821 N 360.656 0.0484629 -1.57525 0
M  V30 3822 C 361.902 0.744226 -1.88651 0
M  V30 3823 C 362.235 1.76029 -0.820212 0
M  V30 3824 O 361.51 1.93782 0.166985 0
M  V30 3825 C 361.793 1.43128 -3.30434 0
M  V30 3826 C 361.646 0.43005 -4.47739 0
M  V30 3827 C 362.965 2.37031 -3.70816 0
M  V30 3828 H 360.084 0.269089 -0.68612 0
M  V30 3829 H 362.726 0.00713532 -1.89999 0
M  V30 3830 H 360.876 2.05956 -3.29415 0
M  V30 3831 H 362.548 -0.194816 -4.60888 0
M  V30 3832 H 360.791 -0.252522 -4.33064 0
M  V30 3833 H 361.462 0.948874 -5.43783 0
M  V30 3834 H 363.938 1.84263 -3.73077 0
M  V30 3835 H 362.814 2.82094 -4.70865 0
M  V30 3836 H 363.075 3.22864 -3.02012 0
M  V30 3837 N 362.134 1.5431 0.320358 0
M  V30 3838 C 363.545 1.63872 0.894594 0
M  V30 3839 C 363.896 0.534847 1.88769 0
M  V30 3840 O 363.021 -0.331732 2.13842 0
M  V30 3841 C 363.616 2.97049 1.62934 0
M  V30 3842 C 362.175 3.08796 2.15226 0
M  V30 3843 C 361.322 2.59456 0.978671 0
M  V30 3844 H 364.273 1.58398 0.0978544 0
M  V30 3845 H 364.294 2.87388 2.49376 0
M  V30 3846 H 363.806 3.7737 0.906302 0
M  V30 3847 H 361.907 2.33156 2.90636 0
M  V30 3848 H 362.02 4.14649 2.40006 0
M  V30 3849 H 360.384 2.1543 1.35875 0
M  V30 3850 H 361.167 3.42237 0.269895 0
M  V30 3851 N 363.613 -0.582584 1.46437 0
M  V30 3852 C 364.543 -1.70187 1.59871 0
M  V30 3853 C 365.524 -1.64066 0.449042 0
M  V30 3854 O 366.709 -1.82081 0.6753 0
M  V30 3855 C 363.839 -3.08827 1.58881 0
M  V30 3856 C 362.793 -3.29779 2.72819 0
M  V30 3857 C 362.119 -4.68947 2.5689 0
M  V30 3858 C 363.419 -3.17601 4.1464 0
M  V30 3859 H 365.113 -1.592 2.53566 0
M  V30 3860 H 362.659 -0.764472 1.22032 0
M  V30 3861 H 364.612 -3.86951 1.66873 0
M  V30 3862 H 363.336 -3.20713 0.617306 0
M  V30 3863 H 361.995 -2.54054 2.64296 0
M  V30 3864 H 361.643 -4.77599 1.57823 0
M  V30 3865 H 361.343 -4.83919 3.33312 0
M  V30 3866 H 362.867 -5.4924 2.66773 0
M  V30 3867 H 364.281 -3.8557 4.24274 0
M  V30 3868 H 362.678 -3.44094 4.9165 0
M  V30 3869 H 363.748 -2.14681 4.34788 0
M  V30 3870 N 365.091 -1.34144 -0.827227 0
M  V30 3871 C 366.339 -1.26009 -1.58007 0
M  V30 3872 C 366.66 0.170971 -1.94249 0
M  V30 3873 O 365.93 1.10256 -1.61927 0
M  V30 3874 H 364.51 -0.463414 -0.585881 0
M  V30 3875 H 367.172 -1.68005 -0.987951 0
M  V30 3876 H 366.268 -1.86187 -2.50481 0
M  V30 3877 N 366.569 1.04691 -1.17803 0
M  V30 3878 C 367.98 1.59238 -0.974689 0
M  V30 3879 C 368.331 1.90306 0.477292 0
M  V30 3880 O 367.456 1.68846 1.35352 0
M  V30 3881 C 368.051 2.89318 -1.76296 0
M  V30 3882 C 366.61 3.40506 -1.60414 0
M  V30 3883 C 365.757 2.14172 -1.76141 0
M  V30 3884 H 368.708 0.874395 -1.32439 0
M  V30 3885 H 368.729 3.5944 -1.24833 0
M  V30 3886 H 368.241 2.66675 -2.81968 0
M  V30 3887 H 366.342 3.68175 -0.572519 0
M  V30 3888 H 366.455 4.14753 -2.39827 0
M  V30 3889 H 364.819 2.25176 -1.19028 0
M  V30 3890 H 365.602 1.93992 -2.83235 0
M  V30 3891 N 368.047 0.979072 1.23499 0
M  V30 3892 C 369.294 0.647219 1.91878 0
M  V30 3893 C 369.622 -0.819074 1.76413 0
M  V30 3894 O 368.877 -1.60616 1.11808 0
M  V30 3895 C 369.176 0.981932 3.43646 0
M  V30 3896 C 368.842 2.43822 3.79291 0
M  V30 3897 C 367.504 2.83622 3.88731 0
M  V30 3898 C 369.856 3.3828 3.96505 0
M  V30 3899 C 367.184 4.16897 4.12812 0
M  V30 3900 C 369.536 4.71197 4.22085 0
M  V30 3901 C 368.2 5.10758 4.29747 0
M  V30 3902 H 367.47 0.236834 0.702133 0
M  V30 3903 H 370.117 1.23268 1.46551 0
M  V30 3904 H 368.422 0.314365 3.90537 0
M  V30 3905 H 370.119 0.703395 3.94783 0
M  V30 3906 H 366.709 2.11966 3.72516 0
M  V30 3907 H 370.893 3.0871 3.88603 0
M  V30 3908 H 366.149 4.47157 4.16966 0
M  V30 3909 H 370.323 5.44348 4.34348 0
M  V30 3910 H 367.95 6.1405 4.48159 0
M  V30 3911 N 369.525 -1.3858 0.750561 0
M  V30 3912 C 370.455 -2.33102 0.136237 0
M  V30 3913 C 371.436 -1.54713 -0.706965 0
M  V30 3914 O 372.621 -1.83043 -0.648769 0
M  V30 3915 C 369.751 -3.38882 -0.760017 0
M  V30 3916 C 368.705 -4.27995 -0.0197785 0
M  V30 3917 C 368.031 -5.24605 -1.03408 0
M  V30 3918 C 369.331 -5.09554 1.14684 0
M  V30 3919 H 371.025 -2.84726 0.925822 0
M  V30 3920 H 368.571 -1.36898 0.446654 0
M  V30 3921 H 370.524 -4.0397 -1.19943 0
M  V30 3922 H 369.248 -2.85734 -1.58189 0
M  V30 3923 H 367.907 -3.64409 0.400184 0
M  V30 3924 H 367.555 -4.67746 -1.84994 0
M  V30 3925 H 367.255 -5.85081 -0.543464 0
M  V30 3926 H 368.779 -5.9257 -1.47288 0
M  V30 3927 H 370.193 -5.67899 0.785118 0
M  V30 3928 H 368.59 -5.7925 1.56812 0
M  V30 3929 H 369.66 -4.4347 1.96118 0
M  V30 3930 N 371.003 -0.499398 -1.49478 0
M  V30 3931 C 372.251 0.0455996 -2.02049 0
M  V30 3932 C 372.572 1.37633 -1.38138 0
M  V30 3933 O 371.842 1.8842 -0.536166 0
M  V30 3934 H 370.422 0.0198416 -0.746736 0
M  V30 3935 H 373.084 -0.656274 -1.83519 0
M  V30 3936 H 372.18 0.176445 -3.11601 0
M  V30 3937 N 372.481 1.55866 -0.233164 0
M  V30 3938 C 373.428 2.20796 0.67215 0
M  V30 3939 C 374.398 1.16731 1.18166 0
M  V30 3940 O 375.583 1.45129 1.23864 0
M  V30 3941 C 372.723 2.90072 1.86955 0
M  V30 3942 C 371.836 4.08759 1.39786 0
M  V30 3943 C 370.971 4.65787 2.55374 0
M  V30 3944 C 370.01 5.76752 2.04998 0
M  V30 3945 N 369.147 6.28021 3.13901 0
M  V30 3946 H 373.987 2.9779 0.111749 0
M  V30 3947 H 371.524 1.47036 0.0434007 0
M  V30 3948 H 373.482 3.28428 2.57276 0
M  V30 3949 H 372.112 2.15575 2.40265 0
M  V30 3950 H 371.164 3.7581 0.589173 0
M  V30 3951 H 372.476 4.88906 0.98856 0
M  V30 3952 H 371.63 5.06646 3.33758 0
M  V30 3953 H 370.369 3.84828 2.99598 0
M  V30 3954 H 369.374 5.35383 1.25079 0
M  V30 3955 H 370.599 6.59553 1.61759 0
M  V30 3956 H 368.545 5.49971 3.57586 0
M  V30 3957 H 368.462 7.03323 2.7726 0
M  V30 3958 H 369.73 6.73538 3.92386 0
M  V30 3959 N 373.959 -0.0401083 1.57549 0
M  V30 3960 C 375.184 -0.748931 1.93406 0
M  V30 3961 C 375.609 -1.68686 0.832274 0
M  V30 3962 O 374.967 -1.80047 -0.212818 0
M  V30 3963 C 375.015 -1.4916 3.28304 0
M  V30 3964 O 374.119 -2.6042 3.19774 0
M  V30 3965 H 373.46 -0.202212 0.63246 0
M  V30 3966 H 375.99 0.00112086 2.046 0
M  V30 3967 H 376 -1.86395 3.62934 0
M  V30 3968 H 374.675 -0.80364 4.08062 0
M  V30 3969 H 373.252 -2.25808 2.96758 0
M  V30 3970 N 375.437 -1.54477 -0.31217 0
M  V30 3971 C 376.684 -1.73227 -1.04875 0
M  V30 3972 C 377.012 -0.512042 -1.87639 0
M  V30 3973 O 376.267 0.506131 -1.89042 0
M  V30 3974 C 376.566 -2.967 -1.99258 0
M  V30 3975 C 376.232 -4.30974 -1.32559 0
M  V30 3976 C 374.894 -4.67477 -1.141 0
M  V30 3977 C 377.246 -5.14258 -0.847835 0
M  V30 3978 C 374.574 -5.84852 -0.465326 0
M  V30 3979 C 376.926 -6.32327 -0.185931 0
M  V30 3980 C 375.59 -6.67499 0.0107077 0
M  V30 3981 H 374.86 -0.633881 -0.383765 0
M  V30 3982 H 377.507 -1.88727 -0.324731 0
M  V30 3983 H 375.812 -2.75935 -2.7815 0
M  V30 3984 H 377.509 -3.08401 -2.563 0
M  V30 3985 H 374.099 -4.02262 -1.4793 0
M  V30 3986 H 378.283 -4.86565 -0.978192 0
M  V30 3987 H 373.539 -6.10654 -0.301883 0
M  V30 3988 H 377.713 -6.96135 0.192211 0
M  V30 3989 H 375.34 -7.58306 0.536287 0
M  V30 3990 N 376.915 0.57481 -1.46744 0
M  V30 3991 C 378.163 1.33009 -1.52161 0
M  V30 3992 C 378.484 1.94185 -0.178092 0
M  V30 3993 O 377.754 1.7899 0.796196 0
M  V30 3994 H 376.334 0.493873 -0.560445 0
M  V30 3995 H 378.996 0.672589 -1.82927 0
M  V30 3996 H 378.092 2.13273 -2.27862 0
M  V30 3997 N 378.394 1.34581 0.820102 0
M  V30 3998 C 379.622 1.3018 1.60813 0
M  V30 3999 C 380.037 -0.123551 1.88395 0
M  V30 4000 O 379.394 -1.07148 1.47735 0
M  V30 4001 C 379.445 2.09312 2.94739 0
M  V30 4002 O 379.166 3.46288 2.68358 0
M  V30 4003 C 380.667 2.1234 3.89136 0
M  V30 4004 H 377.887 0.447726 0.499782 0
M  V30 4005 H 380.431 1.77237 1.02017 0
M  V30 4006 H 378.586 1.65889 3.50085 0
M  V30 4007 H 379 3.87227 3.53774 0
M  V30 4008 H 380.474 2.72126 4.80262 0
M  V30 4009 H 380.951 1.11854 4.24718 0
M  V30 4010 H 381.557 2.55864 3.39726 0
M  V30 4011 N 379.872 -1.04064 1.18357 0
M  V30 4012 C 381.1 -1.80916 1.00384 0
M  V30 4013 C 381.515 -1.83414 -0.447738 0
M  V30 4014 O 380.872 -1.26962 -1.31099 0
M  V30 4015 C 380.923 -3.26516 1.55144 0
M  V30 4016 O 380.644 -3.2424 2.94618 0
M  V30 4017 C 382.145 -4.20013 1.41789 0
M  V30 4018 H 379.365 -0.569728 0.354474 0
M  V30 4019 H 381.909 -1.31151 1.56906 0
M  V30 4020 H 380.064 -3.73512 1.02798 0
M  V30 4021 H 380.478 -4.15452 3.20156 0
M  V30 4022 H 381.952 -5.20111 1.84901 0
M  V30 4023 H 382.429 -4.37667 0.36661 0
M  V30 4024 H 383.035 -3.78881 1.93207 0
M  V30 4025 N 381.35 -0.985608 -1.22978 0
M  V30 4026 C 382.596 -0.65836 -1.91816 0
M  V30 4027 C 382.929 0.806692 -1.76653 0
M  V30 4028 O 382.204 1.58252 -1.13078 0
M  V30 4029 C 382.487 -1.056 -3.44268 0
M  V30 4030 C 382.34 -2.57906 -3.68516 0
M  V30 4031 C 383.659 -0.603781 -4.35939 0
M  V30 4032 H 380.778 -0.24065 -0.696604 0
M  V30 4033 H 383.42 -1.22783 -1.44998 0
M  V30 4034 H 381.57 -0.571445 -3.84274 0
M  V30 4035 H 383.242 -3.13976 -3.3796 0
M  V30 4036 H 381.485 -3.00305 -3.13048 0
M  V30 4037 H 382.156 -2.80779 -4.75255 0
M  V30 4038 H 384.632 -1.01987 -4.03408 0
M  V30 4039 H 383.508 -0.910383 -5.41298 0
M  V30 4040 H 383.769 0.495761 -4.39312 0
M  V30 4041 N 382.828 1.3818 -0.7579 0
M  V30 4042 C 384.053 2.04827 -0.325679 0
M  V30 4043 C 384.478 1.56788 1.03919 0
M  V30 4044 O 383.836 0.721811 1.66312 0
M  V30 4045 C 383.884 3.58774 -0.362447 0
M  V30 4046 O 382.988 4.07372 0.642033 0
M  V30 4047 H 382.329 0.64833 -0.143402 0
M  V30 4048 H 384.859 1.7677 -1.03023 0
M  V30 4049 H 384.869 4.07434 -0.214844 0
M  V30 4050 H 383.544 3.93096 -1.35824 0
M  V30 4051 H 382.121 3.70068 0.458688 0
M  V30 4052 N 384.306 0.507319 1.49211 0
M  V30 4053 C 385.717 0.0611118 1.866 0
M  V30 4054 C 386.068 -1.35488 1.41907 0
M  V30 4055 O 385.193 -2.0108 0.799726 0
M  V30 4056 C 385.788 0.104125 3.3864 0
M  V30 4057 C 384.347 -0.28677 3.75306 0
M  V30 4058 C 383.494 0.473893 2.73221 0
M  V30 4059 H 386.445 0.719775 1.41439 0
M  V30 4060 H 386.466 -0.689672 3.74198 0
M  V30 4061 H 385.978 1.13482 3.71138 0
M  V30 4062 H 384.079 -1.32046 3.48417 0
M  V30 4063 H 384.192 0.0370745 4.79086 0
M  V30 4064 H 382.556 -0.0770644 2.54583 0
M  V30 4065 H 383.339 1.50478 3.08563 0
M  V30 4066 N 385.784 -1.5574 0.241426 0
M  V30 4067 C 387.03 -1.99846 -0.378555 0
M  V30 4068 C 387.385 -1.12665 -1.55963 0
M  V30 4069 O 386.678 -0.180966 -1.90743 0
M  V30 4070 C 386.872 -3.47308 -0.843317 0
M  V30 4071 C 386.701 -4.48756 0.291178 0
M  V30 4072 C 385.471 -4.9949 0.764077 0
M  V30 4073 C 387.669 -5.02039 1.11631 0
M  V30 4074 N 385.651 -5.84676 1.87156 0
M  V30 4075 C 387.022 -5.84343 2.07226 0
M  V30 4076 C 389.077 -4.84354 1.15349 0
M  V30 4077 C 387.78 -6.50851 3.06245 0
M  V30 4078 C 389.806 -5.51636 2.13195 0
M  V30 4079 C 389.168 -6.33724 3.07528 0
M  V30 4080 H 385.267 -0.774968 -0.104634 0
M  V30 4081 H 387.851 -1.91385 0.357751 0
M  V30 4082 H 386.022 -3.56178 -1.54893 0
M  V30 4083 H 387.754 -3.78299 -1.43779 0
M  V30 4084 H 384.509 -4.72311 0.349175 0
M  V30 4085 H 384.933 -6.31967 2.42789 0
M  V30 4086 H 389.575 -4.20525 0.438057 0
M  V30 4087 H 387.293 -7.1385 3.78739 0
M  V30 4088 H 390.879 -5.39909 2.16771 0
M  V30 4089 H 389.759 -6.84867 3.82003 0
M  V30 4090 N 387.262 0.0317525 -1.57568 0
M  V30 4091 C 388.508 0.724175 -1.8943 0
M  V30 4092 C 388.841 1.75149 -0.838836 0
M  V30 4093 O 388.116 1.93948 0.146422 0
M  V30 4094 C 388.399 1.39615 -3.31933 0
M  V30 4095 C 388.252 0.382537 -4.4817 0
M  V30 4096 C 389.571 2.33084 -3.73309 0
M  V30 4097 H 386.69 0.261797 -0.688935 0
M  V30 4098 H 389.332 -0.013017 -1.89996 0
M  V30 4099 H 387.482 2.02451 -3.31581 0
M  V30 4100 H 389.154 -0.243689 -4.60656 0
M  V30 4101 H 387.397 -0.29844 -4.32772 0
M  V30 4102 H 388.068 0.891145 -5.44759 0
M  V30 4103 H 390.544 1.80295 -3.7501 0
M  V30 4104 H 389.42 2.77084 -4.73831 0
M  V30 4105 H 389.681 3.19643 -3.05419 0
M  V30 4106 N 388.74 1.54641 0.303973 0
M  V30 4107 C 389.986 1.74038 1.04109 0
M  V30 4108 C 390.319 0.523051 1.87024 0
M  V30 4109 O 389.594 -0.479874 1.88487 0
M  V30 4110 C 389.877 3.02761 1.94955 0
M  V30 4111 C 389.73 4.34787 1.1524 0
M  V30 4112 C 391.049 3.27336 2.94175 0
M  V30 4113 H 388.168 0.63323 0.377079 0
M  V30 4114 H 390.81 1.87354 0.316001 0
M  V30 4115 H 388.96 2.9154 2.56782 0
M  V30 4116 H 390.632 4.57922 0.557236 0
M  V30 4117 H 388.875 4.31407 0.455053 0
M  V30 4118 H 389.546 5.21116 1.8205 0
M  V30 4119 H 392.022 3.38148 2.42477 0
M  V30 4120 H 390.898 4.18726 3.54908 0
M  V30 4121 H 391.159 2.45491 3.67677 0
M  V30 4122 N 390.218 -0.567019 1.47046 0
M  V30 4123 C 391.629 -1.14916 1.47143 0
M  V30 4124 C 391.98 -1.94954 0.220767 0
M  V30 4125 O 391.105 -2.05602 -0.67505 0
M  V30 4126 C 391.7 -2.09069 2.666 0
M  V30 4127 C 390.259 -2.62575 2.69687 0
M  V30 4128 C 389.406 -1.38755 2.40088 0
M  V30 4129 H 392.357 -0.354126 1.54699 0
M  V30 4130 H 392.378 -2.92789 2.43011 0
M  V30 4131 H 391.89 -1.50789 3.57609 0
M  V30 4132 H 389.991 -3.24681 1.82792 0
M  V30 4133 H 390.104 -3.04239 3.70102 0
M  V30 4134 H 388.468 -1.69098 1.90468 0
M  V30 4135 H 389.251 -0.822822 3.33293 0
M  V30 4136 N 391.696 -1.35014 -0.812953 0
M  V30 4137 C 392.629 -1.21761 -1.93001 0
M  V30 4138 C 393.607 -0.10694 -1.62248 0
M  V30 4139 O 394.791 -0.273891 -1.865 0
M  V30 4140 C 391.918 -0.873404 -3.27245 0
M  V30 4141 C 390.964 -1.99523 -3.76952 0
M  V30 4142 S 391.797 -3.61009 -3.95516 0
M  V30 4143 C 392.953 -3.28651 -5.32672 0
M  V30 4144 H 393.186 -2.16315 -2.03948 0
M  V30 4145 H 390.719 -1.20156 -0.969631 0
M  V30 4146 H 392.677 -0.68161 -4.04802 0
M  V30 4147 H 391.338 0.053971 -3.14054 0
M  V30 4148 H 390.531 -1.70838 -4.74163 0
M  V30 4149 H 390.133 -2.14503 -3.06373 0
M  V30 4150 H 392.425 -2.81085 -6.1644 0
M  V30 4151 H 393.368 -4.25039 -5.66346 0
M  V30 4152 H 393.776 -2.6458 -4.98656 0
M  V30 4153 N 393.175 1.03435 -1.18907 0
M  V30 4154 C 394.452 1.73778 -0.89781 0
M  V30 4155 C 394.832 2.02458 0.597832 0
M  V30 4156 O 394.18 1.67482 1.55441 0
M  V30 4157 C 394.39 3.01845 -1.75187 0
M  V30 4158 C 395.738 3.7546 -1.9828 0
M  V30 4159 O 396.762 3.11759 -1.72293 0
M  V30 4160 O 395.621 4.89966 -2.42065 0
M  V30 4161 H 392.715 0.75651 -0.334098 0
M  V30 4162 H 395.261 1.09444 -1.29693 0
M  V30 4163 H 394.033 2.76836 -2.76545 0
M  V30 4164 H 393.656 3.73919 -1.35167 0
M  V30 4165 N 394.653 0.992116 1.22453 0
M  V30 4166 C 395.616 0.546883 2.2258 0
M  V30 4167 C 396.616 -0.369829 1.56489 0
M  V30 4168 O 397.806 -0.161896 1.73446 0
M  V30 4169 C 394.938 -0.204659 3.40285 0
M  V30 4170 H 396.131 1.43234 2.63484 0
M  V30 4171 H 393.684 0.779239 1.3549 0
M  V30 4172 H 394.419 -1.10614 3.04853 0
M  V30 4173 H 394.204 0.45354 3.89468 0
M  V30 4174 H 395.694 -0.504358 4.14543 0
M  V30 4175 N 396.131 -1.37776 0.765217 0
M  V30 4176 C 397.061 -2.32945 0.160953 0
M  V30 4177 C 398.042 -1.55454 -0.690516 0
M  V30 4178 O 399.227 -1.83721 -0.629318 0
M  V30 4179 C 396.357 -3.39669 -0.724031 0
M  V30 4180 C 395.311 -4.27992 0.0256173 0
M  V30 4181 C 394.637 -5.25673 -0.978383 0
M  V30 4182 C 395.937 -5.08309 1.20082 0
M  V30 4183 H 397.631 -2.83728 0.955969 0
M  V30 4184 H 395.177 -1.36416 0.461149 0
M  V30 4185 H 397.13 -4.05219 -1.15652 0
M  V30 4186 H 395.854 -2.87396 -1.5515 0
M  V30 4187 H 394.513 -3.63964 0.438812 0
M  V30 4188 H 394.161 -4.69682 -1.80022 0
M  V30 4189 H 393.861 -5.85625 -0.481378 0
M  V30 4190 H 395.385 -5.94098 -1.40995 0
M  V30 4191 H 396.799 -5.67034 0.845307 0
M  V30 4192 H 395.196 -5.77554 1.62947 0
M  V30 4193 H 396.266 -4.41365 2.00811 0
M  V30 4194 N 397.609 -0.515225 -1.4894 0
M  V30 4195 C 398.542 0.302518 -2.26186 0
M  V30 4196 C 399.52 0.957895 -1.31389 0
M  V30 4197 O 400.704 0.985198 -1.60705 0
M  V30 4198 C 397.831 1.42719 -3.07163 0
M  V30 4199 C 396.877 0.884736 -4.17223 0
M  V30 4200 S 397.71 -0.235767 -5.34981 0
M  V30 4201 C 398.866 0.891731 -6.19515 0
M  V30 4202 H 399.099 -0.353076 -2.95196 0
M  V30 4203 H 396.632 -0.300753 -1.51443 0
M  V30 4204 H 398.59 2.07152 -3.54398 0
M  V30 4205 H 397.251 2.05445 -2.37595 0
M  V30 4206 H 396.444 1.72801 -4.73451 0
M  V30 4207 H 396.046 0.317362 -3.72651 0
M  V30 4208 H 398.338 1.79377 -6.53322 0
M  V30 4209 H 399.281 0.367751 -7.07144 0
M  V30 4210 H 399.689 1.16548 -5.52338 0
M  V30 4211 N 399.087 1.5561 -0.249682 0
M  V30 4212 C 400.498 1.84979 0.252949 0
M  V30 4213 C 400.849 1.17153 1.57384 0
M  V30 4214 O 399.974 0.450884 2.11651 0
M  V30 4215 C 400.569 3.35584 0.465732 0
M  V30 4216 C 399.128 3.65169 0.912624 0
M  V30 4217 C 398.275 2.77299 -0.00859085 0
M  V30 4218 H 401.226 1.51513 -0.47217 0
M  V30 4219 H 401.247 3.57313 1.30795 0
M  V30 4220 H 400.759 3.8492 -0.49579 0
M  V30 4221 H 398.86 3.21312 1.88652 0
M  V30 4222 H 398.973 4.72912 0.767559 0
M  V30 4223 H 397.337 2.49678 0.50327 0
M  V30 4224 H 398.12 3.29442 -0.965537 0
M  V30 4225 N 400.565 -0.0233959 1.57583 0
M  V30 4226 C 401.812 -0.713063 1.8953 0
M  V30 4227 C 402.14 -1.75056 0.847673 0
M  V30 4228 O 401.395 -1.95119 -0.150636 0
M  V30 4229 C 401.694 -1.41428 3.28227 0
M  V30 4230 C 401.36 -0.512222 4.47981 0
M  V30 4231 C 400.022 -0.263785 4.80476 0
M  V30 4232 C 402.374 0.110248 5.21083 0
M  V30 4233 C 399.702 0.615804 5.83459 0
M  V30 4234 C 402.054 0.977573 6.25001 0
M  V30 4235 C 400.718 1.23542 6.55968 0
M  V30 4236 H 399.988 -0.260928 0.69354 0
M  V30 4237 H 402.635 0.0271047 1.91481 0
M  V30 4238 H 400.94 -2.22791 3.22291 0
M  V30 4239 H 402.637 -1.95355 3.50196 0
M  V30 4240 H 399.227 -0.716013 4.22577 0
M  V30 4241 H 403.411 -0.0687137 4.96252 0
M  V30 4242 H 398.667 0.82382 6.05824 0
M  V30 4243 H 402.841 1.46638 6.80786 0
M  V30 4244 H 400.468 1.91871 7.35588 0
M  V30 4245 N 402.043 -1.548 -0.295768 0
M  V30 4246 C 403.006 -1.85363 -1.34808 0
M  V30 4247 C 404.006 -0.726817 -1.43436 0
M  V30 4248 O 405.196 -0.995088 -1.42981 0
M  V30 4249 C 402.328 -2.03859 -2.73229 0
M  V30 4250 H 403.521 -2.7941 -1.08949 0
M  V30 4251 H 401.074 -1.46942 -0.532702 0
M  V30 4252 H 401.809 -1.12117 -3.04303 0
M  V30 4253 H 401.594 -2.8588 -2.68356 0
M  V30 4254 H 403.084 -2.28857 -3.49305 0
M  V30 4255 N 403.521 0.559213 -1.47345 0
M  V30 4256 C 404.767 1.31843 -1.54095 0
M  V30 4257 C 405.1 1.93149 -0.201726 0
M  V30 4258 O 404.375 1.77759 0.789428 0
M  V30 4259 C 404.658 2.43006 -2.65744 0
M  V30 4260 C 404.511 1.86581 -4.09277 0
M  V30 4261 C 405.83 3.44943 -2.73318 0
M  V30 4262 H 402.949 0.478012 -0.560957 0
M  V30 4263 H 405.591 0.625977 -1.79392 0
M  V30 4264 H 403.741 3.02072 -2.44305 0
M  V30 4265 H 405.413 1.31792 -4.42073 0
M  V30 4266 H 403.656 1.17268 -4.17649 0
M  V30 4267 H 404.327 2.66933 -4.83168 0
M  V30 4268 H 406.803 2.95793 -2.92653 0
M  V30 4269 H 405.679 4.20153 -3.53218 0
M  V30 4270 H 405.94 4.03665 -1.80296 0
M  V30 4271 N 404.999 1.35443 0.805782 0
M  V30 4272 C 406.41 1.25768 1.37983 0
M  V30 4273 C 406.761 -0.10958 1.95894 0
M  V30 4274 O 405.886 -1.01056 1.91355 0
M  V30 4275 C 406.481 2.27727 2.5085 0
M  V30 4276 C 405.04 2.2179 3.04115 0
M  V30 4277 C 404.187 2.13393 1.77084 0
M  V30 4278 H 407.138 1.4656 0.608752 0
M  V30 4279 H 407.159 1.90422 3.29424 0
M  V30 4280 H 406.671 3.27227 2.08671 0
M  V30 4281 H 404.772 1.25703 3.50756 0
M  V30 4282 H 404.885 3.13788 3.62042 0
M  V30 4283 H 403.249 1.59384 1.98668 0
M  V30 4284 H 404.032 3.14755 1.37056 0
M  V30 4285 N 406.477 -1.02803 1.19454 0
M  V30 4286 C 407.425 -2.13213 0.929673 0
M  V30 4287 C 408.419 -1.69011 -0.114806 0
M  V30 4288 O 409.625 -1.79967 0.0345147 0
M  V30 4289 H 406 -0.69662 0.28324 0
M  V30 4290 H 407.971 -2.32744 1.86743 0
M  V30 4291 C 406.72 -3.4429 0.485797 0
M  V30 4292 H 406.043 -3.7872 1.28105 0
M  V30 4293 H 407.483 -4.22638 0.339582 0
M  V30 4294 C 405.942 -3.27258 -0.800244 0
M  V30 4295 O 406.472 -3.55967 -1.86146 0
M  V30 4296 N 404.678 -2.80545 -0.75781 0
M  V30 4297 H 404.225 -2.57382 0.106039 0
M  V30 4298 H 404.183 -2.6953 -1.61867 0
M  V30 4299 N 407.956 -0.998596 -1.21925 0
M  V30 4300 C 409.367 -0.711939 -1.72593 0
M  V30 4301 C 409.718 0.770842 -1.80423 0
M  V30 4302 O 408.843 1.60237 -1.4544 0
M  V30 4303 C 409.438 -1.28567 -3.13458 0
M  V30 4304 C 407.997 -1.04828 -3.61508 0
M  V30 4305 C 407.144 -1.4024 -2.39224 0
M  V30 4306 H 410.095 -1.17027 -1.07193 0
M  V30 4307 H 410.116 -0.667098 -3.74607 0
M  V30 4308 H 409.628 -2.36486 -3.07727 0
M  V30 4309 H 407.729 0.0140383 -3.72597 0
M  V30 4310 H 407.842 -1.71566 -4.47328 0
M  V30 4311 H 406.206 -0.821077 -2.41103 0
M  V30 4312 H 406.989 -2.49176 -2.36149 0
M  V30 4313 N 409.434 1.37368 -0.772513 0
M  V30 4314 C 410.381 2.30262 -0.157488 0
M  V30 4315 C 411.351 1.51137 0.688965 0
M  V30 4316 O 412.536 1.79704 0.641168 0
M  V30 4317 C 409.676 3.37611 0.715045 0
M  V30 4318 C 408.789 4.31746 -0.148098 0
M  V30 4319 C 407.924 5.26171 0.729213 0
M  V30 4320 C 406.963 6.11948 -0.136418 0
M  V30 4321 N 406.1 6.98613 0.698914 0
M  V30 4322 H 410.94 2.82277 -0.955179 0
M  V30 4323 H 408.477 1.38957 -0.482631 0
M  V30 4324 H 410.435 3.98479 1.23575 0
M  V30 4325 H 409.065 2.86959 1.47833 0
M  V30 4326 H 408.117 3.72178 -0.786613 0
M  V30 4327 H 409.429 4.92084 -0.81579 0
M  V30 4328 H 408.583 5.92247 1.31637 0
M  V30 4329 H 407.322 4.66246 1.43059 0
M  V30 4330 H 406.327 5.4485 -0.736102 0
M  V30 4331 H 407.552 6.73945 -0.835134 0
M  V30 4332 H 405.498 6.41215 1.38489 0
M  V30 4333 H 405.415 7.55948 0.0885358 0
M  V30 4334 H 406.683 7.69077 1.27044 0
M  V30 4335 N 410.912 0.523116 1.48665 0
M  V30 4336 C 411.844 -0.280421 2.27478 0
M  V30 4337 C 412.857 -0.910694 1.34945 0
M  V30 4338 O 414.046 -0.790295 1.60052 0
M  V30 4339 C 411.146 -1.41171 3.08097 0
M  V30 4340 C 410.319 -0.884642 4.28361 0
M  V30 4341 C 409.378 -1.89622 4.90846 0
M  V30 4342 O 408.404 -1.4559 5.50265 0
M  V30 4343 N 409.606 -3.22801 4.82472 0
M  V30 4344 H 412.371 0.395481 2.97079 0
M  V30 4345 H 409.932 0.357018 1.57915 0
M  V30 4346 H 411.924 -2.08645 3.4677 0
M  V30 4347 H 410.494 -1.99139 2.40961 0
M  V30 4348 H 409.714 -0.0341177 3.94185 0
M  V30 4349 H 411.002 -0.511268 5.06225 0
M  V30 4350 H 410.4 -3.61246 4.35336 0
M  V30 4351 H 408.957 -3.85927 5.25265 0
M  V30 4352 N 412.39 -1.55475 0.257931 0
M  V30 4353 C 413.667 -1.91155 -0.414629 0
M  V30 4354 C 414.047 -1.18008 -1.75035 0
M  V30 4355 O 413.395 -0.301193 -2.26506 0
M  V30 4356 C 413.605 -3.44283 -0.571859 0
M  V30 4357 C 414.953 -4.15744 -0.862678 0
M  V30 4358 O 415.977 -3.50083 -0.657314 0
M  V30 4359 O 414.836 -5.31909 -1.2544 0
M  V30 4360 H 411.93 -0.796016 -0.22425 0
M  V30 4361 H 414.476 -1.66976 0.302814 0
M  V30 4362 H 413.248 -3.89558 0.368844 0
M  V30 4363 H 412.871 -3.7436 -1.33943 0
M  V30 4364 N 413.868 0.0150385 -1.57593 0
M  V30 4365 C 415.279 0.559832 -1.78109 0
M  V30 4366 C 415.63 1.74814 -0.890756 0
M  V30 4367 O 414.755 2.16216 -0.0892482 0
M  V30 4368 C 415.35 1.02238 -3.23006 0
M  V30 4369 C 413.909 1.51258 -3.44671 0
M  V30 4370 C 413.056 0.456955 -2.73509 0
M  V30 4371 H 416.007 -0.211169 -1.57289 0
M  V30 4372 H 416.028 1.88912 -3.30292 0
M  V30 4373 H 415.54 0.157302 -3.87781 0
M  V30 4374 H 413.641 2.39905 -2.8509 0
M  V30 4375 H 413.754 1.55042 -4.5332 0
M  V30 4376 H 412.118 0.915196 -2.37689 0
M  V30 4377 H 412.901 -0.398896 -3.40975 0
M  V30 4378 N 415.346 1.54954 0.287554 0
M  V30 4379 C 416.762 1.46469 0.633964 0
M  V30 4380 C 416.962 0.666865 1.90145 0
M  V30 4381 O 416.018 0.179906 2.51858 0
M  V30 4382 C 417.331 2.90556 0.774454 0
M  V30 4383 C 418.879 3.00681 0.869462 0
M  V30 4384 C 419.354 4.45993 1.04184 0
M  V30 4385 N 420.845 4.4976 1.10772 0
M  V30 4386 C 421.58 5.59393 1.25964 0
M  V30 4387 N 421.076 6.78923 1.37968 0
M  V30 4388 N 422.869 5.47107 1.28959 0
M  V30 4389 H 415.02 2.05288 -0.545041 0
M  V30 4390 H 417.283 0.930305 -0.182308 0
M  V30 4391 H 416.989 3.51594 -0.086207 0
M  V30 4392 H 416.863 3.38743 1.6593 0
M  V30 4393 H 419.25 2.39749 1.7206 0
M  V30 4394 H 419.331 2.55769 -0.0396831 0
M  V30 4395 H 418.975 5.07524 0.195422 0
M  V30 4396 H 418.905 4.88548 1.96542 0
M  V30 4397 H 421.396 3.63651 1.02794 0
M  V30 4398 H 421.709 7.58231 1.49353 0
M  V30 4399 H 420.054 6.81763 1.34999 0
M  V30 4400 H 423.245 4.52668 1.19202 0
M  V30 4401 H 423.418 6.32595 1.40455 0
M  V30 4402 N 416.824 -0.551391 1.4764 0
M  V30 4403 C 418.235 -1.13349 1.48354 0
M  V30 4404 C 418.586 -1.94709 0.241432 0
M  V30 4405 O 417.711 -2.06306 -0.653205 0
M  V30 4406 C 418.306 -2.0623 2.68802 0
M  V30 4407 C 416.865 -2.597 2.72457 0
M  V30 4408 C 416.012 -1.36201 2.41546 0
M  V30 4409 H 418.963 -0.337698 1.55065 0
M  V30 4410 H 418.984 -2.90196 2.46103 0
M  V30 4411 H 418.496 -1.46987 3.59188 0
M  V30 4412 H 416.597 -3.22724 1.86225 0
M  V30 4413 H 416.71 -3.00296 3.73308 0
M  V30 4414 H 415.074 -1.67068 1.9225 0
M  V30 4415 H 415.857 -0.787425 3.34147 0
M  V30 4416 N 418.302 -1.35869 -0.798587 0
M  V30 4417 C 419.232 -1.32118 -1.92528 0
M  V30 4418 C 420.213 -0.194209 -1.68988 0
M  V30 4419 O 421.398 -0.390426 -1.90235 0
M  V30 4420 C 418.528 -1.10047 -3.29404 0
M  V30 4421 C 417.482 -2.19471 -3.67446 0
M  V30 4422 C 416.808 -1.82555 -5.02571 0
M  V30 4423 C 418.108 -3.61495 -3.76987 0
M  V30 4424 H 419.802 -2.26394 -1.95924 0
M  V30 4425 H 417.348 -1.08981 -0.94123 0
M  V30 4426 H 419.301 -1.06061 -4.07835 0
M  V30 4427 H 418.025 -0.122195 -3.26371 0
M  V30 4428 H 416.684 -2.22568 -2.91306 0
M  V30 4429 H 416.332 -0.833249 -4.9605 0
M  V30 4430 H 416.032 -2.5581 -5.28995 0
M  V30 4431 H 417.556 -1.80108 -5.83432 0
M  V30 4432 H 418.97 -3.60676 -4.4563 0
M  V30 4433 H 417.367 -4.33577 -4.14887 0
M  V30 4434 H 418.437 -3.97065 -2.78329 0
M  V30 4435 N 419.78 1.02168 -1.19998 0
M  V30 4436 C 421.191 1.57135 -1.00825 0
M  V30 4437 C 421.542 1.91276 0.436818 0
M  V30 4438 O 420.667 1.71679 1.3174 0
M  V30 4439 C 421.262 2.85514 -1.82393 0
M  V30 4440 C 419.821 3.37027 -1.67601 0
M  V30 4441 C 418.968 2.10388 -1.80644 0
M  V30 4442 H 421.919 0.846106 -1.34264 0
M  V30 4443 H 421.94 3.56711 -1.32429 0
M  V30 4444 H 421.452 2.60634 -2.87561 0
M  V30 4445 H 419.553 3.66878 -0.650485 0
M  V30 4446 H 419.666 4.09572 -2.4857 0
M  V30 4447 H 418.03 2.22601 -1.23778 0
M  V30 4448 H 418.813 1.8794 -2.87286 0
M  V30 4449 N 421.258 1.00505 1.21394 0
M  V30 4450 C 422.488 0.705584 1.94178 0
M  V30 4451 C 422.896 -0.735846 1.74304 0
M  V30 4452 O 422.239 -1.50954 1.04683 0
M  V30 4453 C 422.301 0.94689 3.46806 0
M  V30 4454 C 421.965 2.37517 3.90429 0
M  V30 4455 C 422.962 3.35539 3.97127 0
M  V30 4456 C 420.647 2.71284 4.22742 0
M  V30 4457 C 422.641 4.65395 4.3553 0
M  V30 4458 C 420.328 4.01356 4.60822 0
M  V30 4459 C 421.326 4.98223 4.67186 0
M  V30 4460 O 421.014 6.25969 5.04399 0
M  V30 4461 H 420.746 0.259216 0.624326 0
M  V30 4462 H 423.3 1.34592 1.55159 0
M  V30 4463 H 421.53 0.249386 3.85895 0
M  V30 4464 H 423.219 0.640804 4.0081 0
M  V30 4465 H 423.985 3.10786 3.7234 0
M  V30 4466 H 419.864 1.96581 4.16985 0
M  V30 4467 H 423.408 5.41002 4.40412 0
M  V30 4468 H 419.305 4.25893 4.85063 0
M  V30 4469 H 420.073 6.30085 5.22431 0
M  V30 4470 N 422.737 -1.36956 0.779787 0
M  V30 4471 C 423.667 -2.32761 0.185651 0
M  V30 4472 C 424.648 -1.56177 -0.673989 0
M  V30 4473 O 425.833 -1.84378 -0.609797 0
M  V30 4474 C 422.963 -3.40418 -0.687964 0
M  V30 4475 C 421.917 -4.27941 0.0710102 0
M  V30 4476 C 421.243 -5.26681 -0.922573 0
M  V30 4477 C 422.543 -5.07006 1.25467 0
M  V30 4478 H 424.237 -2.82698 0.986008 0
M  V30 4479 H 421.783 -1.3592 0.475592 0
M  V30 4480 H 423.736 -4.06423 -1.11348 0
M  V30 4481 H 422.46 -2.89025 -1.52093 0
M  V30 4482 H 421.119 -3.63478 0.47739 0
M  V30 4483 H 420.767 -4.71565 -1.7503 0
M  V30 4484 H 420.467 -5.86103 -0.419237 0
M  V30 4485 H 421.991 -5.9556 -1.34686 0
M  V30 4486 H 423.405 -5.66105 0.905401 0
M  V30 4487 H 421.802 -5.75793 1.69063 0
M  V30 4488 H 422.872 -4.3921 2.05481 0
M  V30 4489 N 424.215 -0.530993 -1.48385 0
M  V30 4490 C 425.455 0.000718982 -2.044 0
M  V30 4491 C 425.819 1.31485 -1.39913 0
M  V30 4492 O 427.02 1.93265 -1.86821 0
M  V30 4493 C 425.291 0.119177 -3.57201 0
M  V30 4494 S 426.85 0.600806 -4.34667 0
M  V30 4495 H 423.668 -0.0125473 -0.710889 0
M  V30 4496 H 426.27 -0.711783 -1.82082 0
M  V30 4497 H 424.974 -0.842061 -4.01668 0
M  V30 4498 H 424.505 0.856026 -3.83974 0
M  V30 4499 H 426.52 1.86514 -4.59812 0
M  V30 4500 N 425.693 1.55336 -0.266172 0
M  V30 4501 C 426.643 2.18848 0.639497 0
M  V30 4502 C 427.627 1.1503 1.12503 0
M  V30 4503 O 428.819 1.40875 1.0716 0
M  V30 4504 C 425.948 2.90626 1.82733 0
M  V30 4505 C 425.034 4.01723 1.35939 0
M  V30 4506 N 425.425 5.02145 0.606988 0
M  V30 4507 C 423.723 4.1463 1.6431 0
M  V30 4508 C 424.424 5.80572 0.362138 0
M  V30 4509 N 423.4 5.35551 0.931971 0
M  V30 4510 H 427.202 2.93845 0.0567057 0
M  V30 4511 H 424.716 1.62252 -0.0693312 0
M  V30 4512 H 426.713 3.34569 2.48735 0
M  V30 4513 H 425.373 2.17137 2.41416 0
M  V30 4514 H 426.384 5.17271 0.255198 0
M  V30 4515 H 423.061 3.52326 2.23993 0
M  V30 4516 H 424.451 6.71472 -0.239848 0
M  V30 4517 N 427.171 -0.0066808 1.57599 0
M  V30 4518 C 428.448 -0.729586 1.81484 0
M  V30 4519 C 428.828 -1.92359 0.869558 0
M  V30 4520 O 428.176 -2.28348 -0.0832533 0
M  V30 4521 C 428.386 -1.1416 3.29801 0
M  V30 4522 C 429.734 -1.54823 3.95367 0
M  V30 4523 O 430.758 -1.23558 3.34084 0
M  V30 4524 O 429.617 -2.12937 5.03309 0
M  V30 4525 H 426.711 -0.354674 0.747085 0
M  V30 4526 H 429.257 0.0182609 1.6969 0
M  V30 4527 H 428.029 -0.290231 3.90222 0
M  V30 4528 H 427.652 -1.94876 3.46568 0
M  V30 4529 N 428.649 -1.55105 -0.279332 0
M  V30 4530 C 429.559 -1.90638 -1.36727 0
M  V30 4531 C 430.575 -0.802899 -1.54368 0
M  V30 4532 O 431.751 -1.10138 -1.68616 0
M  V30 4533 C 428.816 -2.16547 -2.70755 0
M  V30 4534 C 427.877 -3.40146 -2.61915 0
M  V30 4535 C 427.11 -3.6481 -3.8955 0
M  V30 4536 O 427.333 -2.92095 -4.89935 0
M  V30 4537 O 426.267 -4.58343 -3.90135 0
M  V30 4538 H 430.093 -2.83237 -1.09591 0
M  V30 4539 H 427.678 -1.4157 -0.477306 0
M  V30 4540 H 429.56 -2.34665 -3.50014 0
M  V30 4541 H 428.235 -1.27131 -2.9769 0
M  V30 4542 H 427.142 -3.2737 -1.81052 0
M  V30 4543 H 428.475 -4.29761 -2.3993 0
M  V30 4544 N 430.127 0.543554 -1.4793 0
M  V30 4545 C 431.538 1.12561 -1.48953 0
M  V30 4546 C 431.889 1.94578 -0.251754 0
M  V30 4547 O 431.014 2.0665 0.642255 0
M  V30 4548 C 431.609 2.04801 -2.69892 0
M  V30 4549 C 430.168 2.58251 -2.73831 0
M  V30 4550 C 429.315 1.34918 -2.42265 0
M  V30 4551 H 432.266 0.32947 -1.55242 0
M  V30 4552 H 432.287 2.88886 -2.47639 0
M  V30 4553 H 431.799 1.4508 -3.59963 0
M  V30 4554 H 429.9 3.21732 -1.87934 0
M  V30 4555 H 430.013 2.98312 -3.74895 0
M  V30 4556 H 428.377 1.66046 -1.93134 0
M  V30 4557 H 429.16 0.769693 -3.3456 0
M  V30 4558 N 431.605 1.3629 0.791371 0
M  V30 4559 C 432.835 1.33368 1.57786 0
M  V30 4560 C 433.243 -0.0875188 1.88997 0
M  V30 4561 O 432.586 -1.05427 1.50435 0
M  V30 4562 C 432.648 2.08802 2.92646 0
M  V30 4563 C 432.312 3.57903 2.84174 0
M  V30 4564 C 433.309 4.52191 2.56553 0
M  V30 4565 C 430.994 4.00762 3.02812 0
M  V30 4566 C 432.988 5.87315 2.47669 0
M  V30 4567 C 430.675 5.35977 2.93551 0
M  V30 4568 C 431.673 6.29066 2.66017 0
M  V30 4569 O 431.361 7.61798 2.56746 0
M  V30 4570 H 431.093 0.459166 0.496128 0
M  V30 4571 H 433.647 1.79952 0.990269 0
M  V30 4572 H 431.877 1.56878 3.53449 0
M  V30 4573 H 433.566 1.98762 3.53904 0
M  V30 4574 H 434.332 4.20393 2.41858 0
M  V30 4575 H 430.211 3.2868 3.2325 0
M  V30 4576 H 433.755 6.59943 2.26099 0
M  V30 4577 H 429.652 5.67384 3.07808 0
M  V30 4578 H 430.42 7.71898 2.72242 0
M  V30 4579 N 433.083 -1.0153 1.20538 0
M  V30 4580 C 434.311 -1.78746 1.04199 0
M  V30 4581 C 434.726 -1.84323 -0.408733 0
M  V30 4582 O 434.083 -1.29714 -1.28377 0
M  V30 4583 C 434.134 -3.23152 1.62035 0
M  V30 4584 O 433.855 -3.17918 3.0143 0
M  V30 4585 C 435.356 -4.16911 1.50666 0
M  V30 4586 H 432.576 -0.56208 0.366479 0
M  V30 4587 H 435.12 -1.27794 1.59653 0
M  V30 4588 H 433.275 -3.71248 1.10697 0
M  V30 4589 H 433.689 -4.08567 3.28897 0
M  V30 4590 H 435.163 -5.16072 1.95892 0
M  V30 4591 H 435.64 -4.36791 0.459363 0
M  V30 4592 H 436.246 -3.74698 2.01201 0
M  V30 4593 N 434.561 -1.01147 -1.20859 0
M  V30 4594 C 435.808 -0.697865 -1.90095 0
M  V30 4595 C 436.136 0.772014 -1.78522 0
M  V30 4596 O 435.391 1.57595 -1.16027 0
M  V30 4597 C 435.69 -1.0727 -3.40922 0
M  V30 4598 C 435.356 -2.53792 -3.72693 0
M  V30 4599 C 434.018 -2.93829 -3.81075 0
M  V30 4600 C 436.37 -3.48674 -3.87397 0
M  V30 4601 C 433.698 -4.27696 -4.01613 0
M  V30 4602 C 436.05 -4.82223 -4.09444 0
M  V30 4603 C 434.714 -5.21973 -4.16054 0
M  V30 4604 H 433.984 -0.255367 -0.695607 0
M  V30 4605 H 436.631 -1.27111 -1.43231 0
M  V30 4606 H 434.936 -0.417799 -3.89566 0
M  V30 4607 H 436.633 -0.807818 -3.92779 0
M  V30 4608 H 433.223 -2.21768 -3.66765 0
M  V30 4609 H 437.407 -3.18904 -3.80281 0
M  V30 4610 H 432.663 -4.58055 -4.04964 0
M  V30 4611 H 436.837 -5.55672 -4.19763 0
M  V30 4612 H 434.464 -6.25717 -4.31721 0
M  V30 4613 N 436.039 1.36541 -0.78704 0
M  V30 4614 C 437.316 1.9355 -0.282424 0
M  V30 4615 C 437.696 1.71919 1.22503 0
M  V30 4616 O 437.044 1.07677 2.01539 0
M  V30 4617 C 437.254 3.4246 -0.672462 0
M  V30 4618 C 438.602 4.19582 -0.650863 0
M  V30 4619 O 439.626 3.50889 -0.612789 0
M  V30 4620 O 438.485 5.42106 -0.691623 0
M  V30 4621 H 435.579 0.824091 -0.0693 0
M  V30 4622 H 438.125 1.45736 -0.869423 0
M  V30 4623 H 436.897 3.51851 -1.71221 0
M  V30 4624 H 436.52 3.97556 -0.0592211 0
M  V30 4625 N 437.518 0.538854 1.48102 0
M  V30 4626 C 438.767 0.0059532 2.01699 0
M  V30 4627 C 439.08 -1.34476 1.42041 0
M  V30 4628 O 440.286 -1.96653 1.87189 0
M  V30 4629 C 438.742 -0.0397627 3.59878 0
M  V30 4630 C 438.35 1.30659 4.28523 0
M  V30 4631 C 440.094 -0.521024 4.2129 0
M  V30 4632 C 438.001 1.22098 5.78659 0
M  V30 4633 H 436.931 -0.00154456 0.753998 0
M  V30 4634 H 439.582 0.683963 1.70277 0
M  V30 4635 H 437.964 -0.783037 3.88181 0
M  V30 4636 H 439.138 2.06613 4.11883 0
M  V30 4637 H 437.453 1.7243 3.79021 0
M  V30 4638 H 440.05 -0.603184 5.31287 0
M  V30 4639 H 440.393 -1.52885 3.8721 0
M  V30 4640 H 440.926 0.166834 3.9745 0
M  V30 4641 H 437.665 2.20424 6.17328 0
M  V30 4642 H 437.185 0.50295 5.97688 0
M  V30 4643 H 438.864 0.915345 6.40492 0
M  V30 4644 N 438.996 -1.55193 0.274407 0
M  V30 4645 C 439.944 -2.23924 -0.629362 0
M  V30 4646 C 440.938 -1.23602 -1.1584 0
M  V30 4647 O 442.144 -1.41535 -1.11211 0
M  V30 4648 H 438.519 -0.718637 -0.221507 0
M  V30 4649 H 440.49 -2.98388 -0.0268322 0
M  V30 4650 C 439.239 -2.97329 -1.80252 0
M  V30 4651 H 438.562 -3.74313 -1.40462 0
M  V30 4652 H 440.002 -3.48743 -2.41152 0
M  V30 4653 C 438.461 -2.0276 -2.69054 0
M  V30 4654 O 438.991 -1.57836 -3.69392 0
M  V30 4655 N 437.197 -1.69275 -2.36208 0
M  V30 4656 H 436.744 -2.06004 -1.54661 0
M  V30 4657 H 436.702 -1.06271 -2.95895 0
M  V30 4658 N 440.474 -0.00167713 -1.576 0
M  V30 4659 C 441.404 0.988091 -2.11563 0
M  V30 4660 C 442.385 1.35736 -1.02517 0
M  V30 4661 O 443.57 1.44082 -1.30208 0
M  V30 4662 C 440.7 2.27941 -2.62031 0
M  V30 4663 C 439.654 2.0517 -3.75619 0
M  V30 4664 C 438.98 3.4033 -4.12407 0
M  V30 4665 C 440.28 1.41294 -5.02825 0
M  V30 4666 H 441.974 0.538771 -2.94513 0
M  V30 4667 H 439.52 0.257712 -1.41675 0
M  V30 4668 H 441.473 2.97539 -2.9841 0
M  V30 4669 H 440.197 2.74989 -1.76205 0
M  V30 4670 H 438.856 1.37998 -3.39635 0
M  V30 4671 H 438.504 3.85085 -3.23603 0
M  V30 4672 H 438.204 3.25909 -4.88935 0
M  V30 4673 H 439.728 4.1124 -4.51347 0
M  V30 4674 H 441.142 2.00851 -5.36965 0
M  V30 4675 H 439.539 1.37356 -5.84169 0
M  V30 4676 H 440.609 0.382362 -4.8339 0
M  V30 4677 N 441.952 1.55251 0.271103 0
M  V30 4678 C 443.177 1.80306 1.02491 0
M  V30 4679 C 443.602 0.575457 1.79081 0
M  V30 4680 O 442.96 -0.474987 1.74967 0
M  V30 4681 C 443.008 3.02832 1.95768 0
M  V30 4682 O 442.112 2.78051 3.04568 0
M  V30 4683 H 441.453 0.595896 0.292923 0
M  V30 4684 H 443.983 2.02397 0.299436 0
M  V30 4685 H 443.993 3.31616 2.37686 0
M  V30 4686 H 442.668 3.9183 1.39434 0
M  V30 4687 H 441.245 2.60369 2.66951 0
M  V30 4688 N 443.43 -0.535701 1.48216 0
M  V30 4689 C 444.676 -1.29375 1.56173 0
M  V30 4690 C 445.009 -1.92804 0.232429 0
M  V30 4691 O 444.284 -1.78992 -0.761048 0
M  V30 4692 C 444.567 -2.38747 2.69577 0
M  V30 4693 C 444.42 -1.80046 4.12193 0
M  V30 4694 C 445.739 -3.40551 2.78771 0
M  V30 4695 H 442.858 -0.469027 0.568491 0
M  V30 4696 H 445.5 -0.597358 1.80365 0
M  V30 4697 H 443.65 -2.98147 2.4908 0
M  V30 4698 H 445.322 -1.24742 4.44114 0
M  V30 4699 H 443.565 -1.10609 4.19462 0
M  V30 4700 H 444.236 -2.59212 4.87353 0
M  V30 4701 H 446.712 -2.91099 2.97322 0
M  V30 4702 H 445.588 -4.1448 3.59857 0
M  V30 4703 H 445.849 -4.00746 1.86696 0
M  V30 4704 N 444.908 -1.36708 -0.784132 0
M  V30 4705 C 445.856 -1.31533 -1.91838 0
M  V30 4706 C 446.85 -0.206205 -1.6814 0
M  V30 4707 O 448.056 -0.373519 -1.76082 0
M  V30 4708 H 444.431 -0.409613 -0.630651 0
M  V30 4709 H 446.402 -2.2731 -1.9332 0
M  V30 4710 C 445.151 -1.12679 -3.28936 0
M  V30 4711 H 444.474 -1.97274 -3.4774 0
M  V30 4712 H 445.914 -1.13106 -4.08636 0
M  V30 4713 C 444.373 0.168281 -3.36479 0
M  V30 4714 O 444.903 1.15625 -3.84699 0
M  V30 4715 N 443.109 0.214762 -2.89805 0
M  V30 4716 H 442.656 -0.589852 -2.50756 0
M  V30 4717 H 442.614 1.08094 -2.95234 0
M  V30 4718 N 446.386 1.0089 -1.21074 0
M  V30 4719 C 447.316 2.1145 -0.990523 0
M  V30 4720 C 448.297 1.69897 0.0831699 0
M  V30 4721 O 449.482 1.94052 -0.0758853 0
M  V30 4722 C 446.612 3.42914 -0.550177 0
M  V30 4723 C 445.566 3.98244 -1.56799 0
M  V30 4724 C 444.892 5.25568 -0.984013 0
M  V30 4725 C 446.192 4.30752 -2.95381 0
M  V30 4726 H 447.886 2.3013 -1.91521 0
M  V30 4727 H 445.432 1.10592 -0.92225 0
M  V30 4728 H 447.385 4.19653 -0.383305 0
M  V30 4729 H 446.109 3.24014 0.41015 0
M  V30 4730 H 444.768 3.23621 -1.72236 0
M  V30 4731 H 444.416 5.02998 -0.0155216 0
M  V30 4732 H 444.116 5.63551 -1.66384 0
M  V30 4733 H 445.64 6.04955 -0.828378 0
M  V30 4734 H 447.054 4.98349 -2.8341 0
M  V30 4735 H 445.451 4.79869 -3.60341 0
M  V30 4736 H 446.521 3.39192 -3.46521 0
M  V30 4737 N 447.864 1.01787 1.20321 0
M  V30 4738 C 448.811 0.589197 2.23153 0
M  V30 4739 C 449.781 -0.391367 1.61423 0
M  V30 4740 O 450.966 -0.290518 1.88575 0
M  V30 4741 C 448.106 -0.0650747 3.45039 0
M  V30 4742 C 447.219 0.960207 4.21194 0
M  V30 4743 C 446.354 0.276854 5.30478 0
M  V30 4744 C 445.393 1.2888 5.98378 0
M  V30 4745 N 444.53 0.632031 6.99249 0
M  V30 4746 H 449.37 1.47071 2.59179 0
M  V30 4747 H 446.907 0.736192 1.27352 0
M  V30 4748 H 448.865 -0.461552 4.14639 0
M  V30 4749 H 447.495 -0.910233 3.09701 0
M  V30 4750 H 446.547 1.47484 3.50646 0
M  V30 4751 H 447.859 1.72977 4.67847 0
M  V30 4752 H 447.013 -0.175056 6.06447 0
M  V30 4753 H 445.752 -0.525004 4.84866 0
M  V30 4754 H 444.757 1.75109 5.21169 0
M  V30 4755 H 445.982 2.09196 6.46076 0
M  V30 4756 H 443.928 -0.149935 6.55829 0
M  V30 4757 H 443.845 1.33964 7.44036 0
M  V30 4758 H 445.113 0.203755 7.79234 0
M  V30 4759 N 449.342 -1.36122 0.79427 0
M  V30 4760 C 450.59 -1.98718 0.368177 0
M  V30 4761 C 450.911 -1.63345 -1.06506 0
M  V30 4762 O 450.181 -0.909825 -1.73491 0
M  V30 4763 H 448.761 -0.735038 0.133146 0
M  V30 4764 H 451.423 -1.66239 1.01739 0
M  V30 4765 H 450.519 -3.08633 0.463923 0
M  V30 4766 N 450.82 -0.546701 -1.47814 0
M  V30 4767 C 451.73 0.21026 -2.33656 0
M  V30 4768 C 452.746 0.922413 -1.47538 0
M  V30 4769 O 453.922 0.893652 -1.80488 0
M  V30 4770 C 450.987 1.23348 -3.24016 0
M  V30 4771 C 450.048 0.529883 -4.26017 0
M  V30 4772 C 449.281 1.50435 -5.12059 0
M  V30 4773 O 449.504 2.73837 -5.00369 0
M  V30 4774 O 448.438 1.03459 -5.92942 0
M  V30 4775 H 452.264 -0.493605 -2.99662 0
M  V30 4776 H 449.849 -0.307427 -1.46203 0
M  V30 4777 H 451.731 1.82438 -3.79861 0
M  V30 4778 H 450.406 1.91945 -2.60651 0
M  V30 4779 H 449.313 -0.101948 -3.73961 0
M  V30 4780 H 450.646 -0.11445 -4.92067 0
M  V30 4781 N 452.299 1.55045 -0.282633 0
M  V30 4782 C 453.547 1.99365 0.331334 0
M  V30 4783 C 453.868 1.1725 1.55812 0
M  V30 4784 O 453.138 0.263871 1.94115 0
M  V30 4785 H 451.718 0.736397 0.125414 0
M  V30 4786 H 454.38 1.90964 -0.389711 0
M  V30 4787 H 453.476 3.0596 0.616036 0
M  V30 4788 N 453.777 0.010035 1.57597 0
M  V30 4789 C 454.71 -1.01234 2.04516 0
M  V30 4790 C 455.688 -1.32886 0.937024 0
M  V30 4791 O 456.872 -1.44879 1.20592 0
M  V30 4792 C 453.999 -2.33738 2.45121 0
M  V30 4793 C 453.045 -2.17679 3.66767 0
M  V30 4794 S 453.878 -1.49343 5.14254 0
M  V30 4795 C 455.034 -2.83256 5.58137 0
M  V30 4796 H 455.267 -0.612866 2.90914 0
M  V30 4797 H 452.8 -0.201124 1.53084 0
M  V30 4798 H 454.758 -3.09922 2.69182 0
M  V30 4799 H 453.419 -2.70823 1.59103 0
M  V30 4800 H 452.612 -3.1559 3.92962 0
M  V30 4801 H 452.214 -1.4964 3.42759 0
M  V30 4802 H 454.506 -3.79538 5.6121 0
M  V30 4803 H 455.449 -2.61749 6.57946 0
M  V30 4804 H 455.857 -2.87627 4.85727 0
M  V30 4805 N 455.255 -1.55392 -0.262866 0
M  V30 4806 C 456.48 -1.80847 -1.01533 0
M  V30 4807 C 456.905 -0.584946 -1.78774 0
M  V30 4808 O 456.263 0.465701 -1.75217 0
M  V30 4809 C 456.311 -3.03866 -1.94159 0
M  V30 4810 O 455.415 -2.79662 -3.03089 0
M  V30 4811 H 454.756 -0.597441 -0.289759 0
M  V30 4812 H 457.286 -2.02553 -0.288698 0
M  V30 4813 H 457.296 -3.32872 -2.35924 0
M  V30 4814 H 455.971 -3.92564 -1.37354 0
M  V30 4815 H 454.548 -2.61781 -2.65566 0
M  V30 4816 N 456.733 0.527833 -1.48498 0
M  V30 4817 C 457.665 1.6482 -1.5927 0
M  V30 4818 C 458.678 1.55659 -0.476869 0
M  V30 4819 O 459.867 1.62081 -0.747806 0
M  V30 4820 C 456.967 3.0348 -1.50842 0
M  V30 4821 C 456.14 3.381 -2.77502 0
M  V30 4822 C 455.199 4.5605 -2.62497 0
M  V30 4823 O 454.225 4.59165 -3.36387 0
M  V30 4824 N 455.427 5.54353 -1.72257 0
M  V30 4825 H 458.192 1.56015 -2.55889 0
M  V30 4826 H 455.753 0.715152 -1.45249 0
M  V30 4827 H 457.745 3.80264 -1.38496 0
M  V30 4828 H 456.315 3.06352 -0.621887 0
M  V30 4829 H 455.535 2.50473 -3.04396 0
M  V30 4830 H 456.823 3.58017 -3.61527 0
M  V30 4831 H 456.221 5.54617 -1.11431 0
M  V30 4832 H 454.778 6.30347 -1.65849 0
M  V30 4833 N 458.211 1.37122 0.776871 0
M  V30 4834 C 459.174 1.32301 1.8716 0
M  V30 4835 C 460.174 0.228099 1.59174 0
M  V30 4836 O 461.364 0.483642 1.67352 0
M  V30 4837 C 458.496 1.054 3.24197 0
M  V30 4838 H 459.689 2.29673 1.92848 0
M  V30 4839 H 457.242 1.22077 0.97606 0
M  V30 4840 H 457.977 0.0853872 3.24188 0
M  V30 4841 H 457.762 1.84648 3.45901 0
M  V30 4842 H 459.252 1.04664 4.04271 0
M  V30 4843 N 459.689 -1.00246 1.21608 0
M  V30 4844 C 460.652 -2.07233 0.979133 0
M  V30 4845 C 461.652 -1.6072 -0.0508219 0
M  V30 4846 O 462.842 -1.73196 0.186712 0
M  V30 4847 C 459.974 -3.37546 0.477016 0
M  V30 4848 H 461.167 -2.29687 1.92831 0
M  V30 4849 H 458.72 -1.17261 1.03342 0
M  V30 4850 H 459.455 -3.20773 -0.476966 0
M  V30 4851 H 459.24 -3.72638 1.21997 0
M  V30 4852 H 460.73 -4.16285 0.331181 0
M  V30 4853 N 461.167 -1.02423 -1.1978 0
M  V30 4854 C 462.395 -0.737456 -1.93311 0
M  V30 4855 C 462.81 0.703023 -1.75223 0
M  V30 4856 O 462.167 1.47761 -1.07112 0
M  V30 4857 C 462.218 -1.0733 -3.45199 0
M  V30 4858 O 461.939 -2.4572 -3.62702 0
M  V30 4859 C 463.44 -0.80866 -4.35862 0
M  V30 4860 H 460.66 -0.2702 -0.614193 0
M  V30 4861 H 463.204 -1.36747 -1.52054 0
M  V30 4862 H 461.359 -0.488545 -3.84307 0
M  V30 4863 H 461.773 -2.58081 -4.56612 0
M  V30 4864 H 463.247 -1.09365 -5.41057 0
M  V30 4865 H 463.724 0.257025 -4.38447 0
M  V30 4866 H 464.33 -1.37592 -4.02428 0
M  V30 4867 N 462.645 1.35699 -0.801477 0
M  V30 4868 C 463.894 1.98165 -0.375979 0
M  V30 4869 C 464.207 1.64306 1.06127 0
M  V30 4870 O 465.413 2.20097 1.58964 0
M  V30 4871 C 463.869 3.54497 -0.621305 0
M  V30 4872 C 463.477 3.9727 -2.07076 0
M  V30 4873 C 465.221 4.23697 -0.26091 0
M  V30 4874 C 463.128 5.46427 -2.26211 0
M  V30 4875 H 462.058 0.741478 -0.136844 0
M  V30 4876 H 464.709 1.54834 -0.984814 0
M  V30 4877 H 463.091 3.95958 0.0574112 0
M  V30 4878 H 464.265 3.66974 -2.78687 0
M  V30 4879 H 462.58 3.40943 -2.39054 0
M  V30 4880 H 465.177 5.33334 -0.381994 0
M  V30 4881 H 465.52 4.0869 0.792344 0
M  V30 4882 H 466.053 3.87639 -0.893339 0
M  V30 4883 H 462.792 5.66396 -3.29963 0
M  V30 4884 H 462.312 5.78309 -1.59119 0
M  V30 4885 H 463.991 6.12819 -2.07513 0
M  V30 4886 N 464.123 0.554532 1.47522 0
M  V30 4887 C 465.363 0.0317994 2.04375 0
M  V30 4888 C 465.727 -1.29242 1.41988 0
M  V30 4889 O 466.928 -1.90269 1.89872 0
M  V30 4890 C 465.199 -0.0623344 3.57346 0
M  V30 4891 S 466.758 -0.531578 4.35568 0
M  V30 4892 H 463.576 0.0238553 0.7106 0
M  V30 4893 H 466.178 0.74066 1.80927 0
M  V30 4894 H 464.882 0.905857 4.00278 0
M  V30 4895 H 464.413 -0.794831 3.85287 0
M  V30 4896 H 466.428 -1.79175 4.62721 0
M  V30 4897 N 465.601 -1.54893 0.290851 0
M  V30 4898 C 466.548 -2.23138 -0.58974 0
M  V30 4899 C 467.518 -1.21036 -1.13752 0
M  V30 4900 O 468.703 -1.49626 -1.18392 0
M  V30 4901 C 465.843 -2.96811 -1.76061 0
M  V30 4902 C 464.956 -4.13665 -1.24519 0
M  V30 4903 C 464.091 -4.74944 -2.3791 0
M  V30 4904 C 463.13 -5.83963 -1.83451 0
M  V30 4905 N 462.267 -6.39239 -2.90376 0
M  V30 4906 H 467.107 -2.98 -0.00114915 0
M  V30 4907 H 464.644 -1.47096 0.0112006 0
M  V30 4908 H 466.602 -3.37751 -2.44909 0
M  V30 4909 H 465.232 -2.24344 -2.32098 0
M  V30 4910 H 464.284 -3.77737 -0.449288 0
M  V30 4911 H 465.596 -4.92238 -0.806424 0
M  V30 4912 H 464.75 -5.18684 -3.14724 0
M  V30 4913 H 463.489 -3.95682 -2.85109 0
M  V30 4914 H 462.494 -5.39657 -1.05122 0
M  V30 4915 H 463.719 -6.65103 -1.37169 0
M  V30 4916 H 461.665 -5.62864 -3.36927 0
M  V30 4917 H 461.582 -7.13129 -2.50965 0
M  V30 4918 H 462.85 -6.87637 -3.67118 0
M  V30 4919 N 467.08 -0.0183926 -1.57589 0
M  V30 4920 C 468.305 0.676634 -1.96052 0
M  V30 4921 C 468.73 1.6548 -0.894307 0
M  V30 4922 O 468.088 1.80712 0.145849 0
M  V30 4923 C 468.136 1.36872 -3.33614 0
M  V30 4924 O 467.24 2.48372 -3.29219 0
M  V30 4925 H 466.581 0.1786 -0.63953 0
M  V30 4926 H 469.111 -0.077056 -2.04455 0
M  V30 4927 H 469.121 1.72797 -3.69601 0
M  V30 4928 H 467.796 0.651636 -4.10763 0
M  V30 4929 H 466.373 2.14639 -3.04934 0
M  V30 4930 N 468.558 1.5553 0.254621 0
M  V30 4931 C 469.506 1.9048 1.33492 0
M  V30 4932 C 470.5 0.78304 1.50216 0
M  V30 4933 O 471.706 0.967582 1.51782 0
M  V30 4934 H 468.081 0.604846 0.44684 0
M  V30 4935 H 470.052 2.80688 1.01275 0
M  V30 4936 C 468.801 2.20928 2.68489 0
M  V30 4937 H 468.124 3.06742 2.56417 0
M  V30 4938 H 469.564 2.49291 3.42972 0
M  V30 4939 C 468.023 1.023 3.20993 0
M  V30 4940 O 468.553 0.267027 4.00811 0
M  V30 4941 N 466.759 0.815714 2.78917 0
M  V30 4942 H 466.306 1.43217 2.14119 0
M  V30 4943 H 466.264 0.0236532 3.14391 0
M  V30 4944 N 470.036 -0.519951 1.48776 0
M  V30 4945 C 471.283 -1.27522 1.57303 0
M  V30 4946 C 471.611 -1.92869 0.251328 0
M  V30 4947 O 470.866 -1.80372 -0.759243 0
M  V30 4948 C 471.165 -2.37864 2.6675 0
M  V30 4949 C 470.831 -1.90103 4.08867 0
M  V30 4950 C 469.493 -1.76795 4.47546 0
M  V30 4951 C 471.845 -1.54133 4.97888 0
M  V30 4952 C 469.173 -1.25868 5.73039 0
M  V30 4953 C 471.525 -1.04665 6.23881 0
M  V30 4954 C 470.189 -0.899823 6.61407 0
M  V30 4955 H 469.459 -0.466636 0.575614 0
M  V30 4956 H 472.106 -0.579109 1.82534 0
M  V30 4957 H 470.411 -3.13186 2.35418 0
M  V30 4958 H 472.108 -2.95969 2.70561 0
M  V30 4959 H 468.698 -2.01414 3.78326 0
M  V30 4960 H 472.882 -1.6327 4.68675 0
M  V30 4961 H 468.138 -1.13196 6.0083 0
M  V30 4962 H 472.312 -0.759074 6.92251 0
M  V30 4963 H 469.939 -0.503011 7.58534 0
M  V30 4964 N 471.514 -1.37532 -0.769588 0
M  V30 4965 C 472.461 -1.3347 -1.88293 0
M  V30 4966 C 473.431 -0.199891 -1.64893 0
M  V30 4967 O 474.616 -0.389594 -1.8678 0
M  V30 4968 C 471.756 -1.14968 -3.25387 0
M  V30 4969 C 470.869 -2.37698 -3.60727 0
M  V30 4970 C 470.004 -2.12051 -4.8704 0
M  V30 4971 C 469.043 -3.30636 -5.15117 0
M  V30 4972 N 468.18 -3.04527 -6.3262 0
M  V30 4973 H 473.02 -2.28658 -1.911 0
M  V30 4974 H 470.557 -1.13622 -0.934257 0
M  V30 4975 H 472.515 -1.02261 -4.04473 0
M  V30 4976 H 471.145 -0.234263 -3.21949 0
M  V30 4977 H 470.197 -2.61137 -2.76608 0
M  V30 4978 H 471.509 -3.26131 -3.77413 0
M  V30 4979 H 470.663 -1.96388 -5.74035 0
M  V30 4980 H 469.402 -1.20959 -4.72462 0
M  V30 4981 H 468.407 -3.46836 -4.26597 0
M  V30 4982 H 469.632 -4.22582 -5.31603 0
M  V30 4983 H 467.578 -2.16067 -6.19396 0
M  V30 4984 H 467.495 -3.86503 -6.49732 0
M  V30 4985 H 468.763 -2.92485 -7.22546 0
M  V30 4986 N 472.992 0.995999 -1.22138 0
M  V30 4987 C 474.222 1.76809 -1.06874 0
M  V30 4988 C 474.63 1.85265 0.383866 0
M  V30 4989 O 473.973 1.31969 1.27789 0
M  V30 4990 C 474.035 3.2186 -1.60144 0
M  V30 4991 C 473.699 3.36958 -3.0872 0
M  V30 4992 C 474.696 3.2452 -4.0618 0
M  V30 4993 C 472.381 3.62109 -3.48112 0
M  V30 4994 C 474.375 3.37013 -5.41019 0
M  V30 4995 C 472.062 3.74243 -4.831 0
M  V30 4996 C 473.06 3.61702 -5.79362 0
M  V30 4997 O 472.748 3.73436 -7.119 0
M  V30 4998 H 472.48 0.562207 -0.375365 0
M  V30 4999 H 475.034 1.26113 -1.62125 0
M  V30 5000 H 473.264 3.73734 -0.992981 0
M  V30 5001 H 474.953 3.80775 -1.40589 0
M  V30 5002 H 475.719 3.05004 -3.77091 0
M  V30 5003 H 471.598 3.70949 -2.73712 0
M  V30 5004 H 475.142 3.27141 -6.16137 0
M  V30 5005 H 471.039 3.93266 -5.11872 0
M  V30 5006 H 471.807 3.90328 -7.19435 0
M  V30 5007 N 474.47 1.03057 1.19235 0
M  V30 5008 C 475.403 0.557384 2.21288 0
M  V30 5009 C 476.381 -0.402675 1.57535 0
M  V30 5010 O 477.565 -0.319376 1.85775 0
M  V30 5011 C 474.692 -0.187041 3.38183 0
M  V30 5012 C 473.738 0.72471 4.20298 0
M  V30 5013 S 474.571 2.20187 4.88137 0
M  V30 5014 C 475.727 1.46801 6.08441 0
M  V30 5015 H 475.96 1.42207 2.61083 0
M  V30 5016 H 473.493 0.840651 1.29508 0
M  V30 5017 H 475.451 -0.610405 4.05936 0
M  V30 5018 H 474.112 -1.02748 2.96819 0
M  V30 5019 H 473.305 0.149911 5.03777 0
M  V30 5020 H 472.907 1.08647 3.57871 0
M  V30 5021 H 475.199 0.755522 6.73274 0
M  V30 5022 H 476.142 2.27946 6.70407 0
M  V30 5023 H 476.55 0.964762 5.56195 0
M  V30 5024 N 475.948 -1.35272 0.808662 0
M  V30 5025 C 477.178 -2.02652 0.401953 0
M  V30 5026 C 477.586 -1.6108 -0.992462 0
M  V30 5027 O 476.929 -0.804984 -1.65123 0
M  V30 5028 C 476.991 -3.57174 0.408246 0
M  V30 5029 C 476.655 -4.22019 1.75353 0
M  V30 5030 C 477.652 -4.43552 2.71215 0
M  V30 5031 C 475.337 -4.59093 2.03811 0
M  V30 5032 C 477.331 -5.01264 3.93717 0
M  V30 5033 C 475.018 -5.16519 3.26576 0
M  V30 5034 C 476.016 -5.37546 4.21347 0
M  V30 5035 O 475.704 -5.93761 5.41944 0
M  V30 5036 H 475.436 -0.656495 0.161216 0
M  V30 5037 H 477.99 -1.73829 1.0942 0
M  V30 5038 H 476.22 -3.85197 -0.340608 0
M  V30 5039 H 477.909 -4.05893 0.0235623 0
M  V30 5040 H 478.675 -4.15288 2.50522 0
M  V30 5041 H 474.554 -4.42039 1.30854 0
M  V30 5042 H 478.098 -5.17592 4.67701 0
M  V30 5043 H 473.995 -5.4421 3.47139 0
M  V30 5044 H 474.763 -6.1221 5.43269 0
M  V30 5045 N 477.426 -0.562348 -1.47226 0
M  V30 5046 C 478.672 -0.0485293 -2.03342 0
M  V30 5047 C 479.027 1.28898 -1.42839 0
M  V30 5048 O 478.32 1.82719 -0.576563 0
M  V30 5049 C 478.514 0.0969817 -3.57268 0
M  V30 5050 C 478.343 -1.22487 -4.32697 0
M  V30 5051 C 477.113 -1.79357 -4.72397 0
M  V30 5052 C 479.311 -2.14332 -4.67511 0
M  V30 5053 N 477.293 -3.05493 -5.32491 0
M  V30 5054 C 478.664 -3.25049 -5.27961 0
M  V30 5055 C 480.719 -2.14263 -4.4944 0
M  V30 5056 C 479.422 -4.35804 -5.72248 0
M  V30 5057 C 481.448 -3.24033 -4.94729 0
M  V30 5058 C 480.81 -4.3347 -5.55233 0
M  V30 5059 H 476.909 -0.0600464 -0.779691 0
M  V30 5060 H 479.493 -0.750769 -1.79643 0
M  V30 5061 H 477.664 0.768353 -3.80724 0
M  V30 5062 H 479.396 0.613333 -4.00025 0
M  V30 5063 H 476.151 -1.33093 -4.54514 0
M  V30 5064 H 476.575 -3.698 -5.67077 0
M  V30 5065 H 481.217 -1.30935 -4.02015 0
M  V30 5066 H 478.935 -5.19888 -6.18661 0
M  V30 5067 H 482.521 -3.25073 -4.82513 0
M  V30 5068 H 481.401 -5.17008 -5.89638 0
M  V30 5069 N 478.904 1.54736 -0.299062 0
M  V30 5070 C 480.132 2.04512 0.313447 0
M  V30 5071 C 480.547 1.17643 1.47667 0
M  V30 5072 O 479.904 0.20164 1.81383 0
M  V30 5073 C 479.955 3.53171 0.771542 0
M  V30 5074 O 479.676 4.36736 -0.345379 0
M  V30 5075 C 481.177 4.18936 1.4494 0
M  V30 5076 H 478.397 0.667507 0.0683784 0
M  V30 5077 H 480.941 1.99752 -0.438129 0
M  V30 5078 H 479.096 3.58298 1.47314 0
M  V30 5079 H 479.51 5.24499 0.0109219 0
M  V30 5080 H 480.984 5.24482 1.72111 0
M  V30 5081 H 481.461 3.68554 2.38883 0
M  V30 5082 H 482.067 4.17879 0.791028 0
M  V30 5083 N 480.382 0.0267497 1.57577 0
M  V30 5084 C 481.315 -0.99059 2.05579 0
M  V30 5085 C 482.293 -1.31884 0.951065 0
M  V30 5086 O 483.477 -1.43592 1.22121 0
M  V30 5087 C 480.604 -2.31125 2.47586 0
M  V30 5088 C 479.65 -2.13777 3.69055 0
M  V30 5089 S 480.483 -1.4388 5.15809 0
M  V30 5090 C 481.639 -2.77321 5.6111 0
M  V30 5091 H 481.872 -0.581976 2.91548 0
M  V30 5092 H 479.405 -0.184876 1.53289 0
M  V30 5093 H 481.363 -3.07049 2.72454 0
M  V30 5094 H 480.024 -2.6912 1.61967 0
M  V30 5095 H 479.217 -3.11405 3.96287 0
M  V30 5096 H 478.819 -1.45996 3.44327 0
M  V30 5097 H 481.111 -3.73565 5.65204 0
M  V30 5098 H 482.054 -2.54756 6.60685 0
M  V30 5099 H 482.462 -2.82459 4.88751 0
M  V30 5100 N 481.861 -1.55662 -0.24637 0
M  V30 5101 C 482.791 -1.93377 -1.30873 0
M  V30 5102 C 483.772 -0.798773 -1.50179 0
M  V30 5103 O 484.957 -1.0591 -1.62778 0
M  V30 5104 C 482.087 -2.22893 -2.66338 0
M  V30 5105 C 481.041 -3.38649 -2.61727 0
M  V30 5106 C 480.367 -3.53708 -4.00992 0
M  V30 5107 C 481.667 -4.74323 -2.18666 0
M  V30 5108 H 483.361 -2.82363 -0.995552 0
M  V30 5109 H 480.907 -1.35854 -0.477464 0
M  V30 5110 H 482.86 -2.47866 -3.40794 0
M  V30 5111 H 481.584 -1.30733 -2.99293 0
M  V30 5112 H 480.243 -3.13685 -1.89729 0
M  V30 5113 H 479.891 -2.58967 -4.31214 0
M  V30 5114 H 479.591 -4.31551 -3.98795 0
M  V30 5115 H 481.115 -3.81003 -4.77147 0
M  V30 5116 H 482.529 -4.98665 -2.82854 0
M  V30 5117 H 480.926 -5.55273 -2.27579 0
M  V30 5118 H 481.996 -4.71349 -1.13834 0
M  V30 5119 N 483.339 0.512053 -1.4905 0
M  V30 5120 C 484.271 1.63121 -1.6101 0
M  V30 5121 C 485.284 1.55145 -0.493352 0
M  V30 5122 O 486.473 1.61278 -0.764955 0
M  V30 5123 C 483.573 3.01863 -1.54052 0
M  V30 5124 C 482.746 3.35138 -2.81072 0
M  V30 5125 C 481.805 4.5324 -2.67319 0
M  V30 5126 O 480.831 4.55571 -3.41238 0
M  V30 5127 N 482.033 5.52495 -1.78127 0
M  V30 5128 H 484.798 1.53292 -2.5753 0
M  V30 5129 H 482.359 0.699706 -1.45999 0
M  V30 5130 H 484.351 3.78774 -1.42521 0
M  V30 5131 H 482.921 3.05675 -0.654345 0
M  V30 5132 H 482.141 2.4723 -3.07036 0
M  V30 5133 H 483.429 3.54162 -3.65304 0
M  V30 5134 H 482.827 5.53403 -1.17308 0
M  V30 5135 H 481.384 6.28553 -1.72525 0
M  V30 5136 N 484.817 1.37938 0.762283 0
M  V30 5137 C 485.749 1.30349 1.88525 0
M  V30 5138 C 486.762 0.217402 1.61342 0
M  V30 5139 O 487.951 0.474291 1.72084 0
M  V30 5140 C 485.051 0.994844 3.23969 0
M  V30 5141 C 484.224 2.18829 3.78725 0
M  V30 5142 C 483.283 1.84844 4.92665 0
M  V30 5143 O 482.309 2.57244 5.07754 0
M  V30 5144 N 483.511 0.798201 5.74986 0
M  V30 5145 H 486.276 2.27114 1.95549 0
M  V30 5146 H 483.837 1.31686 0.941825 0
M  V30 5147 H 485.829 0.748168 3.97724 0
M  V30 5148 H 484.399 0.115446 3.12387 0
M  V30 5149 H 483.619 2.59615 2.96637 0
M  V30 5150 H 484.907 2.98497 4.1204 0
M  V30 5151 H 484.305 0.197611 5.65355 0
M  V30 5152 H 482.862 0.611396 6.48926 0
M  V30 5153 N 486.295 -0.989507 1.22664 0
M  V30 5154 C 487.225 -2.09847 1.02404 0
M  V30 5155 C 488.206 -1.70007 -0.0561303 0
M  V30 5156 O 489.391 -1.93906 0.106748 0
M  V30 5157 C 486.521 -3.41996 0.604663 0
M  V30 5158 C 485.475 -3.95699 1.63115 0
M  V30 5159 C 484.801 -5.23936 1.0675 0
M  V30 5160 C 486.101 -4.25999 3.02196 0
M  V30 5161 H 487.795 -2.27054 1.95158 0
M  V30 5162 H 485.341 -1.09111 0.939727 0
M  V30 5163 H 487.294 -4.1899 0.45002 0
M  V30 5164 H 486.018 -3.24626 -0.35855 0
M  V30 5165 H 484.677 -3.2084 1.77362 0
M  V30 5166 H 484.325 -5.02909 0.0955422 0
M  V30 5167 H 484.025 -5.60833 1.75328 0
M  V30 5168 H 485.549 -6.0356 0.924516 0
M  V30 5169 H 486.963 -4.93777 2.91303 0
M  V30 5170 H 485.36 -4.74076 3.67929 0
M  V30 5171 H 486.43 -3.33636 3.51873 0
M  V30 5172 N 487.773 -1.03688 -1.18687 0
M  V30 5173 C 489.001 -0.757918 -1.92518 0
M  V30 5174 C 489.416 0.684398 -1.75959 0
M  V30 5175 O 488.773 1.46617 -1.08673 0
M  V30 5176 C 488.824 -1.10985 -3.44042 0
M  V30 5177 O 488.545 -2.49554 -3.60076 0
M  V30 5178 C 490.046 -0.854844 -4.3498 0
M  V30 5179 H 487.266 -0.276699 -0.611293 0
M  V30 5180 H 489.81 -1.38352 -1.50595 0
M  V30 5181 H 487.965 -0.529279 -3.83767 0
M  V30 5182 H 488.379 -2.6291 -4.53849 0
M  V30 5183 H 489.853 -1.15098 -5.39867 0
M  V30 5184 H 490.33 0.210507 -4.38695 0
M  V30 5185 H 490.936 -1.41853 -4.00946 0
M  V30 5186 N 489.251 1.34841 -0.815825 0
M  V30 5187 C 490.201 2.27075 -0.205169 0
M  V30 5188 C 491.185 1.48205 0.626414 0
M  V30 5189 O 492.377 1.70306 0.482157 0
M  V30 5190 C 489.506 3.37322 0.637871 0
M  V30 5191 C 488.592 4.23609 -0.203948 0
M  V30 5192 N 488.983 4.89558 -1.27149 0
M  V30 5193 C 487.281 4.45998 0.0128971 0
M  V30 5194 C 487.982 5.53597 -1.7862 0
M  V30 5195 N 486.958 5.32535 -1.0912 0
M  V30 5196 H 490.76 2.75563 -1.02187 0
M  V30 5197 H 488.274 1.48477 -0.657912 0
M  V30 5198 H 490.271 4.02359 1.09146 0
M  V30 5199 H 488.931 2.90385 1.45281 0
M  V30 5200 H 489.942 4.9077 -1.65423 0
M  V30 5201 H 486.619 4.09837 0.79624 0
M  V30 5202 H 488.009 6.16184 -2.67892 0
M  V30 5203 N 490.729 0.570148 1.46925 0
M  V30 5204 C 491.679 -0.190921 2.27199 0
M  V30 5205 C 492.663 -0.873457 1.35128 0
M  V30 5206 O 493.855 -0.769627 1.59392 0
M  V30 5207 C 490.984 -1.21204 3.21192 0
M  V30 5208 C 490.07 -0.532261 4.20747 0
M  V30 5209 N 490.461 0.405038 5.04176 0
M  V30 5210 C 488.759 -0.784582 4.39045 0
M  V30 5211 C 489.46 0.801149 5.76157 0
M  V30 5212 N 488.436 0.153082 5.43384 0
M  V30 5213 H 492.238 0.529535 2.8909 0
M  V30 5214 H 489.752 0.391019 1.57622 0
M  V30 5215 H 491.749 -1.77135 3.77398 0
M  V30 5216 H 490.409 -1.93345 2.6086 0
M  V30 5217 H 491.42 0.779903 5.11994 0
M  V30 5218 H 488.097 -1.49352 3.89872 0
M  V30 5219 H 489.487 1.57208 6.5325 0
M  V30 5220 N 492.207 -1.54576 0.307264 0
M  V30 5221 C 493.432 -2.05139 -0.305379 0
M  V30 5222 C 493.857 -1.18278 -1.46259 0
M  V30 5223 O 493.215 -0.188243 -1.8032 0
M  V30 5224 C 493.263 -3.53066 -0.733283 0
M  V30 5225 O 492.367 -3.69206 -1.83741 0
M  V30 5226 H 491.708 -0.661444 -0.0582105 0
M  V30 5227 H 494.238 -1.99569 0.450931 0
M  V30 5228 H 494.248 -3.95034 -1.02039 0
M  V30 5229 H 492.923 -4.15746 0.113198 0
M  V30 5230 H 491.5 -3.39143 -1.55037 0
M  V30 5231 N 493.685 -0.035106 -1.57561 0
M  V30 5232 C 494.931 0.64318 -1.92331 0
M  V30 5233 C 495.264 1.71434 -0.912368 0
M  V30 5234 O 494.539 1.94395 0.0640303 0
M  V30 5235 C 494.822 1.25411 -3.37556 0
M  V30 5236 C 494.675 0.192109 -4.4939 0
M  V30 5237 C 495.994 2.17041 -3.82859 0
M  V30 5238 H 493.113 0.232341 -0.699419 0
M  V30 5239 H 495.755 -0.0935889 -1.89769 0
M  V30 5240 H 493.905 1.88205 -3.39869 0
M  V30 5241 H 495.577 -0.438849 -4.59208 0
M  V30 5242 H 493.82 -0.481725 -4.31117 0
M  V30 5243 H 494.491 0.659292 -5.48049 0
M  V30 5244 H 496.967 1.64228 -3.8232 0
M  V30 5245 H 495.843 2.56738 -4.85157 0
M  V30 5246 H 496.104 3.06401 -3.18702 0
M  V30 5247 N 495.163 1.55791 0.238111 0
M  V30 5248 C 496.111 1.91885 1.31464 0
M  V30 5249 C 497.105 0.798929 1.49377 0
M  V30 5250 O 498.311 0.983626 1.50747 0
M  V30 5251 H 494.686 0.609551 0.440399 0
M  V30 5252 H 496.657 2.81747 0.982925 0
M  V30 5253 C 495.406 2.23763 2.6613 0
M  V30 5254 H 494.729 3.09444 2.53149 0
M  V30 5255 H 496.169 2.52915 3.40309 0
M  V30 5256 C 494.628 1.05699 3.1989 0
M  V30 5257 O 495.158 0.309524 4.00506 0
M  V30 5258 N 493.364 0.845251 2.78036 0
M  V30 5259 H 492.911 1.4548 2.12588 0
M  V30 5260 H 492.869 0.0569973 3.14348 0
M  V30 5261 N 496.642 -0.504142 1.49319 0
M  V30 5262 C 497.89 -1.25598 1.58334 0
M  V30 5263 C 498.211 -1.93114 0.270538 0
M  V30 5264 O 497.481 -1.82585 -0.709891 0
M  V30 5265 H 496.061 -0.466571 0.58337 0
M  V30 5266 H 498.723 -0.584547 1.85928 0
M  V30 5267 H 497.819 -2.02159 2.37778 0
M  V30 5268 N 498.12 -1.38341 -0.754957 0
M  V30 5269 C 499.36 -1.35888 -1.52689 0
M  V30 5270 C 499.724 0.0513682 -1.91931 0
M  V30 5271 O 500.925 0.200761 -2.68049 0
M  V30 5272 C 499.196 -2.28666 -2.74676 0
M  V30 5273 S 500.755 -2.4422 -3.64558 0
M  V30 5274 H 497.573 -0.482165 -0.522531 0
M  V30 5275 H 500.175 -1.74253 -0.886358 0
M  V30 5276 H 498.879 -3.30023 -2.43953 0
M  V30 5277 H 498.41 -1.91445 -3.43675 0
M  V30 5278 H 500.425 -1.66525 -4.67423 0
M  V30 5279 N 499.598 0.982988 -1.23187 0
M  V30 5280 C 500.546 2.09616 -1.00817 0
M  V30 5281 C 501.54 1.6932 0.0519995 0
M  V30 5282 O 502.746 1.79715 -0.101284 0
M  V30 5283 H 499.121 0.685628 -0.308899 0
M  V30 5284 H 501.092 2.25652 -1.95253 0
M  V30 5285 C 499.841 3.42249 -0.613243 0
M  V30 5286 H 499.164 3.73705 -1.42073 0
M  V30 5287 H 500.604 4.21086 -0.496208 0
M  V30 5288 C 499.063 3.30002 0.678233 0
M  V30 5289 O 499.593 3.6263 1.72807 0
M  V30 5290 N 497.799 2.83164 0.653165 0
M  V30 5291 H 497.346 2.56811 -0.201492 0
M  V30 5292 H 497.304 2.75352 1.51752 0
M  V30 5293 N 501.076 1.04316 1.18135 0
M  V30 5294 C 502.006 0.657299 2.24058 0
M  V30 5295 C 502.987 -0.340678 1.66654 0
M  V30 5296 O 504.172 -0.220223 1.92947 0
M  V30 5297 C 501.302 0.0220715 3.47293 0
M  V30 5298 C 500.256 0.943857 4.17463 0
M  V30 5299 C 499.582 0.172973 5.3442 0
M  V30 5300 C 500.882 2.26409 4.70677 0
M  V30 5301 H 502.576 1.5428 2.56589 0
M  V30 5302 H 500.122 0.743263 1.23335 0
M  V30 5303 H 502.075 -0.259607 4.206 0
M  V30 5304 H 500.799 -0.898323 3.14003 0
M  V30 5305 H 499.458 1.20996 3.46057 0
M  V30 5306 H 499.106 -0.749907 4.97379 0
M  V30 5307 H 498.806 0.787098 5.82304 0
M  V30 5308 H 500.33 -0.101628 6.10515 0
M  V30 5309 H 501.744 2.04294 5.35665 0
M  V30 5310 H 500.141 2.8314 5.29105 0
M  V30 5311 H 501.211 2.90883 3.87962 0
M  V30 5312 N 502.554 -1.34406 0.822964 0
M  V30 5313 C 503.97 -1.51275 0.508727 0
M  V30 5314 C 504.17 -1.76776 -0.967083 0
M  V30 5315 O 503.226 -1.81871 -1.75155 0
M  V30 5316 C 504.539 -2.67765 1.36829 0
M  V30 5317 C 506.087 -2.81647 1.36542 0
M  V30 5318 C 506.562 -4.01181 2.20947 0
M  V30 5319 N 508.053 -4.08388 2.18571 0
M  V30 5320 C 508.788 -5.00036 2.80627 0
M  V30 5321 N 508.284 -5.96906 3.51674 0
M  V30 5322 N 510.077 -4.92908 2.70181 0
M  V30 5323 H 502.228 -1.16113 1.77852 0
M  V30 5324 H 504.491 -0.56947 0.757897 0
M  V30 5325 H 504.197 -2.55551 2.41633 0
M  V30 5326 H 504.071 -3.62779 1.03303 0
M  V30 5327 H 506.458 -2.93303 0.325163 0
M  V30 5328 H 506.539 -1.87443 1.74066 0
M  V30 5329 H 506.183 -3.90286 3.25022 0
M  V30 5330 H 506.113 -4.94599 1.80774 0
M  V30 5331 H 508.604 -3.39051 1.66891 0
M  V30 5332 H 508.917 -6.63468 3.96271 0
M  V30 5333 H 507.262 -5.9703 3.5578 0
M  V30 5334 H 510.453 -4.1619 2.14251 0
M  V30 5335 H 510.626 -5.64137 3.18831 0
M  V30 5336 N 504.032 -0.577932 -1.46621 0
M  V30 5337 C 505.443 -0.150071 -1.86096 0
M  V30 5338 C 505.794 1.28563 -1.48209 0
M  V30 5339 O 504.919 1.97036 -0.894754 0
M  V30 5340 C 505.514 -0.265576 -3.37758 0
M  V30 5341 C 504.073 0.10738 -3.76247 0
M  V30 5342 C 503.22 -0.603711 -2.70649 0
M  V30 5343 H 506.171 -0.786438 -1.37844 0
M  V30 5344 H 506.192 0.510352 -3.77062 0
M  V30 5345 H 505.704 -1.3106 -3.65301 0
M  V30 5346 H 503.805 1.15272 -3.54321 0
M  V30 5347 H 503.918 -0.26561 -4.78363 0
M  V30 5348 H 502.282 -0.0444884 -2.54661 0
M  V30 5349 H 503.065 -1.65029 -3.01032 0
M  V30 5350 N 505.51 1.54411 -0.315457 0
M  V30 5351 C 506.758 2.00023 0.288971 0
M  V30 5352 C 507.079 1.20529 1.5329 0
M  V30 5353 O 506.349 0.304986 1.93511 0
M  V30 5354 H 504.929 0.738891 0.109766 0
M  V30 5355 H 507.591 1.90094 -0.430129 0
M  V30 5356 H 506.687 3.07198 0.550999 0
M  V30 5357 N 506.988 0.0434614 1.5754 0
M  V30 5358 C 508.265 -0.671479 1.83713 0
M  V30 5359 C 508.645 -1.89495 0.930315 0
M  V30 5360 O 507.993 -2.28498 -0.0105639 0
M  V30 5361 C 508.203 -1.0361 3.33266 0
M  V30 5362 C 509.551 -1.42167 4.00092 0
M  V30 5363 O 510.575 -1.12866 3.37846 0
M  V30 5364 O 509.434 -1.96817 5.09829 0
M  V30 5365 H 506.528 -0.330726 0.75799 0
M  V30 5366 H 509.074 0.0722373 1.69546 0
M  V30 5367 H 507.846 -0.165938 3.90948 0
M  V30 5368 H 507.469 -1.83751 3.52592 0
M  V30 5369 N 508.466 -1.55915 -0.229846 0
M  V30 5370 C 509.396 -1.94754 -1.28815 0
M  V30 5371 C 510.377 -0.814657 -1.49323 0
M  V30 5372 O 511.562 -1.07631 -1.61645 0
M  V30 5373 C 508.692 -2.25705 -2.63959 0
M  V30 5374 C 507.646 -3.41406 -2.5812 0
M  V30 5375 C 506.972 -3.57941 -3.97218 0
M  V30 5376 C 508.272 -4.76616 -2.13623 0
M  V30 5377 H 509.966 -2.83404 -0.965547 0
M  V30 5378 H 507.512 -1.36353 -0.463028 0
M  V30 5379 H 509.465 -2.51467 -3.38146 0
M  V30 5380 H 508.189 -1.339 -2.9789 0
M  V30 5381 H 506.848 -3.1568 -1.86391 0
M  V30 5382 H 506.496 -2.63526 -4.28443 0
M  V30 5383 H 506.196 -4.35757 -3.94195 0
M  V30 5384 H 507.72 -3.86042 -4.73079 0
M  V30 5385 H 509.134 -5.01637 -2.77549 0
M  V30 5386 H 507.531 -5.57655 -2.21677 0
M  V30 5387 H 508.601 -4.7253 -1.08829 0
M  V30 5388 N 509.944 0.496216 -1.49584 0
M  V30 5389 C 510.874 1.60576 -1.69521 0
M  V30 5390 C 511.855 1.61169 -0.543933 0
M  V30 5391 O 513.04 1.77834 -0.78031 0
M  V30 5392 C 510.17 2.99038 -1.76616 0
M  V30 5393 C 509.124 3.13312 -2.91581 0
M  V30 5394 C 508.45 4.53172 -2.83794 0
M  V30 5395 C 509.75 2.92886 -4.32452 0
M  V30 5396 H 511.444 1.44146 -2.62416 0
M  V30 5397 H 508.99 0.692024 -1.26282 0
M  V30 5398 H 510.943 3.76564 -1.8915 0
M  V30 5399 H 509.667 3.16568 -0.80324 0
M  V30 5400 H 508.326 2.38213 -2.78658 0
M  V30 5401 H 507.974 4.67585 -1.854 0
M  V30 5402 H 507.674 4.63662 -3.60958 0
M  V30 5403 H 509.198 5.32752 -2.98342 0
M  V30 5404 H 510.612 3.60178 -4.46032 0
M  V30 5405 H 509.009 3.14844 -5.10875 0
M  V30 5406 H 510.079 1.88966 -4.46565 0
M  V30 5407 N 511.423 1.38739 0.74761 0
M  V30 5408 C 512.386 1.36241 1.84312 0
M  V30 5409 C 513.386 0.261811 1.58654 0
M  V30 5410 O 514.576 0.519031 1.66288 0
M  V30 5411 C 511.708 1.12253 3.21888 0
M  V30 5412 H 512.901 2.33712 1.87933 0
M  V30 5413 H 510.454 1.2412 0.949946 0
M  V30 5414 H 511.189 0.154133 3.23934 0
M  V30 5415 H 510.974 1.91943 3.41907 0
M  V30 5416 H 512.464 1.13215 4.0196 0
M  V30 5417 N 512.901 -0.976442 1.23707 0
M  V30 5418 C 514.126 -1.75875 1.09922 0
M  V30 5419 C 514.551 -1.84911 -0.34489 0
M  V30 5420 O 513.909 -1.31363 -1.24954 0
M  V30 5421 C 513.957 -3.16179 1.73388 0
M  V30 5422 O 513.061 -4.00124 0.99871 0
M  V30 5423 H 512.402 -0.540954 0.385052 0
M  V30 5424 H 514.932 -1.22546 1.6384 0
M  V30 5425 H 514.942 -3.66741 1.78788 0
M  V30 5426 H 513.617 -3.08917 2.78466 0
M  V30 5427 H 512.194 -3.58624 1.02193 0
M  V30 5428 N 514.379 -1.04941 -1.1758 0
M  V30 5429 C 515.627 -0.756492 -1.87408 0
M  V30 5430 C 515.948 0.718478 -1.81281 0
M  V30 5431 O 515.218 1.519 -1.23706 0
M  V30 5432 H 513.798 -0.276841 -0.693807 0
M  V30 5433 H 516.46 -1.32803 -1.42652 0
M  V30 5434 H 515.556 -1.06918 -2.93215 0
M  V30 5435 N 515.857 1.33968 -0.830081 0
M  V30 5436 C 517.085 2.0228 -0.434773 0
M  V30 5437 C 517.5 1.62487 0.961419 0
M  V30 5438 O 516.857 0.833849 1.62337 0
M  V30 5439 C 516.908 3.5751 -0.535625 0
M  V30 5440 O 516.629 3.95864 -1.87679 0
M  V30 5441 C 518.13 4.43091 -0.136137 0
M  V30 5442 H 515.35 0.648151 -0.173613 0
M  V30 5443 H 517.894 1.71089 -1.12022 0
M  V30 5444 H 516.049 3.87266 0.101817 0
M  V30 5445 H 516.463 4.9056 -1.85609 0
M  V30 5446 H 517.937 5.51398 -0.257772 0
M  V30 5447 H 518.414 4.29433 0.921076 0
M  V30 5448 H 519.02 4.18677 -0.747662 0
M  V30 5449 N 517.335 0.585699 1.46312 0
M  V30 5450 C 518.584 0.0701192 2.01578 0
M  V30 5451 C 518.897 -1.29889 1.46247 0
M  V30 5452 O 520.103 -1.90598 1.93351 0
M  V30 5453 C 518.559 0.0747499 3.59822 0
M  V30 5454 C 518.167 1.44226 4.24149 0
M  V30 5455 C 519.911 -0.38673 4.22735 0
M  V30 5456 C 517.818 1.40446 5.74481 0
M  V30 5457 H 516.748 0.0224441 0.753666 0
M  V30 5458 H 519.399 0.737789 1.68015 0
M  V30 5459 H 517.781 -0.659144 3.90476 0
M  V30 5460 H 518.955 2.19612 4.05101 0
M  V30 5461 H 517.27 1.84401 3.73343 0
M  V30 5462 H 519.867 -0.433853 5.32937 0
M  V30 5463 H 520.21 -1.40489 3.91878 0
M  V30 5464 H 520.743 0.293195 3.96718 0
M  V30 5465 H 517.482 2.39952 6.10003 0
M  V30 5466 H 517.002 0.692845 5.95785 0
M  V30 5467 H 518.681 1.11865 6.37256 0
M  V30 5468 N 518.813 -1.54241 0.323641 0
M  V30 5469 C 520.038 -2.05452 -0.283605 0
M  V30 5470 C 520.463 -1.19823 -1.44997 0
M  V30 5471 O 519.821 -0.207358 -1.8011 0
M  V30 5472 C 519.869 -3.53823 -0.695795 0
M  V30 5473 O 518.973 -3.71134 -1.79815 0
M  V30 5474 H 518.314 -0.662024 -0.0511917 0
M  V30 5475 H 520.844 -1.99079 0.472073 0
M  V30 5476 H 520.854 -3.96094 -0.978434 0
M  V30 5477 H 519.529 -4.15602 0.157287 0
M  V30 5478 H 518.106 -3.40768 -1.51431 0
M  V30 5479 N 520.291 -0.0518155 -1.57515 0
M  V30 5480 C 521.539 0.620595 -1.92336 0
M  V30 5481 C 521.86 1.71345 -0.930907 0
M  V30 5482 O 521.13 1.95885 0.0241341 0
M  V30 5483 H 519.71 0.232226 -0.709986 0
M  V30 5484 H 522.372 -0.104969 -1.94617 0
M  V30 5485 H 521.468 1.05879 -2.93592 0
M  V30 5486 N 521.769 1.56035 0.221574 0
M  V30 5487 C 523.18 1.69229 0.788567 0
M  V30 5488 C 523.531 0.653814 1.84986 0
M  V30 5489 O 522.656 -0.195065 2.15519 0
M  V30 5490 C 523.251 3.06809 1.43713 0
M  V30 5491 C 521.81 3.21858 1.95152 0
M  V30 5492 C 520.957 2.65155 0.811685 0
M  V30 5493 H 523.908 1.587 -0.00307894 0
M  V30 5494 H 523.929 3.02666 2.30594 0
M  V30 5495 H 523.441 3.82369 0.664475 0
M  V30 5496 H 521.542 2.51167 2.7522 0
M  V30 5497 H 521.655 4.29073 2.1315 0
M  V30 5498 H 520.019 2.23635 1.21899 0
M  V30 5499 H 520.802 3.43261 0.0516987 0
M  V30 5500 N 523.247 -0.488276 1.49845 0
M  V30 5501 C 524.157 -1.61451 1.70207 0
M  V30 5502 C 525.173 -1.63877 0.584846 0
M  V30 5503 O 526.349 -1.82063 0.861107 0
M  V30 5504 C 523.414 -2.9776 1.77594 0
M  V30 5505 C 522.475 -3.05861 3.01243 0
M  V30 5506 C 521.708 -4.35668 3.08268 0
M  V30 5507 O 521.931 -5.25197 2.22541 0
M  V30 5508 O 520.865 -4.49005 4.00847 0
M  V30 5509 H 524.691 -1.47199 2.65643 0
M  V30 5510 H 522.276 -0.665939 1.33737 0
M  V30 5511 H 524.158 -3.7875 1.84732 0
M  V30 5512 H 522.833 -3.12248 0.8534 0
M  V30 5513 H 521.74 -2.24012 2.99616 0
M  V30 5514 H 523.073 -2.96304 3.9302 0
M  V30 5515 N 524.725 -1.39134 -0.740242 0
M  V30 5516 C 526.136 -1.32208 -1.31825 0
M  V30 5517 C 526.487 0.0159919 -1.96193 0
M  V30 5518 O 525.612 0.918111 -1.95958 0
M  V30 5519 C 526.207 -2.39436 -2.39699 0
M  V30 5520 C 524.766 -2.36048 -2.93187 0
M  V30 5521 C 523.913 -2.21599 -1.66701 0
M  V30 5522 H 526.864 -1.49298 -0.538133 0
M  V30 5523 H 526.885 -2.05922 -3.19963 0
M  V30 5524 H 526.397 -3.36811 -1.92821 0
M  V30 5525 H 524.498 -1.42295 -3.44359 0
M  V30 5526 H 524.611 -3.30704 -3.46658 0
M  V30 5527 H 522.975 -1.68681 -1.90837 0
M  V30 5528 H 523.758 -3.20936 -1.21882 0
M  V30 5529 N 526.204 0.969867 -1.24223 0
M  V30 5530 C 527.114 2.09806 -1.0497 0
M  V30 5531 C 528.13 1.73998 0.00886455 0
M  V30 5532 O 529.306 2.00513 -0.188848 0
M  V30 5533 C 526.371 3.40467 -0.654452 0
M  V30 5534 C 525.432 3.90236 -1.78926 0
M  V30 5535 C 524.665 5.14662 -1.41277 0
M  V30 5536 O 524.888 5.69602 -0.301632 0
M  V30 5537 O 523.822 5.58761 -2.23763 0
M  V30 5538 H 527.648 2.28942 -1.99548 0
M  V30 5539 H 525.233 1.08197 -1.03023 0
M  V30 5540 H 527.115 4.19039 -0.445452 0
M  V30 5541 H 525.79 3.22636 0.262216 0
M  V30 5542 H 524.697 3.12735 -2.05299 0
M  V30 5543 H 526.03 4.1254 -2.68462 0
M  V30 5544 N 527.682 1.05563 1.17022 0
M  V30 5545 C 528.63 0.653887 2.2322 0
M  V30 5546 C 529.624 -0.326642 1.66221 0
M  V30 5547 O 530.83 -0.192301 1.7897 0
M  V30 5548 H 527.205 0.193297 0.726733 0
M  V30 5549 H 529.176 1.5596 2.54399 0
M  V30 5550 C 527.925 0.0485434 3.47666 0
M  V30 5551 H 527.248 0.79413 3.91834 0
M  V30 5552 H 528.688 -0.195133 4.23551 0
M  V30 5553 C 527.147 -1.20583 3.14581 0
M  V30 5554 O 527.677 -2.29475 3.29703 0
M  V30 5555 N 525.883 -1.10493 2.68774 0
M  V30 5556 H 525.43 -0.218795 2.56669 0
M  V30 5557 H 525.388 -1.94507 2.47011 0
M  V30 5558 N 529.16 -1.33526 0.837174 0
M  V30 5559 C 530.407 -1.97837 0.432064 0
M  V30 5560 C 530.735 -1.66324 -1.00829 0
M  V30 5561 O 529.99 -0.93448 -1.71948 0
M  V30 5562 C 530.289 -3.52367 0.597675 0
M  V30 5563 C 529.955 -4.03826 2.00587 0
M  V30 5564 C 528.617 -4.1759 2.39106 0
M  V30 5565 C 530.969 -4.31333 2.92576 0
M  V30 5566 C 528.297 -4.56195 3.68921 0
M  V30 5567 C 530.649 -4.7139 4.2187 0
M  V30 5568 C 529.313 -4.8336 4.60347 0
M  V30 5569 H 528.583 -0.723937 0.158104 0
M  V30 5570 H 531.23 -1.5923 1.06387 0
M  V30 5571 H 529.535 -3.91624 -0.117452 0
M  V30 5572 H 531.232 -4.00126 0.26454 0
M  V30 5573 H 527.822 -3.93586 1.69671 0
M  V30 5574 H 532.006 -4.20224 2.64056 0
M  V30 5575 H 527.262 -4.63655 3.9854 0
M  V30 5576 H 531.436 -4.91631 4.93226 0
M  V30 5577 H 529.063 -5.1303 5.60985 0
M  V30 5578 N 530.638 -0.59345 -1.46 0
M  V30 5579 C 531.886 -0.082988 -2.0193 0
M  V30 5580 C 532.207 1.28569 -1.46612 0
M  V30 5581 O 531.477 1.84629 -0.654909 0
M  V30 5582 H 530.057 -0.0276882 -0.746487 0
M  V30 5583 H 532.719 -0.771657 -1.78973 0
M  V30 5584 H 531.815 -0.022079 -3.12092 0
M  V30 5585 N 532.116 1.54067 -0.331816 0
M  V30 5586 C 533.341 2.05599 0.272705 0
M  V30 5587 C 533.766 1.2059 1.44359 0
M  V30 5588 O 533.124 0.216907 1.79998 0
M  V30 5589 C 533.172 3.54188 0.677021 0
M  V30 5590 O 532.276 3.72082 1.77844 0
M  V30 5591 H 531.617 0.662286 0.0476801 0
M  V30 5592 H 534.147 1.98826 -0.482624 0
M  V30 5593 H 534.157 3.96608 0.957415 0
M  V30 5594 H 532.832 4.15513 -0.179325 0
M  V30 5595 H 531.409 3.41566 1.49622 0
M  V30 5596 N 533.594 0.0601682 1.57485 0
M  V30 5597 C 534.527 -0.94676 2.07634 0
M  V30 5598 C 535.505 -1.29837 0.978826 0
M  V30 5599 O 536.689 -1.40969 1.2514 0
M  V30 5600 C 533.816 -2.25822 2.52433 0
M  V30 5601 C 532.862 -2.05901 3.73507 0
M  V30 5602 S 533.695 -1.32907 5.18745 0
M  V30 5603 C 534.851 -2.65356 5.66866 0
M  V30 5604 H 535.084 -0.520003 2.92717 0
M  V30 5605 H 532.617 -0.152319 1.53647 0
M  V30 5606 H 534.575 -3.01201 2.78905 0
M  V30 5607 H 533.236 -2.65624 1.67639 0
M  V30 5608 H 532.429 -3.02929 4.02803 0
M  V30 5609 H 532.031 -1.38659 3.47347 0
M  V30 5610 H 534.323 -3.61492 5.73001 0
M  V30 5611 H 535.266 -2.40685 6.6594 0
M  V30 5612 H 535.674 -2.72028 4.94632 0
M  V30 5613 N 535.072 -1.5615 -0.213296 0
M  V30 5614 C 536.002 -1.96109 -1.26742 0
M  V30 5615 C 536.983 -0.830448 -1.48451 0
M  V30 5616 O 538.168 -1.09339 -1.60495 0
M  V30 5617 C 535.298 -2.28492 -2.61551 0
M  V30 5618 C 534.252 -3.44124 -2.54485 0
M  V30 5619 C 533.578 -3.62134 -3.93399 0
M  V30 5620 C 534.878 -4.78855 -2.08556 0
M  V30 5621 H 536.572 -2.84412 -0.935434 0
M  V30 5622 H 534.118 -1.36836 -0.44854 0
M  V30 5623 H 536.071 -2.55039 -3.3546 0
M  V30 5624 H 534.795 -1.37052 -2.96453 0
M  V30 5625 H 533.454 -3.17639 -1.83033 0
M  V30 5626 H 533.102 -2.68055 -4.25623 0
M  V30 5627 H 532.802 -4.39913 -3.89551 0
M  V30 5628 H 534.326 -3.91038 -4.68958 0
M  V30 5629 H 535.74 -5.04552 -2.72213 0
M  V30 5630 H 534.137 -5.59975 -2.1575 0
M  V30 5631 H 535.207 -4.73657 -1.03811 0
M  V30 5632 N 536.55 0.480323 -1.50102 0
M  V30 5633 C 537.46 1.60547 -1.71061 0
M  V30 5634 C 538.476 1.63564 -0.593529 0
M  V30 5635 O 539.652 1.81604 -0.870751 0
M  V30 5636 C 536.717 2.96814 -1.79171 0
M  V30 5637 C 535.778 3.04259 -3.02861 0
M  V30 5638 C 535.011 4.34027 -3.10574 0
M  V30 5639 O 535.234 5.24009 -2.25323 0
M  V30 5640 O 534.168 4.46873 -4.03223 0
M  V30 5641 H 537.994 1.45788 -2.6642 0
M  V30 5642 H 535.579 0.658838 -1.34088 0
M  V30 5643 H 537.461 3.77765 -1.86738 0
M  V30 5644 H 536.136 3.11791 -0.869947 0
M  V30 5645 H 535.043 2.22419 -3.008 0
M  V30 5646 H 536.376 2.94216 -3.94586 0
M  V30 5647 N 538.028 1.39524 0.732853 0
M  V30 5648 C 538.958 1.41153 1.86005 0
M  V30 5649 C 539.939 0.274614 1.67869 0
M  V30 5650 O 541.124 0.480745 1.88155 0
M  V30 5651 C 538.254 1.25638 3.23778 0
M  V30 5652 C 537.208 2.36752 3.56556 0
M  V30 5653 C 536.534 2.06326 4.93289 0
M  V30 5654 C 537.834 3.79069 3.5931 0
M  V30 5655 H 539.528 2.35484 1.84899 0
M  V30 5656 H 537.074 1.13348 0.888162 0
M  V30 5657 H 539.027 1.25398 4.0231 0
M  V30 5658 H 537.751 0.277772 3.25417 0
M  V30 5659 H 536.41 2.36213 2.80355 0
M  V30 5660 H 536.058 1.06897 4.9151 0
M  V30 5661 H 535.758 2.80757 5.16187 0
M  V30 5662 H 537.282 2.07739 5.74175 0
M  V30 5663 H 538.696 3.81526 4.27914 0
M  V30 5664 H 537.093 4.52878 3.93728 0
M  V30 5665 H 538.163 4.09893 2.59068 0
M  V30 5666 N 539.506 -0.963266 1.24736 0
M  V30 5667 C 540.731 -1.74699 1.11781 0
M  V30 5668 C 541.156 -1.85267 -0.325258 0
M  V30 5669 O 540.514 -1.32681 -1.23553 0
M  V30 5670 C 540.562 -3.14322 1.76731 0
M  V30 5671 O 539.666 -3.99043 1.04109 0
M  V30 5672 H 539.007 -0.53684 0.390767 0
M  V30 5673 H 541.537 -1.20801 1.65131 0
M  V30 5674 H 541.547 -3.64824 1.82668 0
M  V30 5675 H 540.222 -3.05946 2.81726 0
M  V30 5676 H 538.799 -3.5752 1.05991 0
M  V30 5677 N 540.985 -1.06182 -1.16461 0
M  V30 5678 C 542.231 -0.788825 -1.87481 0
M  V30 5679 C 542.586 0.677298 -1.80085 0
M  V30 5680 O 541.879 1.48976 -1.20486 0
M  V30 5681 C 542.073 -1.21633 -3.36066 0
M  V30 5682 C 541.902 -2.72247 -3.57927 0
M  V30 5683 C 540.672 -3.39696 -3.74079 0
M  V30 5684 C 542.87 -3.70461 -3.56739 0
M  V30 5685 N 540.852 -4.79072 -3.83879 0
M  V30 5686 C 542.223 -4.95616 -3.72511 0
M  V30 5687 C 544.278 -3.63788 -3.39945 0
M  V30 5688 C 542.981 -6.14895 -3.73225 0
M  V30 5689 C 545.007 -4.82517 -3.41953 0
M  V30 5690 C 544.369 -6.065 -3.58242 0
M  V30 5691 H 540.468 -0.341034 -0.703719 0
M  V30 5692 H 543.052 -1.35575 -1.39741 0
M  V30 5693 H 541.223 -0.67725 -3.8245 0
M  V30 5694 H 542.955 -0.892119 -3.94745 0
M  V30 5695 H 539.71 -2.90097 -3.74354 0
M  V30 5696 H 540.134 -5.51573 -3.92551 0
M  V30 5697 H 544.776 -2.68888 -3.26281 0
M  V30 5698 H 542.494 -7.10129 -3.85672 0
M  V30 5699 H 546.08 -4.79017 -3.30203 0
M  V30 5700 H 544.96 -6.96833 -3.59712 0
M  V30 5701 N 542.463 1.3308 -0.844243 0
M  V30 5702 C 543.41 2.29104 -0.279323 0
M  V30 5703 C 544.38 1.54577 0.607882 0
M  V30 5704 O 545.565 1.8285 0.545009 0
M  V30 5705 C 542.705 3.40927 0.53508 0
M  V30 5706 C 541.818 4.30354 -0.376749 0
M  V30 5707 C 540.953 5.29297 0.449276 0
M  V30 5708 C 539.992 6.10365 -0.460606 0
M  V30 5709 N 539.129 7.01335 0.327612 0
M  V30 5710 H 543.969 2.76817 -1.10346 0
M  V30 5711 H 541.506 1.36203 -0.555611 0
M  V30 5712 H 543.464 4.04469 1.02278 0
M  V30 5713 H 542.094 2.94391 1.32414 0
M  V30 5714 H 541.146 3.67485 -0.982791 0
M  V30 5715 H 542.458 4.87067 -1.07549 0
M  V30 5716 H 541.612 5.98392 1.00058 0
M  V30 5717 H 540.351 4.73174 1.18143 0
M  V30 5718 H 539.356 5.40182 -1.02388 0
M  V30 5719 H 540.581 6.68571 -1.1912 0
M  V30 5720 H 538.527 6.47655 1.04305 0
M  V30 5721 H 538.444 7.55355 -0.3123 0
M  V30 5722 H 539.712 7.74731 0.86098 0
M  V30 5723 N 543.941 0.601185 1.45683 0
M  V30 5724 C 545.189 0.0936957 2.01883 0
M  V30 5725 C 545.51 -1.2779 1.47291 0
M  V30 5726 O 544.78 -1.84279 0.664691 0
M  V30 5727 H 543.36 0.0316466 0.746329 0
M  V30 5728 H 546.022 0.781137 1.78562 0
M  V30 5729 H 545.118 0.0386297 3.12076 0
M  V30 5730 N 545.419 -1.53889 0.339982 0
M  V30 5731 C 546.647 -2.05271 -0.259114 0
M  V30 5732 C 547.062 -1.21517 -1.44496 0
M  V30 5733 O 546.419 -0.24966 -1.80784 0
M  V30 5734 C 546.47 -3.55092 -0.677634 0
M  V30 5735 O 546.191 -4.35667 0.461051 0
M  V30 5736 C 547.692 -4.22631 -1.33782 0
M  V30 5737 H 544.912 -0.669085 -0.0506566 0
M  V30 5738 H 547.456 -1.9852 0.490935 0
M  V30 5739 H 545.611 -3.62077 -1.37763 0
M  V30 5740 H 546.025 -5.24343 0.128144 0
M  V30 5741 H 547.499 -5.28861 -1.58145 0
M  V30 5742 H 547.976 -3.74758 -2.29027 0
M  V30 5743 H 548.582 -4.19829 -0.679957 0
M  V30 5744 N 546.897 -0.0685191 -1.57451 0
M  V30 5745 C 547.844 0.899861 -2.12535 0
M  V30 5746 C 548.814 1.29749 -1.03703 0
M  V30 5747 O 549.999 1.38392 -1.31348 0
M  V30 5748 C 547.139 2.16328 -2.6888 0
M  V30 5749 C 546.252 1.81857 -3.91857 0
M  V30 5750 C 545.387 3.02786 -4.36457 0
M  V30 5751 C 544.426 2.64317 -5.5209 0
M  V30 5752 N 543.563 3.77994 -5.91663 0
M  V30 5753 H 548.403 0.423243 -2.94979 0
M  V30 5754 H 545.94 0.197268 -1.45771 0
M  V30 5755 H 547.898 2.90281 -2.99655 0
M  V30 5756 H 546.528 2.61536 -1.89206 0
M  V30 5757 H 545.58 0.979808 -3.67565 0
M  V30 5758 H 546.892 1.49553 -4.75852 0
M  V30 5759 H 546.046 3.85021 -4.68875 0
M  V30 5760 H 544.785 3.38281 -3.51308 0
M  V30 5761 H 543.79 1.80503 -5.19325 0
M  V30 5762 H 545.015 2.29995 -6.38967 0
M  V30 5763 H 542.961 4.13258 -5.09464 0
M  V30 5764 H 542.878 3.49447 -6.7039 0
M  V30 5765 H 544.146 4.60818 -6.28703 0
M  V30 5766 N 548.375 1.56261 0.205012 0
M  V30 5767 C 549.786 1.70056 0.770574 0
M  V30 5768 C 550.137 0.673398 1.84282 0
M  V30 5769 O 549.262 -0.172196 2.15714 0
M  V30 5770 C 549.857 3.08316 1.40451 0
M  V30 5771 C 548.416 3.2391 1.91727 0
M  V30 5772 C 547.563 2.66001 0.783516 0
M  V30 5773 H 550.514 1.58688 -0.019911 0
M  V30 5774 H 550.535 3.05094 2.27371 0
M  V30 5775 H 550.047 3.83053 0.623882 0
M  V30 5776 H 548.148 2.54072 2.7254 0
M  V30 5777 H 548.261 4.3131 2.08588 0
M  V30 5778 H 546.625 2.24915 1.19521 0
M  V30 5779 H 547.408 3.43297 0.0152883 0
M  V30 5780 N 549.853 -0.472356 1.50355 0
M  V30 5781 C 551.102 -1.2213 1.60522 0
M  V30 5782 C 551.415 -1.9312 0.310466 0
M  V30 5783 O 552.621 -2.69936 0.291029 0
M  V30 5784 C 551.077 -2.21909 2.83345 0
M  V30 5785 C 550.685 -1.56727 4.19691 0
M  V30 5786 C 552.429 -2.97453 3.02856 0
M  V30 5787 C 550.336 -2.54785 5.33703 0
M  V30 5788 H 549.266 -0.459543 0.597776 0
M  V30 5789 H 551.917 -0.491922 1.76783 0
M  V30 5790 H 550.299 -2.98133 2.60639 0
M  V30 5791 H 551.473 -0.863007 4.52646 0
M  V30 5792 H 549.788 -0.934685 4.05774 0
M  V30 5793 H 552.385 -3.70838 3.85205 0
M  V30 5794 H 552.728 -3.56764 2.14534 0
M  V30 5795 H 553.261 -2.28342 3.25737 0
M  V30 5796 H 550 -2.00214 6.24175 0
M  V30 5797 H 549.52 -3.23367 5.05167 0
M  V30 5798 H 551.199 -3.16639 5.64224 0
M  V30 5799 N 551.331 -1.39911 -0.725443 0
M  V30 5800 C 552.608 -1.28158 -1.47766 0
M  V30 5801 C 552.988 0.104545 -2.10841 0
M  V30 5802 O 552.336 1.11657 -1.99361 0
M  V30 5803 C 552.546 -2.41306 -2.52135 0
M  V30 5804 C 553.894 -2.81076 -3.18247 0
M  V30 5805 O 554.918 -2.40827 -2.62452 0
M  V30 5806 O 553.777 -3.50581 -4.19231 0
M  V30 5807 H 550.871 -0.502761 -0.656628 0
M  V30 5808 H 553.417 -1.51808 -0.758456 0
M  V30 5809 H 552.189 -3.33932 -2.03974 0
M  V30 5810 H 551.812 -2.19374 -3.31603 0
M  V30 5811 N 552.809 0.956637 -1.25245 0
M  V30 5812 C 553.739 2.07058 -1.07931 0
M  V30 5813 C 554.72 1.70096 0.0110361 0
M  V30 5814 O 555.905 1.93555 -0.158121 0
M  V30 5815 C 553.035 3.40272 -0.695124 0
M  V30 5816 C 551.989 3.91235 -1.73549 0
M  V30 5817 C 551.315 5.20921 -1.20604 0
M  V30 5818 C 552.615 4.17837 -3.13385 0
M  V30 5819 H 554.309 2.218 -2.01109 0
M  V30 5820 H 551.855 1.06581 -0.968326 0
M  V30 5821 H 553.808 4.1765 -0.560949 0
M  V30 5822 H 552.532 3.25462 0.272355 0
M  V30 5823 H 551.191 3.16025 -1.85807 0
M  V30 5824 H 550.839 5.02479 -0.228846 0
M  V30 5825 H 550.539 5.55987 -1.90136 0
M  V30 5826 H 552.063 6.00897 -1.08421 0
M  V30 5827 H 553.477 4.8588 -3.04292 0
M  V30 5828 H 551.874 4.64154 -3.80369 0
M  V30 5829 H 552.944 3.2419 -3.60595 0
M  V30 5830 N 554.287 1.06798 1.15896 0
M  V30 5831 C 555.535 0.786211 1.8618 0
M  V30 5832 C 555.856 -0.689547 1.82401 0
M  V30 5833 O 555.126 -1.49913 1.26107 0
M  V30 5834 H 553.706 0.287843 0.689315 0
M  V30 5835 H 556.368 1.35055 1.40521 0
M  V30 5836 H 555.464 1.1157 2.91477 0
M  V30 5837 N 555.766 -1.3263 0.851289 0
M  V30 5838 C 556.714 -2.30882 0.282202 0
M  V30 5839 C 557.708 -1.58697 -0.592589 0
M  V30 5840 O 558.914 -1.73461 -0.480768 0
M  V30 5841 H 555.289 -0.748492 0.0725487 0
M  V30 5842 H 557.26 -2.76374 1.12516 0
M  V30 5843 C 556.009 -3.43828 -0.517449 0
M  V30 5844 H 555.332 -3.99532 0.146392 0
M  V30 5845 H 556.772 -4.1474 -0.88128 0
M  V30 5846 C 555.231 -2.90786 -1.70133 0
M  V30 5847 O 555.761 -2.88 -2.80034 0
M  V30 5848 N 553.967 -2.4723 -1.52728 0
M  V30 5849 H 553.514 -2.49695 -0.633257 0
M  V30 5850 H 553.472 -2.12094 -2.32085 0
M  V30 5851 N 557.244 -0.608902 -1.45362 0
M  V30 5852 C 558.492 -0.104401 -2.0183 0
M  V30 5853 C 558.813 1.27007 -1.47967 0
M  V30 5854 O 558.083 1.83924 -0.674455 0
M  V30 5855 H 556.663 -0.0356042 -0.746151 0
M  V30 5856 H 559.325 -0.790596 -1.78145 0
M  V30 5857 H 558.421 -0.0551793 -3.12051 0
M  V30 5858 N 558.722 1.53707 -0.348139 0
M  V30 5859 C 559.654 2.22725 0.540946 0
M  V30 5860 C 560.667 1.2354 1.06027 0
M  V30 5861 O 561.856 1.49867 0.96964 0
M  V30 5862 C 558.956 2.89756 1.75768 0
M  V30 5863 C 558.129 4.15297 1.37285 0
M  V30 5864 C 557.188 4.65697 2.44976 0
M  V30 5865 O 556.214 5.29798 2.08092 0
M  V30 5866 N 557.416 4.42017 3.763 0
M  V30 5867 H 560.181 2.99658 -0.0501592 0
M  V30 5868 H 557.742 1.60979 -0.17248 0
M  V30 5869 H 559.734 3.20388 2.47252 0
M  V30 5870 H 558.304 2.16382 2.25605 0
M  V30 5871 H 557.524 3.9116 0.488584 0
M  V30 5872 H 558.812 4.96948 1.09179 0
M  V30 5873 H 558.21 3.9076 4.09051 0
M  V30 5874 H 556.767 4.77242 4.4394 0
M  V30 5875 N 560.2 0.0768682 1.57412 0
M  V30 5876 C 561.428 -0.59997 1.9801 0
M  V30 5877 C 561.843 -1.62842 0.955408 0
M  V30 5878 O 561.2 -1.8241 -0.057314 0
M  V30 5879 C 561.251 -1.26401 3.38681 0
M  V30 5880 O 560.972 -0.276723 4.37225 0
M  V30 5881 C 562.473 -2.0282 3.94182 0
M  V30 5882 H 559.693 -0.162239 0.651091 0
M  V30 5883 H 562.237 0.150771 2.03943 0
M  V30 5884 H 560.392 -1.96581 3.33819 0
M  V30 5885 H 560.806 -0.753744 5.19056 0
M  V30 5886 H 562.28 -2.44667 4.94815 0
M  V30 5887 H 562.757 -2.88678 3.31001 0
M  V30 5888 H 563.363 -1.37496 4.02461 0
M  V30 5889 N 561.678 -1.56367 -0.196722 0
M  V30 5890 C 563.094 -1.49916 -0.54749 0
M  V30 5891 C 563.294 -0.77659 -1.85934 0
M  V30 5892 O 562.35 -0.32644 -2.50381 0
M  V30 5893 C 563.663 -2.94577 -0.603734 0
M  V30 5894 C 565.211 -3.05239 -0.692677 0
M  V30 5895 C 565.686 -4.51308 -0.780046 0
M  V30 5896 N 567.177 -4.55453 -0.843616 0
M  V30 5897 C 567.912 -5.65786 -0.931358 0
M  V30 5898 N 567.408 -6.85812 -0.981503 0
M  V30 5899 N 569.201 -5.53695 -0.968421 0
M  V30 5900 H 561.352 -2.01761 0.663803 0
M  V30 5901 H 563.615 -0.918094 0.236238 0
M  V30 5902 H 563.321 -3.50494 0.29105 0
M  V30 5903 H 563.195 -3.47841 -1.45898 0
M  V30 5904 H 565.582 -2.49372 -1.57789 0
M  V30 5905 H 565.663 -2.55103 0.188736 0
M  V30 5906 H 565.307 -5.078 0.100811 0
M  V30 5907 H 565.237 -4.99176 -1.67724 0
M  V30 5908 H 567.728 -3.69025 -0.814176 0
M  V30 5909 H 568.041 -7.65648 -1.04892 0
M  V30 5910 H 566.386 -6.88474 -0.950208 0
M  V30 5911 H 569.577 -4.58848 -0.926072 0
M  V30 5912 H 569.75 -6.39708 -1.03334 0
M  V30 5913 N 563.156 0.464375 -1.50603 0
M  V30 5914 C 564.103 1.56152 -1.69956 0
M  V30 5915 C 565.073 1.57046 -0.54091 0
M  V30 5916 O 566.258 1.74473 -0.772258 0
M  V30 5917 C 563.398 2.94079 -1.80586 0
M  V30 5918 C 562.511 3.02923 -3.07996 0
M  V30 5919 C 561.646 4.31806 -3.09382 0
M  V30 5920 C 560.685 4.34417 -4.31218 0
M  V30 5921 N 559.822 5.54782 -4.30304 0
M  V30 5922 H 564.662 1.38955 -2.6362 0
M  V30 5923 H 562.199 0.675482 -1.30674 0
M  V30 5924 H 564.157 3.74073 -1.8473 0
M  V30 5925 H 562.787 3.09896 -0.903556 0
M  V30 5926 H 561.839 2.1576 -3.13292 0
M  V30 5927 H 563.151 3.00712 -3.97962 0
M  V30 5928 H 562.305 5.20153 -3.12292 0
M  V30 5929 H 561.044 4.36636 -2.17257 0
M  V30 5930 H 560.049 3.44467 -4.28512 0
M  V30 5931 H 561.274 4.31273 -5.24576 0
M  V30 5932 H 559.22 5.60384 -3.41037 0
M  V30 5933 H 559.137 5.54339 -5.14047 0
M  V30 5934 H 560.405 6.45235 -4.3737 0
M  V30 5935 N 564.634 1.40294 0.718013 0
M  V30 5936 C 565.881 1.3844 1.47786 0
M  V30 5937 C 566.209 -0.0140838 1.94495 0
M  V30 5938 O 565.464 -0.998165 1.68331 0
M  V30 5939 C 565.763 2.31814 2.72024 0
M  V30 5940 C 565.429 3.79117 2.44093 0
M  V30 5941 C 564.091 4.19249 2.36185 0
M  V30 5942 C 566.443 4.72212 2.20602 0
M  V30 5943 C 563.771 5.50516 2.02851 0
M  V30 5944 C 566.123 6.03775 1.88781 0
M  V30 5945 C 564.787 6.42953 1.79354 0
M  V30 5946 H 564.057 0.506588 0.540786 0
M  V30 5947 H 566.704 1.72929 0.822663 0
M  V30 5948 H 565.009 1.90501 3.42369 0
M  V30 5949 H 566.706 2.27664 3.30106 0
M  V30 5950 H 563.296 3.47318 2.51133 0
M  V30 5951 H 567.48 4.42026 2.25669 0
M  V30 5952 H 562.736 5.79776 1.94088 0
M  V30 5953 H 566.91 6.75428 1.69617 0
M  V30 5954 H 564.537 7.44584 1.53291 0
M  V30 5955 N 566.112 -0.949982 1.2575 0
M  V30 5956 C 567.042 -2.06483 1.09028 0
M  V30 5957 C 568.023 -1.701 -0.00201532 0
M  V30 5958 O 569.208 -1.93469 0.168383 0
M  V30 5959 C 566.338 -3.39899 0.71316 0
M  V30 5960 C 565.292 -3.90309 1.75621 0
M  V30 5961 C 564.618 -5.20274 1.23365 0
M  V30 5962 C 565.918 -4.16169 3.15596 0
M  V30 5963 H 567.612 -2.20731 2.02283 0
M  V30 5964 H 565.158 -1.06066 0.973964 0
M  V30 5965 H 567.111 -4.17346 0.58309 0
M  V30 5966 H 565.835 -3.25602 -0.255091 0
M  V30 5967 H 564.494 -3.15035 1.8748 0
M  V30 5968 H 564.142 -5.02351 0.255491 0
M  V30 5969 H 563.842 -5.54971 1.93082 0
M  V30 5970 H 565.366 -6.00314 1.11607 0
M  V30 5971 H 566.78 -4.84259 3.06864 0
M  V30 5972 H 565.177 -4.62131 3.82825 0
M  V30 5973 H 566.247 -3.22273 3.6231 0
M  V30 5974 N 567.59 -1.07411 -1.15328 0
M  V30 5975 C 568.52 -0.716472 -2.22236 0
M  V30 5976 C 569.501 0.296373 -1.67498 0
M  V30 5977 O 570.686 0.168989 -1.93463 0
M  V30 5978 C 567.816 -0.114142 -3.47112 0
M  V30 5979 C 566.77 -1.05421 -4.14814 0
M  V30 5980 C 566.096 -0.314604 -5.33774 0
M  V30 5981 C 567.396 -2.38808 -4.64508 0
M  V30 5982 H 569.09 -1.61029 -2.52408 0
M  V30 5983 H 566.636 -0.775702 -1.21321 0
M  V30 5984 H 568.589 0.148001 -4.2114 0
M  V30 5985 H 567.313 0.814755 -3.16274 0
M  V30 5986 H 565.972 -1.30128 -3.42728 0
M  V30 5987 H 565.62 0.617772 -4.99192 0
M  V30 5988 H 565.32 -0.941209 -5.80013 0
M  V30 5989 H 566.844 -0.0602747 -6.1057 0
M  V30 5990 H 568.258 -2.18424 -5.3006 0
M  V30 5991 H 566.655 -2.97069 -5.21412 0
M  V30 5992 H 567.725 -3.01067 -3.80114 0
M  V30 5993 N 569.068 1.32177 -0.85831 0
M  V30 5994 C 570.345 1.91781 -0.384624 0
M  V30 5995 C 570.725 1.78171 1.13217 0
M  V30 5996 O 570.073 1.18209 1.95548 0
M  V30 5997 C 570.283 3.38414 -0.853047 0
M  V30 5998 C 571.631 4.15542 -0.872359 0
M  V30 5999 O 572.655 3.47148 -0.797926 0
M  V30 6000 O 571.514 5.37678 -0.978009 0
M  V30 6001 H 568.608 0.819259 -0.112886 0
M  V30 6002 H 571.154 1.40923 -0.945453 0
M  V30 6003 H 569.926 3.4228 -1.89632 0
M  V30 6004 H 569.549 3.96683 -0.269874 0
M  V30 6005 N 570.547 0.616602 1.45037 0
M  V30 6006 C 571.795 0.115103 2.01772 0
M  V30 6007 C 572.116 -1.2622 1.48639 0
M  V30 6008 O 571.386 -1.83563 0.684199 0
M  V30 6009 H 569.966 0.0395607 0.745952 0
M  V30 6010 H 572.628 0.800032 1.77723 0
M  V30 6011 H 571.724 0.0717274 3.12018 0
M  V30 6012 N 572.025 -1.5352 0.356285 0
M  V30 6013 C 573.302 -1.93405 -0.292223 0
M  V30 6014 C 573.682 -1.28901 -1.67176 0
M  V30 6015 O 573.03 -0.444632 -2.24132 0
M  V30 6016 C 573.24 -3.47223 -0.35175 0
M  V30 6017 C 574.588 -4.20389 -0.596534 0
M  V30 6018 O 575.612 -3.53554 -0.433344 0
M  V30 6019 O 574.471 -5.3881 -0.913589 0
M  V30 6020 H 571.565 -0.808666 -0.173172 0
M  V30 6021 H 574.111 -1.64713 0.408391 0
M  V30 6022 H 572.883 -3.86423 0.615841 0
M  V30 6023 H 572.506 -3.8212 -1.09864 0
M  V30 6024 N 573.503 -0.0852151 -1.57369 0
M  V30 6025 C 574.413 0.891712 -2.16992 0
M  V30 6026 C 575.429 1.3174 -1.13669 0
M  V30 6027 O 576.605 1.38735 -1.45995 0
M  V30 6028 C 573.67 2.13635 -2.73059 0
M  V30 6029 C 572.731 1.7658 -3.91303 0
M  V30 6030 C 571.964 2.95111 -4.44686 0
M  V30 6031 O 572.187 4.09539 -3.97032 0
M  V30 6032 O 571.121 2.74149 -5.35841 0
M  V30 6033 H 574.947 0.414477 -3.00858 0
M  V30 6034 H 572.532 0.138598 -1.48756 0
M  V30 6035 H 574.414 2.86595 -3.08935 0
M  V30 6036 H 573.089 2.6043 -1.92244 0
M  V30 6037 H 571.996 1.00831 -3.60255 0
M  V30 6038 H 573.329 1.34557 -4.7345 0
M  V30 6039 N 574.981 1.5647 0.188427 0
M  V30 6040 C 576.227 1.81281 0.909124 0
M  V30 6041 C 576.56 0.66034 1.82628 0
M  V30 6042 O 575.835 -0.338737 1.91528 0
M  V30 6043 C 576.118 3.16388 1.7196 0
M  V30 6044 C 575.971 4.42137 0.826714 0
M  V30 6045 C 577.29 3.48256 2.69083 0
M  V30 6046 H 574.409 0.659457 0.329068 0
M  V30 6047 H 577.051 1.89182 0.176156 0
M  V30 6048 H 575.201 3.09784 2.34448 0
M  V30 6049 H 576.873 4.60794 0.216025 0
M  V30 6050 H 575.116 4.33594 0.133792 0
M  V30 6051 H 575.787 5.33184 1.42893 0
M  V30 6052 H 578.263 3.55203 2.16726 0
M  V30 6053 H 577.139 4.43899 3.2287 0
M  V30 6054 H 577.4 2.72088 3.48455 0
M  V30 6055 N 576.459 -0.456382 1.50847 0
M  V30 6056 C 577.708 -1.2042 1.61808 0
M  V30 6057 C 578.021 -1.9278 0.330932 0
M  V30 6058 O 579.227 -2.69612 0.319643 0
M  V30 6059 C 577.683 -2.18891 2.85683 0
M  V30 6060 C 577.291 -1.52267 4.2133 0
M  V30 6061 C 579.035 -2.94224 3.05994 0
M  V30 6062 C 576.942 -2.4911 5.36375 0
M  V30 6063 H 575.872 -0.453177 0.602616 0
M  V30 6064 H 578.523 -0.473144 1.77295 0
M  V30 6065 H 576.905 -2.95351 2.63787 0
M  V30 6066 H 578.079 -0.814949 4.53536 0
M  V30 6067 H 576.394 -0.891594 4.06743 0
M  V30 6068 H 578.991 -3.66732 3.89117 0
M  V30 6069 H 579.334 -3.54469 2.18306 0
M  V30 6070 H 579.867 -2.24874 3.28141 0
M  V30 6071 H 576.606 -1.93582 6.26264 0
M  V30 6072 H 576.126 -3.17991 5.08569 0
M  V30 6073 H 577.805 -3.10637 5.67551 0
M  V30 6074 N 577.937 -1.40673 -0.710563 0
M  V30 6075 C 579.186 -1.38525 -1.46607 0
M  V30 6076 C 579.499 0.0077024 -1.95598 0
M  V30 6077 O 580.705 0.151792 -2.71075 0
M  V30 6078 C 579.161 -2.43489 -2.6503 0
M  V30 6079 C 578.769 -3.88619 -2.22888 0
M  V30 6080 C 580.513 -2.50456 -3.42742 0
M  V30 6081 C 578.42 -4.85168 -3.3818 0
M  V30 6082 H 577.35 -0.515092 -0.550632 0
M  V30 6083 H 580.001 -1.66431 -0.772846 0
M  V30 6084 H 578.383 -2.0869 -3.36548 0
M  V30 6085 H 579.557 -4.32588 -1.58758 0
M  V30 6086 H 577.872 -3.85174 -1.58208 0
M  V30 6087 H 580.469 -3.19776 -4.28541 0
M  V30 6088 H 580.812 -1.53665 -3.86902 0
M  V30 6089 H 581.345 -2.84271 -2.78271 0
M  V30 6090 H 578.084 -5.8331 -2.99047 0
M  V30 6091 H 577.604 -4.4586 -4.01209 0
M  V30 6092 H 579.283 -5.05225 -4.04174 0
M  V30 6093 N 579.415 0.9433 -1.26252 0
M  V30 6094 C 580.643 1.72367 -1.14443 0
M  V30 6095 C 581.058 1.86392 0.300572 0
M  V30 6096 O 580.415 1.36978 1.20596 0
M  V30 6097 C 580.466 3.13155 -1.806 0
M  V30 6098 O 580.187 2.99803 -3.19452 0
M  V30 6099 C 581.688 4.07417 -1.74717 0
M  V30 6100 H 578.908 0.539758 -0.398626 0
M  V30 6101 H 581.452 1.18268 -1.66832 0
M  V30 6102 H 579.607 3.64162 -1.32154 0
M  V30 6103 H 580.021 3.88697 -3.52158 0
M  V30 6104 H 581.495 5.03773 -2.25647 0
M  V30 6105 H 581.972 4.3337 -0.713244 0
M  V30 6106 H 582.578 3.6233 -2.22704 0
M  V30 6107 N 580.893 1.08022 1.14757 0
M  V30 6108 C 582.141 0.805913 1.85336 0
M  V30 6109 C 582.462 -0.670162 1.83122 0
M  V30 6110 O 581.732 -1.48567 1.2769 0
M  V30 6111 H 580.312 0.295138 0.686223 0
M  V30 6112 H 582.974 1.36538 1.3908 0
M  V30 6113 H 582.07 1.14655 2.90277 0
M  V30 6114 N 582.371 -1.3172 0.865308 0
M  V30 6115 C 583.601 -2.00765 0.487543 0
M  V30 6116 C 584.009 -1.65145 -0.92325 0
M  V30 6117 O 583.352 -0.874294 -1.61561 0
M  V30 6118 C 583.414 -3.55122 0.559369 0
M  V30 6119 C 583.078 -4.14202 1.93095 0
M  V30 6120 C 584.075 -4.3165 2.89784 0
M  V30 6121 C 581.76 -4.50036 2.23099 0
M  V30 6122 C 583.754 -4.84114 4.14623 0
M  V30 6123 C 581.441 -5.02203 3.48189 0
M  V30 6124 C 582.439 -5.19192 4.43767 0
M  V30 6125 O 582.127 -5.70241 5.6664 0
M  V30 6126 H 581.859 -0.649066 0.188915 0
M  V30 6127 H 584.413 -1.69032 1.16694 0
M  V30 6128 H 582.643 -3.86295 -0.176926 0
M  V30 6129 H 584.332 -4.05428 0.195694 0
M  V30 6130 H 585.098 -4.04288 2.6791 0
M  V30 6131 H 580.977 -4.36091 1.49485 0
M  V30 6132 H 584.521 -4.9729 4.89233 0
M  V30 6133 H 580.418 -5.28997 3.69908 0
M  V30 6134 H 581.186 -5.88617 5.68746 0
M  V30 6135 N 583.85 -0.624285 -1.44708 0
M  V30 6136 C 585.09 -0.129273 -2.03991 0
M  V30 6137 C 585.454 1.22321 -1.47992 0
M  V30 6138 O 586.654 1.80993 -1.98734 0
M  V30 6139 C 584.926 -0.108231 -3.57236 0
M  V30 6140 S 586.485 0.323158 -4.37608 0
M  V30 6141 H 583.303 -0.0577318 -0.708652 0
M  V30 6142 H 585.904 -0.826139 -1.77187 0
M  V30 6143 H 584.609 -1.0958 -3.955 0
M  V30 6144 H 584.139 0.610101 -3.8864 0
M  V30 6145 H 586.154 1.56894 -4.70743 0
M  V30 6146 N 585.328 1.53329 -0.364422 0
M  V30 6147 C 586.26 2.23286 0.517293 0
M  V30 6148 C 587.273 1.24657 1.04711 0
M  V30 6149 O 588.462 1.50887 0.95369 0
M  V30 6150 C 585.562 2.91604 1.72685 0
M  V30 6151 C 584.735 4.1673 1.32873 0
M  V30 6152 C 583.794 4.68269 2.40022 0
M  V30 6153 O 582.82 5.31976 2.02461 0
M  V30 6154 N 584.022 4.45983 3.7159 0
M  V30 6155 H 586.787 2.99588 -0.0819391 0
M  V30 6156 H 584.348 1.60787 -0.189544 0
M  V30 6157 H 586.34 3.22992 2.4384 0
M  V30 6158 H 584.91 2.18763 2.23297 0
M  V30 6159 H 584.13 3.91657 0.447069 0
M  V30 6160 H 585.418 4.98078 1.03902 0
M  V30 6161 H 584.816 3.95077 4.04883 0
M  V30 6162 H 583.373 4.81924 4.38854 0
M  V30 6163 N 586.806 0.0935595 1.57322 0
M  V30 6164 C 588.054 -0.569383 1.93913 0
M  V30 6165 C 588.375 -1.68817 0.976009 0
M  V30 6166 O 587.645 -1.9588 0.0278099 0
M  V30 6167 H 586.225 -0.21332 0.715894 0
M  V30 6168 H 588.887 0.156531 1.9427 0
M  V30 6169 H 587.983 -0.980577 2.96296 0
M  V30 6170 N 588.284 -1.56567 -0.180126 0
M  V30 6171 C 589.561 -1.7235 -0.924931 0
M  V30 6172 C 589.941 -0.652523 -2.00762 0
M  V30 6173 O 589.289 0.334115 -2.26044 0
M  V30 6174 C 589.499 -3.1523 -1.49771 0
M  V30 6175 C 590.847 -3.75921 -1.97405 0
M  V30 6176 O 591.871 -3.18452 -1.59583 0
M  V30 6177 O 590.73 -4.7681 -2.67048 0
M  V30 6178 H 587.824 -0.703502 -0.434758 0
M  V30 6179 H 590.37 -1.6886 -0.168647 0
M  V30 6180 H 589.142 -3.84656 -0.718027 0
M  V30 6181 H 588.765 -3.23009 -2.31842 0
M  V30 6182 N 589.762 0.448376 -1.51087 0
M  V30 6183 C 591.01 1.19635 -1.62886 0
M  V30 6184 C 591.331 1.91977 -0.342024 0
M  V30 6185 O 590.601 1.85094 0.641636 0
M  V30 6186 H 589.181 0.444598 -0.600285 0
M  V30 6187 H 591.843 0.515138 -1.87969 0
M  V30 6188 H 590.939 1.93194 -2.45117 0
M  V30 6189 N 591.24 1.41047 0.703093 0
M  V30 6190 C 592.47 1.43133 1.48985 0
M  V30 6191 C 592.878 0.0328537 1.89171 0
M  V30 6192 O 592.221 -0.956469 1.56835 0
M  V30 6193 C 592.283 2.26991 2.78775 0
M  V30 6194 C 591.947 3.7525 2.60837 0
M  V30 6195 C 592.944 4.67591 2.27276 0
M  V30 6196 C 590.629 4.19208 2.76712 0
M  V30 6197 C 592.623 6.01877 2.09817 0
M  V30 6198 C 590.31 5.53561 2.5887 0
M  V30 6199 C 591.308 6.4471 2.25472 0
M  V30 6200 O 590.996 7.76584 2.07778 0
M  V30 6201 H 590.728 0.489788 0.465922 0
M  V30 6202 H 593.282 1.85886 0.873822 0
M  V30 6203 H 591.512 1.79038 3.42757 0
M  V30 6204 H 593.201 2.20867 3.40547 0
M  V30 6205 H 593.967 4.34923 2.14633 0
M  V30 6206 H 589.846 3.48572 3.01693 0
M  V30 6207 H 593.39 6.72986 1.83671 0
M  V30 6208 H 589.287 5.85811 2.71102 0
M  V30 6209 H 590.055 7.87649 2.22601 0
M  V30 6210 N 592.718 -0.936591 1.26751 0
M  V30 6211 C 594.134 -1.21095 1.03963 0
M  V30 6212 C 594.334 -2.00156 -0.232372 0
M  V30 6213 O 593.39 -2.3434 -0.940274 0
M  V30 6214 C 594.703 -1.96775 2.27377 0
M  V30 6215 C 596.251 -2.09749 2.32324 0
M  V30 6216 C 596.726 -2.88832 3.55443 0
M  V30 6217 N 598.217 -2.96404 3.55948 0
M  V30 6218 C 598.952 -3.58036 4.47881 0
M  V30 6219 N 598.448 -4.21132 5.50109 0
M  V30 6220 N 600.241 -3.55353 4.35523 0
M  V30 6221 H 592.392 -0.408173 2.08441 0
M  V30 6222 H 594.655 -0.243139 0.91629 0
M  V30 6223 H 594.361 -1.46094 3.19921 0
M  V30 6224 H 594.235 -2.97424 2.31989 0
M  V30 6225 H 596.622 -2.5962 1.40291 0
M  V30 6226 H 596.703 -1.08347 2.31721 0
M  V30 6227 H 596.347 -2.39647 4.47808 0
M  V30 6228 H 596.277 -3.90499 3.53296 0
M  V30 6229 H 598.768 -2.51552 2.82011 0
M  V30 6230 H 599.081 -4.66071 6.16439 0
M  V30 6231 H 597.426 -4.19705 5.53961 0
M  V30 6232 H 600.617 -3.05256 3.54875 0
M  V30 6233 H 600.79 -4.03097 5.07363 0
M  V30 6234 N 594.196 -1.08629 -1.14182 0
M  V30 6235 C 595.445 -0.812271 -1.84621 0
M  V30 6236 C 595.758 0.664313 -1.83973 0
M  V30 6237 O 596.964 1.05357 -2.50224 0
M  V30 6238 C 595.42 -1.4031 -3.31423 0
M  V30 6239 C 595.028 -2.91164 -3.40481 0
M  V30 6240 C 596.772 -1.20767 -4.06959 0
M  V30 6241 C 594.679 -3.43373 -4.81507 0
M  V30 6242 H 593.609 -0.30019 -0.691666 0
M  V30 6243 H 596.26 -1.30798 -1.28701 0
M  V30 6244 H 594.642 -0.835096 -3.87094 0
M  V30 6245 H 595.816 -3.5412 -2.94848 0
M  V30 6246 H 594.131 -3.09646 -2.78403 0
M  V30 6247 H 596.728 -1.57237 -5.11058 0
M  V30 6248 H 597.071 -0.147664 -4.16038 0
M  V30 6249 H 597.604 -1.74274 -3.57594 0
M  V30 6250 H 594.343 -4.48958 -4.77616 0
M  V30 6251 H 593.863 -2.85176 -5.27669 0
M  V30 6252 H 595.542 -3.40095 -5.50404 0
M  V30 6253 N 595.674 1.31259 -0.872281 0
M  V30 6254 C 596.922 1.96233 -0.483409 0
M  V30 6255 C 597.243 1.69276 0.968012 0
M  V30 6256 O 596.513 1.00943 1.67891 0
M  V30 6257 H 595.093 0.726025 -0.175774 0
M  V30 6258 H 597.755 1.60024 -1.11258 0
M  V30 6259 H 596.851 3.05403 -0.643075 0
M  V30 6260 N 597.152 0.631951 1.44375 0
M  V30 6261 C 598.399 0.136767 2.02038 0
M  V30 6262 C 598.727 -1.24168 1.49709 0
M  V30 6263 O 597.982 -1.83809 0.671763 0
M  V30 6264 C 598.281 0.0735861 3.57324 0
M  V30 6265 C 597.947 1.39092 4.28911 0
M  V30 6266 C 596.609 1.75171 4.48184 0
M  V30 6267 C 598.961 2.26042 4.69632 0
M  V30 6268 C 596.289 2.97907 5.05439 0
M  V30 6269 C 598.641 3.4805 5.28246 0
M  V30 6270 C 597.305 3.84351 5.45738 0
M  V30 6271 H 596.575 0.0500466 0.739308 0
M  V30 6272 H 599.222 0.818429 1.7313 0
M  V30 6273 H 597.527 -0.691449 3.8565 0
M  V30 6274 H 599.224 -0.326091 3.99672 0
M  V30 6275 H 595.814 1.10015 4.1424 0
M  V30 6276 H 599.998 1.99463 4.54454 0
M  V30 6277 H 595.254 3.26108 5.17169 0
M  V30 6278 H 599.428 4.15658 5.5875 0
M  V30 6279 H 597.055 4.79538 5.8987 0
M  V30 6280 N 598.631 -1.53133 0.372548 0
M  V30 6281 C 599.879 -2.00958 -0.214534 0
M  V30 6282 C 600.2 -1.26135 -1.48711 0
M  V30 6283 O 599.47 -0.376597 -1.92246 0
M  V30 6284 H 598.05 -0.742456 -0.0822664 0
M  V30 6285 H 600.712 -1.88367 0.500385 0
M  V30 6286 H 599.808 -3.09031 -0.436605 0
M  V30 6287 N 600.109 -0.101901 -1.5727 0
M  V30 6288 C 601.041 0.884723 -2.11436 0
M  V30 6289 C 602.054 1.24149 -1.05314 0
M  V30 6290 O 603.243 1.19341 -1.3274 0
M  V30 6291 C 600.343 2.19179 -2.58484 0
M  V30 6292 C 599.516 2.00933 -3.88516 0
M  V30 6293 C 598.575 3.15213 -4.2134 0
M  V30 6294 O 597.601 2.88877 -4.90448 0
M  V30 6295 N 598.803 4.41174 -3.77288 0
M  V30 6296 H 601.568 0.422058 -2.96713 0
M  V30 6297 H 599.129 0.0830128 -1.61687 0
M  V30 6298 H 601.121 2.94593 -2.77484 0
M  V30 6299 H 599.691 2.56847 -1.7818 0
M  V30 6300 H 598.911 1.09809 -3.78597 0
M  V30 6301 H 600.199 1.86026 -4.73573 0
M  V30 6302 H 599.597 4.6545 -3.21516 0
M  V30 6303 H 598.154 5.13515 -4.01429 0
M  V30 6304 N 601.587 1.56661 0.17182 0
M  V30 6305 C 602.827 1.83762 0.895029 0
M  V30 6306 C 603.191 0.682752 1.79451 0
M  V30 6307 O 604.392 0.834208 2.55528 0
M  V30 6308 C 602.663 3.15976 1.67015 0
M  V30 6309 S 604.222 3.64558 2.44219 0
M  V30 6310 H 601.04 0.644713 0.299778 0
M  V30 6311 H 603.642 1.94871 0.156701 0
M  V30 6312 H 602.346 3.98021 1.00039 0
M  V30 6313 H 601.877 3.07807 2.44986 0
M  V30 6314 H 603.892 3.31845 3.68909 0
M  V30 6315 N 603.065 -0.440357 1.51323 0
M  V30 6316 C 604.028 -1.51679 1.71832 0
M  V30 6317 C 605.028 -1.49648 0.588386 0
M  V30 6318 O 606.218 -1.51724 0.855891 0
M  V30 6319 C 603.35 -2.91228 1.77199 0
M  V30 6320 H 604.543 -1.34799 2.67898 0
M  V30 6321 H 602.096 -0.66883 1.41267 0
M  V30 6322 H 602.831 -3.13516 0.829363 0
M  V30 6323 H 602.616 -2.94107 2.59314 0
M  V30 6324 H 604.106 -3.69321 1.94915 0
M  V30 6325 N 604.543 -1.41418 -0.695603 0
M  V30 6326 C 605.791 -1.40496 -1.45277 0
M  V30 6327 C 606.112 -0.0149538 -1.94994 0
M  V30 6328 O 605.382 0.9432 -1.71699 0
M  V30 6329 H 603.962 -0.517147 -0.539044 0
M  V30 6330 H 606.624 -1.76656 -0.823321 0
M  V30 6331 H 605.72 -2.09214 -2.31595 0
M  V30 6332 N 606.021 0.929856 -1.27246 0
M  V30 6333 C 606.968 2.03017 -1.09785 0
M  V30 6334 C 607.938 1.661 0.000456744 0
M  V30 6335 O 609.123 1.90116 -0.161462 0
M  V30 6336 C 606.263 3.36878 -0.748816 0
M  V30 6337 C 605.376 3.86763 -1.92453 0
M  V30 6338 C 604.511 5.09061 -1.51758 0
M  V30 6339 C 603.55 5.51237 -2.66091 0
M  V30 6340 N 602.687 6.64732 -2.25999 0
M  V30 6341 H 607.527 2.17285 -2.03939 0
M  V30 6342 H 605.064 1.06448 -1.01524 0
M  V30 6343 H 607.022 4.13855 -0.527283 0
M  V30 6344 H 605.652 3.22424 0.155771 0
M  V30 6345 H 604.704 3.06086 -2.25867 0
M  V30 6346 H 606.016 4.13994 -2.78227 0
M  V30 6347 H 605.17 5.93532 -1.25716 0
M  V30 6348 H 603.909 4.83602 -0.630896 0
M  V30 6349 H 602.914 4.65316 -2.92849 0
M  V30 6350 H 604.139 5.78692 -3.55377 0
M  V30 6351 H 602.085 6.40935 -1.3978 0
M  V30 6352 H 602.002 6.91607 -3.05313 0
M  V30 6353 H 603.27 7.52549 -2.03199 0
M  V30 6354 N 607.499 1.09233 1.13605 0
M  V30 6355 C 608.745 0.828385 1.8511 0
M  V30 6356 C 609.078 -0.64437 1.83198 0
M  V30 6357 O 608.353 -1.47428 1.26867 0
M  V30 6358 C 608.636 1.36167 3.33363 0
M  V30 6359 C 608.489 2.90038 3.438 0
M  V30 6360 C 609.808 0.993819 4.28732 0
M  V30 6361 H 606.927 0.30239 0.672108 0
M  V30 6362 H 609.569 1.35339 1.33355 0
M  V30 6363 H 607.719 0.9151 3.77569 0
M  V30 6364 H 609.391 3.43128 3.08319 0
M  V30 6365 H 607.634 3.27271 2.84739 0
M  V30 6366 H 608.305 3.22428 4.48045 0
M  V30 6367 H 610.781 1.37893 3.92587 0
M  V30 6368 H 609.657 1.39403 5.30903 0
M  V30 6369 H 609.918 -0.0982206 4.41991 0
M  V30 6370 N 608.977 -1.30795 0.87923 0
M  V30 6371 C 609.907 -2.30742 0.357796 0
M  V30 6372 C 610.888 -1.60747 -0.556283 0
M  V30 6373 O 612.073 -1.88393 -0.47135 0
M  V30 6374 C 609.203 -3.44583 -0.433555 0
M  V30 6375 C 608.157 -4.26235 0.388251 0
M  V30 6376 C 607.483 -5.32073 -0.529352 0
M  V30 6377 C 608.783 -4.96303 1.62729 0
M  V30 6378 H 610.477 -2.74605 1.19299 0
M  V30 6379 H 608.023 -1.32017 0.575104 0
M  V30 6380 H 609.976 -4.13563 -0.808934 0
M  V30 6381 H 608.7 -2.99511 -1.30234 0
M  V30 6382 H 607.359 -3.58936 0.745695 0
M  V30 6383 H 607.007 -4.83249 -1.39569 0
M  V30 6384 H 606.707 -5.87598 0.0166741 0
M  V30 6385 H 608.231 -6.0391 -0.901373 0
M  V30 6386 H 609.645 -5.5783 1.32283 0
M  V30 6387 H 608.042 -5.61666 2.11309 0
M  V30 6388 H 609.112 -4.22758 2.37494 0
M  V30 6389 N 610.455 -0.639598 -1.44038 0
M  V30 6390 C 611.866 -0.228866 -1.85292 0
M  V30 6391 C 612.217 1.22161 -1.53529 0
M  V30 6392 O 611.342 1.93064 -0.977518 0
M  V30 6393 C 611.937 -0.408592 -3.36327 0
M  V30 6394 C 610.496 -0.0522953 -3.76364 0
M  V30 6395 C 609.643 -0.717959 -2.67844 0
M  V30 6396 H 612.594 -0.844194 -1.34384 0
M  V30 6397 H 612.615 0.349968 -3.78887 0
M  V30 6398 H 612.127 -1.46435 -3.59414 0
M  V30 6399 H 610.228 1.0014 -3.58891 0
M  V30 6400 H 610.341 -0.468261 -4.76806 0
M  V30 6401 H 608.705 -0.152459 -2.54243 0
M  V30 6402 H 609.488 -1.77648 -2.93762 0
M  V30 6403 N 611.933 1.52934 -0.380664 0
M  V30 6404 C 612.896 2.24809 0.446473 0
M  V30 6405 C 613.896 1.26133 0.997347 0
M  V30 6406 O 615.086 1.50297 0.880714 0
M  V30 6407 C 612.218 2.99649 1.62553 0
M  V30 6408 H 613.411 2.99343 -0.182677 0
M  V30 6409 H 610.964 1.55736 -0.132618 0
M  V30 6410 H 611.699 2.29395 2.29235 0
M  V30 6411 H 611.484 3.72066 1.23732 0
M  V30 6412 H 612.974 3.54246 2.21133 0
M  V30 6413 N 613.412 0.11024 1.57214 0
M  V30 6414 C 614.342 -0.840002 2.17867 0
M  V30 6415 C 615.323 -1.28352 1.11624 0
M  V30 6416 O 616.508 -1.3477 1.39824 0
M  V30 6417 C 613.638 -2.09349 2.77111 0
M  V30 6418 C 612.592 -1.78807 3.8886 0
M  V30 6419 C 611.918 -3.11112 4.34872 0
M  V30 6420 C 613.218 -1.0632 5.11364 0
M  V30 6421 H 614.912 -0.334608 2.97524 0
M  V30 6422 H 612.458 -0.159502 1.43114 0
M  V30 6423 H 614.411 -2.76275 3.18198 0
M  V30 6424 H 613.135 -2.62198 1.9473 0
M  V30 6425 H 611.794 -1.14273 3.48335 0
M  V30 6426 H 611.442 -3.61877 3.49362 0
M  V30 6427 H 611.142 -2.91453 5.10224 0
M  V30 6428 H 612.666 -3.79171 4.78604 0
M  V30 6429 H 614.08 -1.63383 5.49526 0
M  V30 6430 H 612.477 -0.967876 5.92243 0
M  V30 6431 H 613.547 -0.0484569 4.84876 0
M  V30 6432 N 614.89 -1.56749 -0.16351 0
M  V30 6433 C 615.82 -2.00042 -1.20438 0
M  V30 6434 C 616.801 -0.877256 -1.45733 0
M  V30 6435 O 617.986 -1.1439 -1.56935 0
M  V30 6436 C 615.116 -2.36697 -2.54149 0
M  V30 6437 C 614.07 -3.52046 -2.43408 0
M  V30 6438 C 613.396 -3.74466 -3.81679 0
M  V30 6439 C 614.696 -4.85247 -1.93216 0
M  V30 6440 H 616.39 -2.87244 -0.844477 0
M  V30 6441 H 613.936 -1.38194 -0.40478 0
M  V30 6442 H 615.889 -2.65582 -3.27176 0
M  V30 6443 H 614.613 -1.46414 -2.91943 0
M  V30 6444 H 613.272 -3.23301 -1.72834 0
M  V30 6445 H 612.92 -2.81461 -4.1688 0
M  V30 6446 H 612.62 -4.52084 -3.75359 0
M  V30 6447 H 614.144 -4.0576 -4.5628 0
M  V30 6448 H 615.558 -5.12957 -2.56023 0
M  V30 6449 H 613.955 -5.66556 -1.97825 0
M  V30 6450 H 615.025 -4.7672 -0.88689 0
M  V30 6451 N 616.368 0.432326 -1.51554 0
M  V30 6452 C 617.779 1.01202 -1.56892 0
M  V30 6453 C 618.13 1.92175 -0.395394 0
M  V30 6454 O 617.255 2.10844 0.487198 0
M  V30 6455 C 617.85 1.84217 -2.8434 0
M  V30 6456 C 616.409 2.37228 -2.92233 0
M  V30 6457 C 615.556 1.16576 -2.51606 0
M  V30 6458 H 618.507 0.213407 -1.57259 0
M  V30 6459 H 618.528 2.69721 -2.68385 0
M  V30 6460 H 618.04 1.17979 -3.69733 0
M  V30 6461 H 616.141 3.06905 -2.11282 0
M  V30 6462 H 616.254 2.69682 -3.95991 0
M  V30 6463 H 614.618 1.51263 -2.04919 0
M  V30 6464 H 615.401 0.519404 -3.39348 0
M  V30 6465 N 617.846 1.41785 0.688094 0
M  V30 6466 C 619.071 1.45117 1.48175 0
M  V30 6467 C 619.496 0.060129 1.88004 0
M  V30 6468 O 618.854 -0.938385 1.55126 0
M  V30 6469 C 618.902 2.37224 2.71583 0
M  V30 6470 O 618.006 1.83443 3.69354 0
M  V30 6471 H 617.347 0.492208 0.445676 0
M  V30 6472 H 619.877 1.86329 0.845145 0
M  V30 6473 H 619.887 2.53353 3.19806 0
M  V30 6474 H 618.562 3.38293 2.41931 0
M  V30 6475 H 617.139 1.76802 3.28322 0
M  V30 6476 O 619.363 -0.830368 1.38518 0
M  V30 6477 H 620.054 -1.47302 1.25785 0
M  V30 END ATOM
M  V30 BEGIN BOND
M  V30 END BOND
M  V30 END CTAB
M  END
$$$$
