drugbank_target|P0A953 3-oxoacyl-[acyl-carrier-protein] synthase 1 (DB01034; DB03017; DB03600; DB04302; DB04519; DB08359; DB08627; DB08628)
 OpenBabel12092119403D

  0  0  0     0  0            999 V3000
M  V30 BEGIN CTAB
M  V30 COUNTS 5920 5968 0 0 0
M  V30 BEGIN ATOM
M  V30 1 H -0.908 1.98254 -0.117106 0
M  V30 2 N 0 1.576 0 0
M  V30 3 C 0.933 2.03868 1.02534 0
M  V30 4 C 1.911 0.928543 1.3348 0
M  V30 5 O 3.095 1.19667 1.45644 0
M  V30 6 C 0.222 2.43627 2.35294 0
M  V30 7 C -0.732 3.65373 2.2001 0
M  V30 8 S 0.101 5.13292 1.52614 0
M  V30 9 C 1.257 5.56322 2.86805 0
M  V30 10 H 1.49 2.90518 0.631377 0
M  V30 11 H -0.977 1.52953 0.210867 0
M  V30 12 H 0.981 2.67203 3.11629 0
M  V30 13 H -0.358 1.57376 2.7183 0
M  V30 14 H -1.165 3.90944 3.18086 0
M  V30 15 H -1.563 3.418 1.51819 0
M  V30 16 H 0.729 5.58782 3.83104 0
M  V30 17 H 1.672 6.56266 2.65933 0
M  V30 18 H 2.08 4.83886 2.90714 0
M  V30 19 N 1.4781 -0.272755 1.55222 0
M  V30 20 C 2.4251 -1.33716 1.88119 0
M  V30 21 C 3.3951 -1.49066 0.73271 0
M  V30 22 O 4.5801 -1.63469 0.984002 0
M  V30 23 C 1.7201 -2.69238 2.15882 0
M  V30 24 C 0.8331 -2.62108 3.43399 0
M  V30 25 C -0.0319 -3.89811 3.60861 0
M  V30 26 C -0.9929 -3.77193 4.8207 0
M  V30 27 N -1.8559 -4.9673 4.96189 0
M  V30 28 H 2.9841 -1.04962 2.78903 0
M  V30 29 H 0.5211 -0.507088 1.38083 0
M  V30 30 H 2.4791 -3.48089 2.29978 0
M  V30 31 H 1.1091 -2.96194 1.28331 0
M  V30 32 H 0.1611 -1.74967 3.37773 0
M  V30 33 H 1.4731 -2.48685 4.32386 0
M  V30 34 H 0.6271 -4.77103 3.74777 0
M  V30 35 H -0.6339 -4.06102 2.7006 0
M  V30 36 H -1.6289 -2.88284 4.68159 0
M  V30 37 H -0.4039 -3.62421 5.74307 0
M  V30 38 H -2.4579 -5.13431 4.08319 0
M  V30 39 H -2.5409 -4.85839 5.79221 0
M  V30 40 H -1.2729 -5.85594 5.1449 0
M  V30 41 N 2.9562 -1.48159 -0.537278 0
M  V30 42 C 4.3722 -1.34118 -0.865129 0
M  V30 43 C 4.5722 -0.346678 -1.98495 0
M  V30 44 O 3.6282 0.234715 -2.51407 0
M  V30 45 C 4.9412 -2.73963 -1.23954 0
M  V30 46 C 6.4892 -2.82397 -1.34984 0
M  V30 47 C 6.9642 -4.22928 -1.75772 0
M  V30 48 N 8.4552 -4.25566 -1.82887 0
M  V30 49 C 9.1902 -5.31235 -2.15817 0
M  V30 50 N 8.6862 -6.47189 -2.47222 0
M  V30 51 N 10.4792 -5.18624 -2.16761 0
M  V30 52 H 2.6302 -2.1144 0.201715 0
M  V30 53 H 4.8932 -0.947598 0.0275949 0
M  V30 54 H 4.5992 -3.48264 -0.490381 0
M  V30 55 H 4.4732 -3.0702 -2.19132 0
M  V30 56 H 6.8602 -2.08356 -2.08978 0
M  V30 57 H 6.9412 -2.5297 -0.379448 0
M  V30 58 H 6.5852 -4.97482 -1.02341 0
M  V30 59 H 6.5152 -4.49794 -2.73848 0
M  V30 60 H 9.0062 -3.41924 -1.60924 0
M  V30 61 H 9.3192 -7.23564 -2.71433 0
M  V30 62 H 7.6642 -6.50476 -2.44757 0
M  V30 63 H 10.8552 -4.27056 -1.91679 0
M  V30 64 H 11.0282 -6.01078 -2.42093 0
M  V30 65 N 4.4343 0.785586 -1.36625 0
M  V30 66 C 5.3973 1.87999 -1.31107 0
M  V30 67 C 6.3973 1.59316 -0.217959 0
M  V30 68 O 7.5873 1.67656 -0.472977 0
M  V30 69 C 4.7193 3.24861 -1.03334 0
M  V30 70 H 5.9123 1.94307 -2.2844 0
M  V30 71 H 3.4653 0.983813 -1.21453 0
M  V30 72 H 4.2003 3.24235 -0.0647432 0
M  V30 73 H 3.9853 3.4707 -1.82441 0
M  V30 74 H 5.4753 4.04929 -1.02088 0
M  V30 75 N 5.9124 1.20967 1.01018 0
M  V30 76 C 7.1584 1.02526 1.74975 0
M  V30 77 C 7.4914 -0.4408 1.89131 0
M  V30 78 O 6.7664 -1.32718 1.42184 0
M  V30 79 C 7.0494 1.71699 3.1653 0
M  V30 80 C 6.9024 3.25791 3.10129 0
M  V30 81 C 8.2214 1.45531 4.15342 0
M  V30 82 H 5.3404 0.373863 0.635134 0
M  V30 83 H 7.9824 1.49071 1.17805 0
M  V30 84 H 6.1324 1.32128 3.65341 0
M  V30 85 H 7.8044 3.74697 2.69072 0
M  V30 86 H 6.0474 3.56363 2.47362 0
M  V30 87 H 6.7184 3.69353 4.10222 0
M  V30 88 H 9.1944 1.79872 3.75213 0
M  V30 89 H 8.0704 1.96453 5.1254 0
M  V30 90 H 8.3314 0.384237 4.40427 0
M  V30 91 N 7.3905 -1.2043 1.01659 0
M  V30 92 C 8.6395 -1.89118 0.701237 0
M  V30 93 C 8.9525 -1.79705 -0.772358 0
M  V30 94 O 10.1585 -2.43528 -1.20026 0
M  V30 95 C 8.6145 -3.39168 1.20388 0
M  V30 96 C 8.2225 -3.57166 2.70438 0
M  V30 97 C 9.9665 -4.1341 0.963953 0
M  V30 98 C 7.8735 -5.01042 3.14183 0
M  V30 99 H 6.8035 -0.708267 0.2586 0
M  V30 100 H 9.4545 -1.36239 1.22927 0
M  V30 101 H 7.8365 -3.91369 0.603824 0
M  V30 102 H 9.0105 -3.15351 3.35992 0
M  V30 103 H 7.3255 -2.96294 2.92572 0
M  V30 104 H 9.9225 -5.19491 1.26621 0
M  V30 105 H 10.2655 -4.16181 -0.099578 0
M  V30 106 H 10.7985 -3.67309 1.52738 0
M  V30 107 H 7.5375 -5.03426 4.19812 0
M  V30 108 H 7.0575 -5.43668 2.53348 0
M  V30 109 H 8.7365 -5.69623 3.0682 0
M  V30 110 N 8.8686 -0.792821 -1.36206 0
M  V30 111 C 10.0966 -0.378825 -2.03402 0
M  V30 112 C 10.5116 1.00586 -1.59774 0
M  V30 113 O 9.8686 1.64574 -0.788764 0
M  V30 114 C 9.9196 -0.43683 -3.58851 0
M  V30 115 O 9.6406 -1.76691 -4.00889 0
M  V30 116 C 11.1416 -0.0138943 -4.43298 0
M  V30 117 H 8.3616 -0.155673 -0.652692 0
M  V30 118 H 10.9056 -1.07261 -1.74113 0
M  V30 119 H 9.0606 0.208575 -3.86838 0
M  V30 120 H 9.4746 -1.72011 -4.95492 0
M  V30 121 H 10.9486 -0.105615 -5.51899 0
M  V30 122 H 11.4256 1.03915 -4.2673 0
M  V30 123 H 12.0316 -0.63192 -4.20579 0
M  V30 124 N 10.3467 1.47872 -0.545128 0
M  V30 125 C 11.5947 2.02093 -0.016553 0
M  V30 126 C 11.9157 1.42305 1.3332 0
M  V30 127 O 11.1857 0.593853 1.86682 0
M  V30 128 H 9.7657 0.746993 -0.00313038 0
M  V30 129 H 12.4277 1.81414 -0.712397 0
M  V30 130 H 11.5237 3.11996 0.0805422 0
M  V30 131 N 11.8248 0.280983 1.55075 0
M  V30 132 C 12.7548 -0.597469 2.25727 0
M  V30 133 C 13.7358 -1.15417 1.24952 0
M  V30 134 O 14.9208 -1.18722 1.53684 0
M  V30 135 C 12.0508 -1.7789 2.98283 0
M  V30 136 C 11.0048 -1.35347 4.06036 0
M  V30 137 C 10.3308 -2.61846 4.66198 0
M  V30 138 C 11.6308 -0.499354 5.19907 0
M  V30 139 H 13.3248 -0.00824265 2.99399 0
M  V30 140 H 10.8708 -0.0025244 1.44 0
M  V30 141 H 12.8238 -2.39937 3.46422 0
M  V30 142 H 11.5478 -2.39405 2.22155 0
M  V30 143 H 10.2068 -0.756156 3.58717 0
M  V30 144 H 9.8548 -3.21632 3.86732 0
M  V30 145 H 9.5548 -2.3409 5.38958 0
M  V30 146 H 11.0788 -3.24732 5.1709 0
M  V30 147 H 12.4928 -1.02498 5.64063 0
M  V30 148 H 10.8898 -0.316424 5.99265 0
M  V30 149 H 11.9598 0.480459 4.82514 0
M  V30 150 N 13.3029 -1.57598 0.00835791 0
M  V30 151 C 14.5509 -1.90551 -0.6734 0
M  V30 152 C 14.8719 -0.883301 -1.73847 0
M  V30 153 O 14.1419 0.0781442 -1.95744 0
M  V30 154 H 12.7219 -0.703312 -0.251717 0
M  V30 155 H 15.3839 -1.94833 0.0512592 0
M  V30 156 H 14.4799 -2.9056 -1.13935 0
M  V30 157 N 14.781 0.264519 -1.55364 0
M  V30 158 C 16.03 0.992812 -1.75574 0
M  V30 159 C 16.343 1.87142 -0.568979 0
M  V30 160 O 17.549 2.63513 -0.653682 0
M  V30 161 C 16.005 1.81519 -3.10771 0
M  V30 162 C 15.613 0.984839 -4.37041 0
M  V30 163 C 17.357 2.53727 -3.40327 0
M  V30 164 C 15.264 1.80209 -5.63275 0
M  V30 165 H 14.194 0.374412 -0.65447 0
M  V30 166 H 16.845 0.248138 -1.81815 0
M  V30 167 H 15.227 2.60115 -2.98591 0
M  V30 168 H 16.401 0.242455 -4.60162 0
M  V30 169 H 14.716 0.37691 -4.14691 0
M  V30 170 H 17.313 3.15292 -4.3185 0
M  V30 171 H 17.656 3.24447 -2.60845 0
M  V30 172 H 18.189 1.82156 -3.53644 0
M  V30 173 H 14.928 1.13896 -6.45529 0
M  V30 174 H 14.448 2.52022 -5.44284 0
M  V30 175 H 16.127 2.37364 -6.01887 0
M  V30 176 N 16.2591 1.48442 0.529413 0
M  V30 177 C 17.5051 1.5672 1.28711 0
M  V30 178 C 17.8381 0.2406 1.92704 0
M  V30 179 O 17.1131 -0.753454 1.79313 0
M  V30 180 C 17.3961 2.70587 2.37603 0
M  V30 181 C 17.2491 4.12953 1.78297 0
M  V30 182 C 18.5681 2.80212 3.39366 0
M  V30 183 H 15.6871 0.570474 0.466613 0
M  V30 184 H 18.3291 1.80617 0.589706 0
M  V30 185 H 16.4791 2.50342 2.97088 0
M  V30 186 H 18.1511 4.44639 1.22858 0
M  V30 187 H 16.3941 4.19927 1.0883 0
M  V30 188 H 17.0651 4.88448 2.57144 0
M  V30 189 H 19.5411 2.98553 2.89836 0
M  V30 190 H 18.4171 3.61611 4.12951 0
M  V30 191 H 18.6781 1.88393 3.99951 0
M  V30 192 N 17.7372 -0.778329 1.37039 0
M  V30 193 C 18.9622 -1.57248 1.35233 0
M  V30 194 C 19.3872 -1.87999 -0.0615568 0
M  V30 195 O 18.7452 -1.48734 -1.03672 0
M  V30 196 C 18.7932 -2.86353 2.19167 0
M  V30 197 O 17.8972 -3.80442 1.59178 0
M  V30 198 H 17.2382 -0.476569 0.462362 0
M  V30 199 H 19.7682 -0.963853 1.80474 0
M  V30 200 H 19.7782 -3.35519 2.32145 0
M  V30 201 H 18.4532 -2.63299 3.21942 0
M  V30 202 H 17.0302 -3.39067 1.55203 0
M  V30 203 N 19.2153 -1.21501 -1.00376 0
M  V30 204 C 20.4403 -1.05977 -1.78279 0
M  V30 205 C 20.8653 0.385994 -1.84097 0
M  V30 206 O 20.2233 1.27849 -1.28547 0
M  V30 207 C 20.2713 -1.66302 -3.19963 0
M  V30 208 O 19.3753 -0.909333 -4.0225 0
M  V30 209 H 18.7163 -0.372906 -0.549397 0
M  V30 210 H 21.2463 -1.6107 -1.26165 0
M  V30 211 H 21.2563 -1.70574 -3.70632 0
M  V30 212 H 19.9313 -2.71515 -3.15043 0
M  V30 213 H 18.5083 -0.941795 -3.60811 0
M  V30 214 N 20.6934 1.19889 -1.02296 0
M  V30 215 C 21.9424 1.88743 -0.711257 0
M  V30 216 C 22.2554 1.80112 0.762817 0
M  V30 217 O 23.4614 2.44161 1.18733 0
M  V30 218 C 21.9174 3.38525 -1.22185 0
M  V30 219 C 21.5254 3.55727 -2.72328 0
M  V30 220 C 23.2694 4.12893 -0.985864 0
M  V30 221 C 21.1764 4.99369 -3.16835 0
M  V30 222 H 20.1064 0.706885 -0.262353 0
M  V30 223 H 22.7574 1.35586 -1.23648 0
M  V30 224 H 21.1394 3.91044 -0.624571 0
M  V30 225 H 22.3134 3.13564 -3.3766 0
M  V30 226 H 20.6284 2.94739 -2.9414 0
M  V30 227 H 23.2254 5.18813 -1.29374 0
M  V30 228 H 23.5684 4.16228 0.0775055 0
M  V30 229 H 24.1014 3.66494 -1.54684 0
M  V30 230 H 20.8404 5.01193 -4.22476 0
M  V30 231 H 20.3604 5.42317 -2.56228 0
M  V30 232 H 22.0394 5.67988 -3.09837 0
M  V30 233 N 22.1715 0.800033 1.35784 0
M  V30 234 C 23.4195 0.376597 1.9856 0
M  V30 235 C 23.7405 -1.05812 1.63795 0
M  V30 236 O 23.0105 -1.73103 0.917171 0
M  V30 237 H 21.5905 0.136261 0.734467 0
M  V30 238 H 24.2525 1.02442 1.65806 0
M  V30 239 H 23.3485 0.477002 3.08433 0
M  V30 240 N 23.6496 -1.47581 0.552962 0
M  V30 241 C 24.5976 -2.31648 -0.21023 0
M  V30 242 C 25.5916 -1.42663 -0.913432 0
M  V30 243 O 26.7976 -1.5945 -0.835201 0
M  V30 244 H 23.1726 -0.746989 -0.0866676 0
M  V30 245 H 25.1436 -2.93869 0.518051 0
M  V30 246 C 23.8926 -3.25226 -1.22976 0
M  V30 247 H 23.2156 -3.93658 -0.698077 0
M  V30 248 H 24.6556 -3.86889 -1.73473 0
M  V30 249 C 23.1146 -2.48448 -2.27542 0
M  V30 250 O 23.6446 -2.22585 -3.34393 0
M  V30 251 N 21.8506 -2.09532 -2.01357 0
M  V30 252 H 21.3976 -2.30765 -1.14478 0
M  V30 253 H 21.3556 -1.58476 -2.71538 0
M  V30 254 N 25.1277 -0.289203 -1.54924 0
M  V30 255 C 26.0757 0.607966 -2.24514 0
M  V30 256 C 27.0697 1.14655 -1.24702 0
M  V30 257 O 28.2757 1.09856 -1.4259 0
M  V30 258 H 24.6507 0.21464 -0.720718 0
M  V30 259 H 26.6217 -0.00164182 -2.984 0
M  V30 260 C 25.3707 1.77406 -2.99036 0
M  V30 261 H 24.6937 1.36884 -3.75637 0
M  V30 262 H 26.1337 2.37814 -3.51028 0
M  V30 263 C 24.5927 2.67107 -2.05318 0
M  V30 264 O 25.1227 3.6787 -1.61353 0
M  V30 265 N 23.3287 2.34582 -1.71521 0
M  V30 266 H 22.8757 1.52688 -2.07471 0
M  V30 267 H 22.8337 2.94867 -1.0909 0
M  V30 268 N 26.6058 1.57591 -0.0167156 0
M  V30 269 C 27.5378 2.06343 0.997753 0
M  V30 270 C 28.5508 0.984469 1.29661 0
M  V30 271 O 29.7398 1.26093 1.26344 0
M  V30 272 C 26.8398 2.46255 2.32834 0
M  V30 273 C 26.0128 3.77083 2.21646 0
M  V30 274 C 25.0718 4.0368 3.37534 0
M  V30 275 O 24.0978 4.7411 3.14973 0
M  V30 276 N 25.2998 3.52881 4.60929 0
M  V30 277 H 28.0648 2.93997 0.581875 0
M  V30 278 H 25.6258 1.61002 0.170316 0
M  V30 279 H 27.6178 2.61149 3.09166 0
M  V30 280 H 26.1878 1.64032 2.66106 0
M  V30 281 H 25.4078 3.72106 1.30119 0
M  V30 282 H 26.6958 4.62822 2.11361 0
M  V30 283 H 26.0938 2.95878 4.82154 0
M  V30 284 H 24.6508 3.73076 5.34469 0
M  V30 285 N 28.0839 -0.256276 1.55502 0
M  V30 286 C 29.0159 -1.33981 1.85962 0
M  V30 287 C 30.0289 -1.44743 0.745212 0
M  V30 288 O 31.2179 -1.4626 1.02324 0
M  V30 289 C 28.3179 -2.7194 2.02242 0
M  V30 290 C 27.4909 -2.83562 3.33033 0
M  V30 291 C 26.5499 -4.02304 3.39172 0
M  V30 292 O 25.5759 -3.92273 4.12444 0
M  V30 293 N 26.7779 -5.15045 2.67784 0
M  V30 294 H 29.5429 -1.08191 2.7949 0
M  V30 295 H 27.1039 -0.446388 1.55624 0
M  V30 296 H 29.0959 -3.49697 2.03701 0
M  V30 297 H 27.6659 -2.90479 1.15502 0
M  V30 298 H 26.8859 -1.92555 3.43971 0
M  V30 299 H 28.1739 -2.88271 4.19258 0
M  V30 300 H 27.5719 -5.26085 2.07968 0
M  V30 301 H 26.1289 -5.90972 2.74947 0
M  V30 302 N 29.562 -1.4872 -0.521534 0
M  V30 303 C 30.472 -1.66569 -1.65203 0
M  V30 304 C 31.488 -0.548197 -1.65139 0
M  V30 305 O 32.664 -0.820339 -1.83936 0
M  V30 306 C 29.729 -1.70917 -3.01642 0
M  V30 307 C 28.79 -2.94356 -3.12495 0
M  V30 308 C 28.023 -2.98487 -4.42426 0
M  V30 309 O 28.246 -2.10786 -5.30024 0
M  V30 310 O 27.18 -3.90746 -4.57822 0
M  V30 311 H 31.006 -2.62298 -1.5308 0
M  V30 312 H 28.591 -1.3222 -0.695565 0
M  V30 313 H 30.473 -1.7625 -3.82771 0
M  V30 314 H 29.148 -0.783633 -3.14071 0
M  V30 315 H 28.055 -2.94552 -2.3063 0
M  V30 316 H 29.388 -3.86322 -3.04986 0
M  V30 317 N 31.0401 0.771051 -1.3745 0
M  V30 318 C 32.2861 1.5319 -1.32894 0
M  V30 319 C 32.6191 1.94008 0.0862511 0
M  V30 320 O 31.8941 1.64124 1.04373 0
M  V30 321 C 32.1771 2.79648 -2.26868 0
M  V30 322 C 32.0301 2.45079 -3.77169 0
M  V30 323 C 33.3491 3.81583 -2.19277 0
M  V30 324 H 30.4681 0.555744 -0.484064 0
M  V30 325 H 33.1101 0.884492 -1.68157 0
M  V30 326 H 31.2601 3.34891 -1.96926 0
M  V30 327 H 32.9321 1.95745 -4.1771 0
M  V30 328 H 31.1751 1.77767 -3.95704 0
M  V30 329 H 31.8461 3.35478 -4.38359 0
M  V30 330 H 34.3221 3.35835 -2.45671 0
M  V30 331 H 33.1981 4.67787 -2.87171 0
M  V30 332 H 33.4591 4.25897 -1.18592 0
M  V30 333 N 32.5182 1.22032 0.997298 0
M  V30 334 C 33.4482 1.01065 2.10495 0
M  V30 335 C 34.4292 -0.0669542 1.69968 0
M  V30 336 O 35.6142 0.0943987 1.9397 0
M  V30 337 C 32.7442 0.582874 3.42374 0
M  V30 338 C 31.6982 1.60592 3.96729 0
M  V30 339 C 31.0242 1.03412 5.24605 0
M  V30 340 C 32.3242 2.99478 4.27914 0
M  V30 341 H 34.0182 1.93708 2.28292 0
M  V30 342 H 31.5642 0.932761 1.09707 0
M  V30 343 H 33.5172 0.423332 4.19268 0
M  V30 344 H 32.2412 -0.379213 3.24391 0
M  V30 345 H 30.9002 1.75316 3.21963 0
M  V30 346 H 30.5482 0.063518 5.0296 0
M  V30 347 H 30.2482 1.71754 5.61938 0
M  V30 348 H 31.7722 0.886066 6.04137 0
M  V30 349 H 33.1862 2.88153 4.95622 0
M  V30 350 H 31.5832 3.64903 4.76409 0
M  V30 351 H 32.6532 3.49742 3.3587 0
M  V30 352 N 33.9963 -1.19345 1.0293 0
M  V30 353 C 34.9593 -2.20793 0.615069 0
M  V30 354 C 35.9593 -1.57553 -0.321533 0
M  V30 355 O 37.1493 -1.73862 -0.108483 0
M  V30 356 C 34.2813 -3.40754 -0.0999222 0
M  V30 357 H 35.4743 -2.58955 1.51269 0
M  V30 358 H 33.0273 -1.3303 0.820534 0
M  V30 359 H 33.7623 -3.0811 -1.01187 0
M  V30 360 H 33.5473 -3.87889 0.57309 0
M  V30 361 H 35.0373 -4.15898 -0.376645 0
M  V30 362 N 35.4744 -0.807222 -1.35358 0
M  V30 363 C 36.6994 -0.399309 -2.0352 0
M  V30 364 C 37.1244 0.981986 -1.60433 0
M  V30 365 O 36.4824 1.63601 -0.781299 0
M  V30 366 C 36.5304 -0.491552 -3.57234 0
M  V30 367 O 35.6344 0.494754 -4.09421 0
M  V30 368 H 34.9754 -0.166682 -0.642739 0
M  V30 369 H 37.5054 -1.09328 -1.72941 0
M  V30 370 H 37.5154 -0.361588 -4.06395 0
M  V30 371 H 36.1904 -1.49907 -3.87944 0
M  V30 372 H 34.7674 0.324977 -3.71481 0
M  V30 373 N 36.9525 1.47285 -0.560781 0
M  V30 374 C 37.8825 2.32857 0.173105 0
M  V30 375 C 38.8635 1.44009 0.905281 0
M  V30 376 O 40.0485 1.7286 0.885046 0
M  V30 377 C 37.1785 3.25861 1.20133 0
M  V30 378 C 36.1325 4.23978 0.585388 0
M  V30 379 C 35.4585 5.06332 1.7185 0
M  V30 380 C 36.7585 5.20242 -0.463178 0
M  V30 381 H 38.4525 2.94466 -0.541307 0
M  V30 382 H 35.9985 1.41601 -0.261764 0
M  V30 383 H 37.9515 3.84569 1.72293 0
M  V30 384 H 36.6755 2.62315 1.94573 0
M  V30 385 H 35.3345 3.66501 0.085054 0
M  V30 386 H 34.9825 4.39186 2.45203 0
M  V30 387 H 34.6825 5.72762 1.31213 0
M  V30 388 H 36.2065 5.67899 2.24329 0
M  V30 389 H 37.6205 5.73293 -0.027502 0
M  V30 390 H 36.0175 5.94896 -0.788627 0
M  V30 391 H 37.0875 4.65504 -1.35773 0
M  V30 392 N 38.4306 0.297415 1.54768 0
M  V30 393 C 39.8466 -0.0560823 1.59501 0
M  V30 394 C 40.0466 -1.52725 1.31444 0
M  V30 395 O 39.1026 -2.27947 1.08611 0
M  V30 396 C 40.4156 0.338631 2.98787 0
M  V30 397 C 41.9636 0.287097 3.11681 0
M  V30 398 C 42.4386 0.656579 4.53269 0
M  V30 399 N 43.9296 0.608977 4.59179 0
M  V30 400 C 44.6646 0.867385 5.66802 0
M  V30 401 N 44.1606 1.19157 6.82476 0
M  V30 402 N 45.9536 0.794687 5.56454 0
M  V30 403 H 38.1046 1.25624 1.71267 0
M  V30 404 H 40.3676 0.509057 0.799728 0
M  V30 405 H 40.0736 1.36263 3.2423 0
M  V30 406 H 39.9476 -0.309508 3.75928 0
M  V30 407 H 42.3346 -0.727649 2.85988 0
M  V30 408 H 42.4156 0.969809 2.36703 0
M  V30 409 H 42.0596 1.66912 4.7969 0
M  V30 410 H 41.9896 -0.0481649 5.26578 0
M  V30 411 H 44.4806 0.369198 3.76092 0
M  V30 412 H 44.7936 1.37482 7.60473 0
M  V30 413 H 43.1386 1.22958 6.84037 0
M  V30 414 H 46.3296 0.541098 4.64962 0
M  V30 415 H 46.5026 0.999445 6.40246 0
M  V30 416 N 39.9087 -1.5758 0.0250728 0
M  V30 417 C 40.8187 -2.1343 -0.973905 0
M  V30 418 C 41.8347 -1.08556 -1.35984 0
M  V30 419 O 43.0107 -1.40592 -1.44207 0
M  V30 420 C 40.0757 -2.64703 -2.23904 0
M  V30 421 C 39.1367 -3.84276 -1.91391 0
M  V30 422 C 38.3697 -4.33095 -3.11873 0
M  V30 423 O 38.5927 -3.81107 -4.24398 0
M  V30 424 O 37.5267 -5.24984 -2.94406 0
M  V30 425 H 41.3527 -2.99057 -0.529036 0
M  V30 426 H 38.9377 -1.48118 -0.195288 0
M  V30 427 H 40.8197 -2.97769 -2.98181 0
M  V30 428 H 39.4947 -1.82161 -2.6758 0
M  V30 429 H 38.4017 -3.56143 -1.14511 0
M  V30 430 H 39.7347 -4.67968 -1.52534 0
M  V30 431 N 41.3868 0.248026 -1.55636 0
M  V30 432 C 42.6348 0.974295 -1.77065 0
M  V30 433 C 42.9558 1.85897 -0.588849 0
M  V30 434 O 42.2258 1.91868 0.395407 0
M  V30 435 H 40.8058 0.362733 -0.653019 0
M  V30 436 H 43.4678 0.266244 -1.93073 0
M  V30 437 H 42.5638 1.59667 -2.68166 0
M  V30 438 N 42.8649 1.48995 0.513639 0
M  V30 439 C 44.2809 1.35478 0.843682 0
M  V30 440 C 44.4809 0.378213 1.97919 0
M  V30 441 O 43.5369 -0.194689 2.51748 0
M  V30 442 C 44.8499 2.75901 1.1958 0
M  V30 443 C 46.3979 2.84509 1.30474 0
M  V30 444 C 46.8729 4.25671 1.69021 0
M  V30 445 N 48.3639 4.28422 1.76094 0
M  V30 446 C 49.0989 5.34601 2.07338 0
M  V30 447 N 48.5949 6.5104 2.36894 0
M  V30 448 N 50.3879 5.22007 2.08483 0
M  V30 449 H 42.5389 2.11092 -0.235328 0
M  V30 450 H 44.8019 0.947039 -0.0426669 0
M  V30 451 H 44.5079 3.49001 0.434913 0
M  V30 452 H 44.3819 3.10467 2.1422 0
M  V30 453 H 46.7689 2.11655 2.05637 0
M  V30 454 H 46.8499 2.53542 0.339155 0
M  V30 455 H 46.4939 4.99048 0.944135 0
M  V30 456 H 46.4239 4.54094 2.66658 0
M  V30 457 H 48.9149 3.44441 1.55464 0
M  V30 458 H 49.2279 7.2779 2.59887 0
M  V30 459 H 47.5729 6.54287 2.34378 0
M  V30 460 H 50.7639 4.30051 1.84861 0
M  V30 461 H 50.9369 6.04854 2.325 0
M  V30 462 N 44.343 -0.763751 1.37857 0
M  V30 463 C 45.568 -1.55805 1.36893 0
M  V30 464 C 45.993 -1.88054 -0.0416135 0
M  V30 465 O 45.351 -1.49825 -1.02089 0
M  V30 466 C 45.399 -2.84012 2.22192 0
M  V30 467 O 44.503 -3.78732 1.63204 0
M  V30 468 H 43.844 -0.471638 0.46739 0
M  V30 469 H 46.374 -0.944657 1.81487 0
M  V30 470 H 46.384 -3.33037 2.35691 0
M  V30 471 H 45.059 -2.59869 3.24716 0
M  V30 472 H 43.636 -3.37402 1.58791 0
M  V30 473 N 45.8211 -1.22559 -0.990812 0
M  V30 474 C 47.0691 -1.04933 -1.72724 0
M  V30 475 C 47.3901 0.416158 -1.90508 0
M  V30 476 O 46.6601 1.29918 -1.46622 0
M  V30 477 H 45.2401 -0.385296 -0.639965 0
M  V30 478 H 47.9021 -1.54105 -1.19322 0
M  V30 479 H 46.9981 -1.52886 -2.72089 0
M  V30 480 N 47.2992 1.18797 -1.03562 0
M  V30 481 C 48.5482 1.87978 -0.731235 0
M  V30 482 C 48.8612 1.80911 0.743671 0
M  V30 483 O 50.0672 2.45407 1.16137 0
M  V30 484 C 48.5232 3.3721 -1.25768 0
M  V30 485 C 48.1312 3.52818 -2.76085 0
M  V30 486 C 49.8752 4.11825 -1.0296 0
M  V30 487 C 47.7822 4.9598 -3.22114 0
M  V30 488 H 46.7122 0.704063 -0.269835 0
M  V30 489 H 49.3632 1.34266 -1.25079 0
M  V30 490 H 47.7452 3.90359 -0.666011 0
M  V30 491 H 48.9192 3.09965 -3.40966 0
M  V30 492 H 47.2342 2.91602 -2.97249 0
M  V30 493 H 49.8312 5.17411 -1.34869 0
M  V30 494 H 50.1742 4.16287 0.0333546 0
M  V30 495 H 50.7072 3.64833 -1.58562 0
M  V30 496 H 47.4462 4.96684 -4.27768 0
M  V30 497 H 46.9662 5.39569 -2.61965 0
M  V30 498 H 48.6452 5.6467 -3.15844 0
M  V30 499 N 48.7773 0.814389 1.34928 0
M  V30 500 C 50.0053 0.411136 2.02774 0
M  V30 501 C 50.4203 -0.980316 1.61354 0
M  V30 502 O 49.7773 -1.63299 0.814847 0
M  V30 503 C 49.8283 0.493865 3.58111 0
M  V30 504 O 49.5493 1.83047 3.98027 0
M  V30 505 C 51.0503 0.0844174 4.4322 0
M  V30 506 H 48.2703 0.166037 0.650133 0
M  V30 507 H 50.8143 1.10018 1.72384 0
M  V30 508 H 48.9693 -0.147006 3.87121 0
M  V30 509 H 49.3833 1.79872 4.92693 0
M  V30 510 H 50.8573 0.193404 5.51661 0
M  V30 511 H 51.3343 -0.97113 4.28329 0
M  V30 512 H 51.9403 0.69875 4.19521 0
M  V30 513 N 50.2554 -1.46986 0.568584 0
M  V30 514 C 51.5024 -2.02441 0.0487986 0
M  V30 515 C 51.8304 -1.44169 -1.30559 0
M  V30 516 O 51.0854 -0.591213 -1.86556 0
M  V30 517 C 51.3844 -3.57306 -0.081836 0
M  V30 518 C 51.0504 -4.34552 1.20313 0
M  V30 519 C 49.7124 -4.55376 1.5552 0
M  V30 520 C 52.0644 -4.79016 2.05411 0
M  V30 521 C 49.3924 -5.17913 2.7565 0
M  V30 522 C 51.7444 -5.42879 3.24754 0
M  V30 523 C 50.4084 -5.61933 3.60261 0
M  V30 524 H 49.6784 -0.740785 0.0178567 0
M  V30 525 H 52.3254 -1.76525 0.742384 0
M  V30 526 H 50.6304 -3.8228 -0.858463 0
M  V30 527 H 52.3274 -3.97876 -0.499546 0
M  V30 528 H 48.9174 -4.18631 0.919014 0
M  V30 529 H 53.1014 -4.62696 1.79516 0
M  V30 530 H 48.3574 -5.30858 3.03315 0
M  V30 531 H 52.5314 -5.76293 3.90973 0
M  V30 532 H 50.1584 -6.10161 4.53439 0
M  V30 533 N 51.7335 -0.305618 -1.54608 0
M  V30 534 C 52.9585 0.307562 -2.05107 0
M  V30 535 C 53.3835 1.46385 -1.18123 0
M  V30 536 O 52.7415 1.8034 -0.186324 0
M  V30 537 C 52.7895 0.73704 -3.52987 0
M  V30 538 O 51.8935 1.84134 -3.6901 0
M  V30 539 H 51.2345 0.0589143 -0.661381 0
M  V30 540 H 53.7645 -0.448807 -1.99617 0
M  V30 541 H 53.7745 1.02459 -3.94925 0
M  V30 542 H 52.4495 -0.108773 -4.15758 0
M  V30 543 H 51.0265 1.55398 -3.38978 0
M  V30 544 N 53.2116 1.57565 -0.0334293 0
M  V30 545 C 54.1436 2.0739 0.975811 0
M  V30 546 C 55.1566 0.998166 1.2861 0
M  V30 547 O 56.3456 1.27426 1.25 0
M  V30 548 C 53.4456 2.4871 2.30209 0
M  V30 549 C 52.6186 3.79413 2.17634 0
M  V30 550 C 51.6776 4.07237 3.33233 0
M  V30 551 O 50.7036 4.77425 3.09927 0
M  V30 552 N 51.9056 3.5775 4.5716 0
M  V30 553 H 54.6706 2.94598 0.55066 0
M  V30 554 H 52.2316 1.61173 0.15323 0
M  V30 555 H 54.2236 2.64413 3.06378 0
M  V30 556 H 52.7936 1.66845 2.64351 0
M  V30 557 H 52.0136 3.73465 1.26165 0
M  V30 558 H 53.3016 4.65038 2.0644 0
M  V30 559 H 52.6996 3.00976 4.78989 0
M  V30 560 H 51.2566 3.78724 5.30482 0
M  V30 561 N 54.6897 -0.239769 1.55765 0
M  V30 562 C 55.5997 -1.31831 1.94056 0
M  V30 563 C 56.6157 -1.52275 0.841925 0
M  V30 564 O 57.7917 -1.65759 1.14394 0
M  V30 565 C 54.8567 -2.65156 2.23368 0
M  V30 566 C 53.9177 -2.53173 3.46701 0
M  V30 567 C 53.1507 -3.8014 3.74606 0
M  V30 568 O 53.3737 -4.82343 3.04469 0
M  V30 569 O 52.3077 -3.78344 4.68123 0
M  V30 570 H 56.1337 -1.02347 2.85935 0
M  V30 571 H 53.7187 -0.441123 1.42739 0
M  V30 572 H 55.6007 -3.43929 2.43497 0
M  V30 573 H 54.2757 -2.94358 1.34666 0
M  V30 574 H 53.1827 -1.72662 3.31871 0
M  V30 575 H 54.5157 -2.28915 4.35728 0
M  V30 576 N 56.1678 -1.49265 -0.50573 0
M  V30 577 C 57.0978 -1.68495 -1.61653 0
M  V30 578 C 58.0788 -0.53366 -1.61512 0
M  V30 579 O 59.2638 -0.76897 -1.78327 0
M  V30 580 C 56.3938 -1.74709 -3.00157 0
M  V30 581 C 55.3478 -2.89581 -3.15162 0
M  V30 582 C 54.6738 -2.80903 -4.5497 0
M  V30 583 C 55.9738 -4.30578 -2.95634 0
M  V30 584 H 57.6678 -2.61493 -1.45814 0
M  V30 585 H 55.2138 -1.25838 -0.70005 0
M  V30 586 H 57.1668 -1.86748 -3.77761 0
M  V30 587 H 55.8908 -0.783067 -3.17074 0
M  V30 588 H 54.5498 -2.77136 -2.39982 0
M  V30 589 H 54.1978 -1.82419 -4.68756 0
M  V30 590 H 53.8978 -3.57999 -4.65951 0
M  V30 591 H 55.4218 -2.94944 -5.34641 0
M  V30 592 H 56.8358 -4.4373 -3.63011 0
M  V30 593 H 55.2328 -5.0886 -3.18091 0
M  V30 594 H 56.3028 -4.45352 -1.91806 0
M  V30 595 N 57.6459 0.756429 -1.3826 0
M  V30 596 C 58.5929 1.87011 -1.35261 0
M  V30 597 C 59.5629 1.64695 -0.215616 0
M  V30 598 O 60.7479 1.864 -0.407399 0
M  V30 599 C 57.8879 3.24275 -1.18068 0
M  V30 600 C 57.0009 3.58442 -2.41129 0
M  V30 601 C 56.1359 4.84994 -2.16689 0
M  V30 602 C 55.1749 5.11939 -3.35537 0
M  V30 603 N 54.3119 6.29685 -3.10549 0
M  V30 604 H 59.1519 1.8891 -2.30472 0
M  V30 605 H 56.6889 0.923373 -1.14509 0
M  V30 606 H 58.6469 4.03479 -1.06116 0
M  V30 607 H 57.2769 3.21711 -0.264973 0
M  V30 608 H 56.3289 2.74103 -2.63764 0
M  V30 609 H 57.6409 3.74283 -3.29717 0
M  V30 610 H 56.7949 5.72135 -2.01857 0
M  V30 611 H 55.5339 4.71286 -1.25462 0
M  V30 612 H 54.5389 4.23268 -3.50891 0
M  V30 613 H 55.7639 5.27546 -4.27635 0
M  V30 614 H 53.7099 6.17306 -2.21967 0
M  V30 615 H 53.6269 6.46014 -3.92686 0
M  V30 616 H 54.8949 7.19722 -2.99367 0
M  V30 617 N 59.124 1.23083 0.984299 0
M  V30 618 C 60.401 0.9689 1.69917 0
M  V30 619 C 60.781 -0.513604 2.04757 0
M  V30 620 O 60.129 -1.48383 1.73767 0
M  V30 621 C 60.339 1.87518 2.94343 0
M  V30 622 C 61.687 2.13636 3.6694 0
M  V30 623 O 62.711 1.85036 3.04368 0
M  V30 624 O 61.57 2.62119 4.79537 0
M  V30 625 H 58.664 0.365095 0.742048 0
M  V30 626 H 61.21 1.34107 1.03987 0
M  V30 627 H 59.982 2.87756 2.65164 0
M  V30 628 H 59.605 1.50514 3.6801 0
M  V30 629 N 60.6021 -1.18246 1.0419 0
M  V30 630 C 61.8271 -1.92736 0.765996 0
M  V30 631 C 62.2521 -1.75728 -0.67091 0
M  V30 632 O 61.6101 -1.06825 -1.46486 0
M  V30 633 C 61.6581 -3.42148 1.13875 0
M  V30 634 O 60.7621 -4.11548 0.264954 0
M  V30 635 H 60.1031 -0.601238 0.281797 0
M  V30 636 H 62.6331 -1.49942 1.39207 0
M  V30 637 H 62.6431 -3.92858 1.1012 0
M  V30 638 H 61.3181 -3.53848 2.18551 0
M  V30 639 H 59.8951 -3.71137 0.362226 0
M  V30 640 N 62.0802 -0.821533 -1.34494 0
M  V30 641 C 63.3282 -0.408139 -1.97936 0
M  V30 642 C 63.6492 1.03193 -1.65457 0
M  V30 643 O 62.9192 1.71622 -0.944595 0
M  V30 644 H 61.4992 -0.147928 -0.732206 0
M  V30 645 H 64.1612 -1.05067 -1.64155 0
M  V30 646 H 63.2572 -0.52601 -3.07635 0
M  V30 647 N 63.5583 1.46682 -0.576371 0
M  V30 648 C 64.4913 2.27243 0.208731 0
M  V30 649 C 65.4693 1.35238 0.902746 0
M  V30 650 O 66.6533 1.64641 0.917904 0
M  V30 651 C 63.7803 3.12802 1.29896 0
M  V30 652 C 62.8263 4.20524 0.711457 0
M  V30 653 S 63.6593 5.33548 -0.456781 0
M  V30 654 C 64.8153 6.22673 0.634798 0
M  V30 655 H 65.0483 2.93484 -0.474838 0
M  V30 656 H 62.5813 1.50069 -0.363118 0
M  V30 657 H 64.5393 3.62661 1.92321 0
M  V30 658 H 63.2003 2.45887 1.95444 0
M  V30 659 H 62.3933 4.80191 1.53076 0
M  V30 660 H 61.9953 3.73645 0.162999 0
M  V30 661 H 64.2873 6.60181 1.52209 0
M  V30 662 H 65.2303 7.0806 0.0750311 0
M  V30 663 H 65.6383 5.56684 0.936092 0
M  V30 664 N 65.0364 0.313813 1.54444 0
M  V30 665 C 66.4524 -0.0391619 1.59552 0
M  V30 666 C 66.6524 -1.51322 1.33056 0
M  V30 667 O 65.7084 -2.26782 1.11022 0
M  V30 668 C 67.0214 0.370302 2.98411 0
M  V30 669 C 68.5694 0.320139 3.11358 0
M  V30 670 C 69.0444 0.704617 4.52547 0
M  V30 671 N 70.5354 0.657645 4.58508 0
M  V30 672 C 71.2704 0.927453 5.6585 0
M  V30 673 N 70.7664 1.26389 6.81174 0
M  V30 674 N 72.5594 0.853662 5.5558 0
M  V30 675 H 64.7104 1.27433 1.69925 0
M  V30 676 H 66.9734 0.517511 0.794284 0
M  V30 677 H 66.6794 1.39694 3.22767 0
M  V30 678 H 66.5534 -0.269619 3.76235 0
M  V30 679 H 68.9404 -0.697275 2.86744 0
M  V30 680 H 69.0214 0.99486 2.35661 0
M  V30 681 H 68.6654 1.7199 4.77893 0
M  V30 682 H 68.5954 0.00768843 5.26599 0
M  V30 683 H 71.0864 0.409067 3.75679 0
M  V30 684 H 71.3994 1.4554 7.58972 0
M  V30 685 H 69.7444 1.30206 6.82694 0
M  V30 686 H 72.9354 0.590383 4.64362 0
M  V30 687 H 73.1084 1.0673 6.3915 0
M  V30 688 N 66.5145 -1.57545 0.0417849 0
M  V30 689 C 67.7395 -1.97035 -0.647455 0
M  V30 690 C 68.1645 -0.918775 -1.64135 0
M  V30 691 O 67.5225 0.119006 -1.80909 0
M  V30 692 C 67.5705 -3.35609 -1.31905 0
M  V30 693 O 66.6745 -3.3287 -2.43457 0
M  V30 694 H 66.0155 -0.64211 -0.169086 0
M  V30 695 H 68.5455 -2.04318 0.107399 0
M  V30 696 H 68.5555 -3.72126 -1.67291 0
M  V30 697 H 67.2305 -4.11685 -0.590586 0
M  V30 698 H 65.8075 -3.08087 -2.10088 0
M  V30 699 N 67.9926 0.231505 -1.5589 0
M  V30 700 C 68.9426 1.29007 -1.87993 0
M  V30 701 C 69.9266 1.42764 -0.742102 0
M  V30 702 O 71.1186 1.45747 -1.00433 0
M  V30 703 C 68.2476 2.6425 -2.1915 0
M  V30 704 C 67.3336 2.54435 -3.39299 0
M  V30 705 N 67.7246 2.14262 -4.58176 0
M  V30 706 C 66.0226 2.85416 -3.42715 0
M  V30 707 C 66.7236 2.15455 -5.40328 0
M  V30 708 N 65.6996 2.55558 -4.79783 0
M  V30 709 H 69.5016 0.970213 -2.77424 0
M  V30 710 H 67.0156 0.440097 -1.56323 0
M  V30 711 H 69.0126 3.40665 -2.40319 0
M  V30 712 H 67.6726 2.9709 -1.31025 0
M  V30 713 H 68.6836 1.85554 -4.83518 0
M  V30 714 H 65.3606 3.22693 -2.64906 0
M  V30 715 H 66.7506 1.86605 -6.45467 0
M  V30 716 N 69.4707 1.49531 0.497807 0
M  V30 717 C 70.7167 1.59415 1.25358 0
M  V30 718 C 71.0497 0.281422 1.9215 0
M  V30 719 O 70.3247 -0.715249 1.80871 0
M  V30 720 C 70.6077 2.75566 2.3181 0
M  V30 721 C 70.4607 4.16642 1.69498 0
M  V30 722 C 71.7797 2.87347 3.33346 0
M  V30 723 H 68.8987 0.580244 0.454408 0
M  V30 724 H 71.5407 1.81827 0.551262 0
M  V30 725 H 69.6907 2.56587 2.91711 0
M  V30 726 H 71.3627 4.47145 1.13399 0
M  V30 727 H 69.6057 4.22141 0.998978 0
M  V30 728 H 70.2767 4.93792 2.46725 0
M  V30 729 H 72.7527 3.04634 2.83438 0
M  V30 730 H 71.6287 3.70289 4.05188 0
M  V30 731 H 71.8897 1.96834 3.95865 0
M  V30 732 N 70.9488 -0.749086 1.3866 0
M  V30 733 C 72.1948 -1.50959 1.36319 0
M  V30 734 C 72.5498 -1.92347 -0.0452451 0
M  V30 735 O 71.8428 -1.6289 -1.00884 0
M  V30 736 C 72.0368 -2.7712 2.25697 0
M  V30 737 C 71.8658 -2.48067 3.7509 0
M  V30 738 C 70.6358 -2.41062 4.44091 0
M  V30 739 C 72.8338 -2.14544 4.67414 0
M  V30 740 N 70.8158 -2.04331 5.78897 0
M  V30 741 C 72.1868 -1.88141 5.90765 0
M  V30 742 C 74.2418 -2.00892 4.55573 0
M  V30 743 C 72.9448 -1.49463 7.036 0
M  V30 744 C 74.9708 -1.63616 5.68317 0
M  V30 745 C 74.3328 -1.38088 6.90732 0
M  V30 746 H 70.4318 -0.551804 0.554108 0
M  V30 747 H 73.0158 -0.871886 1.74087 0
M  V30 748 H 71.1868 -3.38693 1.9011 0
M  V30 749 H 72.9188 -3.4321 2.1445 0
M  V30 750 H 69.6738 -2.57685 3.9736 0
M  V30 751 H 70.0978 -1.88598 6.502 0
M  V30 752 H 74.7398 -2.19301 3.61479 0
M  V30 753 H 72.4578 -1.29794 7.97608 0
M  V30 754 H 76.0438 -1.53678 5.61137 0
M  V30 755 H 74.9238 -1.09674 7.76493 0
M  V30 756 N 72.4269 -1.23603 -0.977757 0
M  V30 757 C 73.6749 -1.06759 -1.71601 0
M  V30 758 C 73.9959 0.395929 -1.90938 0
M  V30 759 O 73.2659 1.28356 -1.47992 0
M  V30 760 H 71.8459 -0.392062 -0.635843 0
M  V30 761 H 74.5079 -1.55362 -1.1768 0
M  V30 762 H 73.6039 -1.55763 -2.70452 0
M  V30 763 N 73.905 1.17692 -1.04816 0
M  V30 764 C 74.853 2.23632 -0.63966 0
M  V30 765 C 75.847 1.6601 0.337219 0
M  V30 766 O 77.053 1.78844 0.203693 0
M  V30 767 H 73.428 0.727949 -0.188665 0
M  V30 768 H 75.399 2.55387 -1.54337 0
M  V30 769 C 74.148 3.4769 -0.0264051 0
M  V30 770 H 73.471 3.92331 -0.769164 0
M  V30 771 H 74.911 4.23418 0.222098 0
M  V30 772 C 73.37 3.13807 1.22584 0
M  V30 773 O 73.9 3.28236 2.31569 0
M  V30 774 N 72.106 2.68065 1.12202 0
M  V30 775 H 71.653 2.56525 0.235133 0
M  V30 776 H 71.611 2.45767 1.96076 0
M  V30 777 N 75.3831 0.828654 1.34056 0
M  V30 778 C 76.6291 0.42008 1.98402 0
M  V30 779 C 76.9621 -1.01564 1.65525 0
M  V30 780 O 76.2371 -1.70834 0.929831 0
M  V30 781 C 76.5201 0.62927 3.54559 0
M  V30 782 C 76.3731 2.11152 3.97159 0
M  V30 783 C 77.6921 0.0688756 4.40046 0
M  V30 784 H 74.8111 0.154104 0.720709 0
M  V30 785 H 77.4531 1.04228 1.5886 0
M  V30 786 H 75.6031 0.0996418 3.88372 0
M  V30 787 H 77.2751 2.70522 3.73651 0
M  V30 788 H 75.5181 2.59985 3.47261 0
M  V30 789 H 76.1891 2.20868 5.05887 0
M  V30 790 H 78.6651 0.521458 4.1282 0
M  V30 791 H 77.5411 0.245006 5.48353 0
M  V30 792 H 77.8021 -1.0266 4.30015 0
M  V30 793 N 76.8612 -1.46375 0.584142 0
M  V30 794 C 77.8082 -2.30323 -0.148286 0
M  V30 795 C 78.7782 -1.40703 -0.882713 0
M  V30 796 O 79.9632 -1.69651 -0.873099 0
M  V30 797 C 77.1032 -3.25196 -1.15507 0
M  V30 798 C 76.2162 -4.29915 -0.423943 0
M  V30 799 C 75.3512 -5.11914 -1.41838 0
M  V30 800 C 74.3902 -6.08381 -0.673736 0
M  V30 801 N 73.5272 -6.83242 -1.6163 0
M  V30 802 H 78.3672 -2.92427 0.573644 0
M  V30 803 H 75.9042 -1.44118 0.294703 0
M  V30 804 H 77.8622 -3.78646 -1.75166 0
M  V30 805 H 76.4922 -2.64898 -1.8447 0
M  V30 806 H 75.5442 -3.7931 0.287714 0
M  V30 807 H 76.8562 -4.98549 0.158128 0
M  V30 808 H 76.0102 -5.69648 -2.08773 0
M  V30 809 H 74.7492 -4.43243 -2.03438 0
M  V30 810 H 73.7542 -5.49799 0.00938483 0
M  V30 811 H 74.9792 -6.79071 -0.0631082 0
M  V30 812 H 72.9252 -6.1728 -2.22038 0
M  V30 813 H 72.8422 -7.48144 -1.08707 0
M  V30 814 H 74.1102 -7.45534 -2.27596 0
M  V30 815 N 78.3393 -0.321999 -1.54275 0
M  V30 816 C 79.2693 0.537411 -2.27231 0
M  V30 817 C 80.2503 1.12064 -1.27968 0
M  V30 818 O 81.4353 1.14606 -1.56777 0
M  V30 819 C 78.5653 1.69919 -3.02894 0
M  V30 820 C 77.5193 1.24534 -4.09482 0
M  V30 821 C 76.8453 2.49394 -4.72977 0
M  V30 822 C 78.1453 0.361335 -5.21049 0
M  V30 823 H 79.8393 -0.0711406 -2.99315 0
M  V30 824 H 77.3853 -0.0356555 -1.43956 0
M  V30 825 H 79.3383 2.30668 -3.52662 0
M  V30 826 H 78.0623 2.33431 -2.28424 0
M  V30 827 H 76.7213 0.660782 -3.60596 0
M  V30 828 H 76.3693 3.11265 -3.95124 0
M  V30 829 H 76.0693 2.19718 -5.44975 0
M  V30 830 H 77.5933 3.10908 -5.25517 0
M  V30 831 H 79.0073 0.875072 -5.66582 0
M  V30 832 H 77.4043 0.157428 -5.99893 0
M  V30 833 H 78.4743 -0.60822 -4.8107 0
M  V30 834 N 79.8174 1.5752 -0.0501392 0
M  V30 835 C 81.0944 1.83996 0.663685 0
M  V30 836 C 81.4744 0.938339 1.89099 0
M  V30 837 O 80.8224 -0.00087759 2.285 0
M  V30 838 C 81.0324 3.33702 1.02196 0
M  V30 839 C 82.3804 4.00691 1.40469 0
M  V30 840 O 83.4044 3.38321 1.11433 0
M  V30 841 O 82.2634 5.10658 1.94654 0
M  V30 842 H 79.3574 0.759385 0.32751 0
M  V30 843 H 81.9034 1.69514 -0.0794238 0
M  V30 844 H 80.6754 3.91015 0.149364 0
M  V30 845 H 80.2984 3.53368 1.82255 0
M  V30 846 N 81.2955 -0.223234 1.56011 0
M  V30 847 C 82.5235 -0.964812 1.83027 0
M  V30 848 C 82.9385 -1.78013 0.62904 0
M  V30 849 O 82.2955 -1.78008 -0.402414 0
M  V30 850 C 82.3465 -1.88373 3.08542 0
M  V30 851 O 82.0675 -1.10137 4.2403 0
M  V30 852 C 83.5685 -2.73934 3.48533 0
M  V30 853 H 80.7885 -0.282842 0.608475 0
M  V30 854 H 83.3325 -0.238971 2.03099 0
M  V30 855 H 81.4875 -2.56354 2.9045 0
M  V30 856 H 81.9015 -1.72501 4.95322 0
M  V30 857 H 83.3755 -3.34117 4.39397 0
M  V30 858 H 83.8525 -3.46244 2.70207 0
M  V30 859 H 84.4585 -2.11369 3.69057 0
M  V30 860 N 82.7736 -1.49793 -0.48987 0
M  V30 861 C 84.0016 -1.63568 -1.26701 0
M  V30 862 C 84.4166 -0.311465 -1.86213 0
M  V30 863 O 83.7736 0.704416 -1.68357 0
M  V30 864 C 83.8246 -2.71284 -2.38929 0
M  V30 865 O 83.5456 -3.9857 -1.81861 0
M  V30 866 C 85.0466 -2.95864 -3.3012 0
M  V30 867 H 82.2666 -0.550342 -0.383881 0
M  V30 868 H 84.8106 -1.95898 -0.586864 0
M  V30 869 H 82.9656 -2.417 -3.02753 0
M  V30 870 H 83.3796 -4.57993 -2.55622 0
M  V30 871 H 84.8536 -3.74941 -4.05121 0
M  V30 872 H 85.3306 -2.06206 -3.87783 0
M  V30 873 H 85.9366 -3.26907 -2.72051 0
M  V30 874 N 84.2517 0.741722 -1.39055 0
M  V30 875 C 85.4997 1.49818 -1.35643 0
M  V30 876 C 85.8207 1.94938 0.0491642 0
M  V30 877 O 85.0907 1.68505 0.999141 0
M  V30 878 H 83.6707 0.555755 -0.499144 0
M  V30 879 H 86.3327 0.880957 -1.73854 0
M  V30 880 H 85.4287 2.38348 -2.01486 0
M  V30 881 N 85.7298 1.2412 0.971189 0
M  V30 882 C 86.6598 1.05508 2.08304 0
M  V30 883 C 87.6408 -0.0308864 1.70072 0
M  V30 884 O 88.8258 0.135521 1.93727 0
M  V30 885 C 85.9558 0.655365 3.4106 0
M  V30 886 C 84.9098 1.68971 3.93234 0
M  V30 887 C 84.2358 1.14516 5.22293 0
M  V30 888 C 85.5358 3.08487 4.21465 0
M  V30 889 H 87.2298 1.98507 2.24132 0
M  V30 890 H 84.7758 0.955821 1.07704 0
M  V30 891 H 86.7288 0.51217 4.18276 0
M  V30 892 H 85.4528 -0.31032 3.25122 0
M  V30 893 H 84.1118 1.82106 3.18171 0
M  V30 894 H 83.7598 0.170189 5.02712 0
M  V30 895 H 83.4598 1.83635 5.58168 0
M  V30 896 H 84.9838 1.01401 6.02121 0
M  V30 897 H 86.3978 2.98601 4.89398 0
M  V30 898 H 84.7948 3.74926 4.68562 0
M  V30 899 H 85.8648 3.56787 3.28376 0
M  V30 900 N 87.2079 -1.17134 1.05439 0
M  V30 901 C 88.4569 -1.86791 0.761049 0
M  V30 902 C 88.7699 -1.82072 -0.714795 0
M  V30 903 O 89.9759 -2.47223 -1.12218 0
M  V30 904 C 88.4319 -3.35166 1.31117 0
M  V30 905 C 88.0399 -3.48381 2.81664 0
M  V30 906 C 89.7839 -4.10134 1.09499 0
M  V30 907 C 87.6909 -4.90793 3.29964 0
M  V30 908 H 86.6209 -0.699681 0.281002 0
M  V30 909 H 89.2719 -1.3226 1.27199 0
M  V30 910 H 87.6539 -3.8925 0.72803 0
M  V30 911 H 88.8279 -3.04502 3.45855 0
M  V30 912 H 87.1429 -2.86836 3.01851 0
M  V30 913 H 89.7399 -5.152 1.43084 0
M  V30 914 H 90.0829 -4.16287 0.0328772 0
M  V30 915 H 90.6159 -3.62264 1.64346 0
M  V30 916 H 87.3549 -4.89816 4.35616 0
M  V30 917 H 86.8749 -5.35333 2.70516 0
M  V30 918 H 88.5539 -5.59573 3.24787 0
M  V30 919 N 88.686 -0.835752 -1.33615 0
M  V30 920 C 89.963 -0.352017 -1.92406 0
M  V30 921 C 90.343 1.16225 -1.76224 0
M  V30 922 O 89.691 1.97526 -1.14873 0
M  V30 923 C 89.901 -0.795485 -3.39813 0
M  V30 924 C 91.249 -0.801703 -4.16963 0
M  V30 925 O 92.273 -0.738889 -3.48452 0
M  V30 926 O 91.132 -0.886607 -5.3926 0
M  V30 927 H 88.226 -0.0989641 -0.821057 0
M  V30 928 H 90.772 -0.921397 -1.42507 0
M  V30 929 H 89.544 -1.83795 -3.45449 0
M  V30 930 H 89.167 -0.202505 -3.97084 0
M  V30 931 N 90.1641 1.46063 -0.591896 0
M  V30 932 C 91.5801 1.57561 -0.254288 0
M  V30 933 C 91.7801 1.58565 1.24336 0
M  V30 934 O 90.8361 1.50753 2.02558 0
M  V30 935 C 92.1491 2.86549 -0.911611 0
M  V30 936 C 93.6971 3.00197 -0.886059 0
M  V30 937 C 94.1721 4.31933 -1.5231 0
M  V30 938 N 95.6631 4.38654 -1.48786 0
M  V30 939 C 96.3981 5.39222 -1.95006 0
M  V30 940 N 95.8941 6.46414 -2.49241 0
M  V30 941 N 97.6871 5.3048 -1.85868 0
M  V30 942 H 89.8381 1.43655 -1.56451 0
M  V30 943 H 92.1011 0.68583 -0.654478 0
M  V30 944 H 91.8071 2.91651 -1.96551 0
M  V30 945 H 91.6811 3.74794 -0.425368 0
M  V30 946 H 94.0681 2.9467 0.159246 0
M  V30 947 H 94.1491 2.13403 -1.41041 0
M  V30 948 H 93.7931 4.38217 -2.56765 0
M  V30 949 H 93.7231 5.17516 -0.973891 0
M  V30 950 H 96.2141 3.61793 -1.09151 0
M  V30 951 H 96.5271 7.19376 -2.82344 0
M  V30 952 H 94.8721 6.47208 -2.53272 0
M  V30 953 H 98.0631 4.45643 -1.43248 0
M  V30 954 H 98.2361 6.08711 -2.22204 0
M  V30 955 N 91.6422 0.330177 1.54103 0
M  V30 956 C 92.5892 -0.532762 2.24567 0
M  V30 957 C 93.5592 -1.10635 1.23892 0
M  V30 958 O 94.7442 -1.14546 1.5259 0
M  V30 959 C 91.8842 -1.6845 3.01195 0
M  V30 960 C 90.9972 -1.13951 4.167 0
M  V30 961 C 90.1322 -2.25746 4.80845 0
M  V30 962 C 89.1712 -1.6853 5.88442 0
M  V30 963 N 88.3082 -2.74014 6.46421 0
M  V30 964 H 93.1482 0.0746905 2.97906 0
M  V30 965 H 90.6852 0.048632 1.4702 0
M  V30 966 H 92.6432 -2.36234 3.43874 0
M  V30 967 H 91.2732 -2.26314 2.30178 0
M  V30 968 H 90.3252 -0.35301 3.78758 0
M  V30 969 H 91.6372 -0.680892 4.94131 0
M  V30 970 H 90.7912 -3.01422 5.26526 0
M  V30 971 H 89.5302 -2.74947 4.0281 0
M  V30 972 H 88.5352 -0.913543 5.42157 0
M  V30 973 H 89.7602 -1.20198 6.68378 0
M  V30 974 H 87.7062 -3.22494 5.71256 0
M  V30 975 H 87.6232 -2.32735 7.19285 0
M  V30 976 H 88.8912 -3.49499 6.96757 0
M  V30 977 N 93.1203 -1.57491 0.0584922 0
M  V30 978 C 94.3663 -1.93264 -0.614558 0
M  V30 979 C 94.6993 -0.937717 -1.7006 0
M  V30 980 O 93.9743 0.0351652 -1.94468 0
M  V30 981 C 94.2573 -3.3938 -1.20386 0
M  V30 982 C 94.1103 -4.49625 -0.125375 0
M  V30 983 C 95.4293 -3.86039 -2.11334 0
M  V30 984 H 92.5483 -0.702791 -0.221933 0
M  V30 985 H 95.1903 -1.8961 0.12175 0
M  V30 986 H 93.3403 -3.42626 -1.83139 0
M  V30 987 H 95.0123 -4.58506 0.506971 0
M  V30 988 H 93.2553 -4.30354 0.545672 0
M  V30 989 H 93.9263 -5.48967 -0.577861 0
M  V30 990 H 96.4023 -3.84716 -1.58534 0
M  V30 991 H 95.2783 -4.88914 -2.49507 0
M  V30 992 H 95.5393 -3.23215 -3.01636 0
M  V30 993 N 94.5984 0.214957 -1.56127 0
M  V30 994 C 95.8444 0.939762 -1.79712 0
M  V30 995 C 96.1774 1.83723 -0.629247 0
M  V30 996 O 95.4524 1.90925 0.371197 0
M  V30 997 C 95.7354 1.77306 -3.13424 0
M  V30 998 C 95.5884 0.90164 -4.40671 0
M  V30 999 C 96.9074 2.74956 -3.43638 0
M  V30 1000 H 94.0264 0.340214 -0.653776 0
M  V30 1001 H 96.6684 0.20824 -1.88855 0
M  V30 1002 H 94.8184 2.39673 -3.0576 0
M  V30 1003 H 96.4904 0.294206 -4.60361 0
M  V30 1004 H 94.7334 0.207368 -4.33304 0
M  V30 1005 H 95.4044 1.51923 -5.30682 0
M  V30 1006 H 97.8804 2.22724 -3.51473 0
M  V30 1007 H 96.7564 3.30358 -4.38355 0
M  V30 1008 H 97.0174 3.53023 -2.66134 0
M  V30 1009 N 96.0765 1.50051 0.48192 0
M  V30 1010 C 97.4925 1.37237 0.814756 0
M  V30 1011 C 97.6925 0.420109 1.97072 0
M  V30 1012 O 96.7485 -0.141246 2.52105 0
M  V30 1013 C 98.0615 2.78375 1.13701 0
M  V30 1014 C 99.6095 2.87213 1.2441 0
M  V30 1015 C 100.084 4.29161 1.59954 0
M  V30 1016 N 101.575 4.32061 1.66967 0
M  V30 1017 C 102.31 5.38879 1.95952 0
M  V30 1018 N 101.806 6.55918 2.23031 0
M  V30 1019 N 103.599 5.26312 1.97363 0
M  V30 1020 H 95.7505 2.10546 -0.28005 0
M  V30 1021 H 98.0135 0.945921 -0.0627454 0
M  V30 1022 H 97.7195 3.49845 0.360787 0
M  V30 1023 H 97.5935 3.14941 2.07586 0
M  V30 1024 H 99.9805 2.15969 2.01101 0
M  V30 1025 H 100.061 2.54204 0.285299 0
M  V30 1026 H 99.7055 5.00938 0.838067 0
M  V30 1027 H 99.6355 4.59648 2.56966 0
M  V30 1028 H 102.126 3.47661 1.48123 0
M  V30 1029 H 102.439 7.33139 2.44391 0
M  V30 1030 H 100.784 6.59112 2.20447 0
M  V30 1031 H 103.975 4.33876 1.75697 0
M  V30 1032 H 104.148 6.09649 2.19618 0
M  V30 1033 N 97.5546 -0.734337 1.39446 0
M  V30 1034 C 98.8016 -1.49391 1.36706 0
M  V30 1035 C 99.1296 -1.94465 -0.0367813 0
M  V30 1036 O 98.3846 -1.67154 -1.01774 0
M  V30 1037 C 98.6836 -2.74711 2.28623 0
M  V30 1038 C 98.3496 -2.48501 3.76242 0
M  V30 1039 C 97.0116 -2.41062 4.16464 0
M  V30 1040 C 99.3636 -2.26098 4.69606 0
M  V30 1041 C 96.6916 -2.09262 5.48112 0
M  V30 1042 C 99.0436 -1.95814 6.01531 0
M  V30 1043 C 97.7076 -1.86845 6.40816 0
M  V30 1044 H 96.9776 -0.546661 0.500243 0
M  V30 1045 H 99.6246 -0.842788 1.71957 0
M  V30 1046 H 97.9296 -3.44569 1.86492 0
M  V30 1047 H 99.6266 -3.32741 2.23796 0
M  V30 1048 H 96.2166 -2.55169 3.44364 0
M  V30 1049 H 100.401 -2.30812 4.39363 0
M  V30 1050 H 95.6566 -2.00841 5.77471 0
M  V30 1051 H 99.8306 -1.77488 6.73403 0
M  V30 1052 H 97.4576 -1.6197 7.42745 0
M  V30 1053 N 99.0327 -1.24633 -0.964593 0
M  V30 1054 C 99.9657 -0.984662 -2.05863 0
M  V30 1055 C 100.944 0.0826554 -1.6239 0
M  V30 1056 O 102.128 -0.0549296 -1.8842 0
M  V30 1057 C 99.2547 -0.486529 -3.35187 0
M  V30 1058 C 98.3007 -1.54286 -3.97615 0
M  V30 1059 S 99.1337 -3.12513 -4.34851 0
M  V30 1060 C 100.29 -2.6441 -5.67308 0
M  V30 1061 H 100.523 -1.91104 -2.27743 0
M  V30 1062 H 98.0557 -1.08052 -1.10291 0
M  V30 1063 H 100.014 -0.205757 -4.09984 0
M  V30 1064 H 98.6747 0.419186 -3.1129 0
M  V30 1065 H 97.8677 -1.14481 -4.90826 0
M  V30 1066 H 97.4697 -1.7738 -3.2926 0
M  V30 1067 H 99.7617 -2.07416 -6.44969 0
M  V30 1068 H 100.705 -3.56222 -6.11973 0
M  V30 1069 H 101.113 -2.04734 -5.26065 0
M  V30 1070 N 100.511 1.16574 -1.06058 0
M  V30 1071 C 101.736 1.91493 -0.796562 0
M  V30 1072 C 102.161 1.76773 0.642868 0
M  V30 1073 O 101.519 1.09142 1.44768 0
M  V30 1074 C 101.567 3.40293 -1.19303 0
M  V30 1075 O 100.671 4.11074 -0.330394 0
M  V30 1076 H 100.012 0.596678 -0.291326 0
M  V30 1077 H 102.542 1.47708 -1.41575 0
M  V30 1078 H 102.552 3.91057 -1.16356 0
M  V30 1079 H 101.227 3.50326 -2.24153 0
M  V30 1080 H 99.8038 3.70513 -0.421225 0
M  V30 1081 N 101.989 0.842826 1.3317 0
M  V30 1082 C 103.266 0.362216 1.92217 0
M  V30 1083 C 103.646 -1.15289 1.76838 0
M  V30 1084 O 102.994 -1.96914 1.15919 0
M  V30 1085 C 103.204 0.813495 3.39387 0
M  V30 1086 C 104.552 0.823804 4.16532 0
M  V30 1087 O 105.576 0.757358 3.48055 0
M  V30 1088 O 104.435 0.915193 5.38782 0
M  V30 1089 H 101.529 0.103317 0.820521 0
M  V30 1090 H 104.075 0.928942 1.42017 0
M  V30 1091 H 102.847 1.85624 3.4447 0
M  V30 1092 H 102.47 0.223561 3.96971 0
M  V30 1093 N 103.467 -1.45747 0.599634 0
M  V30 1094 C 104.43 -2.28917 -0.113835 0
M  V30 1095 C 105.43 -1.3933 -0.802729 0
M  V30 1096 O 106.62 -1.61534 -0.652103 0
M  V30 1097 C 103.752 -3.20152 -1.17114 0
M  V30 1098 H 104.945 -2.93478 0.617289 0
M  V30 1099 H 102.498 -1.52137 0.358327 0
M  V30 1100 H 103.233 -2.60374 -1.93329 0
M  V30 1101 H 103.018 -3.86133 -0.681468 0
M  V30 1102 H 104.508 -3.82708 -1.67105 0
M  V30 1103 N 104.945 -0.338344 -1.53925 0
M  V30 1104 C 106.17 0.263987 -2.05713 0
M  V30 1105 C 106.595 1.43847 -1.21201 0
M  V30 1106 O 105.953 1.79904 -0.224535 0
M  V30 1107 C 106.001 0.662 -3.54471 0
M  V30 1108 O 105.105 1.76265 -3.72833 0
M  V30 1109 H 104.446 0.0448722 -0.662482 0
M  V30 1110 H 106.976 -0.491048 -1.9862 0
M  V30 1111 H 106.986 0.940594 -3.9701 0
M  V30 1112 H 105.661 -0.196937 -4.15433 0
M  V30 1113 H 104.238 1.48173 -3.42198 0
M  V30 1114 N 106.423 1.57458 -0.0668435 0
M  V30 1115 C 107.672 1.92477 0.602947 0
M  V30 1116 C 107.985 0.948419 1.71068 0
M  V30 1117 O 109.191 1.19124 2.43971 0
M  V30 1118 C 107.647 3.41903 1.12383 0
M  V30 1119 C 107.255 4.47975 0.04737 0
M  V30 1120 C 108.999 3.85931 1.76797 0
M  V30 1121 C 106.906 5.88529 0.582022 0
M  V30 1122 H 105.836 0.718387 0.22899 0
M  V30 1123 H 108.487 1.82978 -0.138276 0
M  V30 1124 H 106.869 3.46459 1.91787 0
M  V30 1125 H 108.043 4.55029 -0.726978 0
M  V30 1126 H 106.358 4.13384 -0.500243 0
M  V30 1127 H 108.955 4.88322 2.17821 0
M  V30 1128 H 109.298 3.23029 2.62599 0
M  V30 1129 H 109.831 3.83958 1.04024 0
M  V30 1130 H 106.57 6.55065 -0.238721 0
M  V30 1131 H 106.09 5.85004 1.324 0
M  V30 1132 H 107.769 6.38258 1.05999 0
M  V30 1133 N 107.901 -0.206675 1.56239 0
M  V30 1134 C 109.131 -0.943975 1.83773 0
M  V30 1135 C 109.539 -1.77841 0.645703 0
M  V30 1136 O 108.882 -1.79403 -0.395008 0
M  V30 1137 C 108.944 -1.899 3.05251 0
M  V30 1138 C 108.608 -1.24764 4.39639 0
M  V30 1139 C 109.605 -0.630216 5.16066 0
M  V30 1140 C 107.29 -1.25496 4.8637 0
M  V30 1141 C 109.284 -0.0287946 6.37393 0
M  V30 1142 C 106.971 -0.649698 6.07637 0
M  V30 1143 C 107.969 -0.0376845 6.8299 0
M  V30 1144 O 107.657 0.55812 8.0196 0
M  V30 1145 H 107.389 -0.281508 0.614597 0
M  V30 1146 H 109.943 -0.222458 2.04192 0
M  V30 1147 H 108.173 -2.6599 2.80689 0
M  V30 1148 H 109.862 -2.5031 3.1953 0
M  V30 1149 H 110.628 -0.616785 4.81062 0
M  V30 1150 H 106.507 -1.72072 4.27683 0
M  V30 1151 H 110.051 0.449518 6.9615 0
M  V30 1152 H 105.948 -0.660592 6.42111 0
M  V30 1153 H 106.716 0.453891 8.17241 0
M  V30 1154 N 109.379 -1.50304 -0.473955 0
M  V30 1155 C 110.342 -1.6841 -1.55469 0
M  V30 1156 C 111.342 -0.554905 -1.50922 0
M  V30 1157 O 112.532 -0.821882 -1.53593 0
M  V30 1158 C 109.664 -1.70667 -2.95102 0
M  V30 1159 H 110.857 -2.64828 -1.40733 0
M  V30 1160 H 108.41 -1.39742 -0.700132 0
M  V30 1161 H 109.145 -0.75932 -3.15285 0
M  V30 1162 H 108.93 -2.52698 -2.9981 0
M  V30 1163 H 110.42 -1.8664 -3.73571 0
M  V30 1164 N 110.857 0.726932 -1.39834 0
M  V30 1165 C 112.104 1.48664 -1.37496 0
M  V30 1166 C 112.432 1.94482 0.0264678 0
M  V30 1167 O 111.687 1.67692 1.00886 0
M  V30 1168 C 111.986 2.73495 -2.30077 0
M  V30 1169 C 111.652 2.46502 -3.77555 0
M  V30 1170 C 110.314 2.3885 -4.17737 0
M  V30 1171 C 112.666 2.23604 -4.70798 0
M  V30 1172 C 109.994 2.06352 -5.49214 0
M  V30 1173 C 112.346 1.92622 -6.02561 0
M  V30 1174 C 111.01 1.83444 -6.41798 0
M  V30 1175 H 110.28 0.544001 -0.503135 0
M  V30 1176 H 112.927 0.833657 -1.72402 0
M  V30 1177 H 111.232 3.43575 -1.88317 0
M  V30 1178 H 112.929 3.31549 -2.25558 0
M  V30 1179 H 109.519 2.5334 -3.45712 0
M  V30 1180 H 113.703 2.28479 -4.40581 0
M  V30 1181 H 108.959 1.97776 -5.78528 0
M  V30 1182 H 113.133 1.73914 -6.74334 0
M  V30 1183 H 110.76 1.58029 -7.43593 0
M  V30 1184 N 112.336 1.25143 0.95797 0
M  V30 1185 C 113.266 1.07711 2.07173 0
M  V30 1186 C 114.247 -0.0128462 1.70095 0
M  V30 1187 O 115.432 0.156061 1.93572 0
M  V30 1188 C 112.562 0.691503 3.40346 0
M  V30 1189 C 111.516 1.73132 3.9142 0
M  V30 1190 C 110.842 1.20049 5.21049 0
M  V30 1191 C 112.142 3.1294 4.1817 0
M  V30 1192 H 113.836 2.00873 2.22014 0
M  V30 1193 H 111.382 0.967191 1.06684 0
M  V30 1194 H 113.335 0.556505 4.17709 0
M  V30 1195 H 112.059 -0.275819 3.25433 0
M  V30 1196 H 110.718 1.8547 3.16222 0
M  V30 1197 H 110.366 0.223499 5.02503 0
M  V30 1198 H 110.066 1.89545 5.56189 0
M  V30 1199 H 111.59 1.07782 6.01012 0
M  V30 1200 H 113.004 3.03775 4.86203 0
M  V30 1201 H 111.401 3.79875 4.64559 0
M  V30 1202 H 112.471 3.6025 3.24573 0
M  V30 1203 N 113.814 -1.1601 1.06675 0
M  V30 1204 C 115.039 -1.91068 0.806706 0
M  V30 1205 C 115.464 -1.77112 -0.633485 0
M  V30 1206 O 114.822 -1.09908 -1.44187 0
M  V30 1207 C 114.87 -3.39655 1.21106 0
M  V30 1208 O 113.974 -4.10893 0.352189 0
M  V30 1209 H 113.315 -0.595125 0.294486 0
M  V30 1210 H 115.845 -1.46955 1.42356 0
M  V30 1211 H 115.855 -3.90434 1.18428 0
M  V30 1212 H 114.53 -3.49132 2.26008 0
M  V30 1213 H 113.107 -3.70285 0.440868 0
M  V30 1214 N 115.292 -0.849877 -1.32721 0
M  V30 1215 C 116.225 -0.235903 -2.26977 0
M  V30 1216 C 117.203 0.623355 -1.50177 0
M  V30 1217 O 118.387 0.581207 -1.79316 0
M  V30 1218 C 115.514 0.667712 -3.32053 0
M  V30 1219 C 114.56 -0.11753 -4.26338 0
M  V30 1220 S 115.393 -1.48277 -5.14562 0
M  V30 1221 C 116.549 -0.584741 -6.23163 0
M  V30 1222 H 116.782 -1.03495 -2.78704 0
M  V30 1223 H 114.315 -0.64724 -1.40179 0
M  V30 1224 H 116.273 1.18343 -3.93072 0
M  V30 1225 H 114.934 1.44052 -2.7912 0
M  V30 1226 H 114.127 0.57051 -5.00761 0
M  V30 1227 H 113.729 -0.564668 -3.69713 0
M  V30 1228 H 116.021 0.212968 -6.77165 0
M  V30 1229 H 116.964 -1.29947 -6.96074 0
M  V30 1230 H 117.372 -0.161202 -5.6427 0
M  V30 1231 N 116.77 1.45427 -0.607355 0
M  V30 1232 C 117.68 2.34325 0.113463 0
M  V30 1233 C 118.696 1.51226 0.860617 0
M  V30 1234 O 119.872 1.84029 0.818255 0
M  V30 1235 C 116.937 3.28839 1.09844 0
M  V30 1236 C 115.998 4.27844 0.353271 0
M  V30 1237 C 115.231 5.17842 1.29133 0
M  V30 1238 O 115.454 5.11264 2.52913 0
M  V30 1239 O 114.388 5.96713 0.788523 0
M  V30 1240 H 118.214 2.97364 -0.617094 0
M  V30 1241 H 115.799 1.44807 -0.367619 0
M  V30 1242 H 117.681 3.8708 1.66575 0
M  V30 1243 H 116.356 2.68365 1.81003 0
M  V30 1244 H 115.263 3.7322 -0.256494 0
M  V30 1245 H 116.596 4.91173 -0.317822 0
M  V30 1246 N 118.248 0.346503 1.53744 0
M  V30 1247 C 119.18 -0.543316 2.22667 0
M  V30 1248 C 120.193 -1.06159 1.23427 0
M  V30 1249 O 121.382 -0.971235 1.49764 0
M  V30 1250 C 118.482 -1.76076 2.89569 0
M  V30 1251 C 117.655 -1.37727 4.15151 0
M  V30 1252 C 116.714 -2.45471 4.65436 0
M  V30 1253 O 115.74 -2.08655 5.29577 0
M  V30 1254 N 116.942 -3.7677 4.41616 0
M  V30 1255 H 119.707 0.0469703 2.99663 0
M  V30 1256 H 117.268 0.170766 1.60997 0
M  V30 1257 H 119.26 -2.47593 3.20125 0
M  V30 1258 H 117.83 -2.25835 2.16142 0
M  V30 1259 H 117.05 -0.492746 3.91108 0
M  V30 1260 H 118.338 -1.09708 4.96832 0
M  V30 1261 H 117.736 -4.09467 3.90325 0
M  V30 1262 H 116.293 -4.44448 4.7677 0
M  V30 1263 N 119.726 -1.57421 0.075193 0
M  V30 1264 C 120.689 -2.11791 -0.876203 0
M  V30 1265 C 121.689 -1.04268 -1.22412 0
M  V30 1266 O 122.879 -1.30242 -1.15684 0
M  V30 1267 C 120.011 -2.62207 -2.17854 0
M  V30 1268 H 121.204 -2.9716 -0.40444 0
M  V30 1269 H 118.757 -1.55333 -0.173557 0
M  V30 1270 H 119.492 -1.803 -2.6956 0
M  V30 1271 H 119.277 -3.40802 -1.93897 0
M  V30 1272 H 120.767 -3.04335 -2.85955 0
M  V30 1273 N 121.204 0.198386 -1.56346 0
M  V30 1274 C 122.453 0.917451 -1.79627 0
M  V30 1275 C 122.766 1.8456 -0.64784 0
M  V30 1276 O 123.972 2.60504 -0.764859 0
M  V30 1277 C 122.428 1.68175 -3.18191 0
M  V30 1278 C 122.036 0.798589 -4.40825 0
M  V30 1279 C 123.78 2.39065 -3.50782 0
M  V30 1280 C 121.687 1.56157 -5.70411 0
M  V30 1281 H 120.617 0.346317 -0.669762 0
M  V30 1282 H 123.268 0.170801 -1.82703 0
M  V30 1283 H 121.65 2.47216 -3.09354 0
M  V30 1284 H 122.824 0.0470665 -4.60776 0
M  V30 1285 H 121.139 0.200686 -4.15916 0
M  V30 1286 H 123.736 2.96692 -4.44835 0
M  V30 1287 H 124.079 3.13091 -2.74371 0
M  V30 1288 H 124.612 1.66993 -3.61052 0
M  V30 1289 H 121.351 0.864142 -6.49779 0
M  V30 1290 H 120.871 2.2871 -5.54483 0
M  V30 1291 H 122.55 2.11622 -6.11412 0
M  V30 1292 N 122.682 1.50554 0.465978 0
M  V30 1293 C 123.645 1.69233 1.54574 0
M  V30 1294 C 124.645 0.562901 1.50626 0
M  V30 1295 O 125.835 0.830016 1.53155 0
M  V30 1296 C 122.967 1.7223 2.94193 0
M  V30 1297 H 124.16 2.65571 1.39327 0
M  V30 1298 H 121.713 1.40111 0.692711 0
M  V30 1299 H 122.448 0.77603 3.14878 0
M  V30 1300 H 122.233 2.54285 2.98466 0
M  V30 1301 H 123.723 1.88618 3.72576 0
M  V30 1302 N 124.16 -0.719506 1.40217 0
M  V30 1303 C 125.437 -1.47221 1.28784 0
M  V30 1304 C 125.817 -2.10883 -0.0956067 0
M  V30 1305 O 125.165 -1.99833 -1.10811 0
M  V30 1306 C 125.375 -2.5111 2.42373 0
M  V30 1307 C 126.723 -3.17053 2.82423 0
M  V30 1308 O 127.747 -2.61429 2.41937 0
M  V30 1309 O 126.606 -4.17742 3.52355 0
M  V30 1310 H 123.7 -0.654491 0.50554 0
M  V30 1311 H 126.246 -0.752014 1.52128 0
M  V30 1312 H 125.018 -2.02556 3.34793 0
M  V30 1313 H 124.641 -3.3067 2.20778 0
M  V30 1314 N 125.638 -1.25649 -0.95132 0
M  V30 1315 C 126.601 -1.06399 -2.03007 0
M  V30 1316 C 127.601 -0.0156794 -1.60792 0
M  V30 1317 O 128.791 -0.25817 -1.72276 0
M  V30 1318 C 125.923 -0.616184 -3.35285 0
M  V30 1319 H 127.116 -2.02164 -2.21517 0
M  V30 1320 H 124.669 -1.08103 -1.12887 0
M  V30 1321 H 125.404 0.343917 -3.22471 0
M  V30 1322 H 125.189 -1.37301 -3.67275 0
M  V30 1323 H 126.679 -0.503032 -4.14559 0
M  V30 1324 N 127.117 1.15442 -1.07289 0
M  V30 1325 C 128.365 1.85845 -0.794096 0
M  V30 1326 C 128.686 1.82692 0.681809 0
M  V30 1327 O 127.956 1.26741 1.49377 0
M  V30 1328 H 126.536 0.688089 -0.290763 0
M  V30 1329 H 129.198 1.39947 -1.3565 0
M  V30 1330 H 128.294 2.91001 -1.12804 0
M  V30 1331 N 128.595 0.856903 1.32268 0
M  V30 1332 C 129.525 0.31858 2.31316 0
M  V30 1333 C 130.506 -0.583487 1.59779 0
M  V30 1334 O 131.691 -0.503259 1.87566 0
M  V30 1335 C 128.821 -0.491979 3.43798 0
M  V30 1336 C 127.775 0.315849 4.26833 0
M  V30 1337 C 127.101 -0.619586 5.31098 0
M  V30 1338 C 128.401 1.54282 4.98993 0
M  V30 1339 H 130.095 1.14621 2.76591 0
M  V30 1340 H 127.641 0.552613 1.32974 0
M  V30 1341 H 129.594 -0.879012 4.1213 0
M  V30 1342 H 128.318 -1.35299 2.97257 0
M  V30 1343 H 126.977 0.684664 3.6015 0
M  V30 1344 H 126.625 -1.47751 4.8081 0
M  V30 1345 H 126.325 -0.0830621 5.87541 0
M  V30 1346 H 127.849 -1.00375 6.02293 0
M  V30 1347 H 129.263 1.22796 5.59995 0
M  V30 1348 H 127.66 2.01745 5.65172 0
M  V30 1349 H 128.73 2.30285 4.26728 0
M  V30 1350 N 130.073 -1.45103 0.615059 0
M  V30 1351 C 131.298 -2.07064 0.117988 0
M  V30 1352 C 131.723 -1.4554 -1.19163 0
M  V30 1353 O 131.081 -0.550855 -1.72729 0
M  V30 1354 C 131.129 -3.606 -0.000288387 0
M  V30 1355 O 130.233 -3.98847 -1.04856 0
M  V30 1356 H 129.574 -0.659467 0.0774581 0
M  V30 1357 H 132.104 -1.86236 0.847186 0
M  V30 1358 H 132.114 -4.07529 -0.196091 0
M  V30 1359 H 130.789 -4.04765 0.955932 0
M  V30 1360 H 129.366 -3.63577 -0.828619 0
M  V30 1361 N 131.551 -0.354651 -1.53558 0
M  V30 1362 C 132.962 0.126902 -1.86268 0
M  V30 1363 C 133.313 1.49075 -1.27558 0
M  V30 1364 O 132.438 2.08105 -0.5934 0
M  V30 1365 C 133.033 0.237046 -3.3797 0
M  V30 1366 C 131.592 0.662842 -3.70518 0
M  V30 1367 C 130.739 -0.196652 -2.76602 0
M  V30 1368 H 133.69 -0.573849 -1.47962 0
M  V30 1369 H 133.711 1.06259 -3.65362 0
M  V30 1370 H 133.223 -0.755725 -3.80671 0
M  V30 1371 H 131.324 1.66424 -3.33367 0
M  V30 1372 H 131.437 0.445034 -4.77029 0
M  V30 1373 H 129.801 0.332763 -2.52517 0
M  V30 1374 H 130.584 -1.18676 -3.22135 0
M  V30 1375 N 133.029 1.57378 -0.0835403 0
M  V30 1376 C 133.939 2.16897 0.894021 0
M  V30 1377 C 134.955 1.13528 1.31861 0
M  V30 1378 O 136.131 1.45848 1.3889 0
M  V30 1379 C 133.196 2.72831 2.13925 0
M  V30 1380 C 132.257 3.91115 1.76997 0
M  V30 1381 C 131.49 4.44371 2.95584 0
M  V30 1382 O 131.713 3.96596 4.09961 0
M  V30 1383 O 130.647 5.35549 2.74719 0
M  V30 1384 H 134.473 3.00814 0.417679 0
M  V30 1385 H 132.058 1.48741 0.140181 0
M  V30 1386 H 133.94 3.0863 2.86924 0
M  V30 1387 H 132.615 1.91967 2.60635 0
M  V30 1388 H 131.522 3.60148 1.01214 0
M  V30 1389 H 132.855 4.73307 1.3506 0
M  V30 1390 N 134.507 -0.190092 1.56449 0
M  V30 1391 C 135.47 -1.21925 1.9408 0
M  V30 1392 C 136.47 -1.38176 0.822431 0
M  V30 1393 O 137.66 -1.35903 1.08977 0
M  V30 1394 C 134.792 -2.58773 2.21922 0
M  V30 1395 H 135.985 -0.897464 2.86157 0
M  V30 1396 H 133.538 -0.43181 1.50217 0
M  V30 1397 H 134.273 -2.95998 1.32499 0
M  V30 1398 H 134.058 -2.48348 3.03424 0
M  V30 1399 H 135.548 -3.32978 2.52022 0
M  V30 1400 N 135.985 -1.50799 -0.457987 0
M  V30 1401 C 137.215 -1.65977 -1.23025 0
M  V30 1402 C 137.623 -0.347918 -1.85974 0
M  V30 1403 O 136.966 0.68148 -1.70592 0
M  V30 1404 C 137.028 -2.70309 -2.3701 0
M  V30 1405 C 136.692 -4.135 -1.94594 0
M  V30 1406 C 137.689 -4.98949 -1.46101 0
M  V30 1407 C 135.374 -4.5949 -2.02915 0
M  V30 1408 C 137.368 -6.28442 -1.06489 0
M  V30 1409 C 135.055 -5.88984 -1.62914 0
M  V30 1410 C 136.053 -6.73286 -1.1478 0
M  V30 1411 O 135.741 -8.00362 -0.75339 0
M  V30 1412 H 135.473 -0.56064 -0.377702 0
M  V30 1413 H 138.027 -1.97857 -0.551537 0
M  V30 1414 H 136.257 -2.337 -3.08093 0
M  V30 1415 H 137.946 -2.74574 -2.98938 0
M  V30 1416 H 138.712 -4.6463 -1.39084 0
M  V30 1417 H 134.591 -3.94009 -2.39328 0
M  V30 1418 H 138.135 -6.94194 -0.688488 0
M  V30 1419 H 134.032 -6.22822 -1.69595 0
M  V30 1420 H 134.8 -8.13744 -0.88108 0
M  V30 1421 N 137.463 0.71206 -1.40597 0
M  V30 1422 C 138.395 1.83704 -1.37061 0
M  V30 1423 C 139.408 1.60453 -0.275426 0
M  V30 1424 O 140.597 1.70262 -0.53602 0
M  V30 1425 C 137.697 3.20172 -1.11099 0
M  V30 1426 C 136.87 3.7059 -2.3234 0
M  V30 1427 C 135.929 4.85681 -2.02485 0
M  V30 1428 O 134.955 4.9815 -2.75382 0
M  V30 1429 N 136.157 5.71735 -1.00497 0
M  V30 1430 H 138.922 1.87235 -2.34016 0
M  V30 1431 H 136.483 0.893739 -1.34996 0
M  V30 1432 H 138.475 3.94768 -0.891064 0
M  V30 1433 H 137.045 3.11767 -0.227989 0
M  V30 1434 H 136.265 2.87085 -2.7014 0
M  V30 1435 H 137.553 4.01011 -3.13157 0
M  V30 1436 H 136.951 5.64275 -0.401298 0
M  V30 1437 H 135.508 6.463 -0.844942 0
M  V30 1438 N 138.941 1.26152 0.944643 0
M  V30 1439 C 139.889 1.07215 2.06417 0
M  V30 1440 C 140.883 9.2007e-05 1.694 0
M  V30 1441 O 142.089 0.1565 1.79318 0
M  V30 1442 H 138.464 0.329837 0.675805 0
M  V30 1443 H 140.435 2.02099 2.19541 0
M  V30 1444 C 139.184 0.718197 3.40202 0
M  V30 1445 H 138.507 1.53497 3.69159 0
M  V30 1446 H 139.947 0.625459 4.19361 0
M  V30 1447 C 138.406 -0.576435 3.31932 0
M  V30 1448 O 138.936 -1.61574 3.67773 0
M  V30 1449 N 137.142 -0.565781 2.85039 0
M  V30 1450 H 136.689 0.280367 2.5607 0
M  V30 1451 H 136.647 -1.43213 2.79888 0
M  V30 1452 N 140.419 -1.14872 1.07899 0
M  V30 1453 C 141.367 -2.21857 0.698727 0
M  V30 1454 C 142.361 -1.66845 -0.293086 0
M  V30 1455 O 143.567 -1.79321 -0.156204 0
M  V30 1456 H 139.942 -0.722691 0.207899 0
M  V30 1457 H 141.913 -2.51205 1.61054 0
M  V30 1458 C 140.662 -3.47498 0.11858 0
M  V30 1459 H 139.985 -3.90154 0.872914 0
M  V30 1460 H 141.425 -4.23858 -0.109759 0
M  V30 1461 C 139.884 -3.16947 -1.1422 0
M  V30 1462 O 140.414 -3.3426 -2.22785 0
M  V30 1463 N 138.62 -2.70946 -1.05055 0
M  V30 1464 H 138.167 -2.57058 -0.167038 0
M  V30 1465 H 138.125 -2.50879 -1.89491 0
M  V30 1466 N 141.898 -0.863906 -1.31812 0
M  V30 1467 C 143.309 -0.52522 -1.7916 0
M  V30 1468 C 143.66 0.957518 -1.71248 0
M  V30 1469 O 142.785 1.74734 -1.27659 0
M  V30 1470 C 143.38 -0.9466 -3.25307 0
M  V30 1471 C 141.939 -0.659668 -3.70574 0
M  V30 1472 C 141.086 -1.14126 -2.52726 0
M  V30 1473 H 144.037 -1.05022 -1.1898 0
M  V30 1474 H 144.058 -0.266766 -3.79564 0
M  V30 1475 H 143.57 -2.02579 -3.31034 0
M  V30 1476 H 141.671 0.408416 -3.70355 0
M  V30 1477 H 141.784 -1.23245 -4.62977 0
M  V30 1478 H 140.148 -0.561216 -2.4844 0
M  V30 1479 H 140.931 -2.22775 -2.61201 0
M  V30 1480 N 143.376 1.44774 -0.622745 0
M  V30 1481 C 144.792 1.56986 -0.287652 0
M  V30 1482 C 144.992 1.61167 1.20944 0
M  V30 1483 O 144.048 1.55015 1.99315 0
M  V30 1484 C 145.361 2.84551 -0.972188 0
M  V30 1485 C 146.909 2.9825 -0.949536 0
M  V30 1486 C 147.384 4.28605 -1.61437 0
M  V30 1487 N 148.875 4.35399 -1.58057 0
M  V30 1488 C 149.61 5.34964 -2.064 0
M  V30 1489 N 149.106 6.40981 -2.62897 0
M  V30 1490 N 150.899 5.26419 -1.97078 0
M  V30 1491 H 143.05 1.40304 -1.59463 0
M  V30 1492 H 145.313 0.671794 -0.668878 0
M  V30 1493 H 145.019 2.87417 -2.02693 0
M  V30 1494 H 144.893 3.73807 -0.504771 0
M  V30 1495 H 147.28 2.94941 0.0967067 0
M  V30 1496 H 147.361 2.10364 -1.45536 0
M  V30 1497 H 147.005 4.32672 -2.66002 0
M  V30 1498 H 146.935 5.15334 -1.08344 0
M  V30 1499 H 149.426 3.59397 -1.16801 0
M  V30 1500 H 149.739 7.13225 -2.97539 0
M  V30 1501 H 148.084 6.4169 -2.66943 0
M  V30 1502 H 151.275 4.42504 -1.52669 0
M  V30 1503 H 151.448 6.03861 -2.35066 0
M  V30 1504 N 144.854 0.36279 1.53368 0
M  V30 1505 C 146.1 -0.228113 2.01513 0
M  V30 1506 C 146.433 -1.48648 1.2497 0
M  V30 1507 O 145.708 -1.91459 0.342616 0
M  V30 1508 C 145.991 -0.522884 3.56284 0
M  V30 1509 C 145.844 0.74892 4.43521 0
M  V30 1510 C 147.163 -1.32461 4.19693 0
M  V30 1511 H 144.282 -0.0814343 0.732487 0
M  V30 1512 H 146.924 0.48713 1.83649 0
M  V30 1513 H 145.074 -1.1322 3.71636 0
M  V30 1514 H 146.746 1.38648 4.39971 0
M  V30 1515 H 144.989 1.36986 4.11603 0
M  V30 1516 H 145.66 0.497667 5.49752 0
M  V30 1517 H 148.136 -0.809203 4.08156 0
M  V30 1518 H 147.012 -1.49961 5.28018 0
M  V30 1519 H 147.273 -2.33232 3.75573 0
M  V30 1520 N 146.332 -1.57332 0.0918853 0
M  V30 1521 C 147.58 -1.93853 -0.571446 0
M  V30 1522 C 147.901 -0.974212 -1.6892 0
M  V30 1523 O 147.171 -0.0257254 -1.95883 0
M  V30 1524 H 145.751 -0.715666 -0.214082 0
M  V30 1525 H 148.413 -1.94287 0.154464 0
M  V30 1526 H 147.509 -2.96191 -0.983729 0
M  V30 1527 N 147.81 0.181792 -1.56548 0
M  V30 1528 C 148.74 1.22765 -1.98623 0
M  V30 1529 C 149.721 1.46747 -0.860189 0
M  V30 1530 O 150.906 1.58259 -1.12551 0
M  V30 1531 C 148.036 2.56894 -2.33715 0
M  V30 1532 C 146.99 2.475 -3.49182 0
M  V30 1533 C 146.316 3.86023 -3.69986 0
M  V30 1534 C 147.616 1.98866 -4.82959 0
M  V30 1535 H 149.31 0.877942 -2.86239 0
M  V30 1536 H 146.856 0.42088 -1.37712 0
M  V30 1537 H 148.809 3.30253 -2.61746 0
M  V30 1538 H 147.533 2.93632 -1.42997 0
M  V30 1539 H 146.192 1.76596 -3.21262 0
M  V30 1540 H 145.84 4.20136 -2.76576 0
M  V30 1541 H 145.54 3.80609 -4.47672 0
M  V30 1542 H 147.064 4.60984 -4.00407 0
M  V30 1543 H 148.478 2.61992 -5.09934 0
M  V30 1544 H 146.875 2.04424 -5.64208 0
M  V30 1545 H 147.945 0.942465 -4.75653 0
M  V30 1546 N 149.288 1.51039 0.449983 0
M  V30 1547 C 150.537 1.62317 1.19733 0
M  V30 1548 C 150.85 0.339101 1.92638 0
M  V30 1549 O 152.056 0.331069 2.69474 0
M  V30 1550 C 150.512 2.86608 2.17678 0
M  V30 1551 C 150.12 4.21972 1.50479 0
M  V30 1552 C 151.864 3.07239 2.92924 0
M  V30 1553 C 149.771 5.37426 2.46834 0
M  V30 1554 H 148.701 0.604532 0.450619 0
M  V30 1555 H 151.352 1.77494 0.465625 0
M  V30 1556 H 149.734 2.65037 2.94231 0
M  V30 1557 H 150.908 4.53878 0.795716 0
M  V30 1558 H 149.223 4.07117 0.874344 0
M  V30 1559 H 151.82 3.90668 3.65079 0
M  V30 1560 H 152.163 2.19807 3.5354 0
M  V30 1561 H 152.696 3.29091 2.23481 0
M  V30 1562 H 149.435 6.27079 1.90926 0
M  V30 1563 H 148.955 5.09912 3.15832 0
M  V30 1564 H 150.634 5.68862 3.08228 0
M  V30 1565 N 150.766 -0.704594 1.40972 0
M  V30 1566 C 151.729 -1.80035 1.41845 0
M  V30 1567 C 152.729 -1.57774 0.310474 0
M  V30 1568 O 153.919 -1.64613 0.56992 0
M  V30 1569 C 151.051 -3.18284 1.22098 0
M  V30 1570 H 152.244 -1.80658 2.3938 0
M  V30 1571 H 149.797 -0.911329 1.26982 0
M  V30 1572 H 150.532 -3.23306 0.253672 0
M  V30 1573 H 150.317 -3.35843 2.02366 0
M  V30 1574 H 151.807 -3.98289 1.25522 0
M  V30 1575 N 152.244 -1.26651 -0.937939 0
M  V30 1576 C 153.492 -1.12165 -1.68118 0
M  V30 1577 C 153.813 0.334983 -1.92101 0
M  V30 1578 O 153.083 1.23583 -1.52 0
M  V30 1579 H 151.663 -0.412093 -0.623048 0
M  V30 1580 H 154.325 -1.59027 -1.12678 0
M  V30 1581 H 153.421 -1.64289 -2.6536 0
M  V30 1582 N 153.722 1.14298 -1.08507 0
M  V30 1583 C 154.947 1.8976 -0.837001 0
M  V30 1584 C 155.372 1.78097 0.605228 0
M  V30 1585 O 154.73 1.12188 1.4242 0
M  V30 1586 C 154.778 3.37685 -1.26495 0
M  V30 1587 O 153.882 4.10281 -0.417514 0
M  V30 1588 H 153.223 0.590365 -0.303917 0
M  V30 1589 H 155.753 1.44672 -1.44676 0
M  V30 1590 H 155.763 3.88501 -1.24625 0
M  V30 1591 H 154.438 3.45492 -2.31534 0
M  V30 1592 H 153.015 3.69536 -0.499722 0
M  V30 1593 N 155.201 0.870884 1.31352 0
M  V30 1594 C 156.449 0.48132 1.96285 0
M  V30 1595 C 156.77 -0.969813 1.69173 0
M  V30 1596 O 156.04 -1.67998 1.00764 0
M  V30 1597 H 154.62 0.175002 0.726212 0
M  V30 1598 H 157.282 1.11087 1.60143 0
M  V30 1599 H 156.378 0.639825 3.05471 0
M  V30 1600 N 156.679 -1.44442 0.630414 0
M  V30 1601 C 157.927 -2.01653 0.134351 0
M  V30 1602 C 158.248 -1.49836 -1.24796 0
M  V30 1603 O 157.518 -0.701684 -1.82902 0
M  V30 1604 H 156.098 -0.74554 0.0466769 0
M  V30 1605 H 158.76 -1.76952 0.816955 0
M  V30 1606 H 157.856 -3.11935 0.101498 0
M  V30 1607 N 158.157 -0.370918 -1.53173 0
M  V30 1608 C 159.405 0.216673 -2.00935 0
M  V30 1609 C 159.726 1.48845 -1.25977 0
M  V30 1610 O 158.996 1.92286 -0.374551 0
M  V30 1611 H 157.576 0.0830565 -0.742368 0
M  V30 1612 H 160.238 -0.49838 -1.8842 0
M  V30 1613 H 159.334 0.439893 -3.08984 0
M  V30 1614 N 159.635 1.57281 -0.100228 0
M  V30 1615 C 160.86 1.99302 0.573881 0
M  V30 1616 C 161.285 0.979059 1.60611 0
M  V30 1617 O 160.643 -0.0517803 1.81226 0
M  V30 1618 C 160.691 3.40274 1.19358 0
M  V30 1619 O 159.795 3.41676 2.30935 0
M  V30 1620 H 159.136 0.647944 0.145138 0
M  V30 1621 H 161.666 2.03779 -0.183156 0
M  V30 1622 H 161.676 3.78078 1.53365 0
M  V30 1623 H 160.351 4.13594 0.437385 0
M  V30 1624 H 158.928 3.15672 1.98509 0
M  V30 1625 N 161.113 -0.173488 1.56642 0
M  V30 1626 C 162.524 -0.736155 1.71574 0
M  V30 1627 C 162.875 -1.82888 0.710389 0
M  V30 1628 O 162 -2.16017 -0.1287 0
M  V30 1629 C 162.595 -1.34211 3.11083 0
M  V30 1630 C 161.154 -1.85162 3.27707 0
M  V30 1631 C 160.301 -0.729765 2.67525 0
M  V30 1632 H 163.252 0.0518786 1.58615 0
M  V30 1633 H 163.273 -2.21178 3.09613 0
M  V30 1634 H 162.785 -0.546579 3.84232 0
M  V30 1635 H 160.886 -2.67366 2.59512 0
M  V30 1636 H 160.999 -1.99855 4.35425 0
M  V30 1637 H 159.363 -1.14965 2.27278 0
M  V30 1638 H 160.146 0.0538806 3.43258 0
M  V30 1639 N 162.591 -1.51276 -0.441967 0
M  V30 1640 C 164.007 -1.39349 -0.778083 0
M  V30 1641 C 164.207 -0.472212 -1.95889 0
M  V30 1642 O 163.263 0.0743551 -2.5239 0
M  V30 1643 C 164.576 -2.81292 -1.0628 0
M  V30 1644 C 166.124 -2.9041 -1.16751 0
M  V30 1645 C 166.599 -4.33251 -1.48519 0
M  V30 1646 N 168.09 -4.36336 -1.55453 0
M  V30 1647 C 168.825 -5.43885 -1.81596 0
M  V30 1648 N 168.321 -6.61601 -2.05562 0
M  V30 1649 N 170.114 -5.3136 -1.8334 0
M  V30 1650 H 162.265 -2.09729 0.335774 0
M  V30 1651 H 164.528 -0.943925 0.0878028 0
M  V30 1652 H 164.234 -3.50678 -0.267905 0
M  V30 1653 H 164.108 -3.20334 -1.99163 0
M  V30 1654 H 166.495 -2.21225 -1.95304 0
M  V30 1655 H 166.576 -2.54871 -0.217801 0
M  V30 1656 H 166.22 -5.02984 -0.704958 0
M  V30 1657 H 166.15 -4.66299 -2.44689 0
M  V30 1658 H 168.641 -3.51466 -1.38853 0
M  V30 1659 H 168.954 -7.39361 -2.24867 0
M  V30 1660 H 167.299 -6.64725 -2.02894 0
M  V30 1661 H 170.49 -4.38382 -1.64132 0
M  V30 1662 H 170.663 -6.15258 -2.03377 0
M  V30 1663 N 164.069 0.697108 -1.41344 0
M  V30 1664 C 165.316 1.45714 -1.40619 0
M  V30 1665 C 165.644 1.94494 -0.0147907 0
M  V30 1666 O 164.899 1.69794 0.973066 0
M  V30 1667 C 165.198 2.68553 -2.35826 0
M  V30 1668 C 164.864 2.38438 -3.82698 0
M  V30 1669 C 163.526 2.29936 -4.22709 0
M  V30 1670 C 165.878 2.13567 -4.75435 0
M  V30 1671 C 163.206 1.94656 -5.53467 0
M  V30 1672 C 165.558 1.79797 -6.06511 0
M  V30 1673 C 164.222 1.69789 -6.45545 0
M  V30 1674 H 163.492 0.533206 -0.51456 0
M  V30 1675 H 166.139 0.796901 -1.74131 0
M  V30 1676 H 164.444 3.39503 -1.95563 0
M  V30 1677 H 166.141 3.2669 -2.32539 0
M  V30 1678 H 162.731 2.4595 -3.51008 0
M  V30 1679 H 166.915 2.19082 -4.45328 0
M  V30 1680 H 162.171 1.8546 -5.82593 0
M  V30 1681 H 166.345 1.59572 -6.77872 0
M  V30 1682 H 163.972 1.4222 -7.46778 0
M  V30 1683 N 165.547 1.27147 0.931209 0
M  V30 1684 C 166.479 1.05364 2.03546 0
M  V30 1685 C 167.492 0.0108438 1.62796 0
M  V30 1686 O 168.681 0.25202 1.76712 0
M  V30 1687 C 165.781 0.575566 3.33977 0
M  V30 1688 C 164.954 1.68985 4.03439 0
M  V30 1689 C 164.013 1.20813 5.12143 0
M  V30 1690 O 163.039 1.90712 5.363 0
M  V30 1691 N 164.241 0.0618851 5.80467 0
M  V30 1692 H 167.006 2.00454 2.22796 0
M  V30 1693 H 164.567 1.18666 1.10136 0
M  V30 1694 H 166.559 0.237264 4.04004 0
M  V30 1695 H 165.129 -0.282016 3.11325 0
M  V30 1696 H 164.349 2.19861 3.27192 0
M  V30 1697 H 165.637 2.4378 4.46597 0
M  V30 1698 H 165.035 -0.521621 5.6329 0
M  V30 1699 H 163.592 -0.217264 6.51438 0
M  V30 1700 N 167.025 -1.13721 1.09112 0
M  V30 1701 C 168.271 -1.85198 0.826414 0
M  V30 1702 C 168.604 -1.83129 -0.646319 0
M  V30 1703 O 167.879 -1.2671 -1.47563 0
M  V30 1704 C 168.162 -3.33507 1.35812 0
M  V30 1705 C 168.015 -3.44108 2.89672 0
M  V30 1706 C 169.334 -4.28838 0.989256 0
M  V30 1707 H 166.453 -0.67243 0.301675 0
M  V30 1708 H 169.095 -1.33499 1.35197 0
M  V30 1709 H 167.245 -3.77666 0.911082 0
M  V30 1710 H 168.917 -3.08684 3.428 0
M  V30 1711 H 167.16 -2.85087 3.26967 0
M  V30 1712 H 167.831 -4.48388 3.21951 0
M  V30 1713 H 170.307 -3.92734 1.37475 0
M  V30 1714 H 169.183 -5.31051 1.38838 0
M  V30 1715 H 169.444 -4.4198 -0.102924 0
M  V30 1716 N 168.503 -0.877838 -1.30888 0
M  V30 1717 C 169.75 -0.492696 -1.96415 0
M  V30 1718 C 170.078 0.956671 -1.69346 0
M  V30 1719 O 169.333 1.68993 -0.986913 0
M  V30 1720 C 169.632 -0.705748 -3.50363 0
M  V30 1721 C 169.298 -2.1291 -3.97467 0
M  V30 1722 C 167.96 -2.51834 -4.1004 0
M  V30 1723 C 170.312 -3.05702 -4.22132 0
M  V30 1724 C 167.64 -3.82775 -4.44635 0
M  V30 1725 C 169.992 -4.36166 -4.58194 0
M  V30 1726 C 168.656 -4.74993 -4.68975 0
M  V30 1727 H 167.926 -0.18029 -0.718733 0
M  V30 1728 H 170.573 -1.11233 -1.55883 0
M  V30 1729 H 168.878 -0.00303058 -3.918 0
M  V30 1730 H 170.575 -0.387456 -3.99124 0
M  V30 1731 H 167.165 -1.81694 -3.88182 0
M  V30 1732 H 171.349 -2.76853 -4.11906 0
M  V30 1733 H 166.605 -4.12609 -4.51181 0
M  V30 1734 H 170.779 -5.08111 -4.76231 0
M  V30 1735 H 168.406 -5.76495 -4.95537 0
M  V30 1736 N 169.982 1.44106 -0.638065 0
M  V30 1737 C 171.23 2.01579 -0.145043 0
M  V30 1738 C 171.551 1.50496 1.24 0
M  V30 1739 O 170.821 0.711374 1.82527 0
M  V30 1740 H 169.401 0.745282 -0.05063 0
M  V30 1741 H 172.063 1.76516 -0.826327 0
M  V30 1742 H 171.159 3.11877 -0.118039 0
M  V30 1743 N 171.46 0.379036 1.52974 0
M  V30 1744 C 172.423 -0.448865 2.24762 0
M  V30 1745 C 173.423 -0.998689 1.26027 0
M  V30 1746 O 174.613 -0.882313 1.50203 0
M  V30 1747 C 171.745 -1.62872 2.99476 0
M  V30 1748 H 172.938 0.179491 2.99362 0
M  V30 1749 H 170.491 0.13096 1.5575 0
M  V30 1750 H 171.226 -2.29479 2.29151 0
M  V30 1751 H 171.011 -1.24128 3.71934 0
M  V30 1752 H 172.501 -2.2151 3.5401 0
M  V30 1753 N 172.938 -1.57226 0.108567 0
M  V30 1754 C 174.215 -1.86333 -0.594939 0
M  V30 1755 C 174.595 -1.00788 -1.85486 0
M  V30 1756 O 173.943 -0.0839293 -2.28346 0
M  V30 1757 C 174.153 -3.37265 -0.897405 0
M  V30 1758 C 175.501 -4.05629 -1.25501 0
M  V30 1759 O 176.525 -3.42224 -0.987998 0
M  V30 1760 O 175.384 -5.17531 -1.75567 0
M  V30 1761 H 172.478 -0.771018 -0.2991 0
M  V30 1762 H 175.024 -1.69102 0.142283 0
M  V30 1763 H 173.796 -3.913 -0.00413806 0
M  V30 1764 H 173.419 -3.59889 -1.69014 0
M  V30 1765 N 174.416 0.165178 -1.56732 0
M  V30 1766 C 175.379 1.18822 -1.95995 0
M  V30 1767 C 176.379 1.3685 -0.84431 0
M  V30 1768 O 177.569 1.34152 -1.11126 0
M  V30 1769 C 174.701 2.5521 -2.26011 0
M  V30 1770 H 175.894 0.851825 -2.87548 0
M  V30 1771 H 173.447 0.407857 -1.50885 0
M  V30 1772 H 174.182 2.93852 -1.37191 0
M  V30 1773 H 173.967 2.43489 -3.07336 0
M  V30 1774 H 175.457 3.28927 -2.57288 0
M  V30 1775 N 175.894 1.51508 0.433938 0
M  V30 1776 C 176.827 1.67756 1.54704 0
M  V30 1777 C 177.805 0.525127 1.53887 0
M  V30 1778 O 178.989 0.749393 1.72963 0
M  V30 1779 C 176.116 1.69424 2.9328 0
M  V30 1780 C 175.162 2.90673 3.12108 0
M  V30 1781 S 175.995 4.51431 2.88046 0
M  V30 1782 C 177.151 4.55849 4.28897 0
M  V30 1783 H 177.384 2.61904 1.40689 0
M  V30 1784 H 174.917 1.41235 0.62386 0
M  V30 1785 H 176.875 1.7107 3.73156 0
M  V30 1786 H 175.536 0.764464 3.04655 0
M  V30 1787 H 174.729 2.88251 4.13434 0
M  V30 1788 H 174.331 2.86786 2.40062 0
M  V30 1789 H 176.623 4.31699 5.22152 0
M  V30 1790 H 177.566 5.57676 4.36351 0
M  V30 1791 H 177.974 3.85137 4.12711 0
M  V30 1792 N 177.372 -0.689602 1.41712 0
M  V30 1793 C 178.788 -1.00093 1.24312 0
M  V30 1794 C 178.988 -2.01036 0.136729 0
M  V30 1795 O 178.044 -2.47562 -0.496918 0
M  V30 1796 C 179.357 -1.51985 2.59463 0
M  V30 1797 C 180.905 -1.63838 2.66695 0
M  V30 1798 C 181.38 -2.1913 4.02177 0
M  V30 1799 N 182.871 -2.26483 4.04054 0
M  V30 1800 C 183.606 -2.70306 5.0569 0
M  V30 1801 N 183.102 -3.13691 6.17713 0
M  V30 1802 N 184.895 -2.69923 4.9305 0
M  V30 1803 H 177.046 -0.0210029 2.1239 0
M  V30 1804 H 179.309 -0.0718733 0.945272 0
M  V30 1805 H 179.015 -0.85269 3.41207 0
M  V30 1806 H 178.889 -2.50103 2.82362 0
M  V30 1807 H 181.276 -2.29664 1.85306 0
M  V30 1808 H 181.357 -0.642492 2.476 0
M  V30 1809 H 181.001 -1.53918 4.84016 0
M  V30 1810 H 180.931 -3.19482 4.18615 0
M  V30 1811 H 183.422 -1.95874 3.23174 0
M  V30 1812 H 183.735 -3.45773 6.9113 0
M  V30 1813 H 182.08 -3.11585 6.21241 0
M  V30 1814 H 185.271 -2.35382 4.04614 0
M  V30 1815 H 185.444 -3.03758 5.72394 0
M  V30 1816 N 178.85 -1.27639 -0.924453 0
M  V30 1817 C 180.098 -1.13941 -1.66918 0
M  V30 1818 C 180.419 0.314589 -1.92446 0
M  V30 1819 O 179.689 1.21964 -1.53303 0
M  V30 1820 H 178.269 -0.418678 -0.618642 0
M  V30 1821 H 180.931 -1.60213 -1.10985 0
M  V30 1822 H 180.027 -1.67094 -2.63602 0
M  V30 1823 N 180.328 1.1314 -1.09713 0
M  V30 1824 C 181.739 1.66029 -0.853885 0
M  V30 1825 C 182.09 1.86241 0.617142 0
M  V30 1826 O 181.215 1.5834 1.47503 0
M  V30 1827 C 181.81 3.01599 -1.5435 0
M  V30 1828 C 180.369 3.51467 -1.34714 0
M  V30 1829 C 179.516 2.26648 -1.59769 0
M  V30 1830 H 182.467 0.970226 -1.25588 0
M  V30 1831 H 182.488 3.67709 -0.978267 0
M  V30 1832 H 182 2.86856 -2.6141 0
M  V30 1833 H 180.101 3.71408 -0.297838 0
M  V30 1834 H 180.214 4.314 -2.08401 0
M  V30 1835 H 178.578 2.33385 -1.01998 0
M  V30 1836 H 179.361 2.14467 -2.68065 0
M  V30 1837 N 181.806 0.884767 1.30421 0
M  V30 1838 C 183.222 0.57874 1.48737 0
M  V30 1839 C 183.422 -0.883567 1.81095 0
M  V30 1840 O 182.478 -1.6648 1.89844 0
M  V30 1841 C 183.791 1.49171 2.61091 0
M  V30 1842 C 185.339 1.49532 2.74971 0
M  V30 1843 C 185.814 2.39421 3.90438 0
M  V30 1844 N 187.305 2.37383 3.97748 0
M  V30 1845 C 188.04 3.03647 4.86401 0
M  V30 1846 N 187.536 3.79136 5.79852 0
M  V30 1847 N 189.329 2.9288 4.79768 0
M  V30 1848 H 181.48 1.83075 1.0769 0
M  V30 1849 H 183.743 0.783637 0.533495 0
M  V30 1850 H 183.449 2.53291 2.44001 0
M  V30 1851 H 183.323 1.20113 3.57565 0
M  V30 1852 H 185.71 0.46163 2.91467 0
M  V30 1853 H 185.791 1.8262 1.79119 0
M  V30 1854 H 185.435 3.42874 3.74699 0
M  V30 1855 H 185.365 2.03649 4.85628 0
M  V30 1856 H 187.856 1.82525 3.30897 0
M  V30 1857 H 188.169 4.26789 6.4426 0
M  V30 1858 H 186.514 3.83243 5.79784 0
M  V30 1859 H 189.705 2.33433 4.05742 0
M  V30 1860 H 189.878 3.448 5.4865 0
M  V30 1861 N 183.284 -1.43765 0.645699 0
M  V30 1862 C 184.532 -2.01499 0.155731 0
M  V30 1863 C 184.853 -1.51151 -1.232 0
M  V30 1864 O 184.123 -0.721044 -1.82148 0
M  V30 1865 H 182.703 -0.745003 0.0545817 0
M  V30 1866 H 185.365 -1.76075 0.835677 0
M  V30 1867 H 184.461 -3.1181 0.134577 0
M  V30 1868 N 184.763 -0.387143 -1.52771 0
M  V30 1869 C 185.693 0.440551 -2.29306 0
M  V30 1870 C 186.674 1.06535 -1.32606 0
M  V30 1871 O 187.859 1.07853 -1.61497 0
M  V30 1872 C 184.989 1.56919 -3.09829 0
M  V30 1873 C 183.943 1.07054 -4.14395 0
M  V30 1874 C 183.269 2.29109 -4.83129 0
M  V30 1875 C 184.569 0.140015 -5.22112 0
M  V30 1876 H 186.263 -0.198026 -2.98744 0
M  V30 1877 H 183.809 -0.09668 -1.43675 0
M  V30 1878 H 185.762 2.15503 -3.62128 0
M  V30 1879 H 184.486 2.23532 -2.3812 0
M  V30 1880 H 183.145 0.507247 -3.63074 0
M  V30 1881 H 182.793 2.94227 -4.0797 0
M  V30 1882 H 182.493 1.96406 -5.53804 0
M  V30 1883 H 184.017 2.88339 -5.38231 0
M  V30 1884 H 185.431 0.633978 -5.69784 0
M  V30 1885 H 183.828 -0.0971485 -6.00021 0
M  V30 1886 H 184.898 -0.811711 -4.78058 0
M  V30 1887 N 186.241 1.57166 -0.116904 0
M  V30 1888 C 187.188 2.15202 0.83408 0
M  V30 1889 C 188.158 1.07644 1.26499 0
M  V30 1890 O 189.343 1.35541 1.34288 0
M  V30 1891 C 186.483 2.75405 2.07957 0
M  V30 1892 C 185.596 3.97264 1.69721 0
M  V30 1893 C 184.731 4.45561 2.89221 0
M  V30 1894 C 183.77 5.59956 2.47215 0
M  V30 1895 N 182.907 6.03006 3.59622 0
M  V30 1896 H 187.747 2.96141 0.332335 0
M  V30 1897 H 185.284 1.46309 0.152349 0
M  V30 1898 H 187.242 3.08439 2.80929 0
M  V30 1899 H 185.872 1.97159 2.55594 0
M  V30 1900 H 184.924 3.70404 0.866316 0
M  V30 1901 H 186.236 4.80226 1.34849 0
M  V30 1902 H 185.39 4.80493 3.7042 0
M  V30 1903 H 184.129 3.61544 3.27318 0
M  V30 1904 H 183.134 5.2463 1.64448 0
M  V30 1905 H 184.359 6.45738 2.10238 0
M  V30 1906 H 182.305 5.21931 3.97396 0
M  V30 1907 H 182.222 6.80819 3.28667 0
M  V30 1908 H 183.49 6.42576 4.41267 0
M  V30 1909 N 187.719 -0.156864 1.56817 0
M  V30 1910 C 188.682 -1.17781 1.96622 0
M  V30 1911 C 189.682 -1.36401 0.851555 0
M  V30 1912 O 190.872 -1.33561 1.11836 0
M  V30 1913 C 188.004 -2.54008 2.27361 0
M  V30 1914 H 189.197 -0.836564 2.87996 0
M  V30 1915 H 186.75 -0.39985 1.51099 0
M  V30 1916 H 187.485 -2.9312 1.38748 0
M  V30 1917 H 187.27 -2.41856 3.08623 0
M  V30 1918 H 188.76 -3.27558 2.59029 0
M  V30 1919 N 189.197 -1.51736 -0.425897 0
M  V30 1920 C 190.443 -1.65214 -1.1761 0
M  V30 1921 C 190.776 -0.372778 -1.90589 0
M  V30 1922 O 190.051 0.628139 -1.84078 0
M  V30 1923 C 190.334 -2.86312 -2.18398 0
M  V30 1924 C 190.187 -4.24254 -1.49426 0
M  V30 1925 C 191.506 -3.02925 -3.19256 0
M  V30 1926 H 188.625 -0.601263 -0.426206 0
M  V30 1927 H 191.267 -1.8425 -0.463882 0
M  V30 1928 H 189.417 -2.70213 -2.79137 0
M  V30 1929 H 191.089 -4.52046 -0.919362 0
M  V30 1930 H 189.332 -4.26426 -0.796432 0
M  V30 1931 H 190.003 -5.05001 -2.22885 0
M  V30 1932 H 192.479 -3.1781 -2.68581 0
M  V30 1933 H 191.355 -3.89199 -3.8706 0
M  V30 1934 H 191.616 -2.15497 -3.86023 0
M  V30 1935 N 190.675 0.682077 -1.42076 0
M  V30 1936 C 191.923 1.4393 -1.41876 0
M  V30 1937 C 192.244 1.94971 -0.0335599 0
M  V30 1938 O 191.514 1.72591 0.926773 0
M  V30 1939 H 190.094 0.534085 -0.522267 0
M  V30 1940 H 192.756 0.806427 -1.77434 0
M  V30 1941 H 191.852 2.29588 -2.11414 0
M  V30 1942 N 192.153 1.28127 0.917671 0
M  V30 1943 C 193.564 1.13622 1.48145 0
M  V30 1944 C 193.915 -0.275207 1.9426 0
M  V30 1945 O 193.04 -1.1691 1.82102 0
M  V30 1946 C 193.635 2.05648 2.69248 0
M  V30 1947 C 192.194 1.95219 3.21818 0
M  V30 1948 C 191.341 1.97618 1.94532 0
M  V30 1949 H 194.292 1.40874 0.730772 0
M  V30 1950 H 194.313 1.61818 3.44377 0
M  V30 1951 H 193.825 3.08365 2.35653 0
M  V30 1952 H 191.926 0.955244 3.60147 0
M  V30 1953 H 192.039 2.81976 3.87333 0
M  V30 1954 H 190.403 1.41973 2.11461 0
M  V30 1955 H 191.186 3.02007 1.63238 0
M  V30 1956 N 193.631 -1.12557 1.10312 0
M  V30 1957 C 194.861 -1.87592 0.865617 0
M  V30 1958 C 195.269 -1.79851 -0.587389 0
M  V30 1959 O 194.612 -1.16949 -1.41664 0
M  V30 1960 C 194.674 -3.37665 1.23381 0
M  V30 1961 C 194.338 -3.69181 2.69359 0
M  V30 1962 C 195.335 -3.67652 3.67597 0
M  V30 1963 C 193.02 -3.98555 3.05711 0
M  V30 1964 C 195.014 -3.95053 5.00212 0
M  V30 1965 C 192.701 -4.25616 4.38514 0
M  V30 1966 C 193.699 -4.23851 5.35574 0
M  V30 1967 O 193.387 -4.50242 6.65986 0
M  V30 1968 H 193.119 -0.600442 0.310557 0
M  V30 1969 H 195.673 -1.4335 1.47105 0
M  V30 1970 H 193.903 -3.82454 0.571467 0
M  V30 1971 H 195.592 -3.94041 0.973994 0
M  V30 1972 H 196.358 -3.45024 3.40857 0
M  V30 1973 H 192.237 -3.99071 2.30789 0
M  V30 1974 H 195.781 -3.93591 5.75962 0
M  V30 1975 H 191.678 -4.47718 4.64994 0
M  V30 1976 H 192.446 -4.67867 6.71597 0
M  V30 1977 N 195.109 -0.891671 -1.2995 0
M  V30 1978 C 196.355 -0.514261 -1.96171 0
M  V30 1979 C 196.688 0.935506 -1.70182 0
M  V30 1980 O 195.963 1.66204 -1.01028 0
M  V30 1981 C 196.246 -0.797719 -3.51153 0
M  V30 1982 C 196.099 -2.2986 -3.86632 0
M  V30 1983 C 197.418 -0.278749 -4.39216 0
M  V30 1984 H 194.537 -0.188314 -0.712535 0
M  V30 1985 H 197.179 -1.11689 -1.53706 0
M  V30 1986 H 195.329 -0.284826 -3.87455 0
M  V30 1987 H 197.001 -2.88042 -3.60319 0
M  V30 1988 H 195.244 -2.76257 -3.34462 0
M  V30 1989 H 195.915 -2.44753 -4.94773 0
M  V30 1990 H 198.391 -0.717825 -4.09862 0
M  V30 1991 H 197.267 -0.506353 -5.46559 0
M  V30 1992 H 197.528 0.820266 -4.34424 0
M  V30 1993 N 196.587 1.43421 -0.653314 0
M  V30 1994 C 197.833 2.02111 -0.166992 0
M  V30 1995 C 198.166 1.51423 1.21592 0
M  V30 1996 O 197.441 0.707389 1.8118 0
M  V30 1997 C 197.724 3.5966 -0.177948 0
M  V30 1998 C 197.577 4.20579 -1.59478 0
M  V30 1999 C 198.896 4.37413 0.4856 0
M  V30 2000 H 196.015 0.734374 -0.0621557 0
M  V30 2001 H 198.657 1.70717 -0.834016 0
M  V30 2002 H 196.807 3.86537 0.390032 0
M  V30 2003 H 198.479 4.04732 -2.21336 0
M  V30 2004 H 196.722 3.77226 -2.14204 0
M  V30 2005 H 197.393 5.29665 -1.5543 0
M  V30 2006 H 199.869 4.161 0.00234528 0
M  V30 2007 H 198.745 5.47075 0.447207 0
M  V30 2008 H 199.006 4.13672 1.55974 0
M  V30 2009 N 198.065 0.39524 1.52563 0
M  V30 2010 C 199.293 -0.184943 2.06072 0
M  V30 2011 C 199.708 -1.40021 1.26647 0
M  V30 2012 O 199.065 -1.79767 0.314672 0
M  V30 2013 C 199.116 -0.549179 3.57304 0
M  V30 2014 O 198.837 0.617813 4.33722 0
M  V30 2015 C 200.338 -1.18459 4.2718 0
M  V30 2016 H 197.558 -0.0265025 0.670476 0
M  V30 2017 H 200.102 0.562184 1.96621 0
M  V30 2018 H 198.257 -1.2462 3.66809 0
M  V30 2019 H 198.671 0.317091 5.23541 0
M  V30 2020 H 200.145 -1.38976 5.34219 0
M  V30 2021 H 200.622 -2.15368 3.82771 0
M  V30 2022 H 201.228 -0.528163 4.22008 0
M  V30 2023 N 199.544 -1.57102 0.125237 0
M  V30 2024 C 200.491 -2.15641 -0.822655 0
M  V30 2025 C 201.461 -1.08313 -1.25927 0
M  V30 2026 O 202.646 -1.36251 -1.33567 0
M  V30 2027 C 199.786 -2.76504 -2.06494 0
M  V30 2028 C 198.899 -3.98158 -1.67612 0
M  V30 2029 C 198.034 -4.47088 -2.86854 0
M  V30 2030 C 197.073 -5.6126 -2.44242 0
M  V30 2031 N 196.21 -6.04905 -3.56419 0
M  V30 2032 H 201.05 -2.96313 -0.316625 0
M  V30 2033 H 198.587 -1.46388 -0.144588 0
M  V30 2034 H 200.545 -3.09925 -2.79289 0
M  V30 2035 H 199.175 -1.98512 -2.54545 0
M  V30 2036 H 198.227 -3.70858 -0.846661 0
M  V30 2037 H 199.539 -4.80934 -1.32301 0
M  V30 2038 H 198.693 -4.82451 -3.67867 0
M  V30 2039 H 197.432 -3.63275 -3.25396 0
M  V30 2040 H 196.437 -5.25495 -1.61663 0
M  V30 2041 H 197.662 -6.46843 -2.0681 0
M  V30 2042 H 195.608 -5.24032 -3.94623 0
M  V30 2043 H 195.525 -6.82552 -3.25051 0
M  V30 2044 H 196.793 -6.44907 -4.37853 0
M  V30 2045 N 201.022 0.148545 -1.56898 0
M  V30 2046 C 201.985 1.16736 -1.97244 0
M  V30 2047 C 202.985 1.35947 -0.858777 0
M  V30 2048 O 204.175 1.32966 -1.12542 0
M  V30 2049 C 201.307 2.52798 -2.28705 0
M  V30 2050 H 202.5 0.821279 -2.88435 0
M  V30 2051 H 200.053 0.391831 -1.51309 0
M  V30 2052 H 200.788 2.92381 -1.403 0
M  V30 2053 H 200.573 2.40216 -3.09901 0
M  V30 2054 H 202.063 3.26179 -2.60762 0
M  V30 2055 N 202.5 1.5196 0.417844 0
M  V30 2056 C 203.433 1.69387 1.52916 0
M  V30 2057 C 204.411 0.541419 1.53321 0
M  V30 2058 O 205.595 0.767695 1.72159 0
M  V30 2059 C 202.722 1.72525 2.91467 0
M  V30 2060 C 201.768 2.93967 3.09008 0
M  V30 2061 S 202.601 4.54461 2.83242 0
M  V30 2062 C 203.757 4.60372 4.24038 0
M  V30 2063 H 203.99 2.63382 1.37903 0
M  V30 2064 H 201.523 1.41889 0.608845 0
M  V30 2065 H 203.481 1.75018 3.7132 0
M  V30 2066 H 202.142 0.796733 3.03827 0
M  V30 2067 H 201.335 2.92619 4.10353 0
M  V30 2068 H 200.937 2.89316 2.37007 0
M  V30 2069 H 203.229 4.37213 5.17544 0
M  V30 2070 H 204.172 5.62273 4.30412 0
M  V30 2071 H 204.58 3.89492 4.08602 0
M  V30 2072 N 203.978 -0.674533 1.42435 0
M  V30 2073 C 204.941 -1.76986 1.45632 0
M  V30 2074 C 205.941 -1.5708 0.343871 0
M  V30 2075 O 207.131 -1.63367 0.604709 0
M  V30 2076 C 204.263 -3.15623 1.28822 0
M  V30 2077 H 205.456 -1.75539 2.43158 0
M  V30 2078 H 203.009 -0.884189 1.28887 0
M  V30 2079 H 203.744 -3.22696 0.322193 0
M  V30 2080 H 203.529 -3.31475 2.09444 0
M  V30 2081 H 205.019 -3.95537 1.33942 0
M  V30 2082 N 205.456 -1.28612 -0.910864 0
M  V30 2083 C 206.681 -1.1891 -1.69927 0
M  V30 2084 C 207.106 0.248372 -1.86453 0
M  V30 2085 O 206.464 1.17961 -1.37676 0
M  V30 2086 C 206.512 -1.89578 -3.06745 0
M  V30 2087 O 205.616 -1.20521 -3.94396 0
M  V30 2088 H 204.957 -0.412632 -0.520222 0
M  V30 2089 H 207.487 -1.69985 -1.1387 0
M  V30 2090 H 207.497 -1.97597 -3.56958 0
M  V30 2091 H 206.172 -2.94136 -2.94035 0
M  V30 2092 H 204.749 -1.20684 -3.52831 0
M  V30 2093 N 206.934 1.1197 -1.10907 0
M  V30 2094 C 208.182 1.83225 -0.852819 0
M  V30 2095 C 208.503 1.84769 0.623341 0
M  V30 2096 O 207.773 1.3143 1.45269 0
M  V30 2097 H 206.353 0.67849 -0.312507 0
M  V30 2098 H 209.015 1.3556 -1.40033 0
M  V30 2099 H 208.111 2.87265 -1.22005 0
M  V30 2100 N 208.412 0.89855 1.29475 0
M  V30 2101 C 209.658 0.524658 1.95896 0
M  V30 2102 C 209.991 -0.926468 1.70676 0
M  V30 2103 O 209.266 -1.65665 1.01908 0
M  V30 2104 C 209.549 0.81633 3.50725 0
M  V30 2105 C 209.402 2.31907 3.85408 0
M  V30 2106 C 210.721 0.302038 4.39062 0
M  V30 2107 H 207.84 0.19209 0.711527 0
M  V30 2108 H 210.482 1.12502 1.53112 0
M  V30 2109 H 208.632 0.305369 3.87298 0
M  V30 2110 H 210.304 2.89949 3.58786 0
M  V30 2111 H 208.547 2.78027 3.32992 0
M  V30 2112 H 209.218 2.47373 4.93468 0
M  V30 2113 H 211.694 0.739551 4.09475 0
M  V30 2114 H 210.57 0.535331 5.46283 0
M  V30 2115 H 210.831 -0.797216 4.34853 0
M  V30 2116 N 209.89 -1.43072 0.660911 0
M  V30 2117 C 211.115 -2.06584 0.183805 0
M  V30 2118 C 211.54 -1.49257 -1.14472 0
M  V30 2119 O 210.898 -0.605528 -1.70889 0
M  V30 2120 C 210.946 -3.60418 0.114434 0
M  V30 2121 O 210.05 -4.01981 -0.921137 0
M  V30 2122 H 209.391 -0.656669 0.0983994 0
M  V30 2123 H 211.921 -1.83447 0.906006 0
M  V30 2124 H 211.931 -4.07946 -0.0663394 0
M  V30 2125 H 210.606 -4.01519 1.08422 0
M  V30 2126 H 209.183 -3.66029 -0.71253 0
M  V30 2127 N 211.368 -0.403325 -1.52352 0
M  V30 2128 C 212.331 0.413051 -2.25447 0
M  V30 2129 C 213.331 0.978513 -1.276 0
M  V30 2130 O 214.521 0.858305 -1.51587 0
M  V30 2131 C 211.653 1.58087 -3.02029 0
M  V30 2132 H 212.846 -0.227094 -2.99039 0
M  V30 2133 H 210.399 -0.155722 -1.55522 0
M  V30 2134 H 211.134 2.25804 -2.32772 0
M  V30 2135 H 210.919 1.18195 -3.73861 0
M  V30 2136 H 212.409 2.1585 -3.57489 0
M  V30 2137 N 212.846 1.57033 -0.133567 0
M  V30 2138 C 214.086 1.97575 0.523789 0
M  V30 2139 C 214.45 1.01605 1.62912 0
M  V30 2140 O 215.651 1.3114 2.3464 0
M  V30 2141 C 213.922 3.42256 1.02935 0
M  V30 2142 S 215.481 4.04817 1.69319 0
M  V30 2143 H 212.299 0.690427 0.169799 0
M  V30 2144 H 214.901 1.94234 -0.222101 0
M  V30 2145 H 213.605 4.09842 0.213917 0
M  V30 2146 H 213.136 3.4928 1.81017 0
M  V30 2147 H 215.151 3.96767 2.97977 0
M  V30 2148 N 214.325 -0.140222 1.56975 0
M  V30 2149 C 215.255 -1.17456 2.01808 0
M  V30 2150 C 216.236 -1.44415 0.898794 0
M  V30 2151 O 217.421 -1.5522 1.16707 0
M  V30 2152 C 214.551 -2.50607 2.40444 0
M  V30 2153 C 213.505 -2.38155 3.55621 0
M  V30 2154 C 212.831 -3.76078 3.80091 0
M  V30 2155 C 214.131 -1.85991 4.88062 0
M  V30 2156 H 215.825 -0.801743 2.88466 0
M  V30 2157 H 213.371 -0.38422 1.38779 0
M  V30 2158 H 215.324 -3.23197 2.7041 0
M  V30 2159 H 214.048 -2.89737 1.50732 0
M  V30 2160 H 212.707 -1.68016 3.25832 0
M  V30 2161 H 212.355 -4.12656 2.87618 0
M  V30 2162 H 212.055 -3.68606 4.57606 0
M  V30 2163 H 213.579 -4.50206 4.12488 0
M  V30 2164 H 214.993 -2.4838 5.16701 0
M  V30 2165 H 213.39 -1.89393 5.6943 0
M  V30 2166 H 214.46 -0.816023 4.77984 0
M  V30 2167 N 215.803 -1.52179 -0.40978 0
M  V30 2168 C 216.766 -1.74853 -1.48186 0
M  V30 2169 C 217.766 -0.618417 -1.48433 0
M  V30 2170 O 218.956 -0.886286 -1.49969 0
M  V30 2171 C 216.088 -1.8303 -2.87598 0
M  V30 2172 H 217.281 -2.70559 -1.29374 0
M  V30 2173 H 214.834 -1.42586 -0.640233 0
M  V30 2174 H 215.569 -0.89236 -3.11781 0
M  V30 2175 H 215.354 -2.65187 -2.88822 0
M  V30 2176 H 216.844 -2.02316 -3.65319 0
M  V30 2177 N 217.281 0.66697 -1.42791 0
M  V30 2178 C 218.509 1.45505 -1.47091 0
M  V30 2179 C 218.924 1.8861 -0.0845873 0
M  V30 2180 O 218.281 1.58632 0.90234 0
M  V30 2181 C 218.332 2.69906 -2.40485 0
M  V30 2182 O 218.053 2.28608 -3.73725 0
M  V30 2183 C 219.554 3.63396 -2.53886 0
M  V30 2184 H 216.774 0.447459 -0.500022 0
M  V30 2185 H 219.318 0.818866 -1.8739 0
M  V30 2186 H 217.473 3.29696 -2.03419 0
M  V30 2187 H 217.887 3.08997 -4.23817 0
M  V30 2188 H 219.361 4.47387 -3.2334 0
M  V30 2189 H 219.838 4.09824 -1.57927 0
M  V30 2190 H 220.444 3.09495 -2.91706 0
M  V30 2191 N 218.759 1.29093 0.90403 0
M  V30 2192 C 220.17 1.15186 1.46932 0
M  V30 2193 C 220.521 -0.254587 1.94541 0
M  V30 2194 O 219.646 -1.14972 1.83332 0
M  V30 2195 C 220.241 2.08492 2.67051 0
M  V30 2196 C 218.8 1.98621 3.19729 0
M  V30 2197 C 217.947 1.9967 1.92425 0
M  V30 2198 H 220.898 1.41641 0.715789 0
M  V30 2199 H 220.919 1.65461 3.42641 0
M  V30 2200 H 220.431 3.10847 2.3237 0
M  V30 2201 H 218.532 0.993389 3.59114 0
M  V30 2202 H 218.645 2.86068 3.8432 0
M  V30 2203 H 217.009 1.44208 2.09943 0
M  V30 2204 H 217.792 3.03721 1.60026 0
M  V30 2205 N 220.237 -1.11381 1.11499 0
M  V30 2206 C 221.484 -1.83132 0.864231 0
M  V30 2207 C 221.812 -1.84683 -0.610114 0
M  V30 2208 O 221.067 -1.29589 -1.46646 0
M  V30 2209 C 221.366 -3.30026 1.37177 0
M  V30 2210 C 221.032 -3.48634 2.85946 0
M  V30 2211 C 219.694 -3.53421 3.26569 0
M  V30 2212 C 222.046 -3.54837 3.81759 0
M  V30 2213 C 219.374 -3.61967 4.61733 0
M  V30 2214 C 221.726 -3.64915 5.1674 0
M  V30 2215 C 220.39 -3.67962 5.5692 0
M  V30 2216 H 219.66 -0.670127 0.316245 0
M  V30 2217 H 222.307 -1.31354 1.3935 0
M  V30 2218 H 220.612 -3.84304 0.762753 0
M  V30 2219 H 222.309 -3.84034 1.15408 0
M  V30 2220 H 218.899 -3.45579 2.53521 0
M  V30 2221 H 223.083 -3.50399 3.51474 0
M  V30 2222 H 218.339 -3.62603 4.92269 0
M  V30 2223 H 222.513 -3.68658 5.90816 0
M  V30 2224 H 220.14 -3.74336 6.61647 0
M  V30 2225 N 221.715 -0.905404 -1.28997 0
M  V30 2226 C 222.662 -0.385892 -2.27551 0
M  V30 2227 C 223.632 0.535113 -1.57244 0
M  V30 2228 O 224.817 0.459119 -1.85194 0
M  V30 2229 C 221.957 0.375461 -3.43051 0
M  V30 2230 C 221.07 -0.577092 -4.28128 0
M  V30 2231 C 220.205 0.201879 -5.30816 0
M  V30 2232 C 219.244 -0.744829 -6.07551 0
M  V30 2233 N 218.381 9.42587e-05 -7.021 0
M  V30 2234 H 223.221 -1.23139 -2.71368 0
M  V30 2235 H 220.758 -0.618542 -1.33463 0
M  V30 2236 H 222.716 0.832992 -4.088 0
M  V30 2237 H 221.346 1.18537 -3.00248 0
M  V30 2238 H 220.398 -1.15315 -3.62501 0
M  V30 2239 H 221.71 -1.30152 -4.8152 0
M  V30 2240 H 220.864 0.720351 -6.02408 0
M  V30 2241 H 219.603 0.959413 -4.7817 0
M  V30 2242 H 218.608 -1.27475 -5.34818 0
M  V30 2243 H 219.833 -1.50178 -6.62286 0
M  V30 2244 H 217.779 0.739791 -6.51815 0
M  V30 2245 H 217.696 -0.664321 -7.53076 0
M  V30 2246 H 218.964 0.498644 -7.77903 0
M  V30 2247 N 223.193 1.4272 -0.668489 0
M  V30 2248 C 224.442 2.00846 -0.185389 0
M  V30 2249 C 224.755 1.53442 1.21305 0
M  V30 2250 O 225.961 2.03944 1.79218 0
M  V30 2251 C 224.417 3.58805 -0.280591 0
M  V30 2252 C 224.025 4.15198 -1.68268 0
M  V30 2253 C 225.769 4.24255 0.14412 0
M  V30 2254 C 223.676 5.655 -1.73099 0
M  V30 2255 H 222.606 0.751145 -0.0655475 0
M  V30 2256 H 225.257 1.63516 -0.832752 0
M  V30 2257 H 223.639 3.93608 0.434553 0
M  V30 2258 H 224.813 3.91866 -2.42441 0
M  V30 2259 H 223.128 3.62176 -2.05469 0
M  V30 2260 H 225.725 5.34547 0.128086 0
M  V30 2261 H 226.068 3.99277 1.17827 0
M  V30 2262 H 226.601 3.94389 -0.519798 0
M  V30 2263 H 223.34 5.95268 -2.74475 0
M  V30 2264 H 222.86 5.90842 -1.03274 0
M  V30 2265 H 224.539 6.29808 -1.48158 0
M  V30 2266 N 224.671 0.411399 1.52136 0
M  V30 2267 C 225.621 -0.430376 2.23901 0
M  V30 2268 C 226.605 -1.0116 1.25121 0
M  V30 2269 O 227.797 -0.934044 1.50348 0
M  V30 2270 C 224.926 -1.54527 3.06556 0
M  V30 2271 C 224.012 -0.9747 4.12747 0
M  V30 2272 N 224.403 -0.130991 5.0563 0
M  V30 2273 C 222.701 -1.24497 4.28271 0
M  V30 2274 C 223.402 0.186689 5.814 0
M  V30 2275 N 222.378 -0.42304 5.41951 0
M  V30 2276 H 226.18 0.220509 2.93072 0
M  V30 2277 H 223.694 0.221952 1.60876 0
M  V30 2278 H 225.691 -2.16093 3.56524 0
M  V30 2279 H 224.351 -2.19875 2.38925 0
M  V30 2280 H 225.362 0.23349 5.17373 0
M  V30 2281 H 222.039 -1.89787 3.7187 0
M  V30 2282 H 223.429 0.871673 6.66222 0
M  V30 2283 N 226.149 -1.5696 0.141893 0
M  V30 2284 C 227.397 -1.95573 -0.509484 0
M  V30 2285 C 227.718 -1.02746 -1.65736 0
M  V30 2286 O 226.988 -0.0880311 -1.95702 0
M  V30 2287 H 225.568 -0.722115 -0.191205 0
M  V30 2288 H 228.23 -1.93697 0.216196 0
M  V30 2289 H 227.326 -2.99171 -0.889 0
M  V30 2290 N 227.627 0.131896 -1.57047 0
M  V30 2291 C 228.873 0.843179 -1.84441 0
M  V30 2292 C 229.206 1.80129 -0.725749 0
M  V30 2293 O 228.481 1.92624 0.269469 0
M  V30 2294 C 228.764 1.60442 -3.22382 0
M  V30 2295 C 228.617 0.666782 -4.4483 0
M  V30 2296 C 229.936 2.56354 -3.5773 0
M  V30 2297 H 227.055 0.305081 -0.670891 0
M  V30 2298 H 229.697 0.107839 -1.89694 0
M  V30 2299 H 227.847 2.23128 -3.18035 0
M  V30 2300 H 229.519 0.0497646 -4.61273 0
M  V30 2301 H 227.762 -0.022609 -4.33794 0
M  V30 2302 H 228.433 1.23579 -5.37989 0
M  V30 2303 H 230.909 2.0378 -3.62785 0
M  V30 2304 H 229.785 3.06657 -4.5525 0
M  V30 2305 H 230.046 3.38419 -2.84473 0
M  V30 2306 N 229.106 1.52395 0.401703 0
M  V30 2307 C 230.054 1.7689 1.51039 0
M  V30 2308 C 231.048 0.636298 1.56996 0
M  V30 2309 O 232.254 0.818507 1.60314 0
M  V30 2310 H 228.629 0.559502 0.502456 0
M  V30 2311 H 230.6 2.69757 1.27568 0
M  V30 2312 C 229.349 1.94331 2.88324 0
M  V30 2313 H 228.672 2.80905 2.84486 0
M  V30 2314 H 230.112 2.15466 3.65172 0
M  V30 2315 C 228.571 0.712396 3.29282 0
M  V30 2316 O 229.101 -0.116218 4.01532 0
M  V30 2317 N 227.307 0.546154 2.85422 0
M  V30 2318 H 226.854 1.22156 2.26794 0
M  V30 2319 H 226.812 -0.276113 3.13185 0
M  V30 2320 N 230.584 -0.659388 1.43143 0
M  V30 2321 C 231.814 -1.44513 1.47646 0
M  V30 2322 C 232.222 -1.88981 0.0910095 0
M  V30 2323 O 231.565 -1.59702 -0.907789 0
M  V30 2324 C 231.627 -2.71663 2.35456 0
M  V30 2325 C 231.291 -2.49175 3.83094 0
M  V30 2326 C 232.288 -2.1279 4.74359 0
M  V30 2327 C 229.973 -2.63691 4.27519 0
M  V30 2328 C 231.967 -1.9121 6.08044 0
M  V30 2329 C 229.654 -2.41726 5.61259 0
M  V30 2330 C 230.652 -2.0554 6.51339 0
M  V30 2331 O 230.34 -1.838 7.82606 0
M  V30 2332 H 230.072 -0.45064 0.503884 0
M  V30 2333 H 232.626 -0.816248 1.88485 0
M  V30 2334 H 230.856 -3.37089 1.89493 0
M  V30 2335 H 232.545 -3.33595 2.31235 0
M  V30 2336 H 233.311 -2.01157 4.41317 0
M  V30 2337 H 229.19 -2.90832 3.57684 0
M  V30 2338 H 232.734 -1.62889 6.78316 0
M  V30 2339 H 228.631 -2.52959 5.9387 0
M  V30 2340 H 229.399 -1.98275 7.94122 0
M  V30 2341 N 232.062 -1.29571 -0.897171 0
M  V30 2342 C 233.287 -1.20705 -1.68656 0
M  V30 2343 C 233.712 0.228582 -1.86706 0
M  V30 2344 O 233.07 1.16494 -1.3892 0
M  V30 2345 C 233.118 -1.9282 -3.04717 0
M  V30 2346 O 232.222 -1.24697 -3.93096 0
M  V30 2347 H 231.563 -0.418126 -0.515816 0
M  V30 2348 H 234.093 -1.71183 -1.12061 0
M  V30 2349 H 234.103 -2.01372 -3.54843 0
M  V30 2350 H 232.778 -2.97239 -2.90899 0
M  V30 2351 H 231.355 -1.2442 -3.51531 0
M  V30 2352 N 233.54 1.10788 -1.12088 0
M  V30 2353 C 234.789 1.82036 -0.868659 0
M  V30 2354 C 235.102 1.85929 0.607426 0
M  V30 2355 O 236.308 2.53346 0.97613 0
M  V30 2356 C 234.764 3.26951 -1.50435 0
M  V30 2357 C 234.372 3.31367 -3.01496 0
M  V30 2358 C 236.116 4.03053 -1.33225 0
M  V30 2359 C 234.023 4.7072 -3.58017 0
M  V30 2360 H 232.953 0.682108 -0.321318 0
M  V30 2361 H 235.604 1.24618 -1.34694 0
M  V30 2362 H 233.986 3.84343 -0.953735 0
M  V30 2363 H 235.16 2.83819 -3.6302 0
M  V30 2364 H 233.475 2.6875 -3.18061 0
M  V30 2365 H 236.072 5.05981 -1.72878 0
M  V30 2366 H 236.415 4.15387 -0.275529 0
M  V30 2367 H 236.948 3.52066 -1.85188 0
M  V30 2368 H 233.687 4.63585 -4.63432 0
M  V30 2369 H 233.207 5.1865 -3.01268 0
M  V30 2370 H 234.886 5.39685 -3.56859 0
M  V30 2371 N 235.018 0.912232 1.28515 0
M  V30 2372 C 236.243 0.559774 1.99703 0
M  V30 2373 C 236.668 -0.851393 1.67729 0
M  V30 2374 O 236.026 -1.56875 0.908834 0
M  V30 2375 C 236.074 0.773874 3.52198 0
M  V30 2376 O 235.178 -0.167842 4.12058 0
M  V30 2377 H 234.519 0.21723 0.627461 0
M  V30 2378 H 237.049 1.22725 1.63706 0
M  V30 2379 H 237.059 0.683386 4.02236 0
M  V30 2380 H 235.734 1.80261 3.74805 0
M  V30 2381 H 234.311 -0.0287509 3.72889 0
M  V30 2382 N 236.496 -1.42363 0.676048 0
M  V30 2383 C 237.721 -2.06377 0.205705 0
M  V30 2384 C 238.146 -1.50463 -1.12883 0
M  V30 2385 O 237.504 -0.623619 -1.70237 0
M  V30 2386 C 237.552 -3.60277 0.152655 0
M  V30 2387 O 236.656 -4.02935 -0.87845 0
M  V30 2388 H 235.997 -0.655588 0.105359 0
M  V30 2389 H 238.527 -1.82475 0.925412 0
M  V30 2390 H 238.537 -4.07993 -0.0230675 0
M  V30 2391 H 237.212 -4.00346 1.12675 0
M  V30 2392 H 235.789 -3.66764 -0.673668 0
M  V30 2393 N 237.974 -0.419461 -1.51915 0
M  V30 2394 C 238.937 0.389116 -2.25873 0
M  V30 2395 C 239.937 0.964924 -1.28631 0
M  V30 2396 O 241.127 0.842179 -1.52489 0
M  V30 2397 C 238.259 1.54874 -3.03689 0
M  V30 2398 H 239.452 -0.258799 -2.98781 0
M  V30 2399 H 237.005 -0.172209 -1.55348 0
M  V30 2400 H 237.74 2.23323 -2.35154 0
M  V30 2401 H 237.525 1.14223 -3.75094 0
M  V30 2402 H 239.015 2.12046 -3.59759 0
M  V30 2403 N 239.452 1.56882 -0.150215 0
M  V30 2404 C 240.692 1.98119 0.502804 0
M  V30 2405 C 241.056 1.03327 1.61826 0
M  V30 2406 O 242.257 1.33621 2.33236 0
M  V30 2407 C 240.528 3.43329 0.992988 0
M  V30 2408 S 242.087 4.0659 1.65015 0
M  V30 2409 H 238.905 0.692189 0.162467 0
M  V30 2410 H 241.507 1.93988 -0.242689 0
M  V30 2411 H 240.211 4.10046 0.170436 0
M  V30 2412 H 239.742 3.5118 1.77303 0
M  V30 2413 H 241.757 3.99906 2.93752 0
M  V30 2414 N 240.93 -0.123565 1.57115 0
M  V30 2415 C 241.893 -1.13583 1.99076 0
M  V30 2416 C 242.893 -1.34564 0.880296 0
M  V30 2417 O 244.083 -1.31158 1.14644 0
M  V30 2418 C 241.215 -2.49128 2.32698 0
M  V30 2419 H 242.408 -0.775287 2.89706 0
M  V30 2420 H 239.961 -0.36771 1.51913 0
M  V30 2421 H 240.696 -2.90111 1.44934 0
M  V30 2422 H 240.481 -2.35255 3.13684 0
M  V30 2423 H 241.971 -3.2199 2.65918 0
M  V30 2424 N 242.408 -1.52605 -0.393616 0
M  V30 2425 C 243.636 -1.71294 -1.16043 0
M  V30 2426 C 244.051 -0.429259 -1.83855 0
M  V30 2427 O 243.408 0.595921 -1.72496 0
M  V30 2428 C 243.459 -2.8593 -2.21193 0
M  V30 2429 O 243.18 -4.09329 -1.56146 0
M  V30 2430 C 244.681 -3.16259 -3.10636 0
M  V30 2431 H 241.901 -0.573641 -0.348104 0
M  V30 2432 H 244.445 -1.99234 -0.461092 0
M  V30 2433 H 242.6 -2.60465 -2.86769 0
M  V30 2434 H 243.014 -4.73323 -2.25978 0
M  V30 2435 H 244.488 -3.99946 -3.80456 0
M  V30 2436 H 244.965 -2.3045 -3.73884 0
M  V30 2437 H 245.571 -3.43547 -2.50711 0
M  V30 2438 N 243.887 0.651787 -1.4349 0
M  V30 2439 C 245.112 1.44434 -1.48841 0
M  V30 2440 C 245.537 1.8779 -0.107955 0
M  V30 2441 O 244.895 1.57464 0.898602 0
M  V30 2442 C 244.943 2.65458 -2.44059 0
M  V30 2443 O 244.047 3.64566 -1.92784 0
M  V30 2444 H 243.388 0.433005 -0.503391 0
M  V30 2445 H 245.918 0.797451 -1.88419 0
M  V30 2446 H 245.928 3.13255 -2.6141 0
M  V30 2447 H 244.603 2.33244 -3.4434 0
M  V30 2448 H 243.18 3.23716 -1.851 0
M  V30 2449 N 245.365 1.30045 0.890287 0
M  V30 2450 C 246.328 1.15963 1.977 0
M  V30 2451 C 247.328 0.0923777 1.60534 0
M  V30 2452 O 248.518 0.340071 1.70848 0
M  V30 2453 C 245.65 0.775451 3.31963 0
M  V30 2454 H 246.843 2.12502 2.11619 0
M  V30 2455 H 244.396 1.13366 1.07601 0
M  V30 2456 H 245.131 -0.189671 3.23745 0
M  V30 2457 H 244.916 1.54668 3.60306 0
M  V30 2458 H 246.406 0.700251 4.11687 0
M  V30 2459 N 246.843 -1.10192 1.12674 0
M  V30 2460 C 247.793 -2.14754 0.765801 0
M  V30 2461 C 248.777 -1.59154 -0.236409 0
M  V30 2462 O 249.969 -1.76951 -0.0415261 0
M  V30 2463 C 247.098 -3.42563 0.224827 0
M  V30 2464 C 246.184 -4.05091 1.25548 0
M  V30 2465 N 246.575 -4.42287 2.4539 0
M  V30 2466 C 244.873 -4.32186 1.10142 0
M  V30 2467 C 245.574 -4.91441 3.11224 0
M  V30 2468 N 244.55 -4.88405 2.38666 0
M  V30 2469 H 248.352 -2.41309 1.67772 0
M  V30 2470 H 245.866 -1.27339 1.00789 0
M  V30 2471 H 247.863 -4.16868 -0.0519578 0
M  V30 2472 H 246.523 -3.17467 -0.681515 0
M  V30 2473 H 247.534 -4.33902 2.82754 0
M  V30 2474 H 244.211 -4.16735 0.252587 0
M  V30 2475 H 245.601 -5.29749 4.13298 0
M  V30 2476 N 248.321 -0.919034 -1.28029 0
M  V30 2477 C 249.561 -0.562107 -1.96519 0
M  V30 2478 C 249.925 0.878784 -1.70708 0
M  V30 2479 O 251.126 1.34355 -2.32813 0
M  V30 2480 C 249.397 -0.868953 -3.46676 0
M  V30 2481 S 250.956 -0.619237 -4.34409 0
M  V30 2482 H 247.774 -0.2078 -0.679956 0
M  V30 2483 H 250.376 -1.18562 -1.55446 0
M  V30 2484 H 249.08 -1.91547 -3.62957 0
M  V30 2485 H 248.611 -0.234301 -3.92702 0
M  V30 2486 H 250.626 0.526995 -4.93394 0
M  V30 2487 N 249.799 1.42003 -0.683588 0
M  V30 2488 C 251.048 2.00638 -0.206681 0
M  V30 2489 C 251.361 1.5472 1.19671 0
M  V30 2490 O 252.567 2.05833 1.77045 0
M  V30 2491 C 251.023 3.58487 -0.318632 0
M  V30 2492 C 250.631 4.1339 -1.72663 0
M  V30 2493 C 252.375 4.24384 0.0991141 0
M  V30 2494 C 250.282 5.63633 -1.79087 0
M  V30 2495 H 249.212 0.750408 -0.0735107 0
M  V30 2496 H 251.863 1.62624 -0.850048 0
M  V30 2497 H 250.245 3.94047 0.392781 0
M  V30 2498 H 251.419 3.89273 -2.46583 0
M  V30 2499 H 249.734 3.59976 -2.09299 0
M  V30 2500 H 252.331 5.34652 0.0713833 0
M  V30 2501 H 252.674 4.00505 1.13586 0
M  V30 2502 H 253.207 3.93816 -0.561599 0
M  V30 2503 H 249.946 5.92323 -2.80774 0
M  V30 2504 H 249.466 5.89714 -1.09535 0
M  V30 2505 H 251.145 6.28201 -1.5483 0
M  V30 2506 N 251.277 0.427512 1.51691 0
M  V30 2507 C 252.525 -0.141948 2.01601 0
M  V30 2508 C 252.846 -1.44067 1.31414 0
M  V30 2509 O 252.116 -1.90763 0.445658 0
M  V30 2510 H 250.696 -0.0554468 0.744939 0
M  V30 2511 H 253.358 0.567968 1.86441 0
M  V30 2512 H 252.454 -0.324913 3.10404 0
M  V30 2513 N 252.755 -1.56801 0.158532 0
M  V30 2514 C 253.703 -2.18638 -0.793729 0
M  V30 2515 C 254.697 -1.14669 -1.24689 0
M  V30 2516 O 255.903 -1.32895 -1.21403 0
M  V30 2517 H 252.278 -0.700226 -0.274204 0
M  V30 2518 H 254.249 -2.97367 -0.248095 0
M  V30 2519 C 252.998 -2.83139 -2.0181 0
M  V30 2520 H 252.321 -3.62863 -1.67841 0
M  V30 2521 H 253.761 -3.29894 -2.66357 0
M  V30 2522 C 252.22 -1.82244 -2.83353 0
M  V30 2523 O 252.75 -1.3 -3.80083 0
M  V30 2524 N 250.956 -1.51288 -2.48114 0
M  V30 2525 H 250.503 -1.93964 -1.69516 0
M  V30 2526 H 250.461 -0.840296 -3.02963 0
M  V30 2527 N 254.233 0.115231 -1.57178 0
M  V30 2528 C 255.196 1.12526 -1.99676 0
M  V30 2529 C 256.196 1.34095 -0.88742 0
M  V30 2530 O 257.386 1.30548 -1.15337 0
M  V30 2531 C 254.518 2.4789 -2.34015 0
M  V30 2532 H 255.711 0.759912 -2.90113 0
M  V30 2533 H 253.264 0.359648 -1.52106 0
M  V30 2534 H 253.999 2.89339 -1.4647 0
M  V30 2535 H 253.784 2.33588 -3.14927 0
M  V30 2536 H 255.274 3.20575 -2.67622 0
M  V30 2537 N 255.711 1.52812 0.385517 0
M  V30 2538 C 256.957 1.68275 1.13188 0
M  V30 2539 C 257.29 0.423179 1.89533 0
M  V30 2540 O 256.565 -0.579113 1.85679 0
M  V30 2541 C 256.848 2.92001 2.1073 0
M  V30 2542 C 256.701 4.28067 1.38125 0
M  V30 2543 C 258.02 3.11283 3.11113 0
M  V30 2544 H 255.139 0.612352 0.410115 0
M  V30 2545 H 257.781 1.85415 0.414869 0
M  V30 2546 H 255.931 2.77519 2.71874 0
M  V30 2547 H 257.603 4.54324 0.799187 0
M  V30 2548 H 255.846 4.28388 0.683092 0
M  V30 2549 H 256.517 5.10733 2.09417 0
M  V30 2550 H 258.993 3.2482 2.6006 0
M  V30 2551 H 257.869 3.99325 3.76605 0
M  V30 2552 H 258.13 2.25656 3.80173 0
M  V30 2553 N 257.189 -0.644168 1.43834 0
M  V30 2554 C 258.099 -1.78563 1.52159 0
M  V30 2555 C 259.115 -1.69147 0.408069 0
M  V30 2556 O 260.291 -1.90156 0.663524 0
M  V30 2557 C 257.356 -3.14888 1.45073 0
M  V30 2558 C 256.417 -3.36034 2.6717 0
M  V30 2559 C 255.65 -4.65855 2.60413 0
M  V30 2560 O 255.873 -5.45805 1.65689 0
M  V30 2561 O 254.807 -4.88918 3.5106 0
M  V30 2562 H 258.633 -1.74494 2.48567 0
M  V30 2563 H 256.218 -0.80378 1.25935 0
M  V30 2564 H 258.1 -3.96179 1.43597 0
M  V30 2565 H 256.775 -3.19528 0.518037 0
M  V30 2566 H 255.682 -2.54472 2.74217 0
M  V30 2567 H 257.015 -3.36247 3.59442 0
M  V30 2568 N 258.668 -1.30515 -0.883378 0
M  V30 2569 C 259.6 -1.12846 -1.99496 0
M  V30 2570 C 260.613 -0.0712571 -1.62644 0
M  V30 2571 O 261.802 -0.317432 -1.75655 0
M  V30 2572 C 258.902 -0.699123 -3.3161 0
M  V30 2573 C 258.075 -1.83842 -3.96889 0
M  V30 2574 C 257.134 -1.39737 -5.07307 0
M  V30 2575 O 256.16 -2.10485 -5.28852 0
M  V30 2576 N 257.362 -0.277279 -5.79837 0
M  V30 2577 H 260.127 -2.08585 -2.15203 0
M  V30 2578 H 257.688 -1.22672 -1.05656 0
M  V30 2579 H 259.68 -0.387044 -4.02845 0
M  V30 2580 H 258.25 0.166276 -3.12157 0
M  V30 2581 H 257.47 -2.31853 -3.18807 0
M  V30 2582 H 258.758 -2.60187 -4.37241 0
M  V30 2583 H 258.156 0.3122 -5.64838 0
M  V30 2584 H 256.713 -0.0246623 -6.51795 0
M  V30 2585 N 260.146 1.09593 -1.13257 0
M  V30 2586 C 261.395 1.81105 -0.887917 0
M  V30 2587 C 261.708 1.86563 0.587672 0
M  V30 2588 O 262.914 2.54367 0.949204 0
M  V30 2589 C 261.37 3.25338 -1.53895 0
M  V30 2590 C 260.978 3.28151 -3.04994 0
M  V30 2591 C 262.722 4.01617 -1.37492 0
M  V30 2592 C 260.629 4.66897 -3.6299 0
M  V30 2593 H 259.559 0.678661 -0.328534 0
M  V30 2594 H 262.21 1.23183 -1.36008 0
M  V30 2595 H 260.592 3.8331 -0.994446 0
M  V30 2596 H 261.766 2.79953 -3.66009 0
M  V30 2597 H 260.081 2.65361 -3.20893 0
M  V30 2598 H 262.678 5.04119 -1.78235 0
M  V30 2599 H 263.021 4.15072 -0.31957 0
M  V30 2600 H 263.554 3.50082 -1.88912 0
M  V30 2601 H 260.293 4.58643 -4.68323 0
M  V30 2602 H 259.813 5.15426 -3.06752 0
M  V30 2603 H 261.492 5.3587 -3.62563 0
M  V30 2604 N 261.624 0.925811 1.2754 0
M  V30 2605 C 262.556 0.380753 2.26015 0
M  V30 2606 C 263.569 -0.487485 1.5533 0
M  V30 2607 O 264.758 -0.300413 1.75954 0
M  V30 2608 C 261.858 -0.473259 3.35579 0
M  V30 2609 C 261.031 0.375249 4.35787 0
M  V30 2610 C 260.09 -0.415809 5.24555 0
M  V30 2611 O 259.116 0.175834 5.68928 0
M  V30 2612 N 260.318 -1.71607 5.54555 0
M  V30 2613 H 263.083 1.22725 2.73421 0
M  V30 2614 H 260.644 0.793037 1.41147 0
M  V30 2615 H 262.636 -1.00949 3.91907 0
M  V30 2616 H 261.206 -1.2205 2.87789 0
M  V30 2617 H 260.426 1.09279 3.7875 0
M  V30 2618 H 261.714 0.955399 4.99749 0
M  V30 2619 H 261.112 -2.2191 5.20358 0
M  V30 2620 H 259.669 -2.19887 6.1359 0
M  V30 2621 N 263.102 -1.41638 0.69111 0
M  V30 2622 C 264.032 -2.3347 0.037248 0
M  V30 2623 C 265.013 -1.51575 -0.771947 0
M  V30 2624 O 266.198 -1.80126 -0.72582 0
M  V30 2625 C 263.328 -3.35354 -0.903064 0
M  V30 2626 C 262.282 -4.27526 -0.201288 0
M  V30 2627 C 261.608 -5.19747 -1.25565 0
M  V30 2628 C 262.908 -5.13959 0.929689 0
M  V30 2629 H 264.602 -2.88397 0.804227 0
M  V30 2630 H 262.148 -1.38669 0.388189 0
M  V30 2631 H 264.101 -3.98519 -1.36969 0
M  V30 2632 H 262.825 -2.78767 -1.70166 0
M  V30 2633 H 261.484 -3.65779 0.245265 0
M  V30 2634 H 261.132 -4.59479 -2.04666 0
M  V30 2635 H 260.832 -5.8225 -0.791128 0
M  V30 2636 H 262.356 -5.85789 -1.72288 0
M  V30 2637 H 263.77 -5.70718 0.543546 0
M  V30 2638 H 262.167 -5.85379 1.32103 0
M  V30 2639 H 263.237 -4.51389 1.77133 0
M  V30 2640 N 264.58 -0.43555 -1.51462 0
M  V30 2641 C 265.828 0.131254 -2.01673 0
M  V30 2642 C 266.149 1.43368 -1.32177 0
M  V30 2643 O 265.419 1.90524 -0.455769 0
M  V30 2644 H 263.999 0.0514954 -0.745223 0
M  V30 2645 H 266.661 -0.577847 -1.86137 0
M  V30 2646 H 265.757 0.308446 -3.10572 0
M  V30 2647 N 266.058 1.56714 -0.166846 0
M  V30 2648 C 267.005 2.17746 0.765193 0
M  V30 2649 C 267.975 1.11614 1.23011 0
M  V30 2650 O 269.16 1.39745 1.29908 0
M  V30 2651 C 266.3 2.81882 1.9909 0
M  V30 2652 C 265.413 4.02462 1.56997 0
M  V30 2653 C 264.548 4.54537 2.749 0
M  V30 2654 C 263.587 5.67538 2.29275 0
M  V30 2655 N 262.724 6.14142 3.40255 0
M  V30 2656 H 267.564 2.97048 0.237952 0
M  V30 2657 H 265.101 1.4672 0.105725 0
M  V30 2658 H 267.059 3.17221 2.70974 0
M  V30 2659 H 265.689 2.05191 2.49192 0
M  V30 2660 H 264.741 3.72973 0.748037 0
M  V30 2661 H 266.053 4.84273 1.19503 0
M  V30 2662 H 265.207 4.92035 3.54946 0
M  V30 2663 H 263.946 3.71774 3.1565 0
M  V30 2664 H 262.951 5.29597 1.47674 0
M  V30 2665 H 264.176 6.52099 1.89588 0
M  V30 2666 H 262.122 5.3431 3.8059 0
M  V30 2667 H 262.039 6.9093 3.06841 0
M  V30 2668 H 263.307 6.56289 4.206 0
M  V30 2669 N 267.536 -0.106894 1.57237 0
M  V30 2670 C 268.468 -1.15646 1.97885 0
M  V30 2671 C 269.481 -1.36981 0.879779 0
M  V30 2672 O 270.67 -1.35841 1.15799 0
M  V30 2673 C 267.77 -2.51425 2.27241 0
M  V30 2674 C 266.943 -2.50529 3.58545 0
M  V30 2675 C 266.002 -3.68145 3.75973 0
M  V30 2676 O 265.028 -3.51176 4.47956 0
M  V30 2677 N 266.23 -4.87177 3.15656 0
M  V30 2678 H 268.995 -0.81059 2.8853 0
M  V30 2679 H 266.556 -0.296024 1.59171 0
M  V30 2680 H 268.548 -3.28689 2.36105 0
M  V30 2681 H 267.118 -2.78147 1.42663 0
M  V30 2682 H 266.338 -1.58894 3.60758 0
M  V30 2683 H 267.626 -2.46997 4.44826 0
M  V30 2684 H 267.024 -5.03868 2.57165 0
M  V30 2685 H 265.581 -5.62075 3.30023 0
M  V30 2686 N 269.014 -1.53014 -0.377408 0
M  V30 2687 C 270.291 -1.59215 -1.13622 0
M  V30 2688 C 270.671 -0.392407 -2.07421 0
M  V30 2689 O 270.019 0.618342 -2.19975 0
M  V30 2690 C 270.229 -2.93669 -1.88573 0
M  V30 2691 C 271.577 -3.47822 -2.43526 0
M  V30 2692 O 272.601 -2.9562 -1.98715 0
M  V30 2693 O 271.46 -4.39055 -3.25412 0
M  V30 2694 H 268.554 -0.642625 -0.52054 0
M  V30 2695 H 271.1 -1.65353 -0.381625 0
M  V30 2696 H 269.872 -3.7243 -1.20048 0
M  V30 2697 H 269.495 -2.90968 -2.70968 0
M  V30 2698 N 270.492 0.636531 -1.44174 0
M  V30 2699 C 271.741 1.39213 -1.45954 0
M  V30 2700 C 272.054 1.95374 -0.0939119 0
M  V30 2701 O 273.26 2.71498 0.0107767 0
M  V30 2702 C 271.716 2.52025 -2.56927 0
M  V30 2703 C 271.324 2.024 -3.99673 0
M  V30 2704 C 273.068 3.29269 -2.67922 0
M  V30 2705 C 270.975 3.12521 -5.0208 0
M  V30 2706 H 269.905 0.523132 -0.542999 0
M  V30 2707 H 272.556 0.685349 -1.70221 0
M  V30 2708 H 270.938 3.25253 -2.25891 0
M  V30 2709 H 272.112 1.36073 -4.40251 0
M  V30 2710 H 270.427 1.37987 -3.92872 0
M  V30 2711 H 273.024 4.11352 -3.41605 0
M  V30 2712 H 273.367 3.78397 -1.73555 0
M  V30 2713 H 273.9 2.63129 -2.98342 0
M  V30 2714 H 270.639 2.68343 -5.98057 0
M  V30 2715 H 270.159 3.77507 -4.66099 0
M  V30 2716 H 271.838 3.77385 -5.25538 0
M  V30 2717 N 271.97 1.30982 0.876444 0
M  V30 2718 C 273.216 1.20474 1.63138 0
M  V30 2719 C 273.549 -0.238096 1.92735 0
M  V30 2720 O 272.824 -1.1692 1.55435 0
M  V30 2721 C 273.107 2.04244 2.96574 0
M  V30 2722 C 272.96 3.56793 2.73896 0
M  V30 2723 C 274.279 1.88684 3.97601 0
M  V30 2724 H 271.398 0.439001 0.591985 0
M  V30 2725 H 274.04 1.60704 1.01361 0
M  V30 2726 H 272.19 1.70063 3.493 0
M  V30 2727 H 273.862 4.01077 2.27892 0
M  V30 2728 H 272.105 3.80548 2.08245 0
M  V30 2729 H 272.776 4.10706 3.68815 0
M  V30 2730 H 275.252 2.18584 3.54062 0
M  V30 2731 H 274.128 2.4961 4.88862 0
M  V30 2732 H 274.389 0.848343 4.33884 0
M  V30 2733 N 273.449 -1.08991 1.13837 0
M  V30 2734 C 274.696 -1.81258 0.902882 0
M  V30 2735 C 275.024 -1.85936 -0.570803 0
M  V30 2736 O 274.279 -1.3267 -1.43865 0
M  V30 2737 C 274.578 -3.27042 1.44147 0
M  V30 2738 C 274.244 -3.4249 2.93276 0
M  V30 2739 C 272.906 -3.46414 3.33992 0
M  V30 2740 C 275.258 -3.4666 3.892 0
M  V30 2741 C 272.586 -3.52091 4.69307 0
M  V30 2742 C 274.938 -3.53872 5.24364 0
M  V30 2743 C 273.602 -3.56066 5.646 0
M  V30 2744 H 272.872 -0.663268 0.330388 0
M  V30 2745 H 275.519 -1.28368 1.42105 0
M  V30 2746 H 273.824 -3.82599 0.844097 0
M  V30 2747 H 275.521 -3.81499 1.23528 0
M  V30 2748 H 272.111 -3.40124 2.60794 0
M  V30 2749 H 276.295 -3.42865 3.58828 0
M  V30 2750 H 271.551 -3.52079 4.9985 0
M  V30 2751 H 275.725 -3.56043 5.98503 0
M  V30 2752 H 273.352 -3.60218 6.69438 0
M  V30 2753 N 274.927 -0.932562 -1.27047 0
M  V30 2754 C 275.89 -0.440064 -2.24936 0
M  V30 2755 C 276.89 0.444071 -1.54547 0
M  V30 2756 O 278.08 0.244465 -1.72476 0
M  V30 2757 C 275.212 0.36678 -3.38921 0
M  V30 2758 H 276.405 -1.305 -2.70018 0
M  V30 2759 H 273.958 -0.713707 -1.39054 0
M  V30 2760 H 274.693 1.25033 -2.99228 0
M  V30 2761 H 274.478 -0.267204 -3.91188 0
M  V30 2762 H 275.968 0.701567 -4.11665 0
M  V30 2763 N 276.405 1.4127 -0.698611 0
M  V30 2764 C 277.653 2.00782 -0.230409 0
M  V30 2765 C 277.974 1.5562 1.17505 0
M  V30 2766 O 277.244 0.78815 1.79346 0
M  V30 2767 H 275.824 0.742464 -0.0821944 0
M  V30 2768 H 278.486 1.72852 -0.90045 0
M  V30 2769 H 277.582 3.11095 -0.25021 0
M  V30 2770 N 277.883 0.443576 1.51229 0
M  V30 2771 C 279.131 -0.120557 2.0174 0
M  V30 2772 C 279.452 -1.42665 1.32935 0
M  V30 2773 O 278.722 -1.9028 0.465866 0
M  V30 2774 H 277.302 -0.0475426 0.745486 0
M  V30 2775 H 279.964 0.587711 1.85828 0
M  V30 2776 H 279.06 -0.291972 3.10731 0
M  V30 2777 N 279.361 -1.56624 0.175154 0
M  V30 2778 C 280.609 -1.96609 -0.467885 0
M  V30 2779 C 280.93 -1.06238 -1.63519 0
M  V30 2780 O 280.2 -0.129523 -1.95471 0
M  V30 2781 H 278.78 -0.726008 -0.175845 0
M  V30 2782 H 281.442 -1.93195 0.257234 0
M  V30 2783 H 280.538 -3.00989 -0.825342 0
M  V30 2784 N 280.839 0.0985539 -1.57292 0
M  V30 2785 C 281.749 1.13824 -2.05137 0
M  V30 2786 C 282.765 1.44076 -0.975604 0
M  V30 2787 O 283.941 1.54786 -1.28853 0
M  V30 2788 C 281.006 2.43969 -2.46333 0
M  V30 2789 C 280.067 2.2093 -3.68087 0
M  V30 2790 C 279.3 3.44869 -4.0731 0
M  V30 2791 O 279.523 4.52972 -3.46659 0
M  V30 2792 O 278.457 3.34661 -5.00285 0
M  V30 2793 H 282.283 0.761881 -2.93988 0
M  V30 2794 H 279.868 0.310818 -1.46131 0
M  V30 2795 H 281.75 3.20609 -2.73473 0
M  V30 2796 H 280.425 2.81038 -1.60621 0
M  V30 2797 H 279.332 1.42081 -3.46069 0
M  V30 2798 H 280.665 1.88755 -4.54568 0
M  V30 2799 N 282.317 1.53212 0.369288 0
M  V30 2800 C 283.227 1.82342 1.47609 0
M  V30 2801 C 284.243 0.711532 1.58787 0
M  V30 2802 O 285.419 1.0012 1.74751 0
M  V30 2803 C 282.484 2.00393 2.8292 0
M  V30 2804 C 281.545 3.24297 2.81301 0
M  V30 2805 C 280.778 3.41478 4.10157 0
M  V30 2806 O 281.001 2.63033 5.06132 0
M  V30 2807 O 279.935 4.34817 4.16194 0
M  V30 2808 H 283.761 2.76366 1.25918 0
M  V30 2809 H 281.346 1.38547 0.559034 0
M  V30 2810 H 283.228 2.13859 3.63101 0
M  V30 2811 H 281.903 1.09559 3.04596 0
M  V30 2812 H 280.81 3.16257 1.99831 0
M  V30 2813 H 282.143 4.15041 2.64578 0
M  V30 2814 N 283.795 -0.628877 1.44509 0
M  V30 2815 C 284.725 -1.75187 1.54376 0
M  V30 2816 C 285.706 -1.65411 0.396618 0
M  V30 2817 O 286.891 -1.84137 0.617031 0
M  V30 2818 C 284.021 -3.13725 1.48976 0
M  V30 2819 C 282.975 -3.38291 2.62189 0
M  V30 2820 C 282.301 -4.76883 2.41841 0
M  V30 2821 C 283.601 -3.30632 4.04326 0
M  V30 2822 H 285.295 -1.67187 2.48373 0
M  V30 2823 H 282.841 -0.802909 1.19538 0
M  V30 2824 H 284.794 -3.92064 1.54478 0
M  V30 2825 H 283.518 -3.22515 0.514961 0
M  V30 2826 H 282.177 -2.62334 2.56079 0
M  V30 2827 H 281.825 -4.82378 1.42548 0
M  V30 2828 H 281.525 -4.94278 3.17747 0
M  V30 2829 H 283.049 -5.57449 2.49165 0
M  V30 2830 H 284.463 -3.98873 4.11793 0
M  V30 2831 H 282.86 -3.59561 4.80454 0
M  V30 2832 H 283.93 -2.28404 4.27738 0
M  V30 2833 N 285.273 -1.31445 -0.869486 0
M  V30 2834 C 286.513 -1.22458 -1.63656 0
M  V30 2835 C 286.877 0.213846 -1.90805 0
M  V30 2836 O 288.078 0.427212 -2.65383 0
M  V30 2837 C 286.349 -2.04564 -2.93067 0
M  V30 2838 S 287.908 -2.12445 -3.83944 0
M  V30 2839 H 284.726 -0.436145 -0.561514 0
M  V30 2840 H 287.328 -1.66114 -1.03085 0
M  V30 2841 H 286.032 -3.0816 -2.71045 0
M  V30 2842 H 285.563 -1.6163 -3.58663 0
M  V30 2843 H 287.578 -1.26312 -4.79854 0
M  V30 2844 N 286.751 1.08385 -1.14413 0
M  V30 2845 C 287.997 1.81212 -0.923793 0
M  V30 2846 C 288.352 1.84555 0.543814 0
M  V30 2847 O 287.645 1.31056 1.39767 0
M  V30 2848 C 287.839 3.26273 -1.45879 0
M  V30 2849 C 287.668 3.37063 -2.97689 0
M  V30 2850 C 286.438 3.4824 -3.66138 0
M  V30 2851 C 288.636 3.28698 -3.95553 0
M  V30 2852 N 286.618 3.47824 -5.05858 0
M  V30 2853 C 287.989 3.35276 -5.21527 0
M  V30 2854 C 290.044 3.12437 -3.8767 0
M  V30 2855 C 288.747 3.27267 -6.40538 0
M  V30 2856 C 290.773 3.05757 -5.06228 0
M  V30 2857 C 290.135 3.12938 -6.3107 0
M  V30 2858 H 286.234 0.6769 -0.391574 0
M  V30 2859 H 288.818 1.29455 -1.45429 0
M  V30 2860 H 286.989 3.76474 -0.95507 0
M  V30 2861 H 288.721 3.87165 -1.17835 0
M  V30 2862 H 285.476 3.52141 -3.16692 0
M  V30 2863 H 285.9 3.51171 -5.78798 0
M  V30 2864 H 290.542 3.05747 -2.92025 0
M  V30 2865 H 288.26 3.32718 -7.36427 0
M  V30 2866 H 291.846 2.94295 -5.01878 0
M  V30 2867 H 290.726 3.078 -7.21269 0
M  V30 2868 N 288.23 0.939286 1.26551 0
M  V30 2869 C 289.14 0.453432 2.30176 0
M  V30 2870 C 290.156 -0.471649 1.67486 0
M  V30 2871 O 291.332 -0.35164 1.98306 0
M  V30 2872 C 288.397 -0.275326 3.45605 0
M  V30 2873 C 287.458 0.686084 4.23782 0
M  V30 2874 C 286.691 -0.00798994 5.33699 0
M  V30 2875 O 286.914 -1.22528 5.57085 0
M  V30 2876 O 285.848 0.669746 5.98162 0
M  V30 2877 H 289.674 1.31416 2.73795 0
M  V30 2878 H 287.259 0.705095 1.31715 0
M  V30 2879 H 289.141 -0.685911 4.1578 0
M  V30 2880 H 287.816 -1.11147 3.0402 0
M  V30 2881 H 286.723 1.14658 3.56096 0
M  V30 2882 H 288.056 1.48979 4.69112 0
M  V30 2883 N 289.708 -1.40897 0.706093 0
M  V30 2884 C 290.641 -2.282 -0.00328781 0
M  V30 2885 C 291.619 -1.42816 -0.77732 0
M  V30 2886 O 292.803 -1.72237 -0.765944 0
M  V30 2887 C 289.93 -3.23226 -1.01205 0
M  V30 2888 C 288.976 -4.25222 -0.329955 0
M  V30 2889 S 289.809 -5.27269 0.935298 0
M  V30 2890 C 290.965 -6.25859 -0.0716061 0
M  V30 2891 H 291.198 -2.88016 0.737143 0
M  V30 2892 H 288.731 -1.46191 0.496756 0
M  V30 2893 H 290.689 -3.78503 -1.58888 0
M  V30 2894 H 289.35 -2.62485 -1.72513 0
M  V30 2895 H 288.543 -4.92023 -1.09221 0
M  V30 2896 H 288.145 -3.73595 0.174069 0
M  V30 2897 H 290.437 -6.71204 -0.921521 0
M  V30 2898 H 291.38 -7.0586 0.562765 0
M  V30 2899 H 291.788 -5.62852 -0.431088 0
M  V30 2900 N 291.186 -0.45159 -1.50991 0
M  V30 2901 C 292.149 0.341117 -2.26647 0
M  V30 2902 C 293.149 0.937422 -1.30649 0
M  V30 2903 O 294.339 0.809644 -1.54241 0
M  V30 2904 C 291.471 1.48398 -3.06905 0
M  V30 2905 H 292.664 -0.322117 -2.98165 0
M  V30 2906 H 290.217 -0.205122 -1.54948 0
M  V30 2907 H 290.952 2.18284 -2.39838 0
M  V30 2908 H 290.737 1.06241 -3.77432 0
M  V30 2909 H 292.227 2.04367 -3.64176 0
M  V30 2910 N 292.664 1.56529 -0.183458 0
M  V30 2911 C 293.904 1.99141 0.460667 0
M  V30 2912 C 294.268 1.06736 1.59597 0
M  V30 2913 O 295.469 1.38538 2.30349 0
M  V30 2914 C 293.74 3.45358 0.919939 0
M  V30 2915 S 295.299 4.09999 1.56354 0
M  V30 2916 H 292.117 0.695479 0.147748 0
M  V30 2917 H 294.719 1.93429 -0.283782 0
M  V30 2918 H 293.423 4.10315 0.0834208 0
M  V30 2919 H 292.954 3.54862 1.69814 0
M  V30 2920 H 294.969 4.06046 2.85203 0
M  V30 2921 N 294.142 -0.090211 1.57342 0
M  V30 2922 C 295.052 -1.12735 2.05738 0
M  V30 2923 C 296.068 -1.43557 0.983231 0
M  V30 2924 O 297.244 -1.54101 1.29672 0
M  V30 2925 C 294.309 -2.42659 2.47624 0
M  V30 2926 C 293.37 -2.18975 3.69254 0
M  V30 2927 C 292.603 -3.42704 4.09133 0
M  V30 2928 O 292.826 -4.51127 3.49057 0
M  V30 2929 O 291.76 -3.32003 5.02053 0
M  V30 2930 H 295.586 -0.746279 2.94388 0
M  V30 2931 H 293.171 -0.303064 1.46294 0
M  V30 2932 H 295.053 -3.19155 2.7517 0
M  V30 2933 H 293.728 -2.80182 1.62109 0
M  V30 2934 H 292.635 -1.40244 3.46818 0
M  V30 2935 H 293.968 -1.86342 4.55563 0
M  V30 2936 N 295.62 -1.53406 -0.361157 0
M  V30 2937 C 296.867 -1.69802 -1.10333 0
M  V30 2938 C 297.195 -0.452087 -1.89173 0
M  V30 2939 O 296.45 0.566017 -1.87336 0
M  V30 2940 C 296.749 -2.90211 -2.08596 0
M  V30 2941 C 296.415 -4.26539 -1.46203 0
M  V30 2942 C 295.077 -4.6361 -1.28915 0
M  V30 2943 C 297.429 -5.113 -1.01101 0
M  V30 2944 C 294.757 -5.83075 -0.651157 0
M  V30 2945 C 297.109 -6.31415 -0.387007 0
M  V30 2946 C 295.773 -6.67195 -0.201657 0
M  V30 2947 H 295.043 -0.621351 -0.403737 0
M  V30 2948 H 297.69 -1.87598 -0.384609 0
M  V30 2949 H 295.995 -2.66946 -2.86788 0
M  V30 2950 H 297.692 -3.00091 -2.65982 0
M  V30 2951 H 294.282 -3.97352 -1.60653 0
M  V30 2952 H 298.466 -4.83206 -1.13249 0
M  V30 2953 H 293.722 -6.09385 -0.496006 0
M  V30 2954 H 297.896 -6.96394 -0.0293563 0
M  V30 2955 H 295.523 -7.59628 0.294766 0
M  V30 2956 N 297.098 0.621204 -1.44841 0
M  V30 2957 C 298.375 1.38 -1.38619 0
M  V30 2958 C 298.755 2.11041 -0.0498935 0
M  V30 2959 O 298.103 2.06992 0.967816 0
M  V30 2960 C 298.313 2.33817 -2.59096 0
M  V30 2961 C 299.661 2.96844 -3.03593 0
M  V30 2962 O 300.685 2.44141 -2.59371 0
M  V30 2963 O 299.544 3.92476 -3.80296 0
M  V30 2964 H 296.638 0.61811 -0.549426 0
M  V30 2965 H 299.184 0.645429 -1.56947 0
M  V30 2966 H 297.956 1.79012 -3.47952 0
M  V30 2967 H 297.579 3.14676 -2.43032 0
M  V30 2968 N 298.576 1.31904 0.862503 0
M  V30 2969 C 299.539 1.20131 1.95195 0
M  V30 2970 C 300.539 0.126409 1.60302 0
M  V30 2971 O 301.729 0.376234 1.70089 0
M  V30 2972 C 298.861 0.845691 3.30244 0
M  V30 2973 H 300.054 2.16943 2.07064 0
M  V30 2974 H 297.607 1.15622 1.05172 0
M  V30 2975 H 298.342 -0.120957 3.24074 0
M  V30 2976 H 298.127 1.62276 3.56944 0
M  V30 2977 H 299.617 0.787418 4.10109 0
M  V30 2978 N 300.054 -1.07777 1.14986 0
M  V30 2979 C 300.987 -2.14228 0.786243 0
M  V30 2980 C 301.965 -1.60888 -0.235347 0
M  V30 2981 O 303.149 -1.88099 -0.122909 0
M  V30 2982 C 300.276 -3.38281 0.168433 0
M  V30 2983 C 299.322 -4.10387 1.16123 0
M  V30 2984 S 300.155 -4.62371 2.70135 0
M  V30 2985 C 301.311 -5.89704 2.09762 0
M  V30 2986 H 301.544 -2.44741 1.68787 0
M  V30 2987 H 299.077 -1.19984 0.971756 0
M  V30 2988 H 301.035 -4.10098 -0.181588 0
M  V30 2989 H 299.696 -3.05953 -0.710725 0
M  V30 2990 H 298.889 -4.99431 0.677086 0
M  V30 2991 H 298.491 -3.44513 1.45556 0
M  V30 2992 H 300.783 -6.61648 1.45701 0
M  V30 2993 H 301.726 -6.42824 2.96955 0
M  V30 2994 H 302.134 -5.4302 1.54239 0
M  V30 2995 N 301.532 -0.945985 -1.26051 0
M  V30 2996 C 302.78 -0.594941 -1.93145 0
M  V30 2997 C 303.101 0.86953 -1.7454 0
M  V30 2998 O 302.371 1.61838 -1.10387 0
M  V30 2999 H 300.951 -0.217044 -0.714773 0
M  V30 3000 H 303.613 -1.20235 -1.53393 0
M  V30 3001 H 302.709 -0.816835 -3.01221 0
M  V30 3002 N 303.011 1.40521 -0.713556 0
M  V30 3003 C 303.974 2.29098 -0.0684347 0
M  V30 3004 C 304.974 1.45268 0.689472 0
M  V30 3005 O 306.164 1.66205 0.521677 0
M  V30 3006 C 303.296 3.28446 0.913024 0
M  V30 3007 H 304.489 2.87645 -0.84855 0
M  V30 3008 H 302.042 1.48809 -0.47809 0
M  V30 3009 H 302.777 2.74913 1.72027 0
M  V30 3010 H 302.562 3.90327 0.372472 0
M  V30 3011 H 304.052 3.94777 1.36165 0
M  V30 3012 N 304.489 0.459591 1.5075 0
M  V30 3013 C 305.419 -0.330644 2.31147 0
M  V30 3014 C 306.4 -1.00087 1.37538 0
M  V30 3015 O 307.585 -1.00025 1.66459 0
M  V30 3016 C 304.715 -1.41958 3.16962 0
M  V30 3017 C 303.669 -0.871608 4.19031 0
M  V30 3018 C 302.995 -2.05797 4.9351 0
M  V30 3019 C 304.295 0.109251 5.22186 0
M  V30 3020 H 305.989 0.340336 2.97459 0
M  V30 3021 H 303.535 0.165119 1.4305 0
M  V30 3022 H 305.488 -1.9798 3.71997 0
M  V30 3023 H 304.212 -2.11917 2.48513 0
M  V30 3024 H 302.871 -0.333442 3.6508 0
M  V30 3025 H 302.519 -2.74427 4.21544 0
M  V30 3026 H 302.219 -1.6976 5.62544 0
M  V30 3027 H 303.743 -2.62331 5.51375 0
M  V30 3028 H 305.157 -0.361405 5.7216 0
M  V30 3029 H 303.554 0.383316 5.98875 0
M  V30 3030 H 304.624 1.03887 4.73641 0
M  V30 3031 N 305.967 -1.56429 0.191757 0
M  V30 3032 C 307.192 -2.02309 -0.456706 0
M  V30 3033 C 307.617 -1.07103 -1.5463 0
M  V30 3034 O 306.975 -0.0539677 -1.8122 0
M  V30 3035 C 307.023 -3.46654 -0.993159 0
M  V30 3036 O 306.127 -3.54559 -2.10622 0
M  V30 3037 H 305.468 -0.655303 -0.107114 0
M  V30 3038 H 307.998 -2.02364 0.301653 0
M  V30 3039 H 308.008 -3.86377 -1.31061 0
M  V30 3040 H 306.683 -4.1544 -0.195504 0
M  V30 3041 H 305.26 -3.26708 -1.79767 0
M  V30 3042 N 307.445 0.0818655 -1.57387 0
M  V30 3043 C 308.673 0.796108 -1.9097 0
M  V30 3044 C 309.088 1.71626 -0.786757 0
M  V30 3045 O 308.445 1.80908 0.240513 0
M  V30 3046 C 308.496 1.59829 -3.24248 0
M  V30 3047 O 308.217 0.715131 -4.32224 0
M  V30 3048 C 309.718 2.41442 -3.7178 0
M  V30 3049 H 306.938 0.22691 -0.631469 0
M  V30 3050 H 309.482 0.0551439 -2.04426 0
M  V30 3051 H 307.637 2.29163 -3.12351 0
M  V30 3052 H 308.051 1.27205 -5.08841 0
M  V30 3053 H 309.525 2.932 -4.67694 0
M  V30 3054 H 310.002 3.2051 -3.00283 0
M  V30 3055 H 310.608 1.77283 -3.86589 0
M  V30 3056 N 308.923 1.53595 0.353017 0
M  V30 3057 C 309.87 1.80919 1.43308 0
M  V30 3058 C 310.84 0.654288 1.5267 0
M  V30 3059 O 312.025 0.897759 1.6836 0
M  V30 3060 C 309.165 2.01605 2.80089 0
M  V30 3061 C 308.278 3.29321 2.79593 0
M  V30 3062 C 307.413 3.40125 4.0803 0
M  V30 3063 C 306.452 4.61826 4.01725 0
M  V30 3064 N 305.589 4.69716 5.21834 0
M  V30 3065 H 310.429 2.73074 1.19308 0
M  V30 3066 H 307.966 1.35263 0.578131 0
M  V30 3067 H 309.924 2.11586 3.59565 0
M  V30 3068 H 308.554 1.12772 3.0246 0
M  V30 3069 H 307.606 3.28229 1.92276 0
M  V30 3070 H 308.918 4.18884 2.70809 0
M  V30 3071 H 308.072 3.49488 4.95927 0
M  V30 3072 H 306.811 2.48601 4.19582 0
M  V30 3073 H 305.816 4.52552 3.12213 0
M  V30 3074 H 307.041 5.54705 3.91764 0
M  V30 3075 H 304.987 3.81097 5.33948 0
M  V30 3076 H 304.904 5.53202 5.1527 0
M  V30 3077 H 306.172 4.83376 6.11529 0
M  V30 3078 N 310.401 -0.613514 1.45168 0
M  V30 3079 C 311.631 -1.39743 1.52169 0
M  V30 3080 C 312.039 -1.88596 0.151086 0
M  V30 3081 O 311.382 -1.6251 -0.856521 0
M  V30 3082 C 311.444 -2.64035 2.43979 0
M  V30 3083 C 311.108 -2.36861 3.90827 0
M  V30 3084 C 312.105 -1.97591 4.80889 0
M  V30 3085 C 309.79 -2.49956 4.35692 0
M  V30 3086 C 311.784 -1.71768 6.1382 0
M  V30 3087 C 309.471 -2.23747 5.68665 0
M  V30 3088 C 310.469 -1.84714 6.57548 0
M  V30 3089 O 310.157 -1.58809 7.88058 0
M  V30 3090 H 309.889 -0.434382 0.517966 0
M  V30 3091 H 312.443 -0.75587 1.90986 0
M  V30 3092 H 310.673 -3.3089 2.00122 0
M  V30 3093 H 312.362 -3.26069 2.41731 0
M  V30 3094 H 313.128 -1.87015 4.47493 0
M  V30 3095 H 309.007 -2.79305 3.66756 0
M  V30 3096 H 312.551 -1.41227 6.83155 0
M  V30 3097 H 308.448 -2.33938 6.01617 0
M  V30 3098 H 309.216 -1.7291 8.00028 0
M  V30 3099 N 311.879 -1.3236 -0.855495 0
M  V30 3100 C 312.827 -1.2118 -1.9854 0
M  V30 3101 C 313.821 -0.116788 -1.68997 0
M  V30 3102 O 315.027 -0.279657 -1.77814 0
M  V30 3103 H 311.402 -0.375608 -0.651477 0
M  V30 3104 H 313.373 -2.16743 -2.05098 0
M  V30 3105 C 312.122 -0.950849 -3.34446 0
M  V30 3106 H 311.445 -1.78563 -3.57708 0
M  V30 3107 H 312.885 -0.912863 -4.14057 0
M  V30 3108 C 311.344 0.346404 -3.35114 0
M  V30 3109 O 311.874 1.35855 -3.7803 0
M  V30 3110 N 310.08 0.36808 -2.88259 0
M  V30 3111 H 309.627 -0.456102 -2.5353 0
M  V30 3112 H 309.585 1.23591 -2.89089 0
M  V30 3113 N 313.357 1.07166 -1.15556 0
M  V30 3114 C 314.634 1.76546 -0.842069 0
M  V30 3115 C 315.014 2.00453 0.661939 0
M  V30 3116 O 314.362 1.62452 1.60691 0
M  V30 3117 C 314.572 3.07266 -1.65495 0
M  V30 3118 C 315.92 3.81578 -1.86234 0
M  V30 3119 O 316.944 3.17083 -1.62287 0
M  V30 3120 O 315.803 4.97419 -2.26355 0
M  V30 3121 H 312.897 0.766756 -0.309862 0
M  V30 3122 H 315.443 1.13514 -1.26145 0
M  V30 3123 H 314.215 2.85494 -2.67598 0
M  V30 3124 H 313.838 3.7803 -1.23203 0
M  V30 3125 N 314.835 0.952656 1.25548 0
M  V30 3126 C 316.063 0.623496 1.97282 0
M  V30 3127 C 316.478 -0.803987 1.70826 0
M  V30 3128 O 315.835 -1.53755 0.983147 0
M  V30 3129 C 315.886 0.870209 3.5087 0
M  V30 3130 O 315.607 2.24156 3.76412 0
M  V30 3131 C 317.108 0.553164 4.39835 0
M  V30 3132 H 314.328 0.233931 0.628902 0
M  V30 3133 H 316.872 1.27649 1.59768 0
M  V30 3134 H 315.027 0.263652 3.86502 0
M  V30 3135 H 315.441 2.31021 4.70882 0
M  V30 3136 H 316.915 0.776342 5.46513 0
M  V30 3137 H 317.392 -0.512215 4.36203 0
M  V30 3138 H 317.998 1.13896 4.09766 0
M  V30 3139 N 316.313 -1.40141 0.720998 0
M  V30 3140 C 317.724 -1.83678 0.334553 0
M  V30 3141 C 318.075 -1.6027 -1.13173 0
M  V30 3142 O 317.2 -1.08643 -1.87152 0
M  V30 3143 C 317.795 -3.33437 0.600437 0
M  V30 3144 C 316.354 -3.75447 0.267642 0
M  V30 3145 C 315.501 -2.63296 0.870097 0
M  V30 3146 H 318.452 -1.29331 0.919732 0
M  V30 3147 H 318.473 -3.80269 -0.132517 0
M  V30 3148 H 317.985 -3.50442 1.66768 0
M  V30 3149 H 316.086 -3.64035 -0.794329 0
M  V30 3150 H 316.199 -4.73344 0.74042 0
M  V30 3151 H 314.563 -2.52954 0.297739 0
M  V30 3152 H 315.346 -2.83112 1.94172 0
M  V30 3153 N 317.792 -0.46758 -1.50504 0
M  V30 3154 C 318.702 0.33382 -2.32213 0
M  V30 3155 C 319.718 0.999323 -1.42441 0
M  V30 3156 O 320.894 0.988068 -1.75497 0
M  V30 3157 C 317.959 1.4035 -3.17022 0
M  V30 3158 C 317.02 0.754961 -4.2261 0
M  V30 3159 C 316.253 1.77367 -5.03365 0
M  V30 3160 O 316.476 2.99976 -4.8515 0
M  V30 3161 O 315.41 1.34744 -5.86624 0
M  V30 3162 H 319.236 -0.334067 -3.01857 0
M  V30 3163 H 316.821 -0.229496 -1.47627 0
M  V30 3164 H 318.703 2.02318 -3.69656 0
M  V30 3165 H 317.378 2.05492 -2.5011 0
M  V30 3166 H 316.285 0.0964244 -3.73976 0
M  V30 3167 H 317.618 0.146545 -4.91982 0
M  V30 3168 N 319.27 1.56325 -0.20005 0
M  V30 3169 C 320.217 2.1932 0.718833 0
M  V30 3170 C 321.187 1.14198 1.20615 0
M  V30 3171 O 322.372 1.42469 1.26914 0
M  V30 3172 C 319.512 2.86041 1.93066 0
M  V30 3173 C 318.625 4.05702 1.48425 0
M  V30 3174 C 317.76 4.60266 2.65196 0
M  V30 3175 C 316.799 5.72273 2.17185 0
M  V30 3176 N 315.936 6.21221 3.27152 0
M  V30 3177 H 320.776 2.97486 0.17489 0
M  V30 3178 H 318.313 1.46911 0.0745794 0
M  V30 3179 H 320.271 3.22897 2.64184 0
M  V30 3180 H 318.901 2.1043 2.44783 0
M  V30 3181 H 317.953 3.74475 0.668755 0
M  V30 3182 H 319.265 4.86699 1.09204 0
M  V30 3183 H 318.419 4.99453 3.4443 0
M  V30 3184 H 317.158 3.78386 3.07693 0
M  V30 3185 H 316.163 5.3261 1.36407 0
M  V30 3186 H 317.388 6.55974 1.75713 0
M  V30 3187 H 315.334 5.42263 3.69171 0
M  V30 3188 H 315.251 6.97284 2.92116 0
M  V30 3189 H 316.519 6.65063 4.06585 0
M  V30 3190 N 320.748 -0.0735177 1.57428 0
M  V30 3191 C 321.711 -1.07192 2.02589 0
M  V30 3192 C 322.711 -1.31695 0.922661 0
M  V30 3193 O 323.901 -1.27445 1.18758 0
M  V30 3194 C 321.033 -2.41599 2.40506 0
M  V30 3195 H 322.226 -0.682727 2.92025 0
M  V30 3196 H 319.779 -0.319193 1.53006 0
M  V30 3197 H 320.514 -2.85354 1.5409 0
M  V30 3198 H 320.299 -2.25156 3.21009 0
M  V30 3199 H 321.789 -3.13367 2.76027 0
M  V30 3200 N 322.226 -1.5378 -0.344866 0
M  V30 3201 C 323.451 -1.75211 -1.10977 0
M  V30 3202 C 323.876 -0.48936 -1.81623 0
M  V30 3203 O 323.234 0.557925 -1.72502 0
M  V30 3204 C 323.282 -2.93147 -2.09993 0
M  V30 3205 O 322.386 -2.63203 -3.17487 0
M  V30 3206 H 321.727 -0.581241 -0.321021 0
M  V30 3207 H 324.257 -2.00738 -0.395661 0
M  V30 3208 H 324.267 -3.19898 -2.53237 0
M  V30 3209 H 322.942 -3.84731 -1.5797 0
M  V30 3210 H 321.519 -2.47336 -2.79069 0
M  V30 3211 N 323.704 0.605807 -1.45491 0
M  V30 3212 C 325.12 0.926751 -1.29936 0
M  V30 3213 C 325.32 1.99896 -0.253706 0
M  V30 3214 O 324.376 2.50038 0.351737 0
M  V30 3215 C 325.689 1.36599 -2.67883 0
M  V30 3216 C 327.237 1.4801 -2.75793 0
M  V30 3217 C 327.712 1.95309 -4.14268 0
M  V30 3218 N 329.203 2.0254 -4.16571 0
M  V30 3219 C 329.938 2.40363 -5.20589 0
M  V30 3220 N 329.434 2.77143 -6.34952 0
M  V30 3221 N 331.227 2.40718 -5.07948 0
M  V30 3222 H 323.378 -0.102862 -2.12151 0
M  V30 3223 H 325.641 0.016639 -0.947854 0
M  V30 3224 H 325.347 0.652306 -3.45598 0
M  V30 3225 H 325.221 2.33215 -2.96463 0
M  V30 3226 H 327.608 2.1847 -1.98381 0
M  V30 3227 H 327.689 0.497041 -2.50925 0
M  V30 3228 H 327.333 1.25436 -4.92167 0
M  V30 3229 H 327.263 2.94532 -4.3653 0
M  V30 3230 H 329.754 1.76699 -3.34045 0
M  V30 3231 H 330.067 3.0489 -7.10114 0
M  V30 3232 H 328.412 2.74834 -6.3835 0
M  V30 3233 H 331.603 2.11392 -4.1765 0
M  V30 3234 H 331.776 2.69869 -5.89131 0
M  V30 3235 N 325.182 1.32811 0.848464 0
M  V30 3236 C 326.41 1.26739 1.63538 0
M  V30 3237 C 326.825 -0.163484 1.88091 0
M  V30 3238 O 326.182 -1.10258 1.45429 0
M  V30 3239 C 326.233 2.03013 2.99112 0
M  V30 3240 O 325.954 3.40518 2.75643 0
M  V30 3241 C 327.455 2.04038 3.93552 0
M  V30 3242 H 324.675 0.437024 0.509167 0
M  V30 3243 H 327.219 1.75033 1.05753 0
M  V30 3244 H 325.374 1.58426 3.53525 0
M  V30 3245 H 325.788 3.79635 3.61908 0
M  V30 3246 H 327.262 2.61877 4.85926 0
M  V30 3247 H 327.739 1.0282 4.26995 0
M  V30 3248 H 328.345 2.486 3.45077 0
M  V30 3249 N 326.66 -1.06551 1.16123 0
M  V30 3250 C 327.89 -1.8274 0.963838 0
M  V30 3251 C 328.298 -1.82712 -0.491228 0
M  V30 3252 O 327.641 -1.24294 -1.35265 0
M  V30 3253 C 327.703 -3.3065 1.41106 0
M  V30 3254 C 327.367 -3.54384 2.88549 0
M  V30 3255 C 328.364 -3.4765 3.86569 0
M  V30 3256 C 326.049 -3.81789 3.26408 0
M  V30 3257 C 328.043 -3.67982 5.2045 0
M  V30 3258 C 325.73 -4.01772 4.60459 0
M  V30 3259 C 326.728 -3.94866 5.57288 0
M  V30 3260 O 326.416 -4.14306 6.88916 0
M  V30 3261 H 326.148 -0.583136 0.341948 0
M  V30 3262 H 328.702 -1.35351 1.54497 0
M  V30 3263 H 326.932 -3.78887 0.773394 0
M  V30 3264 H 328.621 -3.88324 1.1815 0
M  V30 3265 H 329.387 -3.2647 3.58667 0
M  V30 3266 H 325.266 -3.86276 2.51619 0
M  V30 3267 H 328.81 -3.62507 5.96015 0
M  V30 3268 H 324.707 -4.2244 4.88072 0
M  V30 3269 H 325.475 -4.31609 6.95454 0
M  V30 3270 N 328.138 -0.959301 -1.25041 0
M  V30 3271 C 329.415 -0.533805 -1.88175 0
M  V30 3272 C 329.795 0.988994 -1.865 0
M  V30 3273 O 329.143 1.85677 -1.33177 0
M  V30 3274 C 329.353 -1.11575 -3.30684 0
M  V30 3275 C 330.701 -1.19548 -4.07423 0
M  V30 3276 O 331.725 -1.06765 -3.39823 0
M  V30 3277 O 330.584 -1.39656 -5.28354 0
M  V30 3278 H 327.678 -0.176772 -0.807887 0
M  V30 3279 H 330.224 -1.05303 -1.33076 0
M  V30 3280 H 328.996 -2.15884 -3.26358 0
M  V30 3281 H 328.619 -0.580059 -3.93346 0
M  V30 3282 N 329.616 1.39756 -0.72842 0
M  V30 3283 C 330.579 2.29012 -0.0927297 0
M  V30 3284 C 331.579 1.45992 0.674025 0
M  V30 3285 O 332.769 1.66749 0.50402 0
M  V30 3286 C 329.901 3.29396 0.878137 0
M  V30 3287 H 331.094 2.86729 -0.879011 0
M  V30 3288 H 328.647 1.48293 -0.493847 0
M  V30 3289 H 329.382 2.76722 1.69101 0
M  V30 3290 H 329.167 3.907 0.331051 0
M  V30 3291 H 330.657 3.96199 1.3197 0
M  V30 3292 N 331.094 0.475555 1.50254 0
M  V30 3293 C 332.044 -0.335025 2.25525 0
M  V30 3294 C 333.028 -0.957625 1.29299 0
M  V30 3295 O 334.22 -0.869436 1.54175 0
M  V30 3296 C 331.349 -1.41385 3.12834 0
M  V30 3297 C 330.435 -0.798762 4.1651 0
M  V30 3298 N 330.826 0.0835815 5.05731 0
M  V30 3299 C 329.124 -1.06221 4.33166 0
M  V30 3300 C 329.825 0.433113 5.80085 0
M  V30 3301 N 328.801 -0.1928 5.43258 0
M  V30 3302 H 332.603 0.344612 2.91873 0
M  V30 3303 H 330.117 0.289986 1.5979 0
M  V30 3304 H 332.114 -2.00777 3.65368 0
M  V30 3305 H 330.774 -2.09543 2.48036 0
M  V30 3306 H 331.785 0.452715 5.15918 0
M  V30 3307 H 328.462 -1.73844 3.79585 0
M  V30 3308 H 329.852 1.15346 6.61925 0
M  V30 3309 N 332.573 -1.56217 0.208337 0
M  V30 3310 C 333.989 -1.58919 -0.14729 0
M  V30 3311 C 334.189 -1.22486 -1.59998 0
M  V30 3312 O 333.245 -0.953849 -2.3379 0
M  V30 3313 C 334.558 -3.00236 0.167048 0
M  V30 3314 C 336.106 -3.12813 0.108219 0
M  V30 3315 C 336.581 -4.56284 0.396049 0
M  V30 3316 N 338.072 -4.61912 0.345142 0
M  V30 3317 C 338.807 -5.70837 0.541523 0
M  V30 3318 N 338.303 -6.88178 0.798968 0
M  V30 3319 N 340.096 -5.60091 0.474867 0
M  V30 3320 H 332.247 -1.78177 1.15614 0
M  V30 3321 H 334.51 -0.827555 0.462446 0
M  V30 3322 H 334.216 -3.31499 1.1748 0
M  V30 3323 H 334.09 -3.7354 -0.524184 0
M  V30 3324 H 336.477 -2.81354 -0.890157 0
M  V30 3325 H 336.558 -2.41866 0.832729 0
M  V30 3326 H 336.202 -4.88458 1.3918 0
M  V30 3327 H 336.132 -5.25439 -0.349502 0
M  V30 3328 H 338.623 -3.77589 0.153316 0
M  V30 3329 H 338.936 -7.67095 0.93727 0
M  V30 3330 H 337.281 -6.89953 0.836013 0
M  V30 3331 H 340.472 -4.67297 0.274064 0
M  V30 3332 H 340.645 -6.44917 0.631326 0
M  V30 3333 N 334.051 0.0651679 -1.57465 0
M  V30 3334 C 335.328 0.79644 -1.78651 0
M  V30 3335 C 335.708 1.95454 -0.797566 0
M  V30 3336 O 335.056 2.27882 0.167946 0
M  V30 3337 C 335.266 1.26322 -3.25337 0
M  V30 3338 C 336.614 1.6939 -3.89348 0
M  V30 3339 O 337.638 1.35872 -3.29268 0
M  V30 3340 O 336.497 2.31471 -4.95059 0
M  V30 3341 H 333.591 0.382157 -0.733407 0
M  V30 3342 H 336.137 0.0447311 -1.69641 0
M  V30 3343 H 334.909 0.434859 -3.88876 0
M  V30 3344 H 334.532 2.07604 -3.39096 0
M  V30 3345 N 335.529 1.53961 0.336706 0
M  V30 3346 C 336.777 1.71197 1.07405 0
M  V30 3347 C 337.098 0.481475 1.88962 0
M  V30 3348 O 336.368 -0.504585 1.8929 0
M  V30 3349 H 334.948 0.631185 0.399517 0
M  V30 3350 H 337.61 1.91232 0.376323 0
M  V30 3351 H 336.706 2.58587 1.74755 0
M  V30 3352 N 337.007 -0.598083 1.45811 0
M  V30 3353 C 338.254 -1.35681 1.50323 0
M  V30 3354 C 338.582 -1.9393 0.148739 0
M  V30 3355 O 337.837 -1.76094 -0.853787 0
M  V30 3356 C 338.136 -2.51669 2.53766 0
M  V30 3357 C 337.802 -2.11508 3.98215 0
M  V30 3358 C 336.464 -2.0027 4.37545 0
M  V30 3359 C 338.816 -1.80308 4.89018 0
M  V30 3360 C 336.144 -1.56067 5.65562 0
M  V30 3361 C 338.496 -1.37589 6.17456 0
M  V30 3362 C 337.16 -1.24916 6.55708 0
M  V30 3363 H 336.43 -0.496492 0.550069 0
M  V30 3364 H 339.077 -0.675052 1.79207 0
M  V30 3365 H 337.382 -3.25225 2.18486 0
M  V30 3366 H 339.079 -3.09895 2.54492 0
M  V30 3367 H 335.669 -2.21185 3.67117 0
M  V30 3368 H 339.853 -1.87884 4.59362 0
M  V30 3369 H 335.109 -1.44886 5.93985 0
M  V30 3370 H 339.283 -1.12495 6.87254 0
M  V30 3371 H 336.91 -0.904386 7.54801 0
M  V30 3372 N 338.485 -1.33259 -0.841409 0
M  V30 3373 C 339.731 -1.24757 -1.59886 0
M  V30 3374 C 340.064 0.186913 -1.93298 0
M  V30 3375 O 339.339 1.12757 -1.5848 0
M  V30 3376 C 339.622 -2.12036 -2.91055 0
M  V30 3377 C 339.475 -3.63929 -2.6434 0
M  V30 3378 C 340.794 -1.9916 -3.92458 0
M  V30 3379 H 337.913 -0.454542 -0.580138 0
M  V30 3380 H 340.555 -1.63335 -0.970647 0
M  V30 3381 H 338.705 -1.79265 -3.44669 0
M  V30 3382 H 340.377 -4.06978 -2.17178 0
M  V30 3383 H 338.62 -3.85935 -1.98082 0
M  V30 3384 H 339.291 -4.20341 -3.57796 0
M  V30 3385 H 341.767 -2.27895 -3.48143 0
M  V30 3386 H 340.643 -2.62484 -4.82072 0
M  V30 3387 H 340.904 -0.963082 -4.31482 0
M  V30 3388 N 339.963 1.05934 -1.16686 0
M  V30 3389 C 341.212 1.78188 -0.945085 0
M  V30 3390 C 341.525 1.88338 0.528021 0
M  V30 3391 O 342.731 2.57258 0.867799 0
M  V30 3392 C 341.187 3.20277 -1.64167 0
M  V30 3393 C 340.795 3.18281 -3.15279 0
M  V30 3394 C 342.539 3.97039 -1.502 0
M  V30 3395 C 340.446 4.55112 -3.7766 0
M  V30 3396 H 339.376 0.667866 -0.349959 0
M  V30 3397 H 342.027 1.18794 -1.39858 0
M  V30 3398 H 340.409 3.79952 -1.11589 0
M  V30 3399 H 341.583 2.68167 -3.74731 0
M  V30 3400 H 339.898 2.55018 -3.29173 0
M  V30 3401 H 342.495 4.98194 -1.94183 0
M  V30 3402 H 342.838 4.13845 -0.451461 0
M  V30 3403 H 343.371 3.43894 -1.99954 0
M  V30 3404 H 340.11 4.43512 -4.82677 0
M  V30 3405 H 339.63 5.05406 -3.22994 0
M  V30 3406 H 341.309 5.24064 -3.79428 0
M  V30 3407 N 341.441 0.965919 1.2453 0
M  V30 3408 C 342.404 0.499547 2.2369 0
M  V30 3409 C 343.404 -0.40294 1.5567 0
M  V30 3410 O 344.594 -0.19865 1.73064 0
M  V30 3411 C 341.726 -0.276792 3.39774 0
M  V30 3412 H 342.919 1.37613 2.66463 0
M  V30 3413 H 340.472 0.750324 1.37112 0
M  V30 3414 H 341.207 -1.17055 3.02438 0
M  V30 3415 H 340.992 0.370826 3.90343 0
M  V30 3416 H 342.482 -0.592175 4.1338 0
M  V30 3417 N 342.919 -1.39368 0.735821 0
M  V30 3418 C 344.167 -2.00101 0.283562 0
M  V30 3419 C 344.488 -1.5868 -1.13338 0
M  V30 3420 O 343.758 -0.835423 -1.77193 0
M  V30 3421 H 342.338 -0.740024 0.101851 0
M  V30 3422 H 345 -1.70404 0.945962 0
M  V30 3423 H 344.096 -3.10323 0.332604 0
M  V30 3424 N 344.397 -0.483516 -1.5 0
M  V30 3425 C 345.645 0.067027 -2.01989 0
M  V30 3426 C 345.966 1.3909 -1.36671 0
M  V30 3427 O 345.236 1.88978 -0.516152 0
M  V30 3428 H 343.816 0.0277606 -0.746484 0
M  V30 3429 H 346.478 -0.636773 -1.84204 0
M  V30 3430 H 345.574 0.209484 -3.11396 0
M  V30 3431 N 345.875 1.56104 -0.216619 0
M  V30 3432 C 347.123 1.97781 0.415593 0
M  V30 3433 C 347.444 1.10536 1.60645 0
M  V30 3434 O 346.714 0.181303 1.95059 0
M  V30 3435 H 345.294 0.730415 0.156534 0
M  V30 3436 H 347.956 1.92445 -0.308366 0
M  V30 3437 H 347.052 3.03072 0.74525 0
M  V30 3438 N 347.353 -0.0568162 1.57498 0
M  V30 3439 C 348.601 -0.751617 1.87604 0
M  V30 3440 C 348.922 -1.77351 0.81066 0
M  V30 3441 O 348.192 -1.95254 -0.159018 0
M  V30 3442 H 346.772 -0.280583 0.692302 0
M  V30 3443 H 349.434 -0.0293483 1.94878 0
M  V30 3444 H 348.53 -1.25852 2.856 0
M  V30 3445 N 348.832 -1.54138 -0.328536 0
M  V30 3446 C 349.765 -1.78014 -1.4278 0
M  V30 3447 C 350.743 -0.629889 -1.49904 0
M  V30 3448 O 351.927 -0.866763 -1.6739 0
M  V30 3449 C 349.054 -1.89225 -2.80912 0
M  V30 3450 C 348.1 -3.11483 -2.91343 0
M  V30 3451 S 348.933 -4.70201 -2.56263 0
M  V30 3452 C 350.089 -4.84312 -3.96476 0
M  V30 3453 H 350.322 -2.70974 -1.22313 0
M  V30 3454 H 347.855 -1.45197 -0.525084 0
M  V30 3455 H 349.813 -1.9637 -3.60485 0
M  V30 3456 H 348.474 -0.972518 -2.98665 0
M  V30 3457 H 347.667 -3.16046 -3.92595 0
M  V30 3458 H 347.269 -3.02642 -2.19736 0
M  V30 3459 H 349.561 -4.66643 -4.91173 0
M  V30 3460 H 350.504 -5.86411 -3.96898 0
M  V30 3461 H 350.912 -4.12652 -3.85199 0
M  V30 3462 N 350.31 0.590341 -1.46126 0
M  V30 3463 C 351.556 1.35082 -1.51264 0
M  V30 3464 C 351.889 1.93534 -0.160711 0
M  V30 3465 O 351.164 1.76045 0.826956 0
M  V30 3466 C 351.447 2.48588 -2.6053 0
M  V30 3467 C 351.3 1.95221 -4.05227 0
M  V30 3468 C 352.619 3.50662 -2.6594 0
M  V30 3469 H 349.738 0.489803 -0.550692 0
M  V30 3470 H 352.38 0.663887 -1.78024 0
M  V30 3471 H 350.53 3.07186 -2.37843 0
M  V30 3472 H 352.202 1.41139 -4.39178 0
M  V30 3473 H 350.445 1.26101 -4.15068 0
M  V30 3474 H 351.116 2.77121 -4.77397 0
M  V30 3475 H 353.592 3.01934 -2.86313 0
M  V30 3476 H 352.468 4.27551 -3.44226 0
M  V30 3477 H 352.729 4.07399 -1.71694 0
M  V30 3478 N 351.788 1.33704 0.83433 0
M  V30 3479 C 353.034 1.25603 1.59222 0
M  V30 3480 C 353.367 -0.176659 1.93395 0
M  V30 3481 O 352.642 -1.11915 1.59076 0
M  V30 3482 C 352.925 2.13576 2.89926 0
M  V30 3483 C 352.778 3.65326 2.62406 0
M  V30 3484 C 354.097 2.01238 3.91397 0
M  V30 3485 H 351.216 0.457613 0.577719 0
M  V30 3486 H 353.858 1.63848 0.961972 0
M  V30 3487 H 352.008 1.8109 3.43713 0
M  V30 3488 H 353.68 4.08124 2.15017 0
M  V30 3489 H 351.923 3.8698 1.96033 0
M  V30 3490 H 352.594 4.22232 3.55562 0
M  V30 3491 H 355.07 2.29738 3.46929 0
M  V30 3492 H 353.946 2.65036 4.80673 0
M  V30 3493 H 354.207 0.985951 4.30966 0
M  V30 3494 N 353.266 -1.05314 1.17247 0
M  V30 3495 C 354.512 -1.78557 0.961513 0
M  V30 3496 C 354.845 -1.87419 -0.508697 0
M  V30 3497 O 354.12 -1.37307 -1.37757 0
M  V30 3498 C 354.403 -3.22514 1.60176 0
M  V30 3499 C 354.256 -3.21673 3.14399 0
M  V30 3500 C 355.575 -4.20318 1.30463 0
M  V30 3501 H 352.694 -0.6482 0.350723 0
M  V30 3502 H 355.336 -1.23102 1.44727 0
M  V30 3503 H 353.486 -3.69867 1.18871 0
M  V30 3504 H 355.158 -2.82405 3.64753 0
M  V30 3505 H 353.401 -2.60048 3.47214 0
M  V30 3506 H 354.072 -4.23271 3.54324 0
M  V30 3507 H 356.548 -3.81454 1.66229 0
M  V30 3508 H 355.424 -5.19289 1.77848 0
M  V30 3509 H 355.685 -4.41526 0.22521 0
M  V30 3510 N 354.744 -0.972509 -1.24016 0
M  V30 3511 C 355.654 -0.5143 -2.28893 0
M  V30 3512 C 356.67 0.427078 -1.68677 0
M  V30 3513 O 357.846 0.298939 -1.99169 0
M  V30 3514 C 354.911 0.183598 -3.46214 0
M  V30 3515 C 353.972 -0.798202 -4.21814 0
M  V30 3516 C 353.205 -0.133514 -5.33533 0
M  V30 3517 O 353.428 1.07714 -5.60137 0
M  V30 3518 O 352.362 -0.828103 -5.96176 0
M  V30 3519 H 356.188 -1.38629 -2.70214 0
M  V30 3520 H 353.773 -0.739769 -1.29799 0
M  V30 3521 H 355.655 0.575433 -4.17453 0
M  V30 3522 H 354.33 1.03048 -3.0686 0
M  V30 3523 H 353.237 -1.24059 -3.52931 0
M  V30 3524 H 354.57 -1.61364 -4.64997 0
M  V30 3525 N 356.222 1.38976 -0.743202 0
M  V30 3526 C 357.132 2.3434 -0.110399 0
M  V30 3527 C 358.148 1.58741 0.712559 0
M  V30 3528 O 359.324 1.9099 0.639125 0
M  V30 3529 C 356.389 3.37812 0.780012 0
M  V30 3530 C 355.45 4.29263 -0.0561319 0
M  V30 3531 C 354.683 5.27793 0.791875 0
M  V30 3532 O 354.906 5.33043 2.03031 0
M  V30 3533 O 353.84 6.01512 0.216183 0
M  V30 3534 H 357.666 2.90129 -0.897714 0
M  V30 3535 H 355.251 1.40643 -0.503966 0
M  V30 3536 H 357.133 4.01194 1.28923 0
M  V30 3537 H 355.808 2.84395 1.546 0
M  V30 3538 H 354.715 3.69076 -0.611056 0
M  V30 3539 H 356.048 4.85907 -0.784531 0
M  V30 3540 N 357.7 0.491464 1.49741 0
M  V30 3541 C 358.63 -0.28154 2.31796 0
M  V30 3542 C 359.611 -0.971473 1.3963 0
M  V30 3543 O 360.796 -0.964719 1.68543 0
M  V30 3544 C 357.926 -1.35203 3.19902 0
M  V30 3545 C 356.88 -0.782529 4.20786 0
M  V30 3546 C 356.206 -1.95283 4.97764 0
M  V30 3547 C 357.506 0.21999 5.21837 0
M  V30 3548 H 359.2 0.403355 2.96671 0
M  V30 3549 H 356.746 0.195425 1.42668 0
M  V30 3550 H 358.699 -1.90045 3.76113 0
M  V30 3551 H 357.423 -2.06598 2.52953 0
M  V30 3552 H 356.082 -0.255928 3.65706 0
M  V30 3553 H 355.73 -2.65423 4.2727 0
M  V30 3554 H 355.43 -1.57789 5.66018 0
M  V30 3555 H 356.954 -2.50577 5.56816 0
M  V30 3556 H 358.368 -0.23996 5.72798 0
M  V30 3557 H 356.765 0.51026 5.97927 0
M  V30 3558 H 357.835 1.13911 4.7133 0
M  V30 3559 N 359.178 -1.55987 0.224894 0
M  V30 3560 C 360.088 -2.24066 -0.69511 0
M  V30 3561 C 361.104 -1.24939 -1.21104 0
M  V30 3562 O 362.28 -1.5776 -1.25195 0
M  V30 3563 C 359.345 -2.90983 -1.88493 0
M  V30 3564 C 358.406 -4.05462 -1.41064 0
M  V30 3565 C 357.639 -4.69179 -2.54375 0
M  V30 3566 O 357.862 -4.31895 -3.72589 0
M  V30 3567 O 356.796 -5.58108 -2.25386 0
M  V30 3568 H 360.622 -3.03353 -0.145149 0
M  V30 3569 H 358.207 -1.49399 -0.00569476 0
M  V30 3570 H 360.089 -3.33209 -2.57972 0
M  V30 3571 H 358.764 -2.14653 -2.42293 0
M  V30 3572 H 357.671 -3.67798 -0.683774 0
M  V30 3573 H 359.004 -4.83545 -0.918985 0
M  V30 3574 N 360.656 0.0484629 -1.57525 0
M  V30 3575 C 361.606 1.06246 -2.01732 0
M  V30 3576 C 362.59 1.33155 -0.903245 0
M  V30 3577 O 363.782 1.33065 -1.16717 0
M  V30 3578 C 360.911 2.36943 -2.48421 0
M  V30 3579 C 359.997 2.13208 -3.6661 0
M  V30 3580 N 360.388 1.5947 -4.80003 0
M  V30 3581 C 358.686 2.43581 -3.7361 0
M  V30 3582 C 359.387 1.51092 -5.61735 0
M  V30 3583 N 358.363 1.9797 -5.0627 0
M  V30 3584 H 362.165 0.640675 -2.86832 0
M  V30 3585 H 359.679 0.255134 -1.60383 0
M  V30 3586 H 361.676 3.10374 -2.78341 0
M  V30 3587 H 360.336 2.79818 -1.64718 0
M  V30 3588 H 361.347 1.28008 -5.01831 0
M  V30 3589 H 358.024 2.89662 -3.00669 0
M  V30 3590 H 359.414 1.10199 -6.62801 0
M  V30 3591 N 362.134 1.5431 0.320358 0
M  V30 3592 C 363.097 1.83195 1.3774 0
M  V30 3593 C 364.097 0.703906 1.44575 0
M  V30 3594 O 365.287 0.972214 1.44546 0
M  V30 3595 C 362.419 1.99487 2.76438 0
M  V30 3596 H 363.612 2.77642 1.1338 0
M  V30 3597 H 361.165 1.46076 0.556012 0
M  V30 3598 H 361.9 1.07262 3.06048 0
M  V30 3599 H 361.685 2.81575 2.7287 0
M  V30 3600 H 363.175 2.23271 3.52902 0
M  V30 3601 N 363.613 -0.582584 1.46437 0
M  V30 3602 C 364.543 -1.70187 1.59871 0
M  V30 3603 C 365.524 -1.64066 0.449042 0
M  V30 3604 O 366.709 -1.82081 0.6753 0
M  V30 3605 C 363.839 -3.08827 1.58881 0
M  V30 3606 C 362.793 -3.29779 2.72819 0
M  V30 3607 C 362.119 -4.68947 2.5689 0
M  V30 3608 C 363.419 -3.17601 4.1464 0
M  V30 3609 H 365.113 -1.592 2.53566 0
M  V30 3610 H 362.659 -0.764472 1.22032 0
M  V30 3611 H 364.612 -3.86951 1.66873 0
M  V30 3612 H 363.336 -3.20713 0.617306 0
M  V30 3613 H 361.995 -2.54054 2.64296 0
M  V30 3614 H 361.643 -4.77599 1.57823 0
M  V30 3615 H 361.343 -4.83919 3.33312 0
M  V30 3616 H 362.867 -5.4924 2.66773 0
M  V30 3617 H 364.281 -3.8557 4.24274 0
M  V30 3618 H 362.678 -3.44094 4.9165 0
M  V30 3619 H 363.748 -2.14681 4.34788 0
M  V30 3620 N 365.091 -1.34144 -0.827227 0
M  V30 3621 C 366.054 -1.25264 -1.91942 0
M  V30 3622 C 367.054 -0.168866 -1.59911 0
M  V30 3623 O 368.244 -0.421198 -1.69031 0
M  V30 3624 C 365.376 -0.932952 -3.27885 0
M  V30 3625 H 366.569 -2.22357 -2.0124 0
M  V30 3626 H 364.122 -1.1837 -1.0207 0
M  V30 3627 H 364.857 0.0349917 -3.24281 0
M  V30 3628 H 364.642 -1.71682 -3.52516 0
M  V30 3629 H 366.132 -0.895874 -4.07877 0
M  V30 3630 N 366.569 1.04691 -1.17803 0
M  V30 3631 C 367.985 1.29963 -0.926379 0
M  V30 3632 C 368.185 1.97251 0.411635 0
M  V30 3633 O 367.241 2.24922 1.14744 0
M  V30 3634 C 368.554 2.16447 -2.08737 0
M  V30 3635 C 370.102 2.29814 -2.12496 0
M  V30 3636 C 370.577 3.19661 -3.27995 0
M  V30 3637 N 372.068 3.27247 -3.27816 0
M  V30 3638 C 372.803 3.96906 -4.13827 0
M  V30 3639 N 372.299 4.6895 -5.09959 0
M  V30 3640 N 374.092 3.93122 -4.01761 0
M  V30 3641 H 366.243 0.594182 -2.0392 0
M  V30 3642 H 368.506 0.324649 -0.890678 0
M  V30 3643 H 368.212 1.74304 -3.05469 0
M  V30 3644 H 368.086 3.17103 -2.04268 0
M  V30 3645 H 370.473 2.71196 -1.16347 0
M  V30 3646 H 370.554 1.2877 -2.21025 0
M  V30 3647 H 370.198 2.78991 -4.24413 0
M  V30 3648 H 370.128 4.20722 -3.16703 0
M  V30 3649 H 372.619 2.75921 -2.58217 0
M  V30 3650 H 372.932 5.19679 -5.71974 0
M  V30 3651 H 371.277 4.67875 -5.13924 0
M  V30 3652 H 374.468 3.35967 -3.2595 0
M  V30 3653 H 374.641 4.47139 -4.6901 0
M  V30 3654 N 368.047 0.979072 1.23499 0
M  V30 3655 C 369.295 0.645941 1.91499 0
M  V30 3656 C 369.616 -0.822948 1.76784 0
M  V30 3657 O 368.886 -1.58854 1.14639 0
M  V30 3658 H 367.466 0.235919 0.708767 0
M  V30 3659 H 370.128 1.2426 1.50152 0
M  V30 3660 H 369.224 0.896411 2.9895 0
M  V30 3661 N 369.525 -1.3858 0.750561 0
M  V30 3662 C 370.488 -2.28836 0.129152 0
M  V30 3663 C 371.488 -1.47045 -0.650714 0
M  V30 3664 O 372.678 -1.6753 -0.477428 0
M  V30 3665 C 369.81 -3.30751 -0.825622 0
M  V30 3666 H 371.003 -2.85294 0.924516 0
M  V30 3667 H 368.556 -1.47489 0.517376 0
M  V30 3668 H 369.291 -2.79378 -1.64677 0
M  V30 3669 H 369.076 -3.91177 -0.268852 0
M  V30 3670 H 370.566 -3.98249 -1.2565 0
M  V30 3671 N 371.003 -0.499398 -1.49478 0
M  V30 3672 C 371.953 0.299103 -2.2603 0
M  V30 3673 C 372.937 0.936934 -1.30807 0
M  V30 3674 O 374.129 0.844798 -1.55538 0
M  V30 3675 C 371.258 1.36391 -3.15044 0
M  V30 3676 C 370.344 0.732398 -4.17728 0
M  V30 3677 N 370.735 -0.164028 -5.05534 0
M  V30 3678 C 369.033 0.993162 -4.34801 0
M  V30 3679 C 369.734 -0.525345 -5.79323 0
M  V30 3680 N 368.71 0.106348 -5.43496 0
M  V30 3681 H 372.512 -0.391003 -2.91287 0
M  V30 3682 H 370.026 -0.31537 -1.59308 0
M  V30 3683 H 372.023 1.94939 -3.68516 0
M  V30 3684 H 370.683 2.05571 -2.51338 0
M  V30 3685 H 371.694 -0.534736 -5.15132 0
M  V30 3686 H 368.371 1.67783 -3.82302 0
M  V30 3687 H 369.761 -1.25862 -6.60006 0
M  V30 3688 N 372.481 1.55866 -0.233164 0
M  V30 3689 C 373.73 1.97779 0.39579 0
M  V30 3690 C 374.043 1.12419 1.60066 0
M  V30 3691 O 375.249 1.44283 2.29988 0
M  V30 3692 C 373.705 3.5188 0.755556 0
M  V30 3693 C 373.313 4.45959 -0.427152 0
M  V30 3694 C 375.057 4.02479 1.34946 0
M  V30 3695 C 372.964 5.91383 -0.0443043 0
M  V30 3696 H 371.894 0.738592 0.15165 0
M  V30 3697 H 374.545 1.80486 -0.331212 0
M  V30 3698 H 372.927 3.64816 1.5403 0
M  V30 3699 H 374.101 4.44776 -1.20462 0
M  V30 3700 H 372.416 4.05765 -0.935068 0
M  V30 3701 H 375.013 5.08637 1.649 0
M  V30 3702 H 375.356 3.49014 2.26925 0
M  V30 3703 H 375.889 3.92813 0.62791 0
M  V30 3704 H 372.628 6.48857 -0.930874 0
M  V30 3705 H 372.148 5.95734 0.697238 0
M  V30 3706 H 373.827 6.45893 0.378334 0
M  V30 3707 N 373.959 -0.0401083 1.57549 0
M  V30 3708 C 375.189 -0.744115 1.92734 0
M  V30 3709 C 375.597 -1.70005 0.830348 0
M  V30 3710 O 374.94 -1.82576 -0.20286 0
M  V30 3711 C 375.002 -1.56516 3.2364 0
M  V30 3712 C 374.666 -0.7752 4.50377 0
M  V30 3713 C 375.663 -0.0803326 5.19838 0
M  V30 3714 C 373.348 -0.733002 4.96923 0
M  V30 3715 C 375.342 0.646154 6.34116 0
M  V30 3716 C 373.029 -0.00276321 6.111 0
M  V30 3717 C 374.027 0.685585 6.7955 0
M  V30 3718 O 373.715 1.40399 7.91545 0
M  V30 3719 H 373.447 -0.214861 0.640945 0
M  V30 3720 H 376.001 -0.00503675 2.05399 0
M  V30 3721 H 374.231 -2.3478 3.07271 0
M  V30 3722 H 375.92 -2.15076 3.44234 0
M  V30 3723 H 376.686 -0.104035 4.84888 0
M  V30 3724 H 372.565 -1.25827 4.43496 0
M  V30 3725 H 376.109 1.18398 6.87479 0
M  V30 3726 H 372.006 0.0229012 6.45496 0
M  V30 3727 H 372.774 1.31653 8.07843 0
M  V30 3728 N 375.437 -1.54477 -0.31217 0
M  V30 3729 C 376.4 -1.83923 -1.36766 0
M  V30 3730 C 377.4 -0.711563 -1.44199 0
M  V30 3731 O 378.59 -0.979866 -1.44029 0
M  V30 3732 C 375.722 -2.0095 -2.75376 0
M  V30 3733 H 376.915 -2.78239 -1.11906 0
M  V30 3734 H 374.468 -1.46369 -0.548257 0
M  V30 3735 H 375.203 -1.08883 -3.05475 0
M  V30 3736 H 374.988 -2.83018 -2.71373 0
M  V30 3737 H 376.478 -2.2514 -3.51713 0
M  V30 3738 N 376.915 0.57481 -1.46744 0
M  V30 3739 C 377.825 1.711 -1.60505 0
M  V30 3740 C 378.841 1.67008 -0.488307 0
M  V30 3741 O 380.017 1.86774 -0.753495 0
M  V30 3742 C 377.082 3.07608 -1.59932 0
M  V30 3743 C 376.143 3.22904 -2.82898 0
M  V30 3744 C 375.376 4.529 -2.82343 0
M  V30 3745 O 375.599 5.37278 -1.91542 0
M  V30 3746 O 374.533 4.71611 -3.73987 0
M  V30 3747 H 378.359 1.62436 -2.56609 0
M  V30 3748 H 375.944 0.742779 -1.29627 0
M  V30 3749 H 377.826 3.88877 -1.62336 0
M  V30 3750 H 376.501 3.16692 -0.669898 0
M  V30 3751 H 375.408 2.41099 -2.86046 0
M  V30 3752 H 376.741 3.18715 -3.75076 0
M  V30 3753 N 378.394 1.34581 0.820102 0
M  V30 3754 C 379.643 1.26437 1.57151 0
M  V30 3755 C 379.956 -0.163111 1.94919 0
M  V30 3756 O 381.162 -0.366722 2.69012 0
M  V30 3757 C 379.618 2.21658 2.83541 0
M  V30 3758 C 379.226 3.69679 2.53065 0
M  V30 3759 C 380.97 2.22428 3.61561 0
M  V30 3760 C 378.877 4.56761 3.75664 0
M  V30 3761 H 377.807 0.469707 0.589823 0
M  V30 3762 H 380.458 1.59763 0.902656 0
M  V30 3763 H 378.84 1.81287 3.52067 0
M  V30 3764 H 380.014 4.18605 1.92631 0
M  V30 3765 H 378.329 3.71384 1.88316 0
M  V30 3766 H 380.926 2.8471 4.52597 0
M  V30 3767 H 381.269 1.22434 3.97889 0
M  V30 3768 H 381.802 2.61259 2.99981 0
M  V30 3769 H 378.541 5.57702 3.44454 0
M  V30 3770 H 378.061 4.12568 4.35371 0
M  V30 3771 H 379.74 4.71509 4.43044 0
M  V30 3772 N 379.872 -1.04064 1.18357 0
M  V30 3773 C 381.118 -1.77528 0.980397 0
M  V30 3774 C 381.451 -1.87948 -0.48879 0
M  V30 3775 O 380.726 -1.3876 -1.36293 0
M  V30 3776 C 381.009 -3.20797 1.63588 0
M  V30 3777 C 380.862 -3.1832 3.17793 0
M  V30 3778 C 382.181 -4.18911 1.34914 0
M  V30 3779 H 379.3 -0.644443 0.357578 0
M  V30 3780 H 381.942 -1.2156 1.46024 0
M  V30 3781 H 380.092 -3.68586 1.22788 0
M  V30 3782 H 381.764 -2.78521 3.67728 0
M  V30 3783 H 380.007 -2.56351 3.49952 0
M  V30 3784 H 380.678 -4.19489 3.58794 0
M  V30 3785 H 383.154 -3.7967 1.70265 0
M  V30 3786 H 382.03 -5.17374 1.83346 0
M  V30 3787 H 382.291 -4.41262 0.272027 0
M  V30 3788 N 381.35 -0.985608 -1.22978 0
M  V30 3789 C 382.598 -0.656087 -1.91154 0
M  V30 3790 C 382.919 0.813561 -1.77218 0
M  V30 3791 O 382.189 1.58244 -1.1548 0
M  V30 3792 H 380.769 -0.239674 -0.707506 0
M  V30 3793 H 383.431 -1.25054 -1.49491 0
M  V30 3794 H 382.527 -0.912253 -2.9847 0
M  V30 3795 N 382.828 1.3818 -0.7579 0
M  V30 3796 C 384.058 2.04004 -0.326463 0
M  V30 3797 C 384.466 1.57286 1.05156 0
M  V30 3798 O 383.809 0.743144 1.67997 0
M  V30 3799 C 383.871 3.58444 -0.275402 0
M  V30 3800 C 383.535 4.28237 -1.59569 0
M  V30 3801 C 384.532 4.53312 -2.54566 0
M  V30 3802 C 382.217 4.66341 -1.86631 0
M  V30 3803 C 384.211 5.15531 -3.74842 0
M  V30 3804 C 381.898 5.28283 -3.0718 0
M  V30 3805 C 382.896 5.52814 -4.01106 0
M  V30 3806 O 382.584 6.13465 -5.19534 0
M  V30 3807 H 382.316 0.662026 -0.136739 0
M  V30 3808 H 384.87 1.7777 -1.02893 0
M  V30 3809 H 383.1 3.83667 0.483337 0
M  V30 3810 H 384.789 4.05701 0.127099 0
M  V30 3811 H 385.555 4.24299 -2.34936 0
M  V30 3812 H 381.434 4.46591 -1.14358 0
M  V30 3813 H 384.978 5.34594 -4.48168 0
M  V30 3814 H 380.875 5.56719 -3.26702 0
M  V30 3815 H 381.643 6.31951 -5.20173 0
M  V30 3816 N 384.306 0.507319 1.49211 0
M  V30 3817 C 385.554 -0.0348839 2.0207 0
M  V30 3818 C 385.875 -1.36898 1.38866 0
M  V30 3819 O 385.145 -1.88133 0.546151 0
M  V30 3820 H 383.725 -0.0158812 0.746831 0
M  V30 3821 H 386.387 0.665998 1.83168 0
M  V30 3822 H 385.483 -0.159917 3.1169 0
M  V30 3823 N 385.784 -1.5574 0.241426 0
M  V30 3824 C 386.747 -2.19877 -0.647063 0
M  V30 3825 C 387.747 -1.16642 -1.10686 0
M  V30 3826 O 388.937 -1.41757 -1.01245 0
M  V30 3827 C 386.069 -2.83797 -1.88871 0
M  V30 3828 H 387.262 -2.99772 -0.087574 0
M  V30 3829 H 384.815 -1.56298 -0.00813574 0
M  V30 3830 H 385.55 -2.07824 -2.48957 0
M  V30 3831 H 385.335 -3.59414 -1.56728 0
M  V30 3832 H 386.825 -3.32898 -2.52129 0
M  V30 3833 N 387.262 0.0317525 -1.57568 0
M  V30 3834 C 388.49 0.734949 -1.93407 0
M  V30 3835 C 388.905 1.69036 -0.84096 0
M  V30 3836 O 388.262 1.81582 0.182836 0
M  V30 3837 C 388.313 1.49432 -3.29169 0
M  V30 3838 O 388.034 0.577261 -4.3428 0
M  V30 3839 C 389.535 2.29492 -3.79273 0
M  V30 3840 H 386.755 0.206706 -0.638368 0
M  V30 3841 H 389.299 -0.00992046 -2.04498 0
M  V30 3842 H 387.454 2.1911 -3.19483 0
M  V30 3843 H 387.868 1.10952 -5.1263 0
M  V30 3844 H 389.342 2.78172 -4.76785 0
M  V30 3845 H 389.819 3.10794 -3.10328 0
M  V30 3846 H 390.425 1.64894 -3.92033 0
M  V30 3847 N 388.74 1.54641 0.303973 0
M  V30 3848 C 389.965 1.78092 1.06292 0
M  V30 3849 C 390.39 0.537342 1.80262 0
M  V30 3850 O 389.748 -0.511993 1.7392 0
M  V30 3851 C 389.796 2.98612 2.02147 0
M  V30 3852 O 388.9 2.71528 3.10397 0
M  V30 3853 H 388.241 0.589548 0.305497 0
M  V30 3854 H 390.771 2.01716 0.3423 0
M  V30 3855 H 390.781 3.265 2.44667 0
M  V30 3856 H 389.456 3.88785 1.47714 0
M  V30 3857 H 388.033 2.54648 2.72413 0
M  V30 3858 N 390.218 -0.567019 1.47046 0
M  V30 3859 C 391.495 -1.3276 1.43646 0
M  V30 3860 C 391.875 -2.1071 0.128186 0
M  V30 3861 O 391.223 -2.10441 -0.890326 0
M  V30 3862 C 391.433 -2.2404 2.67595 0
M  V30 3863 C 392.781 -2.85372 3.14401 0
M  V30 3864 O 393.805 -2.34346 2.68254 0
M  V30 3865 O 392.664 -3.78091 3.946 0
M  V30 3866 H 389.758 -0.597293 0.571988 0
M  V30 3867 H 392.304 -0.586735 1.59234 0
M  V30 3868 H 391.076 -1.65975 3.54356 0
M  V30 3869 H 390.699 -3.05439 2.54544 0
M  V30 3870 N 391.696 -1.35014 -0.812953 0
M  V30 3871 C 392.944 -1.27678 -1.56661 0
M  V30 3872 C 393.265 0.150359 -1.94419 0
M  V30 3873 O 392.535 1.08532 -1.63088 0
M  V30 3874 H 391.115 -0.469602 -0.580933 0
M  V30 3875 H 393.777 -1.69043 -0.970076 0
M  V30 3876 H 392.873 -1.88833 -2.48492 0
M  V30 3877 N 393.175 1.03435 -1.18907 0
M  V30 3878 C 394.138 2.09756 -0.923844 0
M  V30 3879 C 395.138 1.60528 0.093416 0
M  V30 3880 O 396.328 1.73631 -0.140727 0
M  V30 3881 C 393.46 3.38692 -0.387354 0
M  V30 3882 H 394.653 2.34719 -1.86674 0
M  V30 3883 H 392.206 1.19959 -1.00197 0
M  V30 3884 H 392.941 3.19396 0.561845 0
M  V30 3885 H 392.726 3.75742 -1.12074 0
M  V30 3886 H 394.216 4.17016 -0.220694 0
M  V30 3887 N 394.653 0.992116 1.22453 0
M  V30 3888 C 395.93 0.583508 1.86694 0
M  V30 3889 C 396.31 -0.9392 1.89056 0
M  V30 3890 O 395.658 -1.82081 1.38053 0
M  V30 3891 C 395.868 1.20304 3.2761 0
M  V30 3892 C 397.216 1.30308 4.0411 0
M  V30 3893 O 398.24 1.15737 3.36873 0
M  V30 3894 O 397.099 1.53615 5.24466 0
M  V30 3895 H 394.193 0.198129 0.802916 0
M  V30 3896 H 396.739 1.08794 1.30238 0
M  V30 3897 H 395.511 2.24461 3.2052 0
M  V30 3898 H 395.134 0.684144 3.9167 0
M  V30 3899 N 396.131 -1.37776 0.765217 0
M  V30 3900 C 397.064 -2.28008 0.0935025 0
M  V30 3901 C 398.042 -1.45985 -0.716047 0
M  V30 3902 O 399.226 -1.75331 -0.692203 0
M  V30 3903 C 396.353 -3.27228 -0.874052 0
M  V30 3904 C 395.399 -4.26239 -0.149307 0
M  V30 3905 S 396.232 -5.22827 1.15809 0
M  V30 3906 C 397.388 -6.256 0.193906 0
M  V30 3907 H 397.621 -2.84631 0.858637 0
M  V30 3908 H 395.154 -1.43952 0.558313 0
M  V30 3909 H 397.112 -3.84902 -1.42691 0
M  V30 3910 H 395.773 -2.69565 -1.61225 0
M  V30 3911 H 394.966 -4.96213 -0.88254 0
M  V30 3912 H 394.568 -3.7252 0.332366 0
M  V30 3913 H 396.86 -6.74508 -0.636011 0
M  V30 3914 H 397.803 -7.02838 0.861638 0
M  V30 3915 H 398.211 -5.64173 -0.191975 0
M  V30 3916 N 397.609 -0.515225 -1.4894 0
M  V30 3917 C 398.855 0.0242508 -2.02785 0
M  V30 3918 C 399.188 1.35323 -1.39289 0
M  V30 3919 O 398.463 1.87041 -0.533469 0
M  V30 3920 C 398.746 0.16184 -3.59736 0
M  V30 3921 C 398.599 -1.19127 -4.33738 0
M  V30 3922 C 399.918 0.895719 -4.30888 0
M  V30 3923 H 397.037 0.00733914 -0.736963 0
M  V30 3924 H 399.679 -0.669395 -1.77818 0
M  V30 3925 H 397.829 0.752624 -3.8114 0
M  V30 3926 H 399.501 -1.82202 -4.23792 0
M  V30 3927 H 397.744 -1.77695 -3.95736 0
M  V30 3928 H 398.415 -1.04815 -5.41957 0
M  V30 3929 H 400.891 0.394528 -4.14225 0
M  V30 3930 H 399.767 0.960859 -5.40425 0
M  V30 3931 H 400.028 1.9427 -3.97129 0
M  V30 3932 N 399.087 1.5561 -0.249682 0
M  V30 3933 C 400.05 2.20217 0.635394 0
M  V30 3934 C 401.05 1.17227 1.10066 0
M  V30 3935 O 402.24 1.42292 1.00492 0
M  V30 3936 C 399.372 2.84794 1.87363 0
M  V30 3937 H 400.565 2.99814 0.0716752 0
M  V30 3938 H 398.118 1.563 -0.000153234 0
M  V30 3939 H 398.853 2.09142 2.47851 0
M  V30 3940 H 398.638 3.60241 1.5482 0
M  V30 3941 H 400.128 3.3423 2.5036 0
M  V30 3942 N 400.565 -0.0233959 1.57583 0
M  V30 3943 C 401.976 -0.56927 1.77809 0
M  V30 3944 C 402.327 -1.75284 0.881472 0
M  V30 3945 O 401.452 -2.1626 0.0777805 0
M  V30 3946 C 402.047 -1.03949 3.22459 0
M  V30 3947 C 400.606 -1.53084 3.43864 0
M  V30 3948 C 399.753 -0.471454 2.73263 0
M  V30 3949 H 402.704 0.202825 1.57399 0
M  V30 3950 H 402.725 -1.90661 3.29285 0
M  V30 3951 H 402.237 -0.177865 3.87692 0
M  V30 3952 H 400.338 -2.41414 2.83814 0
M  V30 3953 H 400.451 -1.57443 4.52491 0
M  V30 3954 H 398.815 -0.927788 2.37201 0
M  V30 3955 H 399.598 0.380808 3.41181 0
M  V30 3956 N 402.043 -1.548 -0.295768 0
M  V30 3957 C 403.268 -1.78653 -1.05346 0
M  V30 3958 C 403.693 -0.546894 -1.79974 0
M  V30 3959 O 403.051 0.502763 -1.7419 0
M  V30 3960 C 403.099 -2.99679 -2.00561 0
M  V30 3961 O 402.203 -2.7317 -3.08953 0
M  V30 3962 H 401.544 -0.59116 -0.302367 0
M  V30 3963 H 404.074 -2.01895 -0.331598 0
M  V30 3964 H 404.084 -3.27793 -2.42932 0
M  V30 3965 H 402.759 -3.89562 -1.4565 0
M  V30 3966 H 401.336 -2.56089 -2.71059 0
M  V30 3967 N 403.521 0.559213 -1.47345 0
M  V30 3968 C 404.769 1.31388 -1.53563 0
M  V30 3969 C 405.09 1.93985 -0.198678 0
M  V30 3970 O 404.36 1.79825 0.777167 0
M  V30 3971 H 402.94 0.487901 -0.565652 0
M  V30 3972 H 405.602 0.65315 -1.8363 0
M  V30 3973 H 404.698 2.10844 -2.30111 0
M  V30 3974 N 404.999 1.35443 0.805782 0
M  V30 3975 C 405.909 1.30546 1.94923 0
M  V30 3976 C 406.925 0.210233 1.72725 0
M  V30 3977 O 408.101 0.43975 1.9654 0
M  V30 3978 C 405.166 1.07782 3.29521 0
M  V30 3979 C 404.227 2.26625 3.64609 0
M  V30 3980 C 403.46 2.04938 4.92784 0
M  V30 3981 O 403.683 1.01624 5.61274 0
M  V30 3982 O 402.617 2.9232 5.26149 0
M  V30 3983 H 406.443 2.26779 2.02002 0
M  V30 3984 H 404.028 1.15823 0.943682 0
M  V30 3985 H 405.91 0.969392 4.10098 0
M  V30 3986 H 404.585 0.146003 3.23371 0
M  V30 3987 H 403.492 2.43033 2.84404 0
M  V30 3988 H 404.825 3.18257 3.75464 0
M  V30 3989 N 406.477 -1.02803 1.19454 0
M  V30 3990 C 407.725 -1.75869 0.995722 0
M  V30 3991 C 408.046 -1.89138 -0.474543 0
M  V30 3992 O 407.316 -1.42558 -1.34366 0
M  V30 3993 H 405.896 -0.651511 0.365435 0
M  V30 3994 H 408.558 -1.24004 1.50363 0
M  V30 3995 H 407.654 -2.76661 1.44447 0
M  V30 3996 N 407.956 -0.998596 -1.21925 0
M  V30 3997 C 408.919 -0.558679 -2.22287 0
M  V30 3998 C 409.919 0.361525 -1.56683 0
M  V30 3999 O 411.109 0.152695 -1.73529 0
M  V30 4000 C 408.241 0.18661 -3.40389 0
M  V30 4001 H 409.434 -1.4463 -2.62721 0
M  V30 4002 H 406.987 -0.786413 -1.35075 0
M  V30 4003 H 407.722 1.08996 -3.05435 0
M  V30 4004 H 407.507 -0.474188 -3.89222 0
M  V30 4005 H 408.997 0.482367 -4.14805 0
M  V30 4006 N 409.434 1.37368 -0.772513 0
M  V30 4007 C 410.68 1.99969 -0.337681 0
M  V30 4008 C 411.013 1.61184 1.08321 0
M  V30 4009 O 410.288 0.858395 1.74533 0
M  V30 4010 C 410.571 3.56858 -0.482121 0
M  V30 4011 C 410.424 4.0555 -1.94549 0
M  V30 4012 C 411.743 4.39955 0.113143 0
M  V30 4013 H 408.862 0.726464 -0.124171 0
M  V30 4014 H 411.504 1.63034 -0.975699 0
M  V30 4015 H 409.654 3.88452 0.0610361 0
M  V30 4016 H 411.326 3.84518 -2.54841 0
M  V30 4017 H 409.569 3.57715 -2.45403 0
M  V30 4018 H 410.24 5.14587 -1.9976 0
M  V30 4019 H 412.716 4.14623 -0.35031 0
M  V30 4020 H 411.592 5.48897 -0.0180514 0
M  V30 4021 H 411.853 4.25403 1.20354 0
M  V30 4022 N 410.912 0.523116 1.48665 0
M  V30 4023 C 412.328 0.180511 1.58576 0
M  V30 4024 C 412.528 -1.31597 1.52592 0
M  V30 4025 O 411.584 -2.0937 1.4114 0
M  V30 4026 C 412.897 0.776949 2.90489 0
M  V30 4027 C 414.445 0.745058 3.04003 0
M  V30 4028 C 414.92 1.31995 4.38567 0
M  V30 4029 N 416.411 1.28162 4.45117 0
M  V30 4030 C 417.146 1.6964 5.47731 0
M  V30 4031 N 416.642 2.18816 6.57337 0
M  V30 4032 N 418.435 1.6092 5.38573 0
M  V30 4033 H 410.586 1.4958 1.50797 0
M  V30 4034 H 412.849 0.621772 0.715614 0
M  V30 4035 H 412.555 1.82732 3.00503 0
M  V30 4036 H 412.429 0.25007 3.7637 0
M  V30 4037 H 414.816 -0.296532 2.93606 0
M  V30 4038 H 414.897 1.30933 2.1975 0
M  V30 4039 H 414.541 2.36043 4.49718 0
M  V30 4040 H 414.471 0.731418 5.21496 0
M  V30 4041 H 416.962 0.92155 3.66491 0
M  V30 4042 H 417.275 2.48478 7.31764 0
M  V30 4043 H 415.62 2.22805 6.58318 0
M  V30 4044 H 418.811 1.22304 4.5184 0
M  V30 4045 H 418.984 1.93567 6.18414 0
M  V30 4046 N 412.39 -1.55475 0.257931 0
M  V30 4047 C 413.63 -2.01112 -0.365129 0
M  V30 4048 C 413.994 -1.1423 -1.54323 0
M  V30 4049 O 415.195 -1.49371 -2.23477 0
M  V30 4050 C 413.466 -3.49353 -0.754117 0
M  V30 4051 S 415.025 -4.16992 -1.36614 0
M  V30 4052 H 411.843 -0.701737 -0.114397 0
M  V30 4053 H 414.445 -1.91855 0.375747 0
M  V30 4054 H 413.149 -4.10246 0.112441 0
M  V30 4055 H 412.68 -3.6256 -1.52689 0
M  V30 4056 H 414.695 -4.19191 -2.65505 0
M  V30 4057 N 413.868 0.0150385 -1.57593 0
M  V30 4058 C 414.801 1.04475 -2.0288 0
M  V30 4059 C 415.779 1.3436 -0.915764 0
M  V30 4060 O 416.963 1.46779 -1.18271 0
M  V30 4061 C 414.09 2.37608 -2.41371 0
M  V30 4062 C 413.136 2.23487 -3.63257 0
M  V30 4063 S 413.969 1.57505 -5.11813 0
M  V30 4064 C 415.125 2.921 -5.5356 0
M  V30 4065 H 415.358 0.65907 -2.89903 0
M  V30 4066 H 412.891 0.225452 -1.52745 0
M  V30 4067 H 414.849 3.14165 -2.64217 0
M  V30 4068 H 413.51 2.7332 -1.54775 0
M  V30 4069 H 412.703 3.21802 -3.87891 0
M  V30 4070 H 412.305 1.55074 -3.40335 0
M  V30 4071 H 414.597 3.88419 -5.55101 0
M  V30 4072 H 415.54 2.72184 -6.53698 0
M  V30 4073 H 415.948 2.95318 -4.8109 0
M  V30 4074 N 415.346 1.54954 0.287554 0
M  V30 4075 C 416.293 1.86834 1.35505 0
M  V30 4076 C 417.263 0.718452 1.49758 0
M  V30 4077 O 418.448 0.968358 1.644 0
M  V30 4078 C 415.588 2.13303 2.71286 0
M  V30 4079 C 414.701 3.40883 2.65373 0
M  V30 4080 C 413.836 3.57125 3.93236 0
M  V30 4081 C 412.875 4.78449 3.81776 0
M  V30 4082 N 412.012 4.91426 5.01443 0
M  V30 4083 H 416.852 2.77889 1.07619 0
M  V30 4084 H 414.389 1.37593 0.520241 0
M  V30 4085 H 416.347 2.26646 3.50267 0
M  V30 4086 H 414.977 1.25499 2.97405 0
M  V30 4087 H 414.029 3.36088 1.78182 0
M  V30 4088 H 415.341 4.29993 2.52799 0
M  V30 4089 H 414.495 3.70207 4.80658 0
M  V30 4090 H 413.234 2.66173 4.0866 0
M  V30 4091 H 412.239 4.65386 2.92738 0
M  V30 4092 H 413.464 5.70822 3.67884 0
M  V30 4093 H 411.41 4.03401 5.17304 0
M  V30 4094 H 411.327 5.74559 4.91343 0
M  V30 4095 H 412.595 5.08879 5.90477 0
M  V30 4096 N 416.824 -0.551391 1.4764 0
M  V30 4097 C 417.757 -1.6738 1.5511 0
M  V30 4098 C 418.735 -1.5753 0.402856 0
M  V30 4099 O 419.919 -1.78307 0.611475 0
M  V30 4100 C 417.046 -3.05661 1.45908 0
M  V30 4101 C 416.092 -3.33938 2.65307 0
M  V30 4102 S 416.925 -3.22553 4.27457 0
M  V30 4103 C 418.081 -4.63317 4.20818 0
M  V30 4104 H 418.314 -1.6079 2.50068 0
M  V30 4105 H 415.847 -0.732674 1.35909 0
M  V30 4106 H 417.805 -3.8542 1.41286 0
M  V30 4107 H 416.466 -3.09711 0.523248 0
M  V30 4108 H 415.659 -4.34761 2.54948 0
M  V30 4109 H 415.261 -2.61809 2.67081 0
M  V30 4110 H 417.553 -5.54391 3.89431 0
M  V30 4111 H 418.496 -4.78732 5.21748 0
M  V30 4112 H 418.904 -4.41636 3.51593 0
M  V30 4113 N 418.302 -1.35869 -0.798587 0
M  V30 4114 C 419.265 -1.29307 -1.89242 0
M  V30 4115 C 420.265 -0.202747 -1.59517 0
M  V30 4116 O 421.455 -0.456957 -1.681 0
M  V30 4117 C 418.587 -1.00229 -3.25833 0
M  V30 4118 H 419.78 -2.26576 -1.96478 0
M  V30 4119 H 417.333 -1.20509 -0.995358 0
M  V30 4120 H 418.068 -0.033801 -3.24282 0
M  V30 4121 H 417.853 -1.79121 -3.48795 0
M  V30 4122 H 419.343 -0.98219 -4.05885 0
M  V30 4123 N 419.78 1.02168 -1.19998 0
M  V30 4124 C 420.713 2.10232 -0.887558 0
M  V30 4125 C 421.691 1.61827 0.158317 0
M  V30 4126 O 422.875 1.88471 0.0330249 0
M  V30 4127 C 420.002 3.37092 -0.32964 0
M  V30 4128 C 419.048 4.0438 -1.3557 0
M  V30 4129 S 419.881 4.48956 -2.91888 0
M  V30 4130 C 421.037 5.79024 -2.37658 0
M  V30 4131 H 421.27 2.36409 -1.80272 0
M  V30 4132 H 418.803 1.15211 -1.0279 0
M  V30 4133 H 420.761 4.10498 -0.0142824 0
M  V30 4134 H 419.422 3.08996 0.563941 0
M  V30 4135 H 418.615 4.95632 -0.9146 0
M  V30 4136 H 418.217 3.37176 -1.61828 0
M  V30 4137 H 420.509 6.53942 -1.77103 0
M  V30 4138 H 421.452 6.27924 -3.27287 0
M  V30 4139 H 421.86 5.35043 -1.79971 0
M  V30 4140 N 421.258 1.00505 1.21394 0
M  V30 4141 C 422.208 0.536503 2.21598 0
M  V30 4142 C 423.192 -0.401914 1.55799 0
M  V30 4143 O 424.384 -0.226757 1.75541 0
M  V30 4144 C 421.513 -0.135446 3.43033 0
M  V30 4145 C 420.599 0.823992 4.16018 0
M  V30 4146 N 420.99 1.97683 4.6557 0
M  V30 4147 C 419.288 0.642387 4.4135 0
M  V30 4148 C 419.989 2.58003 5.21354 0
M  V30 4149 N 418.965 1.86162 5.1073 0
M  V30 4150 H 422.767 1.41557 2.57563 0
M  V30 4151 H 420.281 0.868878 1.37202 0
M  V30 4152 H 422.278 -0.488584 4.14027 0
M  V30 4153 H 420.938 -1.01049 3.08576 0
M  V30 4154 H 421.949 2.3572 4.61147 0
M  V30 4155 H 418.626 -0.185578 4.17087 0
M  V30 4156 H 420.016 3.555 5.70149 0
M  V30 4157 N 422.737 -1.36956 0.779787 0
M  V30 4158 C 423.985 -1.99097 0.347079 0
M  V30 4159 C 424.306 -1.62206 -1.08232 0
M  V30 4160 O 423.576 -0.891373 -1.74446 0
M  V30 4161 H 422.156 -0.736409 0.125342 0
M  V30 4162 H 424.818 -1.67308 0.999696 0
M  V30 4163 H 423.914 -3.09107 0.431162 0
M  V30 4164 N 424.215 -0.530993 -1.48385 0
M  V30 4165 C 425.461 0.00274135 -2.028 0
M  V30 4166 C 425.794 1.33838 -1.40716 0
M  V30 4167 O 425.069 1.86465 -0.553277 0
M  V30 4168 C 425.352 0.123676 -3.59888 0
M  V30 4169 C 425.205 -1.2372 -4.3245 0
M  V30 4170 C 426.524 0.849967 -4.31814 0
M  V30 4171 H 423.643 -0.000477758 -0.737 0
M  V30 4172 H 426.285 -0.688217 -1.77098 0
M  V30 4173 H 424.435 0.712157 -3.81917 0
M  V30 4174 H 426.107 -1.86687 -4.21836 0
M  V30 4175 H 424.35 -1.81882 -3.93829 0
M  V30 4176 H 425.021 -1.10557 -5.40815 0
M  V30 4177 H 427.497 0.350572 -4.14621 0
M  V30 4178 H 426.373 0.903486 -5.41413 0
M  V30 4179 H 426.634 1.90047 -3.99167 0
M  V30 4180 N 425.693 1.55336 -0.266172 0
M  V30 4181 C 426.97 1.91372 0.404486 0
M  V30 4182 C 427.35 1.18935 1.74407 0
M  V30 4183 O 426.698 0.3132 2.26343 0
M  V30 4184 C 426.908 3.44581 0.553593 0
M  V30 4185 C 428.256 4.16196 0.840618 0
M  V30 4186 O 429.28 3.50426 0.638739 0
M  V30 4187 O 428.139 5.32567 1.22618 0
M  V30 4188 H 425.233 0.797194 0.220025 0
M  V30 4189 H 427.779 1.66813 -0.311664 0
M  V30 4190 H 426.551 3.89357 -0.389498 0
M  V30 4191 H 426.174 3.75065 1.31955 0
M  V30 4192 N 427.171 -0.0066808 1.57599 0
M  V30 4193 C 428.399 -0.704087 1.94551 0
M  V30 4194 C 428.814 -1.67677 0.867746 0
M  V30 4195 O 428.171 -1.8185 -0.153925 0
M  V30 4196 C 428.222 -1.44177 3.31505 0
M  V30 4197 O 427.943 -0.508097 4.35144 0
M  V30 4198 C 429.444 -2.23429 3.82876 0
M  V30 4199 H 426.664 -0.196523 0.641576 0
M  V30 4200 H 429.208 0.042453 2.04456 0
M  V30 4201 H 427.363 -2.13999 3.22929 0
M  V30 4202 H 427.777 -1.02782 5.14331 0
M  V30 4203 H 429.251 -2.70552 4.8115 0
M  V30 4204 H 429.728 -3.05818 3.15233 0
M  V30 4205 H 430.334 -1.58636 3.94607 0
M  V30 4206 N 428.649 -1.55105 -0.279332 0
M  V30 4207 C 430.06 -1.66186 -0.850832 0
M  V30 4208 C 430.411 -0.584707 -1.87285 0
M  V30 4209 O 429.536 0.274919 -2.14647 0
M  V30 4210 C 430.131 -3.01264 -1.55001 0
M  V30 4211 C 428.69 -3.14394 -2.06963 0
M  V30 4212 C 427.837 -2.61959 -0.909536 0
M  V30 4213 H 430.788 -1.58602 -0.0558235 0
M  V30 4214 H 430.809 -2.93899 -2.41669 0
M  V30 4215 H 430.321 -3.7964 -0.805931 0
M  V30 4216 H 428.422 -2.4078 -2.84352 0
M  V30 4217 H 428.535 -4.20867 -2.28928 0
M  V30 4218 H 426.899 -2.18957 -1.30116 0
M  V30 4219 H 427.682 -3.42833 -0.179062 0
M  V30 4220 N 430.127 0.543554 -1.4793 0
M  V30 4221 C 431.376 1.29649 -1.54512 0
M  V30 4222 C 431.689 1.94382 -0.217973 0
M  V30 4223 O 432.895 2.71017 -0.161908 0
M  V30 4224 C 431.351 2.35175 -2.72435 0
M  V30 4225 C 430.959 1.76572 -4.11736 0
M  V30 4226 C 432.703 3.11564 -2.8832 0
M  V30 4227 C 430.61 2.79958 -5.20939 0
M  V30 4228 H 429.54 0.487541 -0.57517 0
M  V30 4229 H 432.191 0.575708 -1.74235 0
M  V30 4230 H 430.573 3.10229 -2.46118 0
M  V30 4231 H 431.747 1.07799 -4.48013 0
M  V30 4232 H 430.062 1.12722 -4.00852 0
M  V30 4233 H 432.659 3.88794 -3.67074 0
M  V30 4234 H 433.002 3.66594 -1.97268 0
M  V30 4235 H 433.535 2.43623 -3.14472 0
M  V30 4236 H 430.274 2.29766 -6.13912 0
M  V30 4237 H 429.794 3.47101 -4.89164 0
M  V30 4238 H 431.473 3.43198 -5.48474 0
M  V30 4239 N 431.605 1.3629 0.791371 0
M  V30 4240 C 432.882 1.20962 1.53712 0
M  V30 4241 C 433.262 -0.205021 2.10102 0
M  V30 4242 O 432.61 -1.21042 1.93807 0
M  V30 4243 C 432.82 2.29002 2.63361 0
M  V30 4244 C 434.168 2.65572 3.31295 0
M  V30 4245 O 435.192 2.2803 2.73643 0
M  V30 4246 O 434.051 3.3018 4.35481 0
M  V30 4247 H 431.145 0.47086 0.679867 0
M  V30 4248 H 433.691 1.48016 0.830021 0
M  V30 4249 H 432.463 3.2382 2.19674 0
M  V30 4250 H 432.086 2.03303 3.41692 0
M  V30 4251 N 433.083 -1.0153 1.20538 0
M  V30 4252 C 434.313 -1.78487 1.04048 0
M  V30 4253 C 434.721 -1.84631 -0.413292 0
M  V30 4254 O 434.064 -1.29919 -1.29872 0
M  V30 4255 C 434.126 -3.24367 1.55003 0
M  V30 4256 C 433.79 -3.41827 3.0332 0
M  V30 4257 C 434.787 -3.30941 4.00966 0
M  V30 4258 C 432.472 -3.67602 3.42307 0
M  V30 4259 C 434.466 -3.45577 5.35589 0
M  V30 4260 C 432.153 -3.81881 4.77085 0
M  V30 4261 C 433.151 -3.70874 5.73534 0
M  V30 4262 O 432.839 -3.84714 7.05868 0
M  V30 4263 H 432.571 -0.568108 0.366373 0
M  V30 4264 H 435.125 -1.28677 1.60098 0
M  V30 4265 H 433.355 -3.75266 0.933397 0
M  V30 4266 H 435.044 -3.82963 1.34514 0
M  V30 4267 H 435.81 -3.10964 3.72191 0
M  V30 4268 H 431.689 -3.75256 2.67776 0
M  V30 4269 H 435.233 -3.36902 6.10854 0
M  V30 4270 H 431.13 -4.01359 5.0555 0
M  V30 4271 H 431.898 -4.01724 7.13134 0
M  V30 4272 N 434.561 -1.01147 -1.20859 0
M  V30 4273 C 435.491 -0.597663 -2.25722 0
M  V30 4274 C 436.472 0.384744 -1.65692 0
M  V30 4275 O 437.657 0.271303 -1.92296 0
M  V30 4276 C 434.787 0.0700149 -3.47229 0
M  V30 4277 C 433.741 -0.832843 -4.19819 0
M  V30 4278 C 433.067 -0.0312202 -5.34691 0
M  V30 4279 C 434.367 -2.1385 -4.76514 0
M  V30 4280 H 436.061 -1.47423 -2.60589 0
M  V30 4281 H 433.607 -0.710301 -1.25263 0
M  V30 4282 H 435.56 0.37103 -4.19763 0
M  V30 4283 H 434.284 0.981259 -3.11511 0
M  V30 4284 H 432.943 -1.11778 -3.49144 0
M  V30 4285 H 432.591 0.881515 -4.95215 0
M  V30 4286 H 432.291 -0.632434 -5.84187 0
M  V30 4287 H 433.815 0.26346 -6.10031 0
M  V30 4288 H 435.229 -1.9002 -5.40893 0
M  V30 4289 H 433.626 -2.69012 -5.36426 0
M  V30 4290 H 434.696 -2.80495 -3.95538 0
M  V30 4291 N 436.039 1.36541 -0.78704 0
M  V30 4292 C 436.987 2.31965 -0.171724 0
M  V30 4293 C 437.981 1.55689 0.667631 0
M  V30 4294 O 439.187 1.70969 0.562981 0
M  V30 4295 H 435.562 0.751101 -0.0367545 0
M  V30 4296 H 437.533 2.81428 -0.992017 0
M  V30 4297 C 436.282 3.40968 0.680904 0
M  V30 4298 H 435.605 3.99775 0.0443961 0
M  V30 4299 H 437.045 4.10063 1.07815 0
M  V30 4300 C 435.504 2.82338 1.83813 0
M  V30 4301 O 436.034 2.74311 2.93456 0
M  V30 4302 N 434.24 2.39661 1.6435 0
M  V30 4303 H 433.787 2.46389 0.751668 0
M  V30 4304 H 433.745 2.00779 2.4194 0
M  V30 4305 N 437.518 0.538854 1.48102 0
M  V30 4306 C 438.743 0.0102694 2.07397 0
M  V30 4307 C 439.168 -1.26562 1.39153 0
M  V30 4308 O 438.526 -1.75357 0.460387 0
M  V30 4309 C 438.574 -0.187602 3.60112 0
M  V30 4310 O 437.678 -1.25432 3.92862 0
M  V30 4311 H 437.019 0.0430975 0.6626 0
M  V30 4312 H 439.549 0.749301 1.90385 0
M  V30 4313 H 439.559 -0.407517 4.0596 0
M  V30 4314 H 438.234 0.744386 4.09184 0
M  V30 4315 H 436.811 -1.01636 3.58782 0
M  V30 4316 N 438.996 -1.55193 0.274407 0
M  V30 4317 C 439.946 -2.19184 -0.627882 0
M  V30 4318 C 440.93 -1.15625 -1.11892 0
M  V30 4319 O 442.122 -1.41441 -1.06411 0
M  V30 4320 C 439.251 -2.91591 -1.81189 0
M  V30 4321 C 438.337 -4.02438 -1.33807 0
M  V30 4322 N 438.728 -5.0246 -0.580349 0
M  V30 4323 C 437.026 -4.15496 -1.62109 0
M  V30 4324 C 437.727 -5.80756 -0.331344 0
M  V30 4325 N 436.703 -5.36038 -0.903556 0
M  V30 4326 H 440.505 -2.93871 -0.0411216 0
M  V30 4327 H 438.019 -1.62213 0.0779348 0
M  V30 4328 H 440.016 -3.35883 -2.46957 0
M  V30 4329 H 438.676 -2.18414 -2.40261 0
M  V30 4330 H 439.687 -5.17399 -0.227762 0
M  V30 4331 H 436.364 -3.53509 -2.22121 0
M  V30 4332 H 437.754 -6.71335 0.275454 0
M  V30 4333 N 440.474 -0.00167713 -1.576 0
M  V30 4334 C 441.722 0.681471 -1.90264 0
M  V30 4335 C 442.043 1.7422 -0.875924 0
M  V30 4336 O 441.313 1.95709 0.0864412 0
M  V30 4337 H 439.893 0.254696 -0.702239 0
M  V30 4338 H 442.555 -0.0429996 -1.94853 0
M  V30 4339 H 441.651 1.15166 -2.90075 0
M  V30 4340 N 441.952 1.55251 0.271103 0
M  V30 4341 C 443.18 1.79974 1.02064 0
M  V30 4342 C 443.595 0.574003 1.79863 0
M  V30 4343 O 442.952 -0.456962 1.76686 0
M  V30 4344 C 443.003 3.02603 1.97772 0
M  V30 4345 O 442.724 4.20443 1.23124 0
M  V30 4346 C 444.225 3.39944 2.84522 0
M  V30 4347 H 441.445 0.599489 0.301419 0
M  V30 4348 H 443.989 2.02268 0.301313 0
M  V30 4349 H 442.144 2.8243 2.65165 0
M  V30 4350 H 442.558 4.89783 1.87651 0
M  V30 4351 H 444.032 4.28915 3.47471 0
M  V30 4352 H 444.509 2.59432 3.54389 0
M  V30 4353 H 445.115 3.62383 2.22618 0
M  V30 4354 N 443.43 -0.535701 1.48216 0
M  V30 4355 C 444.655 -1.32149 1.59848 0
M  V30 4356 C 445.08 -1.86338 0.256842 0
M  V30 4357 O 444.438 -1.64107 -0.770632 0
M  V30 4358 C 444.486 -2.45224 2.64381 0
M  V30 4359 O 443.59 -3.48093 2.21144 0
M  V30 4360 H 442.931 -0.391634 0.536208 0
M  V30 4361 H 445.461 -0.645202 1.94161 0
M  V30 4362 H 445.471 -2.91491 2.85476 0
M  V30 4363 H 444.146 -2.05143 3.61786 0
M  V30 4364 H 442.723 -3.07984 2.10239 0
M  V30 4365 N 444.908 -1.36708 -0.784132 0
M  V30 4366 C 446.136 -1.34398 -1.57305 0
M  V30 4367 C 446.551 0.0735577 -1.88657 0
M  V30 4368 O 445.908 1.03193 -1.50524 0
M  V30 4369 C 445.959 -2.17053 -2.89085 0
M  V30 4370 O 445.68 -3.53281 -2.59083 0
M  V30 4371 C 447.181 -2.22583 -3.83369 0
M  V30 4372 H 444.401 -0.460819 -0.487736 0
M  V30 4373 H 446.945 -1.79879 -0.972819 0
M  V30 4374 H 445.1 -1.75113 -3.45564 0
M  V30 4375 H 445.514 -3.9647 -3.43383 0
M  V30 4376 H 446.988 -2.84763 -4.72878 0
M  V30 4377 H 447.465 -1.23075 -4.21603 0
M  V30 4378 H 448.071 -2.64781 -3.32823 0
M  V30 4379 N 446.386 1.0089 -1.21074 0
M  V30 4380 C 447.797 1.56056 -1.02486 0
M  V30 4381 C 448.148 1.91728 0.416506 0
M  V30 4382 O 447.273 1.73066 1.29912 0
M  V30 4383 C 447.868 2.83563 -1.85411 0
M  V30 4384 C 446.427 3.3523 -1.71166 0
M  V30 4385 C 445.574 2.0846 -1.82865 0
M  V30 4386 H 448.525 0.831818 -1.35154 0
M  V30 4387 H 448.546 3.55286 -1.36205 0
M  V30 4388 H 448.058 2.57569 -2.9031 0
M  V30 4389 H 446.159 3.66167 -0.689361 0
M  V30 4390 H 446.272 4.06913 -2.52901 0
M  V30 4391 H 444.636 2.21275 -1.26132 0
M  V30 4392 H 445.419 1.84883 -2.89263 0
M  V30 4393 N 447.864 1.01787 1.20321 0
M  V30 4394 C 449.11 0.708985 1.90003 0
M  V30 4395 C 449.443 -0.759572 1.78729 0
M  V30 4396 O 448.718 -1.55198 1.17234 0
M  V30 4397 C 449.001 1.1469 3.41348 0
M  V30 4398 C 448.854 2.67586 3.61549 0
M  V30 4399 C 450.173 0.71915 4.34185 0
M  V30 4400 H 447.292 0.259034 0.689978 0
M  V30 4401 H 449.934 1.26584 1.41692 0
M  V30 4402 H 448.084 0.673128 3.82624 0
M  V30 4403 H 449.756 3.22826 3.29517 0
M  V30 4404 H 447.999 3.085 3.04976 0
M  V30 4405 H 448.67 2.93281 4.67643 0
M  V30 4406 H 451.146 1.12647 4.00562 0
M  V30 4407 H 450.022 1.05358 5.38694 0
M  V30 4408 H 450.283 -0.379111 4.40472 0
M  V30 4409 N 449.342 -1.36122 0.79427 0
M  V30 4410 C 450.59 -1.98718 0.368177 0
M  V30 4411 C 450.911 -1.63345 -1.06506 0
M  V30 4412 O 450.181 -0.909825 -1.73491 0
M  V30 4413 H 448.761 -0.735038 0.133146 0
M  V30 4414 H 451.423 -1.66239 1.01739 0
M  V30 4415 H 450.519 -3.08633 0.463923 0
M  V30 4416 N 450.82 -0.546701 -1.47814 0
M  V30 4417 C 452.097 0.0464413 -1.95545 0
M  V30 4418 C 452.477 1.4962 -1.48919 0
M  V30 4419 O 451.825 2.16752 -0.723232 0
M  V30 4420 C 452.035 -0.0881298 -3.48889 0
M  V30 4421 C 453.383 0.0626059 -4.24554 0
M  V30 4422 O 454.407 -0.0151555 -3.56197 0
M  V30 4423 O 453.266 0.228071 -5.46024 0
M  V30 4424 H 450.36 0.0700004 -0.824032 0
M  V30 4425 H 452.906 -0.612482 -1.58262 0
M  V30 4426 H 451.678 -1.09737 -3.75597 0
M  V30 4427 H 451.301 0.608886 -3.9291 0
M  V30 4428 N 452.299 1.55045 -0.282633 0
M  V30 4429 C 453.545 2.00056 0.332481 0
M  V30 4430 C 453.878 1.1708 1.54939 0
M  V30 4431 O 453.153 0.2427 1.9298 0
M  V30 4432 C 453.436 3.53086 0.70725 0
M  V30 4433 C 453.289 4.46813 -0.517521 0
M  V30 4434 C 454.608 4.12245 1.54084 0
M  V30 4435 H 451.727 0.727268 0.119373 0
M  V30 4436 H 454.369 1.85932 -0.391076 0
M  V30 4437 H 452.519 3.65253 1.32372 0
M  V30 4438 H 454.191 4.46579 -1.15607 0
M  V30 4439 H 452.434 4.18163 -1.1542 0
M  V30 4440 H 453.105 5.51595 -0.211426 0
M  V30 4441 H 455.581 4.03401 1.02013 0
M  V30 4442 H 454.457 5.19515 1.77186 0
M  V30 4443 H 454.718 3.62951 2.52427 0
M  V30 4444 N 453.777 0.010035 1.57597 0
M  V30 4445 C 454.724 -0.978122 2.09049 0
M  V30 4446 C 455.694 -1.33509 0.988159 0
M  V30 4447 O 456.879 -1.43172 1.26121 0
M  V30 4448 C 454.019 -2.26158 2.60666 0
M  V30 4449 C 453.132 -1.96275 3.84838 0
M  V30 4450 C 452.267 -3.18776 4.24918 0
M  V30 4451 C 451.306 -2.84625 5.41899 0
M  V30 4452 N 450.443 -3.99693 5.77226 0
M  V30 4453 H 455.283 -0.532431 2.93205 0
M  V30 4454 H 452.82 -0.251234 1.44939 0
M  V30 4455 H 454.778 -3.01202 2.88675 0
M  V30 4456 H 453.408 -2.68378 1.79369 0
M  V30 4457 H 452.46 -1.11555 3.63675 0
M  V30 4458 H 453.772 -1.67111 4.69974 0
M  V30 4459 H 452.926 -4.02157 4.54262 0
M  V30 4460 H 451.665 -3.51087 3.38511 0
M  V30 4461 H 450.67 -1.99653 5.12268 0
M  V30 4462 H 451.895 -2.53551 6.29991 0
M  V30 4463 H 449.841 -4.31882 4.93776 0
M  V30 4464 H 449.758 -3.74087 6.56959 0
M  V30 4465 H 451.026 -4.83834 6.11167 0
M  V30 4466 N 455.255 -1.55392 -0.262866 0
M  V30 4467 C 456.165 -1.92077 -1.34698 0
M  V30 4468 C 457.181 -0.819227 -1.53508 0
M  V30 4469 O 458.357 -1.11921 -1.67439 0
M  V30 4470 C 455.422 -2.19407 -2.68443 0
M  V30 4471 C 454.483 -3.42905 -2.58292 0
M  V30 4472 C 453.716 -3.68921 -3.85659 0
M  V30 4473 O 453.939 -2.97275 -4.8681 0
M  V30 4474 O 452.873 -4.62455 -3.85252 0
M  V30 4475 H 456.699 -2.84384 -1.06581 0
M  V30 4476 H 454.284 -1.42069 -0.462264 0
M  V30 4477 H 456.166 -2.38365 -3.47506 0
M  V30 4478 H 454.841 -1.30282 -2.96325 0
M  V30 4479 H 453.748 -3.29272 -1.7757 0
M  V30 4480 H 455.081 -4.32282 -2.35358 0
M  V30 4481 N 456.733 0.527833 -1.48498 0
M  V30 4482 C 457.663 1.64136 -1.66077 0
M  V30 4483 C 458.644 1.62286 -0.509625 0
M  V30 4484 O 459.829 1.79449 -0.742413 0
M  V30 4485 C 456.959 3.02717 -1.70234 0
M  V30 4486 C 455.913 3.19426 -2.8487 0
M  V30 4487 C 455.239 4.5909 -2.74118 0
M  V30 4488 C 456.539 3.01993 -4.26142 0
M  V30 4489 H 458.233 1.4968 -2.593 0
M  V30 4490 H 455.779 0.718654 -1.24785 0
M  V30 4491 H 457.732 3.80491 -1.8112 0
M  V30 4492 H 456.456 3.18201 -0.735911 0
M  V30 4493 H 455.115 2.4407 -2.73542 0
M  V30 4494 H 454.763 4.71413 -1.7544 0
M  V30 4495 H 454.463 4.71214 -3.51042 0
M  V30 4496 H 455.987 5.3896 -2.86974 0
M  V30 4497 H 457.401 3.69558 -4.38292 0
M  V30 4498 H 455.798 3.2561 -5.04082 0
M  V30 4499 H 456.868 1.98396 -4.42456 0
M  V30 4500 N 458.211 1.37122 0.776871 0
M  V30 4501 C 459.174 1.32301 1.8716 0
M  V30 4502 C 460.174 0.228099 1.59174 0
M  V30 4503 O 461.364 0.483642 1.67352 0
M  V30 4504 C 458.496 1.054 3.24197 0
M  V30 4505 H 459.689 2.29673 1.92848 0
M  V30 4506 H 457.242 1.22077 0.97606 0
M  V30 4507 H 457.977 0.0853872 3.24188 0
M  V30 4508 H 457.762 1.84648 3.45901 0
M  V30 4509 H 459.252 1.04664 4.04271 0
M  V30 4510 N 459.689 -1.00246 1.21608 0
M  V30 4511 C 460.652 -2.07233 0.979133 0
M  V30 4512 C 461.652 -1.6072 -0.0508219 0
M  V30 4513 O 462.842 -1.73196 0.186712 0
M  V30 4514 C 459.974 -3.37546 0.477016 0
M  V30 4515 H 461.167 -2.29687 1.92831 0
M  V30 4516 H 458.72 -1.17261 1.03342 0
M  V30 4517 H 459.455 -3.20773 -0.476966 0
M  V30 4518 H 459.24 -3.72638 1.21997 0
M  V30 4519 H 460.73 -4.16285 0.331181 0
M  V30 4520 N 461.167 -1.02423 -1.1978 0
M  V30 4521 C 462.416 -0.713265 -1.88667 0
M  V30 4522 C 462.729 0.7609 -1.80193 0
M  V30 4523 O 463.935 1.18473 -2.44288 0
M  V30 4524 C 462.391 -1.22545 -3.38394 0
M  V30 4525 C 461.999 -2.72706 -3.55437 0
M  V30 4526 C 463.743 -0.990257 -4.12788 0
M  V30 4527 C 461.65 -3.17367 -4.99031 0
M  V30 4528 H 460.58 -0.263105 -0.706606 0
M  V30 4529 H 463.231 -1.23792 -1.35454 0
M  V30 4530 H 461.613 -0.628732 -3.90977 0
M  V30 4531 H 462.787 -3.37993 -3.13205 0
M  V30 4532 H 461.102 -2.94453 -2.94425 0
M  V30 4533 H 463.699 -1.29926 -5.18675 0
M  V30 4534 H 464.042 0.0730761 -4.16236 0
M  V30 4535 H 464.575 -1.55074 -3.66329 0
M  V30 4536 H 461.314 -4.23009 -5.00743 0
M  V30 4537 H 460.834 -2.56805 -5.42044 0
M  V30 4538 H 462.513 -3.10441 -5.67658 0
M  V30 4539 N 462.645 1.35699 -0.801477 0
M  V30 4540 C 464.061 1.52065 -0.484596 0
M  V30 4541 C 464.261 1.75215 0.995084 0
M  V30 4542 O 463.317 1.79061 1.78026 0
M  V30 4543 C 464.63 2.69908 -1.32552 0
M  V30 4544 C 466.178 2.83784 -1.32044 0
M  V30 4545 C 466.653 4.04646 -2.14536 0
M  V30 4546 N 468.144 4.11814 -2.12046 0
M  V30 4547 C 468.879 5.04437 -2.72636 0
M  V30 4548 N 468.375 6.02426 -3.42133 0
M  V30 4549 N 470.168 4.97144 -2.62305 0
M  V30 4550 H 462.319 1.18928 -1.75983 0
M  V30 4551 H 464.582 0.581455 -0.748741 0
M  V30 4552 H 464.288 2.59363 -2.37537 0
M  V30 4553 H 464.162 3.64376 -0.975181 0
M  V30 4554 H 466.549 2.93783 -0.27846 0
M  V30 4555 H 466.63 1.90188 -1.71062 0
M  V30 4556 H 466.274 3.95407 -3.18772 0
M  V30 4557 H 466.204 4.97413 -1.72882 0
M  V30 4558 H 468.695 3.41664 -1.61476 0
M  V30 4559 H 469.008 6.69688 -3.85666 0
M  V30 4560 H 467.353 6.02615 -3.46237 0
M  V30 4561 H 470.544 4.19546 -2.07603 0
M  V30 4562 H 470.717 5.69138 -3.09815 0
M  V30 4563 N 464.123 0.554532 1.47522 0
M  V30 4564 C 465.033 -0.197865 2.33764 0
M  V30 4565 C 466.049 -0.914576 1.48025 0
M  V30 4566 O 467.225 -0.884067 1.80959 0
M  V30 4567 C 464.29 -1.21628 3.24665 0
M  V30 4568 C 463.351 -0.507283 4.26292 0
M  V30 4569 C 462.584 -1.47718 5.1285 0
M  V30 4570 O 462.807 -2.7118 5.01814 0
M  V30 4571 O 461.741 -1.00313 5.93482 0
M  V30 4572 H 465.567 0.50949 2.99396 0
M  V30 4573 H 463.152 0.315176 1.46038 0
M  V30 4574 H 465.034 -1.80421 3.80823 0
M  V30 4575 H 463.709 -1.9056 2.61665 0
M  V30 4576 H 462.616 0.121778 3.73902 0
M  V30 4577 H 463.949 0.140544 4.91999 0
M  V30 4578 N 465.601 -1.54893 0.290851 0
M  V30 4579 C 466.847 -2.0023 -0.321867 0
M  V30 4580 C 467.18 -1.179 -1.54316 0
M  V30 4581 O 466.455 -0.25293 -1.92848 0
M  V30 4582 C 466.738 -3.53456 -0.688515 0
M  V30 4583 C 466.591 -4.46532 0.541209 0
M  V30 4584 C 467.91 -4.13057 -1.51895 0
M  V30 4585 H 465.029 -0.727891 -0.115515 0
M  V30 4586 H 467.671 -1.85722 0.400931 0
M  V30 4587 H 465.821 -3.6595 -1.30433 0
M  V30 4588 H 467.493 -4.4596 1.17973 0
M  V30 4589 H 465.736 -4.17545 1.17636 0
M  V30 4590 H 466.407 -5.51475 0.240675 0
M  V30 4591 H 468.883 -4.03937 -0.99872 0
M  V30 4592 H 467.759 -5.20448 -1.74429 0
M  V30 4593 H 468.02 -3.64284 -2.50498 0
M  V30 4594 N 467.08 -0.0183926 -1.57589 0
M  V30 4595 C 468.327 0.662562 -1.91354 0
M  V30 4596 C 468.655 1.72747 -0.893788 0
M  V30 4597 O 467.91 1.9545 0.0988509 0
M  V30 4598 C 468.209 1.32676 -3.31861 0
M  V30 4599 C 467.875 0.393267 -4.49182 0
M  V30 4600 C 466.537 0.136302 -4.81007 0
M  V30 4601 C 468.889 -0.248366 -5.20608 0
M  V30 4602 C 466.217 -0.770282 -5.81621 0
M  V30 4603 C 468.569 -1.14294 -6.22189 0
M  V30 4604 C 467.233 -1.4089 -6.52462 0
M  V30 4605 H 466.503 0.242448 -0.700214 0
M  V30 4606 H 469.15 -0.0778629 -1.91342 0
M  V30 4607 H 467.455 2.14168 -3.28084 0
M  V30 4608 H 469.152 1.86001 -3.55253 0
M  V30 4609 H 465.742 0.603723 -4.24327 0
M  V30 4610 H 469.926 -0.062883 -4.9626 0
M  V30 4611 H 465.182 -0.984154 -6.03427 0
M  V30 4612 H 469.356 -1.64637 -6.76659 0
M  V30 4613 H 466.983 -2.11306 -7.30242 0
M  V30 4614 N 468.558 1.5553 0.254621 0
M  V30 4615 C 469.806 1.7665 0.981793 0
M  V30 4616 C 470.127 0.580963 1.86145 0
M  V30 4617 O 469.397 -0.403537 1.91699 0
M  V30 4618 H 467.977 0.651475 0.365498 0
M  V30 4619 H 470.639 1.92958 0.274426 0
M  V30 4620 H 469.735 2.67486 1.60802 0
M  V30 4621 N 470.036 -0.519951 1.48776 0
M  V30 4622 C 471.313 -1.28123 1.47797 0
M  V30 4623 C 471.693 -2.10196 0.195157 0
M  V30 4624 O 471.041 -2.13167 -0.822925 0
M  V30 4625 C 471.251 -2.15413 2.74587 0
M  V30 4626 C 472.599 -2.75225 3.23321 0
M  V30 4627 O 473.623 -2.25694 2.75574 0
M  V30 4628 O 472.482 -3.65346 4.06429 0
M  V30 4629 H 469.576 -0.578793 0.590701 0
M  V30 4630 H 472.122 -0.535779 1.6102 0
M  V30 4631 H 470.894 -1.54617 3.59457 0
M  V30 4632 H 470.517 -2.97186 2.64132 0
M  V30 4633 N 471.514 -1.37532 -0.769588 0
M  V30 4634 C 472.461 -1.3347 -1.88293 0
M  V30 4635 C 473.431 -0.199891 -1.64893 0
M  V30 4636 O 474.616 -0.389594 -1.8678 0
M  V30 4637 C 471.756 -1.14968 -3.25387 0
M  V30 4638 C 470.869 -2.37698 -3.60727 0
M  V30 4639 C 470.004 -2.12051 -4.8704 0
M  V30 4640 C 469.043 -3.30636 -5.15117 0
M  V30 4641 N 468.18 -3.04527 -6.3262 0
M  V30 4642 H 473.02 -2.28658 -1.911 0
M  V30 4643 H 470.557 -1.13622 -0.934257 0
M  V30 4644 H 472.515 -1.02261 -4.04473 0
M  V30 4645 H 471.145 -0.234263 -3.21949 0
M  V30 4646 H 470.197 -2.61137 -2.76608 0
M  V30 4647 H 471.509 -3.26131 -3.77413 0
M  V30 4648 H 470.663 -1.96388 -5.74035 0
M  V30 4649 H 469.402 -1.20959 -4.72462 0
M  V30 4650 H 468.407 -3.46836 -4.26597 0
M  V30 4651 H 469.632 -4.22582 -5.31603 0
M  V30 4652 H 467.578 -2.16067 -6.19396 0
M  V30 4653 H 467.495 -3.86503 -6.49732 0
M  V30 4654 H 468.763 -2.92485 -7.22546 0
M  V30 4655 N 472.992 0.995999 -1.22138 0
M  V30 4656 C 474.217 1.77601 -1.0711 0
M  V30 4657 C 474.642 1.84339 0.374264 0
M  V30 4658 O 474 1.29359 1.27028 0
M  V30 4659 C 474.048 3.18897 -1.68336 0
M  V30 4660 O 473.152 4.01663 -0.934928 0
M  V30 4661 H 472.493 0.547011 -0.376397 0
M  V30 4662 H 475.023 1.25137 -1.6187 0
M  V30 4663 H 475.033 3.69539 -1.72931 0
M  V30 4664 H 473.708 3.13308 -2.73516 0
M  V30 4665 H 472.285 3.60204 -0.964751 0
M  V30 4666 N 474.47 1.03057 1.19235 0
M  V30 4667 C 475.881 0.757449 1.70645 0
M  V30 4668 C 476.232 -0.722735 1.82403 0
M  V30 4669 O 475.357 -1.56325 1.49638 0
M  V30 4670 C 475.952 1.36833 3.09939 0
M  V30 4671 C 474.511 1.14375 3.58602 0
M  V30 4672 C 473.658 1.46533 2.35422 0
M  V30 4673 H 476.609 1.19828 1.04052 0
M  V30 4674 H 476.63 0.766184 3.72706 0
M  V30 4675 H 476.142 2.44562 3.01349 0
M  V30 4676 H 474.243 0.0847542 3.72504 0
M  V30 4677 H 474.356 1.83366 4.42622 0
M  V30 4678 H 472.72 0.884712 2.38841 0
M  V30 4679 H 473.503 2.55349 2.2946 0
M  V30 4680 N 475.948 -1.35272 0.808662 0
M  V30 4681 C 476.911 -2.28082 0.226093 0
M  V30 4682 C 477.911 -1.49673 -0.587762 0
M  V30 4683 O 479.101 -1.69404 -0.405943 0
M  V30 4684 C 476.233 -3.33955 -0.684596 0
M  V30 4685 H 477.426 -2.81116 1.04469 0
M  V30 4686 H 474.979 -1.45162 0.579466 0
M  V30 4687 H 475.714 -2.86111 -1.5268 0
M  V30 4688 H 475.499 -3.91965 -0.102699 0
M  V30 4689 H 476.989 -4.03219 -1.08646 0
M  V30 4690 N 477.426 -0.562348 -1.47226 0
M  V30 4691 C 478.675 -0.038041 -2.01664 0
M  V30 4692 C 478.988 1.32199 -1.44162 0
M  V30 4693 O 480.194 1.9365 -1.90294 0
M  V30 4694 C 478.65 -0.0174958 -3.59896 0
M  V30 4695 C 478.258 -1.3746 -4.2639 0
M  V30 4696 C 480.002 0.453934 -4.22066 0
M  V30 4697 C 477.909 -1.31289 -5.76643 0
M  V30 4698 H 476.839 -0.0104511 -0.753928 0
M  V30 4699 H 479.49 -0.710966 -1.69167 0
M  V30 4700 H 477.872 0.721182 -3.89378 0
M  V30 4701 H 479.046 -2.1314 -4.08544 0
M  V30 4702 H 477.361 -1.78438 -3.7623 0
M  V30 4703 H 479.958 0.518584 -5.32179 0
M  V30 4704 H 480.301 1.46706 -3.89594 0
M  V30 4705 H 480.834 -0.230044 -3.97134 0
M  V30 4706 H 477.573 -2.30217 -6.13743 0
M  V30 4707 H 477.093 -0.597973 -5.96812 0
M  V30 4708 H 478.772 -1.01713 -6.38955 0
M  V30 4709 N 478.904 1.54736 -0.299062 0
M  V30 4710 C 480.129 2.04975 0.316254 0
M  V30 4711 C 480.554 1.17501 1.46885 0
M  V30 4712 O 479.912 0.178678 1.80417 0
M  V30 4713 C 479.96 3.52672 0.751997 0
M  V30 4714 O 479.064 3.68226 1.85697 0
M  V30 4715 H 478.405 0.661126 0.0617175 0
M  V30 4716 H 480.935 1.99805 -0.440341 0
M  V30 4717 H 480.945 3.94488 1.04133 0
M  V30 4718 H 479.62 4.158 -0.0911482 0
M  V30 4719 H 478.197 3.38316 1.56834 0
M  V30 4720 N 480.382 0.0267497 1.57577 0
M  V30 4721 C 481.345 -0.940916 2.08996 0
M  V30 4722 C 482.345 -1.25561 1.00455 0
M  V30 4723 O 483.535 -1.19634 1.26623 0
M  V30 4724 C 480.667 -2.25814 2.55384 0
M  V30 4725 H 481.86 -0.495628 2.95776 0
M  V30 4726 H 479.413 -0.221241 1.54726 0
M  V30 4727 H 480.148 -2.74976 1.71926 0
M  V30 4728 H 479.933 -2.04285 3.34679 0
M  V30 4729 H 481.423 -2.95178 2.95398 0
M  V30 4730 N 481.861 -1.55662 -0.24637 0
M  V30 4731 C 483.089 -1.81575 -0.991876 0
M  V30 4732 C 483.504 -0.602545 -1.78927 0
M  V30 4733 O 482.861 0.428795 -1.77391 0
M  V30 4734 C 482.912 -3.05711 -1.92933 0
M  V30 4735 O 482.633 -4.22348 -1.1642 0
M  V30 4736 C 484.134 -3.44428 -2.79078 0
M  V30 4737 H 481.354 -0.604209 -0.291844 0
M  V30 4738 H 483.898 -2.02722 -0.269095 0
M  V30 4739 H 482.053 -2.86612 -2.60638 0
M  V30 4740 H 482.467 -4.92706 -1.79835 0
M  V30 4741 H 483.941 -4.34388 -3.40603 0
M  V30 4742 H 484.418 -2.65037 -3.50217 0
M  V30 4743 H 485.024 -3.65879 -2.16824 0
M  V30 4744 N 483.339 0.512053 -1.4905 0
M  V30 4745 C 484.286 1.6148 -1.64902 0
M  V30 4746 C 485.256 1.58687 -0.490673 0
M  V30 4747 O 486.441 1.76842 -0.71636 0
M  V30 4748 C 483.581 2.99676 -1.71139 0
M  V30 4749 C 482.694 3.12568 -2.98203 0
M  V30 4750 C 481.829 4.4143 -2.95487 0
M  V30 4751 C 480.868 4.47916 -4.17179 0
M  V30 4752 N 480.005 5.68191 -4.12437 0
M  V30 4753 H 484.845 1.47271 -2.59066 0
M  V30 4754 H 482.382 0.716713 -1.28459 0
M  V30 4755 H 484.34 3.79761 -1.72736 0
M  V30 4756 H 482.97 3.12614 -0.804508 0
M  V30 4757 H 482.022 2.25618 -3.06269 0
M  V30 4758 H 483.334 3.1322 -3.88194 0
M  V30 4759 H 482.488 5.29825 -2.95585 0
M  V30 4760 H 481.227 4.43326 -2.03256 0
M  V30 4761 H 480.232 3.57925 -4.17337 0
M  V30 4762 H 481.457 4.47744 -5.1059 0
M  V30 4763 H 479.403 5.7095 -3.23036 0
M  V30 4764 H 479.32 5.70413 -4.96151 0
M  V30 4765 H 480.588 6.58823 -4.16621 0
M  V30 4766 N 484.817 1.37938 0.762283 0
M  V30 4767 C 485.78 1.34279 1.85747 0
M  V30 4768 C 486.78 0.244969 1.58923 0
M  V30 4769 O 487.97 0.501365 1.66829 0
M  V30 4770 C 485.102 1.08833 3.23061 0
M  V30 4771 H 486.295 2.31705 1.90401 0
M  V30 4772 H 483.848 1.23105 0.963057 0
M  V30 4773 H 484.583 0.119767 3.24079 0
M  V30 4774 H 484.368 1.88306 3.43923 0
M  V30 4775 H 485.858 1.08946 4.03138 0
M  V30 4776 N 486.295 -0.989507 1.22664 0
M  V30 4777 C 487.228 -2.07805 0.942985 0
M  V30 4778 C 488.206 -1.6219 -0.115356 0
M  V30 4779 O 489.39 -1.88492 0.0169565 0
M  V30 4780 C 486.517 -3.361 0.418898 0
M  V30 4781 C 485.563 -4.00643 1.46244 0
M  V30 4782 S 486.396 -4.41059 3.03689 0
M  V30 4783 C 487.552 -5.7252 2.52927 0
M  V30 4784 H 487.785 -2.31547 1.86476 0
M  V30 4785 H 485.318 -1.12446 1.05808 0
M  V30 4786 H 487.276 -4.10315 0.123114 0
M  V30 4787 H 485.937 -3.10383 -0.481818 0
M  V30 4788 H 485.13 -4.93033 1.04569 0
M  V30 4789 H 484.732 -3.32767 1.7071 0
M  V30 4790 H 487.024 -6.49017 1.94379 0
M  V30 4791 H 487.967 -6.19026 3.4382 0
M  V30 4792 H 488.375 -5.30083 1.94094 0
M  V30 4793 N 487.773 -1.03688 -1.18687 0
M  V30 4794 C 489.001 -0.757918 -1.92518 0
M  V30 4795 C 489.416 0.684398 -1.75959 0
M  V30 4796 O 488.773 1.46617 -1.08673 0
M  V30 4797 C 488.824 -1.10985 -3.44042 0
M  V30 4798 O 488.545 -2.49554 -3.60076 0
M  V30 4799 C 490.046 -0.854844 -4.3498 0
M  V30 4800 H 487.266 -0.276699 -0.611293 0
M  V30 4801 H 489.81 -1.38352 -1.50595 0
M  V30 4802 H 487.965 -0.529279 -3.83767 0
M  V30 4803 H 488.379 -2.6291 -4.53849 0
M  V30 4804 H 489.853 -1.15098 -5.39867 0
M  V30 4805 H 490.33 0.210507 -4.38695 0
M  V30 4806 H 490.936 -1.41853 -4.00946 0
M  V30 4807 N 489.251 1.34841 -0.815825 0
M  V30 4808 C 490.499 1.98107 -0.399744 0
M  V30 4809 C 490.82 1.65019 1.03894 0
M  V30 4810 O 490.09 0.937311 1.72021 0
M  V30 4811 H 488.67 0.732827 -0.144823 0
M  V30 4812 H 491.332 1.64599 -1.0437 0
M  V30 4813 H 490.428 3.07856 -0.512965 0
M  V30 4814 N 490.729 0.570148 1.46925 0
M  V30 4815 C 491.679 -0.190921 2.27199 0
M  V30 4816 C 492.663 -0.873457 1.35128 0
M  V30 4817 O 493.855 -0.769627 1.59392 0
M  V30 4818 C 490.984 -1.21204 3.21192 0
M  V30 4819 C 490.07 -0.532261 4.20747 0
M  V30 4820 N 490.461 0.405038 5.04176 0
M  V30 4821 C 488.759 -0.784582 4.39045 0
M  V30 4822 C 489.46 0.801149 5.76157 0
M  V30 4823 N 488.436 0.153082 5.43384 0
M  V30 4824 H 492.238 0.529535 2.8909 0
M  V30 4825 H 489.752 0.391019 1.57622 0
M  V30 4826 H 491.749 -1.77135 3.77398 0
M  V30 4827 H 490.409 -1.93345 2.6086 0
M  V30 4828 H 491.42 0.779903 5.11994 0
M  V30 4829 H 488.097 -1.49352 3.89872 0
M  V30 4830 H 489.487 1.57208 6.5325 0
M  V30 4831 N 492.207 -1.54576 0.307264 0
M  V30 4832 C 493.432 -2.05139 -0.305379 0
M  V30 4833 C 493.857 -1.18278 -1.46259 0
M  V30 4834 O 493.215 -0.188243 -1.8032 0
M  V30 4835 C 493.263 -3.53066 -0.733283 0
M  V30 4836 O 492.367 -3.69206 -1.83741 0
M  V30 4837 H 491.708 -0.661444 -0.0582105 0
M  V30 4838 H 494.238 -1.99569 0.450931 0
M  V30 4839 H 494.248 -3.95034 -1.02039 0
M  V30 4840 H 492.923 -4.15746 0.113198 0
M  V30 4841 H 491.5 -3.39143 -1.55037 0
M  V30 4842 N 493.685 -0.035106 -1.57561 0
M  V30 4843 C 494.615 0.942993 -2.13612 0
M  V30 4844 C 495.596 1.33531 -1.05373 0
M  V30 4845 O 496.781 1.41287 -1.33235 0
M  V30 4846 C 493.911 2.22332 -2.66807 0
M  V30 4847 C 492.865 1.97156 -3.79886 0
M  V30 4848 C 492.191 3.31506 -4.19533 0
M  V30 4849 C 493.491 1.30596 -5.05709 0
M  V30 4850 H 495.185 0.476179 -2.95589 0
M  V30 4851 H 492.731 0.227602 -1.4219 0
M  V30 4852 H 494.684 2.91142 -3.04654 0
M  V30 4853 H 493.408 2.7119 -1.81999 0
M  V30 4854 H 492.067 1.30763 -3.42486 0
M  V30 4855 H 491.715 3.78134 -3.31698 0
M  V30 4856 H 491.415 3.15465 -4.95738 0
M  V30 4857 H 492.939 4.01574 -4.59968 0
M  V30 4858 H 494.353 1.89416 -5.41105 0
M  V30 4859 H 492.75 1.24934 -5.86951 0
M  V30 4860 H 493.82 0.279742 -4.84092 0
M  V30 4861 N 495.163 1.55791 0.238111 0
M  V30 4862 C 496.411 1.77681 0.963001 0
M  V30 4863 C 496.732 0.600674 1.85518 0
M  V30 4864 O 496.002 -0.383182 1.92116 0
M  V30 4865 H 494.582 0.655315 0.358568 0
M  V30 4866 H 497.244 1.93239 0.253945 0
M  V30 4867 H 496.34 2.69177 1.57956 0
M  V30 4868 N 496.642 -0.504142 1.49319 0
M  V30 4869 C 497.605 -1.5883 1.65244 0
M  V30 4870 C 498.605 -1.52009 0.524386 0
M  V30 4871 O 499.795 -1.55218 0.79077 0
M  V30 4872 C 496.927 -2.98481 1.64687 0
M  V30 4873 H 498.12 -1.4604 2.61939 0
M  V30 4874 H 495.673 -0.728144 1.38303 0
M  V30 4875 H 496.408 -3.16751 0.695644 0
M  V30 4876 H 496.193 -3.0484 2.46607 0
M  V30 4877 H 497.683 -3.77256 1.79075 0
M  V30 4878 N 498.12 -1.38341 -0.754957 0
M  V30 4879 C 499.083 -1.35262 -1.85032 0
M  V30 4880 C 500.083 -0.253393 -1.58791 0
M  V30 4881 O 501.273 -0.510205 -1.66561 0
M  V30 4882 C 498.405 -1.10544 -3.22479 0
M  V30 4883 H 499.598 -2.32712 -1.8917 0
M  V30 4884 H 497.151 -1.23614 -0.956515 0
M  V30 4885 H 497.886 -0.136952 -3.24011 0
M  V30 4886 H 497.671 -1.90127 -3.4292 0
M  V30 4887 H 499.161 -1.11082 -4.02555 0
M  V30 4888 N 499.598 0.982988 -1.23187 0
M  V30 4889 C 500.846 1.72052 -1.06031 0
M  V30 4890 C 501.167 1.90769 0.404019 0
M  V30 4891 O 500.437 1.47446 1.28982 0
M  V30 4892 H 499.017 0.637499 -0.389363 0
M  V30 4893 H 501.679 1.18338 -1.54862 0
M  V30 4894 H 500.775 2.7111 -1.54615 0
M  V30 4895 N 501.076 1.04316 1.18135 0
M  V30 4896 C 502.322 0.749128 1.88457 0
M  V30 4897 C 502.655 -0.72149 1.803 0
M  V30 4898 O 501.93 -1.52676 1.205 0
M  V30 4899 C 502.213 1.21905 3.38838 0
M  V30 4900 C 502.066 2.75195 3.55792 0
M  V30 4901 C 503.385 0.811085 4.32561 0
M  V30 4902 H 500.504 0.273611 0.684329 0
M  V30 4903 H 503.146 1.29561 1.38975 0
M  V30 4904 H 501.296 0.754137 3.8111 0
M  V30 4905 H 502.968 3.29743 3.22595 0
M  V30 4906 H 501.211 3.14899 2.98364 0
M  V30 4907 H 501.882 3.03135 4.61317 0
M  V30 4908 H 504.358 1.21118 3.98082 0
M  V30 4909 H 503.234 1.16761 5.36338 0
M  V30 4910 H 503.495 -0.285596 4.41177 0
M  V30 4911 N 502.554 -1.34406 0.822964 0
M  V30 4912 C 503.486 -2.28305 0.202375 0
M  V30 4913 C 504.499 -1.5103 -0.60777 0
M  V30 4914 O 505.688 -1.73057 -0.437444 0
M  V30 4915 C 502.788 -3.30836 -0.734911 0
M  V30 4916 C 501.961 -4.37388 0.0324177 0
M  V30 4917 C 501.02 -5.1968 -0.825803 0
M  V30 4918 O 500.046 -5.68556 -0.270771 0
M  V30 4919 N 501.248 -5.39393 -2.14558 0
M  V30 4920 H 504.013 -2.82201 1.00909 0
M  V30 4921 H 501.574 -1.4693 0.67993 0
M  V30 4922 H 503.566 -3.82786 -1.31365 0
M  V30 4923 H 502.136 -2.77334 -1.44238 0
M  V30 4924 H 501.356 -3.86152 0.792469 0
M  V30 4925 H 502.644 -5.05702 0.560633 0
M  V30 4926 H 502.042 -5.01357 -2.62025 0
M  V30 4927 H 500.599 -5.94461 -2.67318 0
M  V30 4928 N 504.032 -0.577932 -1.46621 0
M  V30 4929 C 504.942 0.160651 -2.34049 0
M  V30 4930 C 505.958 0.890911 -1.49462 0
M  V30 4931 O 507.134 0.855166 -1.82343 0
M  V30 4932 C 504.199 1.16447 -3.26559 0
M  V30 4933 C 503.26 0.4394 -4.27045 0
M  V30 4934 C 502.493 1.3954 -5.15135 0
M  V30 4935 O 502.716 2.63162 -5.06065 0
M  V30 4936 O 501.65 0.908585 -5.95003 0
M  V30 4937 H 505.476 -0.557057 -2.98547 0
M  V30 4938 H 503.061 -0.338369 -1.45518 0
M  V30 4939 H 504.943 1.7434 -3.83645 0
M  V30 4940 H 503.618 1.86373 -2.64663 0
M  V30 4941 H 502.525 -0.181247 -3.73661 0
M  V30 4942 H 503.858 -0.218799 -4.91713 0
M  V30 4943 N 505.51 1.54411 -0.315457 0
M  V30 4944 C 506.473 2.22713 0.54142 0
M  V30 4945 C 507.473 1.2179 1.04995 0
M  V30 4946 O 508.663 1.46426 0.943667 0
M  V30 4947 C 505.795 2.92485 1.75116 0
M  V30 4948 H 506.988 2.99849 -0.0555508 0
M  V30 4949 H 504.541 1.56159 -0.0664453 0
M  V30 4950 H 505.276 2.19466 2.38758 0
M  V30 4951 H 505.061 3.66483 1.39401 0
M  V30 4952 H 506.551 3.44548 2.35959 0
M  V30 4953 N 506.988 0.0434614 1.5754 0
M  V30 4954 C 508.237 -0.631454 1.91561 0
M  V30 4955 C 508.55 -1.72457 0.92292 0
M  V30 4956 O 509.756 -2.45712 1.15489 0
M  V30 4957 C 508.212 -1.17447 3.40197 0
M  V30 4958 C 507.82 -0.113867 4.47855 0
M  V30 4959 C 509.564 -1.82507 3.83264 0
M  V30 4960 C 507.471 -0.669326 5.876 0
M  V30 4961 H 506.401 -0.239629 0.714908 0
M  V30 4962 H 509.052 0.111097 1.83163 0
M  V30 4963 H 507.434 -1.96909 3.43574 0
M  V30 4964 H 508.608 0.659348 4.56058 0
M  V30 4965 H 506.923 0.438821 4.14081 0
M  V30 4966 H 509.52 -2.25047 4.85034 0
M  V30 4967 H 509.863 -2.67365 3.19095 0
M  V30 4968 H 510.396 -1.09712 3.82372 0
M  V30 4969 H 507.135 0.141449 6.55347 0
M  V30 4970 H 506.655 -1.4107 5.82974 0
M  V30 4971 H 508.334 -1.15463 6.36614 0
M  V30 4972 N 508.466 -1.55915 -0.229846 0
M  V30 4973 C 509.696 -1.82352 -0.971152 0
M  V30 4974 C 510.104 -0.619231 -1.7878 0
M  V30 4975 O 509.447 0.421597 -1.78797 0
M  V30 4976 C 509.509 -3.02399 -1.9441 0
M  V30 4977 C 509.173 -4.37739 -1.31277 0
M  V30 4978 C 510.17 -5.15074 -0.706757 0
M  V30 4979 C 507.855 -4.84454 -1.32702 0
M  V30 4980 C 509.849 -6.37281 -0.123413 0
M  V30 4981 C 507.536 -6.06605 -0.739831 0
M  V30 4982 C 508.534 -6.82858 -0.139071 0
M  V30 4983 O 508.222 -8.027 0.439007 0
M  V30 4984 H 507.954 -0.61035 -0.290601 0
M  V30 4985 H 510.508 -2.03839 -0.252746 0
M  V30 4986 H 508.738 -2.76709 -2.70128 0
M  V30 4987 H 510.427 -3.15779 -2.55026 0
M  V30 4988 H 511.193 -4.80093 -0.688131 0
M  V30 4989 H 507.072 -4.25081 -1.78402 0
M  V30 4990 H 510.616 -6.96741 0.346124 0
M  V30 4991 H 506.513 -6.4106 -0.755841 0
M  V30 4992 H 507.281 -8.17824 0.332521 0
M  V30 4993 N 509.944 0.496216 -1.49584 0
M  V30 4994 C 511.169 1.27865 -1.63295 0
M  V30 4995 C 511.594 1.85592 -0.306156 0
M  V30 4996 O 510.952 1.66092 0.726851 0
M  V30 4997 C 511 2.38128 -2.7079 0
M  V30 4998 O 510.104 3.42108 -2.30296 0
M  V30 4999 H 509.445 0.377279 -0.546403 0
M  V30 5000 H 511.975 0.593497 -1.95803 0
M  V30 5001 H 511.985 2.8382 -2.93104 0
M  V30 5002 H 510.66 1.95479 -3.67098 0
M  V30 5003 H 509.237 3.02301 -2.18331 0
M  V30 5004 N 511.423 1.38739 0.74761 0
M  V30 5005 C 512.353 1.39173 1.87492 0
M  V30 5006 C 513.334 0.256794 1.6815 0
M  V30 5007 O 514.519 0.460762 1.88655 0
M  V30 5008 C 511.649 1.22197 3.25093 0
M  V30 5009 C 510.603 2.32957 3.59047 0
M  V30 5010 C 509.929 2.01082 4.95449 0
M  V30 5011 C 511.229 3.75237 3.6331 0
M  V30 5012 H 512.923 2.3351 1.87386 0
M  V30 5013 H 510.469 1.12399 0.900134 0
M  V30 5014 H 512.422 1.21124 4.03617 0
M  V30 5015 H 511.146 0.243241 3.25693 0
M  V30 5016 H 509.805 2.33226 2.82845 0
M  V30 5017 H 509.453 1.01678 4.92616 0
M  V30 5018 H 509.153 2.75267 5.19136 0
M  V30 5019 H 510.677 2.01638 5.76346 0
M  V30 5020 H 512.091 3.76966 4.31937 0
M  V30 5021 H 510.488 4.48677 3.98509 0
M  V30 5022 H 511.558 4.07122 2.634 0
M  V30 5023 N 512.901 -0.976442 1.23707 0
M  V30 5024 C 513.831 -2.08749 1.04624 0
M  V30 5025 C 514.812 -1.70057 -0.0380956 0
M  V30 5026 O 515.997 -1.93782 0.127308 0
M  V30 5027 C 513.127 -3.41335 0.640902 0
M  V30 5028 C 512.081 -3.93947 1.67302 0
M  V30 5029 C 511.407 -5.22774 1.12301 0
M  V30 5030 C 512.707 -4.22769 3.06697 0
M  V30 5031 H 514.401 -2.24972 1.97555 0
M  V30 5032 H 511.947 -1.08108 0.951247 0
M  V30 5033 H 513.9 -4.18489 0.494434 0
M  V30 5034 H 512.624 -3.24988 -0.324099 0
M  V30 5035 H 511.283 -3.18941 1.80755 0
M  V30 5036 H 510.931 -5.0278 0.148877 0
M  V30 5037 H 510.631 -5.58942 1.81267 0
M  V30 5038 H 512.155 -6.02546 0.988479 0
M  V30 5039 H 513.569 -4.90659 2.96524 0
M  V30 5040 H 511.966 -4.70147 3.72937 0
M  V30 5041 H 513.036 -3.29885 3.55392 0
M  V30 5042 N 514.379 -1.04941 -1.1758 0
M  V30 5043 C 515.312 -0.592518 -2.20373 0
M  V30 5044 C 516.29 0.377561 -1.58156 0
M  V30 5045 O 517.474 0.28978 -1.86259 0
M  V30 5046 C 514.601 0.133215 -3.38438 0
M  V30 5047 C 513.647 -0.791484 -4.19092 0
M  V30 5048 S 514.48 -2.27925 -4.84572 0
M  V30 5049 C 515.636 -1.56462 -6.06028 0
M  V30 5050 H 515.869 -1.46342 -2.58788 0
M  V30 5051 H 513.402 -0.861148 -1.28155 0
M  V30 5052 H 515.36 0.545746 -4.06856 0
M  V30 5053 H 514.021 0.980124 -2.98416 0
M  V30 5054 H 513.214 -0.230039 -5.03475 0
M  V30 5055 H 512.816 -1.14326 -3.56098 0
M  V30 5056 H 515.108 -0.862539 -6.71987 0
M  V30 5057 H 516.051 -2.38583 -6.66696 0
M  V30 5058 H 516.459 -1.05313 -5.5459 0
M  V30 5059 N 515.857 1.33968 -0.830081 0
M  V30 5060 C 516.787 2.31911 -0.271911 0
M  V30 5061 C 517.768 1.58571 0.61556 0
M  V30 5062 O 518.953 1.86514 0.540946 0
M  V30 5063 C 516.083 3.42737 0.561146 0
M  V30 5064 C 515.037 4.27383 -0.229789 0
M  V30 5065 C 514.363 5.29742 0.726463 0
M  V30 5066 C 515.663 5.02 -1.44197 0
M  V30 5067 H 517.357 2.78844 -1.09025 0
M  V30 5068 H 514.903 1.34061 -0.52571 0
M  V30 5069 H 516.856 4.10276 0.961867 0
M  V30 5070 H 515.58 2.94471 1.41261 0
M  V30 5071 H 514.239 3.61456 -0.611964 0
M  V30 5072 H 513.887 4.77736 1.57408 0
M  V30 5073 H 513.587 5.87255 0.20142 0
M  V30 5074 H 515.111 6.00149 1.12489 0
M  V30 5075 H 516.525 5.62355 -1.11488 0
M  V30 5076 H 514.922 5.69122 -1.90317 0
M  V30 5077 H 515.992 4.31281 -2.2164 0
M  V30 5078 N 517.335 0.585699 1.46312 0
M  V30 5079 C 518.245 -0.148236 2.34131 0
M  V30 5080 C 519.261 -0.882972 1.49932 0
M  V30 5081 O 520.437 -0.845484 1.82794 0
M  V30 5082 C 517.502 -1.14714 3.27172 0
M  V30 5083 C 516.563 -0.416746 4.27272 0
M  V30 5084 C 515.796 -1.36806 5.15868 0
M  V30 5085 O 516.019 -2.60475 5.07454 0
M  V30 5086 O 514.953 -0.877018 5.95476 0
M  V30 5087 H 518.779 0.572882 2.98248 0
M  V30 5088 H 516.364 0.346082 1.45336 0
M  V30 5089 H 518.246 -1.72303 3.84564 0
M  V30 5090 H 516.921 -1.84967 2.65648 0
M  V30 5091 H 515.828 0.201061 3.73559 0
M  V30 5092 H 517.161 0.244872 4.9159 0
M  V30 5093 N 518.813 -1.54241 0.323641 0
M  V30 5094 C 519.763 -2.21071 -0.557833 0
M  V30 5095 C 520.747 -1.19126 -1.08157 0
M  V30 5096 O 521.939 -1.44755 -1.01857 0
M  V30 5097 C 519.068 -2.97208 -1.71821 0
M  V30 5098 C 518.154 -4.06491 -1.20936 0
M  V30 5099 N 518.545 -5.04052 -0.420202 0
M  V30 5100 C 516.843 -4.20443 -1.48808 0
M  V30 5101 C 517.544 -5.81516 -0.146413 0
M  V30 5102 N 516.52 -5.38641 -0.732562 0
M  V30 5103 H 520.322 -2.93853 0.0523921 0
M  V30 5104 H 517.836 -1.61883 0.129502 0
M  V30 5105 H 519.833 -3.4357 -2.36146 0
M  V30 5106 H 518.493 -2.25947 -2.33191 0
M  V30 5107 H 519.504 -5.17862 -0.0630401 0
M  V30 5108 H 516.181 -3.60396 -2.10762 0
M  V30 5109 H 517.571 -6.70119 0.488895 0
M  V30 5110 N 520.291 -0.0518155 -1.57515 0
M  V30 5111 C 521.539 0.620595 -1.92336 0
M  V30 5112 C 521.86 1.71345 -0.930907 0
M  V30 5113 O 521.13 1.95885 0.0241341 0
M  V30 5114 H 519.71 0.232226 -0.709986 0
M  V30 5115 H 522.372 -0.104969 -1.94617 0
M  V30 5116 H 521.468 1.05879 -2.93592 0
M  V30 5117 N 521.769 1.56035 0.221574 0
M  V30 5118 C 523.016 1.79047 0.94597 0
M  V30 5119 C 523.344 0.62057 1.84334 0
M  V30 5120 O 522.599 -0.395053 1.91671 0
M  V30 5121 C 522.898 3.07813 1.8162 0
M  V30 5122 C 522.564 4.3797 1.07206 0
M  V30 5123 C 521.226 4.73334 0.866508 0
M  V30 5124 C 523.578 5.18326 0.546565 0
M  V30 5125 C 520.906 5.8657 0.123549 0
M  V30 5126 C 523.258 6.32335 -0.18305 0
M  V30 5127 C 521.922 6.66301 -0.399861 0
M  V30 5128 H 521.192 0.655178 0.346155 0
M  V30 5129 H 523.839 1.90299 0.214146 0
M  V30 5130 H 522.144 2.91682 2.61589 0
M  V30 5131 H 523.841 3.2282 2.37884 0
M  V30 5132 H 520.431 4.10202 1.24226 0
M  V30 5133 H 524.615 4.9144 0.692847 0
M  V30 5134 H 519.871 6.11376 -0.0546591 0
M  V30 5135 H 524.045 6.9383 -0.59775 0
M  V30 5136 H 521.672 7.53889 -0.977489 0
M  V30 5137 N 523.247 -0.488276 1.49845 0
M  V30 5138 C 524.496 -1.23826 1.59217 0
M  V30 5139 C 524.809 -1.93439 0.289966 0
M  V30 5140 O 526.015 -2.70229 0.262382 0
M  V30 5141 C 524.471 -2.24902 2.80976 0
M  V30 5142 C 524.079 -1.6117 4.18005 0
M  V30 5143 C 525.823 -3.00648 2.99685 0
M  V30 5144 C 523.73 -2.60431 5.3097 0
M  V30 5145 H 522.66 -0.465858 0.592868 0
M  V30 5146 H 525.311 -0.510645 1.76252 0
M  V30 5147 H 523.693 -3.0088 2.57463 0
M  V30 5148 H 524.867 -0.910968 4.51706 0
M  V30 5149 H 523.182 -0.97767 4.0476 0
M  V30 5150 H 525.779 -3.74903 3.81251 0
M  V30 5151 H 526.122 -3.5902 2.10738 0
M  V30 5152 H 526.655 -2.31784 3.23297 0
M  V30 5153 H 523.394 -2.06823 6.22017 0
M  V30 5154 H 522.914 -3.28707 5.01709 0
M  V30 5155 H 524.593 -3.22606 5.60834 0
M  V30 5156 N 524.725 -1.39134 -0.740242 0
M  V30 5157 C 525.688 -1.37217 -1.83587 0
M  V30 5158 C 526.688 -0.270221 -1.58513 0
M  V30 5159 O 527.878 -0.527843 -1.6601 0
M  V30 5160 C 525.01 -1.13959 -3.21288 0
M  V30 5161 H 526.203 -2.34705 -1.86691 0
M  V30 5162 H 523.756 -1.24622 -0.94335 0
M  V30 5163 H 524.491 -0.17131 -3.23847 0
M  V30 5164 H 524.276 -1.93754 -3.40884 0
M  V30 5165 H 525.766 -1.15346 -4.01354 0
M  V30 5166 N 526.204 0.969867 -1.24223 0
M  V30 5167 C 527.615 1.52717 -1.07399 0
M  V30 5168 C 527.966 1.92956 0.355298 0
M  V30 5169 O 527.091 1.77112 1.2434 0
M  V30 5170 C 527.686 2.77521 -1.94339 0
M  V30 5171 C 526.245 3.29615 -1.81744 0
M  V30 5172 C 525.392 2.02537 -1.89405 0
M  V30 5173 H 528.343 0.788399 -1.37732 0
M  V30 5174 H 528.364 3.50773 -1.47439 0
M  V30 5175 H 527.876 2.48203 -2.98357 0
M  V30 5176 H 525.977 3.63789 -0.805505 0
M  V30 5177 H 526.09 3.98661 -2.65718 0
M  V30 5178 H 524.454 2.17151 -1.33108 0
M  V30 5179 H 525.237 1.75587 -2.94999 0
M  V30 5180 N 527.682 1.05563 1.17022 0
M  V30 5181 C 528.907 0.788437 1.91829 0
M  V30 5182 C 529.332 -0.650356 1.76499 0
M  V30 5183 O 528.69 -1.45229 1.08527 0
M  V30 5184 C 528.738 1.1786 3.40795 0
M  V30 5185 O 527.842 0.312965 4.11211 0
M  V30 5186 H 527.183 0.288794 0.597908 0
M  V30 5187 H 529.713 1.40948 1.48307 0
M  V30 5188 H 529.723 1.14697 3.91546 0
M  V30 5189 H 528.398 2.22666 3.51273 0
M  V30 5190 H 526.975 0.405515 3.70689 0
M  V30 5191 N 529.16 -1.33526 0.837174 0
M  V30 5192 C 530.409 -1.97098 0.428387 0
M  V30 5193 C 530.722 -1.67062 -1.01734 0
M  V30 5194 O 531.928 -2.24235 -1.53072 0
M  V30 5195 C 530.384 -3.52725 0.715075 0
M  V30 5196 C 529.992 -3.9164 2.17537 0
M  V30 5197 C 531.736 -4.22857 0.373154 0
M  V30 5198 C 529.643 -5.40237 2.40619 0
M  V30 5199 H 528.573 -0.737589 0.156455 0
M  V30 5200 H 531.224 -1.52169 1.02552 0
M  V30 5201 H 529.606 -3.95971 0.0475904 0
M  V30 5202 H 530.78 -3.59456 2.88319 0
M  V30 5203 H 529.095 -3.34485 2.4801 0
M  V30 5204 H 531.692 -5.32133 0.523264 0
M  V30 5205 H 532.035 -4.10647 -0.683708 0
M  V30 5206 H 532.568 -3.85135 0.995801 0
M  V30 5207 H 529.307 -5.57449 3.44864 0
M  V30 5208 H 528.827 -5.73887 1.74396 0
M  V30 5209 H 530.506 -6.07102 2.23688 0
M  V30 5210 N 530.638 -0.59345 -1.46 0
M  V30 5211 C 531.586 0.146268 -2.3214 0
M  V30 5212 C 532.58 0.873743 -1.45128 0
M  V30 5213 O 533.786 0.790912 -1.61693 0
M  V30 5214 H 530.161 0.0660349 -0.749095 0
M  V30 5215 H 532.132 -0.598895 -2.92328 0
M  V30 5216 C 530.881 1.1396 -3.28494 0
M  V30 5217 H 530.204 0.589252 -3.95434 0
M  V30 5218 H 531.644 1.62738 -3.91526 0
M  V30 5219 C 530.103 2.20604 -2.54628 0
M  V30 5220 O 530.633 3.28128 -2.31722 0
M  V30 5221 N 528.839 1.95502 -2.15005 0
M  V30 5222 H 528.386 1.0807 -2.33834 0
M  V30 5223 H 528.344 2.67064 -1.65904 0
M  V30 5224 N 532.116 1.54067 -0.331816 0
M  V30 5225 C 533.365 1.99895 0.269209 0
M  V30 5226 C 533.678 1.22371 1.52593 0
M  V30 5227 O 534.884 1.58618 2.20347 0
M  V30 5228 C 533.34 3.55972 0.530244 0
M  V30 5229 C 532.948 4.4234 -0.709901 0
M  V30 5230 C 534.692 4.10247 1.09077 0
M  V30 5231 C 532.599 5.89905 -0.420312 0
M  V30 5232 H 531.529 0.746741 0.104371 0
M  V30 5233 H 534.18 1.78014 -0.445324 0
M  V30 5234 H 532.562 3.73873 1.30518 0
M  V30 5235 H 533.736 4.36215 -1.48504 0
M  V30 5236 H 532.051 3.98997 -1.19123 0
M  V30 5237 H 534.648 5.18095 1.32219 0
M  V30 5238 H 534.991 3.62739 2.0427 0
M  V30 5239 H 535.524 3.96011 0.376824 0
M  V30 5240 H 532.263 6.41623 -1.34164 0
M  V30 5241 H 531.783 5.98962 0.316962 0
M  V30 5242 H 533.462 6.46991 -0.0331956 0
M  V30 5243 N 533.594 0.0601682 1.57485 0
M  V30 5244 C 534.504 -0.926121 2.15546 0
M  V30 5245 C 535.52 -1.33532 1.11558 0
M  V30 5246 O 536.696 -1.4104 1.4377 0
M  V30 5247 C 533.761 -2.17952 2.69625 0
M  V30 5248 C 532.822 -1.82783 3.88444 0
M  V30 5249 C 532.055 -3.02148 4.39935 0
M  V30 5250 O 532.278 -4.15803 3.90466 0
M  V30 5251 O 531.212 -2.82639 5.31412 0
M  V30 5252 H 535.038 -0.462289 3.00161 0
M  V30 5253 H 532.623 -0.162246 1.48516 0
M  V30 5254 H 534.505 -2.91474 3.04337 0
M  V30 5255 H 533.18 -2.63456 1.88077 0
M  V30 5256 H 532.087 -1.06549 3.58606 0
M  V30 5257 H 533.42 -1.42072 4.7125 0
M  V30 5258 N 535.072 -1.5615 -0.213296 0
M  V30 5259 C 535.982 -1.96265 -1.28519 0
M  V30 5260 C 536.998 -0.86765 -1.50824 0
M  V30 5261 O 538.174 -1.17191 -1.63793 0
M  V30 5262 C 535.239 -2.27836 -2.61327 0
M  V30 5263 C 534.3 -3.50949 -2.47252 0
M  V30 5264 C 533.533 -3.81004 -3.73727 0
M  V30 5265 O 533.756 -3.12612 -4.77106 0
M  V30 5266 O 532.69 -4.74477 -3.70344 0
M  V30 5267 H 536.516 -2.87631 -0.974795 0
M  V30 5268 H 534.101 -1.43467 -0.416832 0
M  V30 5269 H 535.983 -2.49299 -3.39747 0
M  V30 5270 H 534.658 -1.39643 -2.9203 0
M  V30 5271 H 533.565 -3.34754 -1.67004 0
M  V30 5272 H 534.898 -4.39551 -2.21486 0
M  V30 5273 N 536.55 0.480323 -1.50102 0
M  V30 5274 C 537.48 1.58769 -1.71215 0
M  V30 5275 C 538.461 1.60583 -0.560997 0
M  V30 5276 O 539.646 1.76996 -0.799127 0
M  V30 5277 C 536.776 2.97148 -1.79778 0
M  V30 5278 C 535.73 3.10201 -2.94888 0
M  V30 5279 C 535.056 4.50137 -2.88584 0
M  V30 5280 C 536.356 2.88283 -4.35534 0
M  V30 5281 H 538.05 1.41354 -2.6393 0
M  V30 5282 H 535.596 0.678591 -1.27008 0
M  V30 5283 H 537.549 3.74536 -1.93133 0
M  V30 5284 H 536.273 3.15699 -0.836772 0
M  V30 5285 H 534.932 2.35244 -2.81169 0
M  V30 5286 H 534.58 4.65593 -1.90349 0
M  V30 5287 H 534.28 4.59808 -3.65856 0
M  V30 5288 H 535.804 5.29558 -3.03976 0
M  V30 5289 H 537.218 3.55427 -4.49827 0
M  V30 5290 H 535.615 3.09408 -5.14186 0
M  V30 5291 H 536.685 1.84219 -4.48544 0
M  V30 5292 N 538.028 1.39524 0.732853 0
M  V30 5293 C 539.305 1.27373 1.48444 0
M  V30 5294 C 539.685 -0.115725 2.10783 0
M  V30 5295 O 539.033 -1.12713 1.98766 0
M  V30 5296 C 539.243 2.39966 2.53412 0
M  V30 5297 C 540.591 2.79384 3.19733 0
M  V30 5298 O 541.615 2.39431 2.63725 0
M  V30 5299 O 540.474 3.48353 4.21085 0
M  V30 5300 H 537.568 0.499272 0.659285 0
M  V30 5301 H 540.114 1.51403 0.766496 0
M  V30 5302 H 538.886 3.32845 2.05742 0
M  V30 5303 H 538.509 2.17612 3.32762 0
M  V30 5304 N 539.506 -0.963266 1.24736 0
M  V30 5305 C 540.416 -2.09246 1.06082 0
M  V30 5306 C 541.432 -1.74 0.000363101 0
M  V30 5307 O 542.608 -2.0041 0.199479 0
M  V30 5308 C 539.673 -3.40115 0.672498 0
M  V30 5309 C 538.734 -3.89282 1.80993 0
M  V30 5310 C 537.967 -5.13905 1.44004 0
M  V30 5311 O 538.19 -5.69434 0.331835 0
M  V30 5312 O 537.124 -5.57566 2.26723 0
M  V30 5313 H 540.95 -2.27881 2.00759 0
M  V30 5314 H 538.535 -1.07649 1.03595 0
M  V30 5315 H 540.417 -4.18797 0.467668 0
M  V30 5316 H 539.092 -3.22771 -0.245102 0
M  V30 5317 H 537.999 -3.11642 2.06955 0
M  V30 5318 H 539.332 -4.1111 2.70646 0
M  V30 5319 N 540.985 -1.06182 -1.16461 0
M  V30 5320 C 541.917 -0.629584 -2.20383 0
M  V30 5321 C 542.93 0.311834 -1.59786 0
M  V30 5322 O 544.119 0.103 -1.78203 0
M  V30 5323 C 541.219 0.0973695 -3.3876 0
M  V30 5324 C 540.392 -0.857252 -4.28917 0
M  V30 5325 C 539.451 -0.169749 -5.25926 0
M  V30 5326 O 538.477 -0.807044 -5.6345 0
M  V30 5327 N 539.679 1.08911 -5.70192 0
M  V30 5328 H 542.444 -1.52352 -2.58087 0
M  V30 5329 H 540.005 -0.944993 -1.31459 0
M  V30 5330 H 541.997 0.567676 -4.00699 0
M  V30 5331 H 540.567 0.893093 -2.99571 0
M  V30 5332 H 539.787 -1.50696 -3.64259 0
M  V30 5333 H 541.075 -1.50489 -4.86035 0
M  V30 5334 H 540.473 1.62703 -5.41797 0
M  V30 5335 H 539.03 1.50331 -6.34227 0
M  V30 5336 N 542.463 1.3308 -0.844243 0
M  V30 5337 C 543.426 2.27403 -0.286485 0
M  V30 5338 C 544.426 1.51179 0.547872 0
M  V30 5339 O 545.616 1.70421 0.360886 0
M  V30 5340 C 542.748 3.35653 0.595813 0
M  V30 5341 H 543.941 2.78248 -1.11885 0
M  V30 5342 H 541.494 1.43574 -0.617749 0
M  V30 5343 H 542.229 2.90058 1.4504 0
M  V30 5344 H 542.014 3.921 -0.00125994 0
M  V30 5345 H 543.504 4.05958 0.979168 0
M  V30 5346 N 543.941 0.601185 1.45683 0
M  V30 5347 C 544.904 -0.111398 2.28929 0
M  V30 5348 C 545.904 -0.801246 1.39416 0
M  V30 5349 O 547.094 -0.650383 1.61603 0
M  V30 5350 C 544.226 -1.16773 3.20276 0
M  V30 5351 H 545.419 0.620412 2.93413 0
M  V30 5352 H 542.972 0.359946 1.52099 0
M  V30 5353 H 543.707 -1.93051 2.60579 0
M  V30 5354 H 543.492 -0.677358 3.86205 0
M  V30 5355 H 544.982 -1.66698 3.82886 0
M  V30 5356 N 545.419 -1.53889 0.339982 0
M  V30 5357 C 546.667 -2.00458 -0.257112 0
M  V30 5358 C 546.988 -1.22953 -1.51353 0
M  V30 5359 O 546.258 -0.335734 -1.93002 0
M  V30 5360 H 544.838 -0.740544 -0.0979965 0
M  V30 5361 H 547.5 -1.89386 0.460317 0
M  V30 5362 H 546.596 -3.08035 -0.502057 0
M  V30 5363 N 546.897 -0.0685191 -1.57451 0
M  V30 5364 C 547.827 0.89747 -2.15564 0
M  V30 5365 C 548.808 1.31266 -1.08181 0
M  V30 5366 O 549.993 1.38429 -1.36202 0
M  V30 5367 C 547.123 2.16623 -2.71463 0
M  V30 5368 C 546.077 1.89054 -3.83982 0
M  V30 5369 C 545.403 3.22532 -4.26471 0
M  V30 5370 C 546.703 1.1984 -5.08366 0
M  V30 5371 H 548.397 0.413373 -2.96533 0
M  V30 5372 H 545.943 0.197391 -1.42641 0
M  V30 5373 H 547.896 2.84614 -3.10761 0
M  V30 5374 H 546.62 2.67269 -1.8771 0
M  V30 5375 H 545.279 1.23469 -3.45183 0
M  V30 5376 H 544.927 3.71013 -3.39644 0
M  V30 5377 H 544.627 3.04879 -5.02317 0
M  V30 5378 H 546.151 3.91727 -4.68383 0
M  V30 5379 H 547.565 1.77896 -5.45001 0
M  V30 5380 H 545.962 1.12456 -5.89469 0
M  V30 5381 H 547.032 0.176996 -4.84577 0
M  V30 5382 N 548.375 1.56261 0.205012 0
M  V30 5383 C 549.323 1.94631 1.27364 0
M  V30 5384 C 550.317 0.830434 1.47649 0
M  V30 5385 O 551.523 1.01538 1.48627 0
M  V30 5386 H 547.898 0.618755 0.427371 0
M  V30 5387 H 549.869 2.83768 0.922941 0
M  V30 5388 C 548.618 2.29358 2.61324 0
M  V30 5389 H 547.941 3.14744 2.46528 0
M  V30 5390 H 549.381 2.60076 3.34868 0
M  V30 5391 C 547.84 1.12461 3.17575 0
M  V30 5392 O 548.37 0.394407 3.99759 0
M  V30 5393 N 546.576 0.904036 2.7618 0
M  V30 5394 H 546.123 1.49956 2.09454 0
M  V30 5395 H 546.081 0.123662 3.14157 0
M  V30 5396 N 549.853 -0.472356 1.50355 0
M  V30 5397 C 551.102 -1.2213 1.60522 0
M  V30 5398 C 551.415 -1.9312 0.310466 0
M  V30 5399 O 552.621 -2.69936 0.291029 0
M  V30 5400 C 551.077 -2.21909 2.83345 0
M  V30 5401 C 550.685 -1.56727 4.19691 0
M  V30 5402 C 552.429 -2.97453 3.02856 0
M  V30 5403 C 550.336 -2.54785 5.33703 0
M  V30 5404 H 549.266 -0.459543 0.597776 0
M  V30 5405 H 551.917 -0.491922 1.76783 0
M  V30 5406 H 550.299 -2.98133 2.60639 0
M  V30 5407 H 551.473 -0.863007 4.52646 0
M  V30 5408 H 549.788 -0.934685 4.05774 0
M  V30 5409 H 552.385 -3.70838 3.85205 0
M  V30 5410 H 552.728 -3.56764 2.14534 0
M  V30 5411 H 553.261 -2.28342 3.25737 0
M  V30 5412 H 550 -2.00214 6.24175 0
M  V30 5413 H 549.52 -3.23367 5.05167 0
M  V30 5414 H 551.199 -3.16639 5.64224 0
M  V30 5415 N 551.331 -1.39911 -0.725443 0
M  V30 5416 C 552.577 -1.37858 -1.48738 0
M  V30 5417 C 552.91 0.0224187 -1.94187 0
M  V30 5418 O 552.185 0.989204 -1.67466 0
M  V30 5419 C 552.468 -2.3594 -2.72038 0
M  V30 5420 C 552.321 -3.85023 -2.32546 0
M  V30 5421 C 553.64 -2.31704 -3.74167 0
M  V30 5422 H 550.759 -0.502074 -0.539528 0
M  V30 5423 H 553.401 -1.70974 -0.828728 0
M  V30 5424 H 551.551 -2.0783 -3.28236 0
M  V30 5425 H 553.223 -4.2392 -1.81905 0
M  V30 5426 H 551.466 -4.01334 -1.64661 0
M  V30 5427 H 552.137 -4.49152 -3.20884 0
M  V30 5428 H 554.613 -2.5658 -3.27576 0
M  V30 5429 H 553.489 -3.02395 -4.58092 0
M  V30 5430 H 553.75 -1.3253 -4.21768 0
M  V30 5431 N 552.809 0.956637 -1.25245 0
M  V30 5432 C 554.037 1.73571 -1.12608 0
M  V30 5433 C 554.452 1.86063 0.320324 0
M  V30 5434 O 553.809 1.35691 1.22042 0
M  V30 5435 C 553.86 3.15053 -1.77268 0
M  V30 5436 O 553.581 3.03174 -3.16255 0
M  V30 5437 C 555.082 4.09248 -1.70386 0
M  V30 5438 H 552.302 0.543955 -0.392879 0
M  V30 5439 H 554.846 1.20031 -1.65568 0
M  V30 5440 H 553.001 3.65543 -1.28284 0
M  V30 5441 H 553.415 3.9241 -3.48015 0
M  V30 5442 H 554.889 5.06138 -2.20291 0
M  V30 5443 H 555.366 4.34102 -0.667239 0
M  V30 5444 H 555.972 3.64672 -2.18849 0
M  V30 5445 N 554.287 1.06798 1.15896 0
M  V30 5446 C 555.197 0.694564 2.24083 0
M  V30 5447 C 556.213 -0.291687 1.71538 0
M  V30 5448 O 557.389 -0.139723 2.00915 0
M  V30 5449 C 554.454 0.0921014 3.46578 0
M  V30 5450 C 553.515 1.13087 4.14137 0
M  V30 5451 C 552.748 0.557064 5.30785 0
M  V30 5452 O 552.971 -0.628623 5.66925 0
M  V30 5453 O 551.905 1.29924 5.8771 0
M  V30 5454 H 555.731 1.59663 2.58344 0
M  V30 5455 H 553.316 0.840575 1.2351 0
M  V30 5456 H 555.198 -0.241884 4.20705 0
M  V30 5457 H 553.873 -0.78337 3.14078 0
M  V30 5458 H 552.78 1.51712 3.41957 0
M  V30 5459 H 554.113 1.97805 4.50704 0
M  V30 5460 N 555.766 -1.3263 0.851289 0
M  V30 5461 C 556.994 -2.01563 0.466899 0
M  V30 5462 C 557.409 -1.63996 -0.935447 0
M  V30 5463 O 556.766 -0.85957 -1.6099 0
M  V30 5464 C 556.817 -3.56613 0.592433 0
M  V30 5465 O 556.538 -3.92828 1.93954 0
M  V30 5466 C 558.039 -4.42818 0.206612 0
M  V30 5467 H 555.259 -0.645307 0.183902 0
M  V30 5468 H 557.803 -1.69285 1.1473 0
M  V30 5469 H 555.958 -3.87379 -0.0401936 0
M  V30 5470 H 556.372 -4.87545 1.9339 0
M  V30 5471 H 557.846 -5.50918 0.345462 0
M  V30 5472 H 558.323 -4.30844 -0.85264 0
M  V30 5473 H 558.929 -4.17434 0.814176 0
M  V30 5474 N 557.244 -0.608902 -1.45362 0
M  V30 5475 C 558.472 -0.111013 -2.06602 0
M  V30 5476 C 558.887 1.20516 -1.45332 0
M  V30 5477 O 558.244 1.73437 -0.567978 0
M  V30 5478 C 558.295 0.033688 -3.61484 0
M  V30 5479 O 558.016 -1.23041 -4.20467 0
M  V30 5480 C 559.517 0.562882 -4.39712 0
M  V30 5481 H 556.737 -0.0694453 -0.667397 0
M  V30 5482 H 559.281 -0.837008 -1.86586 0
M  V30 5483 H 557.436 0.710016 -3.80838 0
M  V30 5484 H 557.85 -1.06094 -5.13658 0
M  V30 5485 H 559.324 0.613213 -5.48583 0
M  V30 5486 H 559.801 1.58543 -4.09586 0
M  V30 5487 H 560.407 -0.0794454 -4.25226 0
M  V30 5488 N 558.722 1.53707 -0.348139 0
M  V30 5489 C 559.999 1.93247 0.302475 0
M  V30 5490 C 560.379 1.28012 1.67857 0
M  V30 5491 O 559.727 0.43274 2.24365 0
M  V30 5492 C 559.937 3.47031 0.370159 0
M  V30 5493 C 561.285 4.20066 0.61882 0
M  V30 5494 O 562.309 3.53319 0.452087 0
M  V30 5495 O 561.168 5.38318 0.94215 0
M  V30 5496 H 558.262 0.807736 0.177458 0
M  V30 5497 H 560.808 1.64927 -0.399651 0
M  V30 5498 H 559.58 3.86745 -0.59534 0
M  V30 5499 H 559.203 3.81532 1.11888 0
M  V30 5500 N 560.2 0.0768682 1.57412 0
M  V30 5501 C 561.616 -0.279772 1.57129 0
M  V30 5502 C 561.816 -1.69688 1.08666 0
M  V30 5503 O 560.872 -2.40953 0.754843 0
M  V30 5504 C 562.185 -0.0848055 3.0058 0
M  V30 5505 C 563.733 -0.153954 3.12621 0
M  V30 5506 C 564.208 0.0127946 4.57998 0
M  V30 5507 N 565.699 -0.0426435 4.6318 0
M  V30 5508 C 566.434 0.0618892 5.73367 0
M  V30 5509 N 565.93 0.220229 6.9245 0
M  V30 5510 N 567.723 0.00446072 5.621 0
M  V30 5511 H 559.874 1.00297 1.87228 0
M  V30 5512 H 562.137 0.391565 0.863354 0
M  V30 5513 H 561.843 0.89325 3.40168 0
M  V30 5514 H 561.717 -0.834961 3.67843 0
M  V30 5515 H 564.104 -1.1225 2.72917 0
M  V30 5516 H 564.185 0.627389 2.47987 0
M  V30 5517 H 563.829 0.978128 4.98392 0
M  V30 5518 H 563.759 -0.788016 5.20671 0
M  V30 5519 H 566.25 -0.163226 3.77547 0
M  V30 5520 H 566.563 0.291999 7.72248 0
M  V30 5521 H 564.908 0.255658 6.9453 0
M  V30 5522 H 568.099 -0.117979 4.67951 0
M  V30 5523 H 568.272 0.0893796 6.47938 0
M  V30 5524 N 561.678 -1.56367 -0.196722 0
M  V30 5525 C 562.588 -1.97617 -1.2643 0
M  V30 5526 C 563.604 -0.883598 -1.49895 0
M  V30 5527 O 564.78 -1.18921 -1.62541 0
M  V30 5528 C 561.845 -2.30595 -2.58895 0
M  V30 5529 C 560.906 -3.53551 -2.43516 0
M  V30 5530 C 560.139 -3.84946 -3.69665 0
M  V30 5531 O 560.362 -3.17655 -4.73763 0
M  V30 5532 O 559.296 -4.78379 -3.65291 0
M  V30 5533 H 563.122 -2.88648 -0.944233 0
M  V30 5534 H 560.707 -1.43901 -0.401592 0
M  V30 5535 H 562.589 -2.52889 -3.37083 0
M  V30 5536 H 561.264 -1.42732 -2.90533 0
M  V30 5537 H 560.171 -3.36507 -1.63445 0
M  V30 5538 H 561.504 -4.41875 -2.16812 0
M  V30 5539 N 563.156 0.464375 -1.50603 0
M  V30 5540 C 564.086 1.56944 -1.72889 0
M  V30 5541 C 565.067 1.59979 -0.577997 0
M  V30 5542 O 566.252 1.76138 -0.817855 0
M  V30 5543 C 563.382 2.95225 -1.8292 0
M  V30 5544 C 562.336 3.07056 -2.98162 0
M  V30 5545 C 561.662 4.47051 -2.93343 0
M  V30 5546 C 562.962 2.83648 -4.38567 0
M  V30 5547 H 564.656 1.38547 -2.65415 0
M  V30 5548 H 562.202 0.665082 -1.27721 0
M  V30 5549 H 564.155 3.72467 -1.97095 0
M  V30 5550 H 562.879 3.14793 -0.870209 0
M  V30 5551 H 561.538 2.32248 -2.83648 0
M  V30 5552 H 561.186 4.63547 -1.95276 0
M  V30 5553 H 560.886 4.55902 -3.70712 0
M  V30 5554 H 562.41 5.26304 -3.09575 0
M  V30 5555 H 563.824 3.50636 -4.53572 0
M  V30 5556 H 562.221 3.03937 -5.17438 0
M  V30 5557 H 563.291 1.79451 -4.50472 0
M  V30 5558 N 564.634 1.40294 0.718013 0
M  V30 5559 C 565.862 1.4175 1.50714 0
M  V30 5560 C 566.277 0.0165366 1.88793 0
M  V30 5561 O 565.634 -0.958942 1.55276 0
M  V30 5562 C 565.685 2.30598 2.784 0
M  V30 5563 O 565.406 3.6524 2.41932 0
M  V30 5564 C 566.907 2.4062 3.72313 0
M  V30 5565 H 564.127 0.483565 0.465194 0
M  V30 5566 H 566.671 1.84316 0.885889 0
M  V30 5567 H 564.826 1.91401 3.36815 0
M  V30 5568 H 565.24 4.12402 3.24076 0
M  V30 5569 H 566.714 3.07001 4.58753 0
M  V30 5570 H 567.191 1.4305 4.15251 0
M  V30 5571 H 567.797 2.80359 3.19811 0
M  V30 5572 N 566.112 -0.949982 1.2575 0
M  V30 5573 C 567.34 -1.72972 1.13527 0
M  V30 5574 C 567.755 -1.8623 -0.310453 0
M  V30 5575 O 567.112 -1.36336 -1.2132 0
M  V30 5576 C 567.163 -3.14108 1.78936 0
M  V30 5577 O 566.884 -3.01493 3.17858 0
M  V30 5578 C 568.385 -4.08338 1.72554 0
M  V30 5579 H 565.605 -0.541864 0.395758 0
M  V30 5580 H 568.149 -1.19151 1.66202 0
M  V30 5581 H 566.304 -3.64858 1.30221 0
M  V30 5582 H 566.718 -3.90559 3.50092 0
M  V30 5583 H 568.192 -5.04963 2.22973 0
M  V30 5584 H 568.669 -4.33742 0.690251 0
M  V30 5585 H 569.275 -3.63506 2.2078 0
M  V30 5586 N 567.59 -1.07411 -1.15328 0
M  V30 5587 C 568.836 -0.798831 -1.86404 0
M  V30 5588 C 569.169 0.673433 -1.8215 0
M  V30 5589 O 568.444 1.49428 -1.24505 0
M  V30 5590 C 568.727 -1.30846 -3.35487 0
M  V30 5591 C 568.58 -2.84532 -3.4837 0
M  V30 5592 C 569.899 -0.925486 -4.30259 0
M  V30 5593 H 567.018 -0.291659 -0.676834 0
M  V30 5594 H 569.66 -1.332 -1.35491 0
M  V30 5595 H 567.81 -0.854916 -3.78977 0
M  V30 5596 H 569.482 -3.3818 -3.13739 0
M  V30 5597 H 567.725 -3.22699 -2.8991 0
M  V30 5598 H 568.396 -3.15259 -4.53118 0
M  V30 5599 H 570.872 -1.3163 -3.94731 0
M  V30 5600 H 569.748 -1.3094 -5.33053 0
M  V30 5601 H 570.009 0.168525 -4.41779 0
M  V30 5602 N 569.068 1.32177 -0.85831 0
M  V30 5603 C 570.001 2.26823 -0.25035 0
M  V30 5604 C 570.979 1.50571 0.61378 0
M  V30 5605 O 572.163 1.79682 0.569777 0
M  V30 5606 C 569.29 3.32472 0.646556 0
M  V30 5607 C 568.336 4.26255 -0.144675 0
M  V30 5608 S 569.169 5.13608 -1.5155 0
M  V30 5609 C 570.325 6.22778 -0.624408 0
M  V30 5610 H 570.558 2.7804 -1.05267 0
M  V30 5611 H 568.091 1.39764 -0.656152 0
M  V30 5612 H 570.049 3.93817 1.15837 0
M  V30 5613 H 568.71 2.80031 1.42272 0
M  V30 5614 H 567.903 5.01114 0.538613 0
M  V30 5615 H 567.505 3.69346 -0.588198 0
M  V30 5616 H 569.797 6.77287 0.169846 0
M  V30 5617 H 570.74 6.95233 -1.34376 0
M  V30 5618 H 571.148 5.64156 -0.197128 0
M  V30 5619 N 570.547 0.616602 1.45037 0
M  V30 5620 C 571.772 0.120192 2.07051 0
M  V30 5621 C 572.197 -1.19008 1.45666 0
M  V30 5622 O 571.555 -1.7267 0.552692 0
M  V30 5623 C 571.603 0.00354901 3.606 0
M  V30 5624 O 570.707 -1.04431 3.98958 0
M  V30 5625 H 570.048 0.0781599 0.659384 0
M  V30 5626 H 572.578 0.849167 1.86146 0
M  V30 5627 H 572.588 -0.191754 4.07549 0
M  V30 5628 H 571.263 0.960239 4.04663 0
M  V30 5629 H 569.84 -0.824749 3.63665 0
M  V30 5630 N 572.025 -1.5352 0.356285 0
M  V30 5631 C 572.973 -2.26945 -0.50978 0
M  V30 5632 C 573.967 -1.29569 -1.09125 0
M  V30 5633 O 575.173 -1.47231 -1.03552 0
M  V30 5634 H 571.548 -0.729368 -0.183102 0
M  V30 5635 H 573.519 -2.98111 0.131374 0
M  V30 5636 C 572.268 -3.06466 -1.64237 0
M  V30 5637 H 571.591 -3.81233 -1.20423 0
M  V30 5638 H 573.031 -3.61035 -2.22327 0
M  V30 5639 C 571.49 -2.16737 -2.57928 0
M  V30 5640 O 572.02 -1.77195 -3.60507 0
M  V30 5641 N 570.226 -1.81558 -2.26903 0
M  V30 5642 H 569.773 -2.13913 -1.43524 0
M  V30 5643 H 569.731 -1.21806 -2.89846 0
M  V30 5644 N 573.503 -0.0852151 -1.57369 0
M  V30 5645 C 574.728 0.592872 -1.98746 0
M  V30 5646 C 575.153 1.61538 -0.963689 0
M  V30 5647 O 574.511 1.81168 0.069071 0
M  V30 5648 C 574.559 1.22599 -3.39119 0
M  V30 5649 O 573.663 2.34185 -3.39457 0
M  V30 5650 H 573.004 0.151314 -0.646529 0
M  V30 5651 H 575.534 -0.163703 -2.03944 0
M  V30 5652 H 575.544 1.56965 -3.76598 0
M  V30 5653 H 574.219 0.476831 -4.13158 0
M  V30 5654 H 572.796 2.01512 -3.13763 0
M  V30 5655 N 574.981 1.5647 0.188427 0
M  V30 5656 C 576.228 1.81013 0.907779 0
M  V30 5657 C 576.556 0.65953 1.82977 0
M  V30 5658 O 575.811 -0.354308 1.92466 0
M  V30 5659 C 576.11 3.11596 1.7505 0
M  V30 5660 C 575.776 4.40145 0.978922 0
M  V30 5661 C 574.438 4.75066 0.765912 0
M  V30 5662 C 576.79 5.19369 0.436498 0
M  V30 5663 C 574.118 5.867 -0.00089868 0
M  V30 5664 C 576.47 6.31805 -0.317136 0
M  V30 5665 C 575.134 6.65303 -0.541103 0
M  V30 5666 H 574.404 0.662373 0.33218 0
M  V30 5667 H 577.051 1.9071 0.173732 0
M  V30 5668 H 575.356 2.97165 2.55343 0
M  V30 5669 H 577.053 3.27793 2.30983 0
M  V30 5670 H 573.643 4.12745 1.15497 0
M  V30 5671 H 577.827 4.92799 0.588449 0
M  V30 5672 H 573.083 6.11122 -0.184329 0
M  V30 5673 H 577.257 6.92406 -0.744788 0
M  V30 5674 H 574.884 7.51646 -1.13718 0
M  V30 5675 N 576.459 -0.456382 1.50847 0
M  V30 5676 C 577.707 -1.20497 1.62249 0
M  V30 5677 C 578.028 -1.92156 0.331839 0
M  V30 5678 O 577.298 -1.84751 -0.651443 0
M  V30 5679 H 575.878 -0.447775 0.597918 0
M  V30 5680 H 578.54 -0.525099 1.87693 0
M  V30 5681 H 577.636 -1.94492 2.44089 0
M  V30 5682 N 577.937 -1.40673 -0.710563 0
M  V30 5683 C 579.184 -1.39222 -1.47049 0
M  V30 5684 C 579.512 0.0037691 -1.945 0
M  V30 5685 O 578.767 0.989224 -1.68857 0
M  V30 5686 C 579.066 -2.33253 -2.70791 0
M  V30 5687 C 578.732 -3.80406 -2.42079 0
M  V30 5688 C 577.394 -4.20496 -2.33959 0
M  V30 5689 C 579.746 -4.73375 -2.18094 0
M  V30 5690 C 577.074 -5.51584 -1.99929 0
M  V30 5691 C 579.426 -6.04768 -1.85576 0
M  V30 5692 C 578.09 -6.43895 -1.75941 0
M  V30 5693 H 577.36 -0.509449 -0.538092 0
M  V30 5694 H 580.007 -1.73363 -0.81348 0
M  V30 5695 H 578.312 -1.92314 -3.41354 0
M  V30 5696 H 580.009 -2.29412 -3.28894 0
M  V30 5697 H 576.599 -3.48645 -2.49288 0
M  V30 5698 H 580.783 -4.43217 -2.23321 0
M  V30 5699 H 576.039 -5.80797 -1.91011 0
M  V30 5700 H 580.213 -6.76318 -1.66033 0
M  V30 5701 H 577.84 -7.45387 -1.4934 0
M  V30 5702 N 579.415 0.9433 -1.26252 0
M  V30 5703 C 580.663 1.68592 -1.11451 0
M  V30 5704 C 580.984 1.91957 0.343123 0
M  V30 5705 O 580.254 1.51475 1.24226 0
M  V30 5706 H 578.834 0.624789 -0.409448 0
M  V30 5707 H 581.496 1.13351 -1.58548 0
M  V30 5708 H 580.592 2.66054 -1.63162 0
M  V30 5709 N 580.893 1.08022 1.14757 0
M  V30 5710 C 582.141 0.805913 1.85336 0
M  V30 5711 C 582.462 -0.670162 1.83122 0
M  V30 5712 O 581.732 -1.48567 1.2769 0
M  V30 5713 H 580.312 0.295138 0.686223 0
M  V30 5714 H 582.974 1.36538 1.3908 0
M  V30 5715 H 582.07 1.14655 2.90277 0
M  V30 5716 N 582.371 -1.3172 0.865308 0
M  V30 5717 C 583.599 -2.01057 0.488251 0
M  V30 5718 C 584.014 -1.64979 -0.918 0
M  V30 5719 O 583.371 -0.876597 -1.60069 0
M  V30 5720 C 583.422 -3.55964 0.630224 0
M  V30 5721 O 583.143 -3.90749 1.98109 0
M  V30 5722 C 584.644 -4.42574 0.253567 0
M  V30 5723 H 581.864 -0.64332 0.190736 0
M  V30 5724 H 584.408 -1.68058 1.16519 0
M  V30 5725 H 582.563 -3.874 0.000895422 0
M  V30 5726 H 582.977 -4.85467 1.9855 0
M  V30 5727 H 584.451 -5.50521 0.403875 0
M  V30 5728 H 584.928 -4.31724 -0.806895 0
M  V30 5729 H 585.534 -4.16547 0.858404 0
M  V30 5730 N 583.85 -0.624285 -1.44708 0
M  V30 5731 C 584.798 0.0969952 -2.32398 0
M  V30 5732 C 585.792 0.842762 -1.46949 0
M  V30 5733 O 586.998 0.756436 -1.63334 0
M  V30 5734 H 583.373 0.0501306 -0.750327 0
M  V30 5735 H 585.344 -0.660767 -2.90992 0
M  V30 5736 C 584.093 1.06967 -3.30837 0
M  V30 5737 H 583.416 0.505242 -3.96595 0
M  V30 5738 H 584.856 1.54397 -3.94889 0
M  V30 5739 C 583.315 2.15153 -2.5925 0
M  V30 5740 O 583.845 3.23139 -2.3863 0
M  V30 5741 N 582.051 1.90898 -2.19103 0
M  V30 5742 H 581.598 1.03086 -2.36074 0
M  V30 5743 H 581.556 2.63485 -1.71531 0
M  V30 5744 N 585.328 1.53329 -0.364422 0
M  V30 5745 C 586.291 2.24323 0.470292 0
M  V30 5746 C 587.291 1.25068 1.01067 0
M  V30 5747 O 588.481 1.49354 0.896605 0
M  V30 5748 C 585.613 2.97908 1.65722 0
M  V30 5749 H 586.806 2.9952 -0.150917 0
M  V30 5750 H 584.359 1.55868 -0.116092 0
M  V30 5751 H 585.094 2.2695 2.31655 0
M  V30 5752 H 584.879 3.70732 1.27671 0
M  V30 5753 H 586.369 3.5188 2.24878 0
M  V30 5754 N 586.806 0.0935595 1.57322 0
M  V30 5755 C 588.034 -0.578934 1.98635 0
M  V30 5756 C 588.449 -1.61819 0.972626 0
M  V30 5757 O 587.806 -1.82461 -0.0379638 0
M  V30 5758 C 587.857 -1.22802 3.40003 0
M  V30 5759 O 587.578 -0.230334 4.37494 0
M  V30 5760 C 589.079 -1.98627 3.96311 0
M  V30 5761 H 586.299 -0.155324 0.652775 0
M  V30 5762 H 588.843 0.172393 2.03772 0
M  V30 5763 H 586.998 -1.93029 3.35885 0
M  V30 5764 H 587.412 -0.698649 5.19826 0
M  V30 5765 H 588.886 -2.39405 4.97382 0
M  V30 5766 H 589.363 -2.85151 3.34044 0
M  V30 5767 H 589.969 -1.3322 4.03897 0
M  V30 5768 N 588.284 -1.56567 -0.180126 0
M  V30 5769 C 589.214 -1.98753 -1.22553 0
M  V30 5770 C 590.195 -0.86175 -1.46656 0
M  V30 5771 O 591.38 -1.12719 -1.58139 0
M  V30 5772 C 588.51 -2.33988 -2.56645 0
M  V30 5773 C 587.464 -3.49445 -2.47128 0
M  V30 5774 C 586.79 -3.70397 -3.8563 0
M  V30 5775 C 588.09 -4.83171 -1.98352 0
M  V30 5776 H 589.784 -2.86332 -0.874896 0
M  V30 5777 H 587.33 -1.37757 -0.419414 0
M  V30 5778 H 589.283 -2.62097 -3.29974 0
M  V30 5779 H 588.007 -1.43309 -2.93479 0
M  V30 5780 H 586.666 -3.2145 -1.76254 0
M  V30 5781 H 586.314 -2.77023 -4.19842 0
M  V30 5782 H 586.014 -4.48077 -3.80132 0
M  V30 5783 H 587.538 -4.00897 -4.60558 0
M  V30 5784 H 588.952 -5.10213 -2.61449 0
M  V30 5785 H 587.349 -5.64425 -2.03823 0
M  V30 5786 H 588.419 -4.75753 -0.937402 0
M  V30 5787 N 589.762 0.448376 -1.51087 0
M  V30 5788 C 591.008 1.20049 -1.6345 0
M  V30 5789 C 591.341 1.91121 -0.344444 0
M  V30 5790 O 590.616 1.83125 0.655396 0
M  V30 5791 C 590.899 2.22624 -2.83038 0
M  V30 5792 C 590.752 1.55708 -4.21989 0
M  V30 5793 C 592.071 3.23718 -2.98152 0
M  V30 5794 H 589.19 0.435085 -0.59487 0
M  V30 5795 H 591.832 0.491183 -1.83541 0
M  V30 5796 H 589.982 2.83117 -2.66039 0
M  V30 5797 H 591.654 0.986367 -4.50631 0
M  V30 5798 H 589.897 0.859647 -4.25197 0
M  V30 5799 H 590.568 2.30357 -5.01637 0
M  V30 5800 H 593.044 2.73269 -3.13788 0
M  V30 5801 H 591.92 3.92795 -3.83411 0
M  V30 5802 H 592.181 3.89179 -2.09743 0
M  V30 5803 N 591.24 1.41047 0.703093 0
M  V30 5804 C 592.173 1.36713 1.82715 0
M  V30 5805 C 593.151 0.235533 1.60885 0
M  V30 5806 O 594.335 0.421227 1.83733 0
M  V30 5807 C 591.462 1.13069 3.1927 0
M  V30 5808 C 590.508 2.28846 3.59905 0
M  V30 5809 S 591.341 3.91297 3.65578 0
M  V30 5810 C 592.497 3.69941 5.04871 0
M  V30 5811 H 592.73 2.31838 1.86114 0
M  V30 5812 H 590.263 1.27481 0.871083 0
M  V30 5813 H 592.221 1.00113 3.98105 0
M  V30 5814 H 590.882 0.195763 3.13489 0
M  V30 5815 H 590.075 2.07977 4.59088 0
M  V30 5816 H 589.677 2.3817 2.88359 0
M  V30 5817 H 591.969 3.29181 5.92154 0
M  V30 5818 H 592.912 4.68699 5.30779 0
M  V30 5819 H 593.32 3.03369 4.76054 0
M  V30 5820 N 592.718 -0.936591 1.26751 0
M  V30 5821 C 594.134 -1.21095 1.03963 0
M  V30 5822 C 594.334 -2.00156 -0.232372 0
M  V30 5823 O 593.39 -2.3434 -0.940274 0
M  V30 5824 C 594.703 -1.96775 2.27377 0
M  V30 5825 C 596.251 -2.09749 2.32324 0
M  V30 5826 C 596.726 -2.88832 3.55443 0
M  V30 5827 N 598.217 -2.96404 3.55948 0
M  V30 5828 C 598.952 -3.58036 4.47881 0
M  V30 5829 N 598.448 -4.21132 5.50109 0
M  V30 5830 N 600.241 -3.55353 4.35523 0
M  V30 5831 H 592.392 -0.408173 2.08441 0
M  V30 5832 H 594.655 -0.243139 0.91629 0
M  V30 5833 H 594.361 -1.46094 3.19921 0
M  V30 5834 H 594.235 -2.97424 2.31989 0
M  V30 5835 H 596.622 -2.5962 1.40291 0
M  V30 5836 H 596.703 -1.08347 2.31721 0
M  V30 5837 H 596.347 -2.39647 4.47808 0
M  V30 5838 H 596.277 -3.90499 3.53296 0
M  V30 5839 H 598.768 -2.51552 2.82011 0
M  V30 5840 H 599.081 -4.66071 6.16439 0
M  V30 5841 H 597.426 -4.19705 5.53961 0
M  V30 5842 H 600.617 -3.05256 3.54875 0
M  V30 5843 H 600.79 -4.03097 5.07363 0
M  V30 5844 N 594.196 -1.08629 -1.14182 0
M  V30 5845 C 595.143 -0.718299 -2.19338 0
M  V30 5846 C 596.113 0.296587 -1.63431 0
M  V30 5847 O 597.298 0.180079 -1.89948 0
M  V30 5848 C 594.438 -0.136203 -3.44831 0
M  V30 5849 C 593.551 -1.20414 -4.14879 0
M  V30 5850 C 592.686 -0.585666 -5.27962 0
M  V30 5851 C 591.725 -1.63548 -5.89846 0
M  V30 5852 N 590.862 -1.03864 -6.94375 0
M  V30 5853 H 595.702 -1.61932 -2.50164 0
M  V30 5854 H 593.239 -0.80919 -1.22844 0
M  V30 5855 H 595.197 0.219021 -4.16625 0
M  V30 5856 H 593.827 0.728121 -3.14481 0
M  V30 5857 H 592.879 -1.67676 -3.41451 0
M  V30 5858 H 594.191 -1.99959 -4.56966 0
M  V30 5859 H 593.345 -0.178818 -6.06436 0
M  V30 5860 H 592.084 0.24142 -4.87102 0
M  V30 5861 H 591.089 -2.05197 -5.10073 0
M  V30 5862 H 592.314 -2.46509 -6.3278 0
M  V30 5863 H 590.26 -0.232687 -6.55587 0
M  V30 5864 H 590.177 -1.77116 -7.3496 0
M  V30 5865 H 591.445 -0.657724 -7.7672 0
M  V30 5866 N 595.674 1.31259 -0.872281 0
M  V30 5867 C 596.604 2.30929 -0.345554 0
M  V30 5868 C 597.585 1.60449 0.5648 0
M  V30 5869 O 598.77 1.8814 0.481335 0
M  V30 5870 C 595.9 3.44348 0.451823 0
M  V30 5871 C 594.854 4.26435 -0.365641 0
M  V30 5872 C 594.18 5.31785 0.557562 0
M  V30 5873 C 595.48 4.97159 -1.60095 0
M  V30 5874 H 597.174 2.75234 -1.17841 0
M  V30 5875 H 594.72 1.3232 -0.568094 0
M  V30 5876 H 596.673 4.13128 0.830854 0
M  V30 5877 H 595.397 2.98816 1.31821 0
M  V30 5878 H 594.056 3.59326 -0.726649 0
M  V30 5879 H 593.704 4.82502 1.4213 0
M  V30 5880 H 593.404 5.87598 0.0144878 0
M  V30 5881 H 594.928 6.03424 0.933387 0
M  V30 5882 H 596.342 5.58523 -1.29323 0
M  V30 5883 H 594.739 5.62779 -2.08327 0
M  V30 5884 H 595.809 4.24012 -2.35249 0
M  V30 5885 N 597.152 0.631951 1.44375 0
M  V30 5886 C 598.099 -0.0724807 2.30686 0
M  V30 5887 C 599.069 -0.835975 1.43529 0
M  V30 5888 O 600.254 -0.816849 1.7243 0
M  V30 5889 C 597.394 -1.04753 3.28817 0
M  V30 5890 C 596.507 -0.282367 4.31076 0
M  V30 5891 C 595.642 -1.2493 5.163 0
M  V30 5892 C 594.681 -0.473349 6.10267 0
M  V30 5893 N 593.818 -1.39079 6.88187 0
M  V30 5894 H 598.658 0.669477 2.90383 0
M  V30 5895 H 596.195 0.341927 1.43071 0
M  V30 5896 H 598.153 -1.62623 3.842 0
M  V30 5897 H 596.783 -1.75661 2.70819 0
M  V30 5898 H 595.835 0.412268 3.78159 0
M  V30 5899 H 597.147 0.321955 4.9776 0
M  V30 5900 H 596.301 -1.89931 5.76204 0
M  V30 5901 H 595.04 -1.88755 4.49692 0
M  V30 5902 H 594.045 0.190142 5.49471 0
M  V30 5903 H 595.27 0.16019 6.78911 0
M  V30 5904 H 593.216 -2.01623 6.24247 0
M  V30 5905 H 593.133 -0.840513 7.51313 0
M  V30 5906 H 594.401 -2.02961 7.52613 0
M  V30 5907 N 598.631 -1.53133 0.372548 0
M  V30 5908 C 599.908 -1.93704 -0.271693 0
M  V30 5909 C 600.288 -1.30667 -1.65799 0
M  V30 5910 O 599.636 -0.46838 -2.23648 0
M  V30 5911 C 599.846 -3.47576 -0.314903 0
M  V30 5912 C 601.194 -4.20998 -0.551912 0
M  V30 5913 O 602.218 -3.53994 -0.39582 0
M  V30 5914 O 601.077 -5.39748 -0.85639 0
M  V30 5915 H 598.171 -0.810457 -0.164586 0
M  V30 5916 H 600.717 -1.6427 0.425838 0
M  V30 5917 H 599.489 -3.85749 0.656792 0
M  V30 5918 H 599.112 -3.83264 -1.05804 0
M  V30 5919 O 600.148 -0.242051 -1.59676 0
M  V30 5920 H 600.839 0.334494 -1.9079 0
M  V30 END ATOM
M  V30 BEGIN BOND
M  V30 END BOND
M  V30 END CTAB
M  END
$$$$
