drugbank_target|P0AGC3 Soluble lytic murein transglycosylase (DB02595)
 OpenBabel12092120033D

  0  0  0     0  0            999 V3000
M  V30 BEGIN CTAB
M  V30 COUNTS 10237 10354 0 0 0
M  V30 BEGIN ATOM
M  V30 1 H -0.908 1.98254 -0.117106 0
M  V30 2 N 0 1.576 0 0
M  V30 3 C 0.933 2.03868 1.02534 0
M  V30 4 C 1.911 0.928543 1.3348 0
M  V30 5 O 3.095 1.19667 1.45644 0
M  V30 6 C 0.222 2.43627 2.35294 0
M  V30 7 C -0.732 3.65373 2.2001 0
M  V30 8 S 0.101 5.13292 1.52614 0
M  V30 9 C 1.257 5.56322 2.86805 0
M  V30 10 H 1.49 2.90518 0.631377 0
M  V30 11 H -0.977 1.52953 0.210867 0
M  V30 12 H 0.981 2.67203 3.11629 0
M  V30 13 H -0.358 1.57376 2.7183 0
M  V30 14 H -1.165 3.90944 3.18086 0
M  V30 15 H -1.563 3.418 1.51819 0
M  V30 16 H 0.729 5.58782 3.83104 0
M  V30 17 H 1.672 6.56266 2.65933 0
M  V30 18 H 2.08 4.83886 2.90714 0
M  V30 19 N 1.4781 -0.272755 1.55222 0
M  V30 20 C 2.3881 -1.35918 1.91216 0
M  V30 21 C 3.4041 -1.54026 0.809436 0
M  V30 22 O 4.5801 -1.68148 1.10852 0
M  V30 23 C 1.6451 -2.69834 2.17693 0
M  V30 24 C 0.7061 -2.6047 3.41253 0
M  V30 25 C -0.0609 -3.88 3.66458 0
M  V30 26 O 0.1621 -4.88693 2.94169 0
M  V30 27 O -0.9039 -3.88189 4.59992 0
M  V30 28 H 2.9221 -1.0839 2.83699 0
M  V30 29 H 0.5071 -0.471301 1.41771 0
M  V30 30 H 2.3891 -3.49017 2.36147 0
M  V30 31 H 1.0641 -2.97148 1.28392 0
M  V30 32 H -0.0289 -1.79663 3.28134 0
M  V30 33 H 1.3041 -2.38106 4.30774 0
M  V30 34 N 2.9562 -1.48159 -0.537278 0
M  V30 35 C 3.9032 -1.62138 -1.64256 0
M  V30 36 C 4.8732 -0.463668 -1.59497 0
M  V30 37 O 6.0582 -0.686241 -1.78032 0
M  V30 38 C 3.1982 -1.66028 -3.02537 0
M  V30 39 C 2.3112 -2.92855 -3.17585 0
M  V30 40 C 1.4462 -2.87952 -4.46382 0
M  V30 41 C 0.4852 -4.09516 -4.54932 0
M  V30 42 N -0.3778 -4.02733 -5.75109 0
M  V30 43 H 4.4622 -2.56529 -1.51647 0
M  V30 44 H 1.9992 -1.27224 -0.738414 0
M  V30 45 H 3.9572 -1.66265 -3.82638 0
M  V30 46 H 2.5872 -0.751331 -3.13934 0
M  V30 47 H 1.6392 -3.02395 -2.30784 0
M  V30 48 H 2.9512 -3.82822 -3.19764 0
M  V30 49 H 2.1052 -2.8655 -5.34765 0
M  V30 50 H 0.8442 -1.95702 -4.46712 0
M  V30 51 H -0.1508 -4.11201 -3.64957 0
M  V30 52 H 1.0742 -5.02917 -4.56346 0
M  V30 53 H -0.9798 -3.13299 -5.76351 0
M  V30 54 H -1.0628 -4.86397 -5.78752 0
M  V30 55 H 0.2052 -4.05379 -6.65799 0
M  V30 56 N 4.4343 0.785586 -1.36625 0
M  V30 57 C 5.3973 1.87999 -1.31107 0
M  V30 58 C 6.3973 1.59316 -0.217959 0
M  V30 59 O 7.5873 1.67656 -0.472977 0
M  V30 60 C 4.7193 3.24861 -1.03334 0
M  V30 61 H 5.9123 1.94307 -2.2844 0
M  V30 62 H 3.4653 0.983813 -1.21453 0
M  V30 63 H 4.2003 3.24235 -0.0647432 0
M  V30 64 H 3.9853 3.4707 -1.82441 0
M  V30 65 H 5.4753 4.04929 -1.02088 0
M  V30 66 N 5.9124 1.20967 1.01018 0
M  V30 67 C 6.8594 0.964281 2.09691 0
M  V30 68 C 7.8294 -0.107853 1.65749 0
M  V30 69 O 9.0144 0.0381987 1.90762 0
M  V30 70 C 6.1544 0.52943 3.41015 0
M  V30 71 C 5.2674 1.67043 3.98398 0
M  V30 72 C 4.4024 1.18525 5.17808 0
M  V30 73 C 3.4414 2.29892 5.67288 0
M  V30 74 N 2.5784 1.82546 6.77954 0
M  V30 75 H 7.4184 1.89463 2.30017 0
M  V30 76 H 4.9554 0.944289 1.1279 0
M  V30 77 H 6.9134 0.258588 4.16398 0
M  V30 78 H 5.5434 -0.363919 3.20742 0
M  V30 79 H 4.5954 2.05603 3.20049 0
M  V30 80 H 5.9074 2.50877 4.31117 0
M  V30 81 H 5.0614 0.870762 6.00419 0
M  V30 82 H 3.8004 0.316887 4.86669 0
M  V30 83 H 2.8054 2.6215 4.83278 0
M  V30 84 H 4.0304 3.17216 6.00459 0
M  V30 85 H 1.9764 0.980454 6.48632 0
M  V30 86 H 1.8934 2.59956 7.09901 0
M  V30 87 H 3.1614 1.54115 7.64113 0
M  V30 88 N 7.3905 -1.2043 1.01659 0
M  V30 89 C 8.3225 -2.22626 0.544988 0
M  V30 90 C 9.3355 -1.58479 -0.372609 0
M  V30 91 O 10.5245 -1.77679 -0.170958 0
M  V30 92 C 7.6245 -3.38141 -0.22663 0
M  V30 93 C 6.7975 -4.31877 0.692876 0
M  V30 94 C 5.8565 -5.26191 -0.0311616 0
M  V30 95 O 4.8825 -5.6612 0.591343 0
M  V30 96 N 6.0845 -5.65618 -1.30601 0
M  V30 97 H 8.8495 -2.63716 1.42388 0
M  V30 98 H 6.4105 -1.34971 0.894116 0
M  V30 99 H 8.4025 -3.98239 -0.72024 0
M  V30 100 H 6.9725 -2.95943 -1.00681 0
M  V30 101 H 6.1925 -3.69746 1.36679 0
M  V30 102 H 7.4805 -4.91426 1.31824 0
M  V30 103 H 6.8785 -5.3519 -1.83269 0
M  V30 104 H 5.4355 -6.28025 -1.74435 0
M  V30 105 N 8.8686 -0.792821 -1.36206 0
M  V30 106 C 10.1146 -0.36733 -1.99446 0
M  V30 107 C 10.4476 1.05917 -1.62774 0
M  V30 108 O 9.7226 1.7324 -0.88421 0
M  V30 109 C 10.0056 -0.535044 -3.56103 0
M  V30 110 C 9.8586 -2.00548 -4.02617 0
M  V30 111 C 11.1776 0.0478191 -4.40074 0
M  V30 112 H 8.2966 -0.134941 -0.724541 0
M  V30 113 H 10.9386 -0.999794 -1.61568 0
M  V30 114 H 9.0886 0.00336329 -3.885 0
M  V30 115 H 10.7606 -2.60521 -3.80692 0
M  V30 116 H 9.0036 -2.50686 -3.54032 0
M  V30 117 H 9.6746 -2.07377 -5.11565 0
M  V30 118 H 12.1506 -0.411822 -4.14057 0
M  V30 119 H 11.0266 -0.0995336 -5.4881 0
M  V30 120 H 11.2876 1.14025 -4.27142 0
M  V30 121 N 10.3467 1.47872 -0.545128 0
M  V30 122 C 11.5747 2.06889 -0.021084 0
M  V30 123 C 11.9897 1.39955 1.2672 0
M  V30 124 O 11.3467 0.492036 1.75742 0
M  V30 125 C 11.3977 3.60996 0.190817 0
M  V30 126 O 11.1187 4.25419 -1.04644 0
M  V30 127 C 12.6197 4.36849 0.753521 0
M  V30 128 H 9.8397 0.669785 -0.0403635 0
M  V30 129 H 12.3837 1.90049 -0.755095 0
M  V30 130 H 10.5387 3.77391 0.87492 0
M  V30 131 H 10.9527 5.17785 -0.836611 0
M  V30 132 H 12.4267 5.45399 0.851139 0
M  V30 133 H 12.9037 4.02306 1.762 0
M  V30 134 H 13.5097 4.25169 0.105503 0
M  V30 135 N 11.8248 0.280983 1.55075 0
M  V30 136 C 13.0708 -0.327573 2.00745 0
M  V30 137 C 13.4258 -1.53045 1.16598 0
M  V30 138 O 12.7188 -1.90221 0.229451 0
M  V30 139 C 12.9128 -0.754656 3.49342 0
M  V30 140 C 12.7418 0.40529 4.4787 0
M  V30 141 C 11.5118 0.890947 4.97383 0
M  V30 142 C 13.7098 1.24371 4.99035 0
M  V30 143 N 11.6918 2.01975 5.79724 0
M  V30 144 C 13.0628 2.22031 5.7888 0
M  V30 145 C 15.1178 1.27638 4.81262 0
M  V30 146 C 13.8208 3.22709 6.42846 0
M  V30 147 C 15.8468 2.27164 5.46031 0
M  V30 148 C 15.2088 3.23556 6.25692 0
M  V30 149 H 11.3078 -0.0848774 0.77738 0
M  V30 150 H 13.8918 0.406342 1.90413 0
M  V30 151 H 12.0628 -1.45778 3.60005 0
M  V30 152 H 13.7948 -1.34105 3.81835 0
M  V30 153 H 10.5498 0.469262 4.71269 0
M  V30 154 H 10.9738 2.58794 6.25584 0
M  V30 155 H 15.6158 0.544936 4.19274 0
M  V30 156 H 13.3338 3.96784 7.0398 0
M  V30 157 H 16.9198 2.30441 5.34217 0
M  V30 158 H 15.7998 3.99309 6.74924 0
M  V30 159 N 13.3029 -1.57598 0.00835791 0
M  V30 160 C 14.7189 -1.55764 -0.347822 0
M  V30 161 C 14.9189 -1.01186 -1.74252 0
M  V30 162 O 13.9749 -0.649371 -2.44007 0
M  V30 163 C 15.2879 -2.99927 -0.215407 0
M  V30 164 C 16.8359 -3.11656 -0.289725 0
M  V30 165 C 17.3109 -4.57621 -0.18634 0
M  V30 166 N 18.8019 -4.62557 -0.243978 0
M  V30 167 C 19.5369 -5.73094 -0.18745 0
M  V30 168 N 19.0329 -6.92753 -0.0810331 0
M  V30 169 N 20.8259 -5.61588 -0.239925 0
M  V30 170 H 12.9769 -1.91411 0.92062 0
M  V30 171 H 15.2399 -0.879562 0.353659 0
M  V30 172 H 14.9459 -3.43729 0.744512 0
M  V30 173 H 14.8199 -3.63865 -0.994097 0
M  V30 174 H 17.2069 -2.67779 -1.24009 0
M  V30 175 H 17.2879 -2.5048 0.51898 0
M  V30 176 H 16.9319 -5.02174 0.760519 0
M  V30 177 H 16.8619 -5.16752 -1.01364 0
M  V30 178 H 19.3529 -3.76481 -0.327217 0
M  V30 179 H 19.6659 -7.72787 -0.0440241 0
M  V30 180 H 18.0109 -6.94984 -0.0465419 0
M  V30 181 H 21.2019 -4.66996 -0.321317 0
M  V30 182 H 21.3749 -6.47714 -0.192407 0
M  V30 183 N 14.781 0.264519 -1.55364 0
M  V30 184 C 15.711 1.33121 -1.91836 0
M  V30 185 C 16.692 1.51101 -0.781192 0
M  V30 186 O 17.877 1.64003 -1.04003 0
M  V30 187 C 15.007 2.68921 -2.19769 0
M  V30 188 C 13.961 2.65661 -3.35571 0
M  V30 189 C 13.287 4.05093 -3.49004 0
M  V30 190 C 14.587 2.24187 -4.71739 0
M  V30 191 H 16.281 1.02844 -2.81182 0
M  V30 192 H 13.827 0.493286 -1.35287 0
M  V30 193 H 15.78 3.43663 -2.43872 0
M  V30 194 H 14.504 3.00799 -1.27231 0
M  V30 195 H 13.163 1.93377 -3.1145 0
M  V30 196 H 12.811 4.34206 -2.53917 0
M  V30 197 H 12.511 4.03804 -4.26868 0
M  V30 198 H 14.035 4.81561 -3.75408 0
M  V30 199 H 15.449 2.88654 -4.9533 0
M  V30 200 H 13.846 2.34044 -5.52579 0
M  V30 201 H 14.916 1.19327 -4.69988 0
M  V30 202 N 16.2591 1.48442 0.529413 0
M  V30 203 C 17.1891 1.65902 1.64313 0
M  V30 204 C 18.1701 0.507897 1.6234 0
M  V30 205 O 19.3551 0.740503 1.79528 0
M  V30 206 C 16.4851 1.69911 3.02898 0
M  V30 207 C 15.4391 2.8453 3.19729 0
M  V30 208 C 14.7651 2.73629 4.59381 0
M  V30 209 C 16.0651 4.25821 3.02447 0
M  V30 210 H 17.7591 2.5914 1.49955 0
M  V30 211 H 15.3051 1.24709 0.719982 0
M  V30 212 H 17.2581 1.80715 3.80684 0
M  V30 213 H 15.9821 0.732524 3.18279 0
M  V30 214 H 14.6411 2.73283 2.44361 0
M  V30 215 H 14.2891 1.74938 4.71599 0
M  V30 216 H 13.9891 3.50541 4.71588 0
M  V30 217 H 15.5131 2.86401 5.39265 0
M  V30 218 H 16.9271 4.37898 3.70024 0
M  V30 219 H 15.3241 5.03735 3.26146 0
M  V30 220 H 16.3941 4.42244 1.98867 0
M  V30 221 N 17.7372 -0.778329 1.37039 0
M  V30 222 C 18.7002 -1.87301 1.32102 0
M  V30 223 C 19.7002 -1.59198 0.226405 0
M  V30 224 O 20.8902 -1.67403 0.481861 0
M  V30 225 C 18.0222 -3.24309 1.05055 0
M  V30 226 H 19.2152 -1.93093 2.29467 0
M  V30 227 H 16.7682 -0.977358 1.21973 0
M  V30 228 H 17.5032 -3.24196 0.0819373 0
M  V30 229 H 17.2882 -3.46098 1.84279 0
M  V30 230 H 18.7782 -4.04382 1.04234 0
M  V30 231 N 19.2153 -1.21501 -1.00376 0
M  V30 232 C 20.1783 -0.976927 -2.07337 0
M  V30 233 C 21.1783 0.0525322 -1.60714 0
M  V30 234 O 22.3683 -0.184869 -1.73216 0
M  V30 235 C 19.5003 -0.473423 -3.37597 0
M  V30 236 H 20.6933 -1.92587 -2.29892 0
M  V30 237 H 18.2463 -1.03217 -1.17371 0
M  V30 238 H 18.9813 0.480379 -3.20722 0
M  V30 239 H 18.7663 -1.216 -3.72768 0
M  V30 240 H 20.2563 -0.32675 -4.1632 0
M  V30 241 N 20.6934 1.19889 -1.02296 0
M  V30 242 C 21.9414 1.89046 -0.714558 0
M  V30 243 C 22.2624 1.79636 0.758681 0
M  V30 244 O 21.5324 1.20292 1.54618 0
M  V30 245 H 20.1124 0.699802 -0.261317 0
M  V30 246 H 22.7744 1.45574 -1.29592 0
M  V30 247 H 21.8704 2.95524 -1.0036 0
M  V30 248 N 22.1715 0.800033 1.35784 0
M  V30 249 C 23.4175 0.377901 1.99248 0
M  V30 250 C 23.7505 -1.05052 1.63333 0
M  V30 251 O 23.0255 -1.72768 0.893385 0
M  V30 252 C 23.3085 0.553922 3.55814 0
M  V30 253 C 23.1615 2.0268 4.01548 0
M  V30 254 C 24.4805 -0.0244802 4.40093 0
M  V30 255 H 21.5995 0.138782 0.723815 0
M  V30 256 H 24.2415 1.00835 1.61035 0
M  V30 257 H 22.3915 0.0172398 3.88496 0
M  V30 258 H 24.0635 2.62536 3.79305 0
M  V30 259 H 22.3065 2.5256 3.52698 0
M  V30 260 H 22.9775 2.10087 5.10458 0
M  V30 261 H 25.4535 0.433775 4.13833 0
M  V30 262 H 24.3295 0.128637 5.48749 0
M  V30 263 H 24.5905 -1.11758 4.27741 0
M  V30 264 N 23.6496 -1.47581 0.552962 0
M  V30 265 C 24.8896 -2.04379 0.0296245 0
M  V30 266 C 25.2536 -1.4185 -1.29393 0
M  V30 267 O 26.4546 -1.89669 -1.90471 0
M  V30 268 C 24.7256 -3.57339 -0.0661371 0
M  V30 269 S 26.2846 -4.35511 -0.536213 0
M  V30 270 H 23.1026 -0.710625 0.0230991 0
M  V30 271 H 25.7046 -1.81005 0.738734 0
M  V30 272 H 24.4086 -4.00374 0.901596 0
M  V30 273 H 23.9396 -3.85202 -0.798931 0
M  V30 274 H 25.9546 -4.6253 -1.79668 0
M  V30 275 N 25.1277 -0.289203 -1.54924 0
M  V30 276 C 26.0577 0.58549 -2.2604 0
M  V30 277 C 27.0387 1.14753 -1.25562 0
M  V30 278 O 28.2237 1.17906 -1.54311 0
M  V30 279 C 25.3537 1.76305 -2.99222 0
M  V30 280 C 24.3077 1.33191 -4.06748 0
M  V30 281 C 23.6337 2.5937 -4.6758 0
M  V30 282 C 24.9337 0.471775 -5.20165 0
M  V30 283 H 26.6277 -0.00763532 -2.99399 0
M  V30 284 H 24.1737 -0.00511229 -1.43999 0
M  V30 285 H 26.1267 2.38097 -3.47689 0
M  V30 286 H 24.8507 2.38223 -2.23422 0
M  V30 287 H 23.5097 0.737121 -3.59113 0
M  V30 288 H 23.1577 3.19576 -3.88433 0
M  V30 289 H 22.8577 2.31228 -5.40192 0
M  V30 290 H 24.3817 3.21985 -5.18804 0
M  V30 291 H 25.7957 0.995056 -5.64599 0
M  V30 292 H 24.1927 0.284639 -5.99425 0
M  V30 293 H 25.2627 -0.506041 -4.82252 0
M  V30 294 N 26.6058 1.57591 -0.0167156 0
M  V30 295 C 27.5358 2.12496 0.967858 0
M  V30 296 C 28.5168 1.03807 1.34752 0
M  V30 297 O 29.7018 1.31577 1.42833 0
M  V30 298 C 26.8318 2.64194 2.25431 0
M  V30 299 C 25.7858 3.77559 2.01576 0
M  V30 300 C 25.1118 4.15636 3.36379 0
M  V30 301 C 26.4118 5.04151 1.36489 0
M  V30 302 H 28.1058 2.95013 0.510643 0
M  V30 303 H 25.6518 1.41915 0.244181 0
M  V30 304 H 27.6048 3.01236 2.94678 0
M  V30 305 H 26.3288 1.78821 2.73296 0
M  V30 306 H 24.9878 3.40937 1.34751 0
M  V30 307 H 24.6358 3.27263 3.81979 0
M  V30 308 H 24.3358 4.92022 3.21229 0
M  V30 309 H 25.8598 4.5525 4.06915 0
M  V30 310 H 27.2738 5.38857 1.95718 0
M  V30 311 H 25.6708 5.85453 1.31776 0
M  V30 312 H 26.7408 4.83733 0.336219 0
M  V30 313 N 28.0839 -0.256276 1.55502 0
M  V30 314 C 29.3119 -1.00342 1.8094 0
M  V30 315 C 29.7269 -1.79307 0.59114 0
M  V30 316 O 29.0839 -1.77114 -0.440081 0
M  V30 317 C 29.1349 -1.94875 3.04476 0
M  V30 318 O 28.8559 -1.19107 4.21598 0
M  V30 319 C 30.3569 -2.81266 3.42644 0
M  V30 320 H 27.5769 -0.295685 0.602338 0
M  V30 321 H 30.1209 -0.281998 2.02546 0
M  V30 322 H 28.2759 -2.62457 2.84947 0
M  V30 323 H 28.6899 -1.82969 4.91551 0
M  V30 324 H 30.1639 -3.43362 4.32211 0
M  V30 325 H 30.6409 -3.51897 2.62802 0
M  V30 326 H 31.2469 -2.1915 3.64491 0
M  V30 327 N 29.562 -1.4872 -0.521534 0
M  V30 328 C 30.808 -1.574 -1.27879 0
M  V30 329 C 31.141 -0.250817 -1.92573 0
M  V30 330 O 30.416 0.743934 -1.79711 0
M  V30 331 C 30.699 -2.71843 -2.36164 0
M  V30 332 C 30.552 -4.13893 -1.76105 0
M  V30 333 C 31.871 -2.82008 -3.37875 0
M  V30 334 H 28.99 -0.572941 -0.463581 0
M  V30 335 H 31.632 -1.80927 -0.580119 0
M  V30 336 H 29.782 -2.51914 -2.95756 0
M  V30 337 H 31.454 -4.45284 -1.20499 0
M  V30 338 H 29.697 -4.20498 -1.06601 0
M  V30 339 H 30.368 -4.89804 -2.5455 0
M  V30 340 H 32.844 -3.00086 -2.88249 0
M  V30 341 H 31.72 -3.63796 -4.11028 0
M  V30 342 H 31.981 -1.90511 -3.98946 0
M  V30 343 N 31.0401 0.771051 -1.3745 0
M  V30 344 C 32.2651 1.56529 -1.36065 0
M  V30 345 C 32.6901 1.88029 0.0515859 0
M  V30 346 O 32.0481 1.49282 1.02882 0
M  V30 347 C 32.0961 2.85187 -2.20683 0
M  V30 348 O 31.2001 3.79593 -1.61193 0
M  V30 349 H 30.5411 0.47411 -0.464883 0
M  V30 350 H 33.0711 0.954269 -1.80983 0
M  V30 351 H 33.0811 3.34283 -2.33921 0
M  V30 352 H 31.7561 2.61588 -3.23334 0
M  V30 353 H 30.3331 3.38239 -1.56999 0
M  V30 354 N 32.5182 1.22032 0.997298 0
M  V30 355 C 33.7432 1.06921 1.77715 0
M  V30 356 C 34.1682 -0.376226 1.84299 0
M  V30 357 O 33.5262 -1.27165 1.29223 0
M  V30 358 C 33.5742 1.67996 3.19076 0
M  V30 359 O 32.6782 0.930653 4.01762 0
M  V30 360 H 32.0192 0.375814 0.547412 0
M  V30 361 H 34.5492 1.61737 1.25309 0
M  V30 362 H 34.5592 1.72538 3.69723 0
M  V30 363 H 33.2342 2.73182 3.13599 0
M  V30 364 H 31.8112 0.960917 3.60307 0
M  V30 365 N 33.9963 -1.19345 1.0293 0
M  V30 366 C 35.2423 -1.89318 0.727083 0
M  V30 367 C 35.5753 -1.79446 -0.742483 0
M  V30 368 O 34.8503 -1.1871 -1.54072 0
M  V30 369 C 35.1333 -3.40238 1.17942 0
M  V30 370 C 34.9863 -3.58979 2.71024 0
M  V30 371 C 36.3053 -4.33479 0.760548 0
M  V30 372 H 33.4243 -0.687475 0.265606 0
M  V30 373 H 36.0663 -1.40477 1.2793 0
M  V30 374 H 34.2163 -3.81964 0.709608 0
M  V30 375 H 35.8883 -3.26421 3.25955 0
M  V30 376 H 34.1313 -3.02018 3.11396 0
M  V30 377 H 34.8023 -4.64823 2.9773 0
M  V30 378 H 37.2783 -3.99469 1.16464 0
M  V30 379 H 36.1543 -5.37664 1.10493 0
M  V30 380 H 36.4153 -4.40813 -0.337063 0
M  V30 381 N 35.4744 -0.807222 -1.35358 0
M  V30 382 C 36.4374 -0.223665 -2.28106 0
M  V30 383 C 37.4374 0.589354 -1.4961 0
M  V30 384 O 38.6274 0.407745 -1.69361 0
M  V30 385 C 35.7594 0.688149 -3.33882 0
M  V30 386 H 36.9524 -1.04169 -2.81227 0
M  V30 387 H 34.5054 -0.577921 -1.45223 0
M  V30 388 H 35.2404 1.52984 -2.85948 0
M  V30 389 H 35.0254 0.10687 -3.91954 0
M  V30 390 H 36.5154 1.09075 -4.03104 0
M  V30 391 N 36.9525 1.47285 -0.560781 0
M  V30 392 C 38.3685 1.58065 -0.22081 0
M  V30 393 C 38.5685 1.55892 1.27671 0
M  V30 394 O 37.6245 1.46422 2.0571 0
M  V30 395 C 38.9375 2.88418 -0.850625 0
M  V30 396 C 40.4855 3.02009 -0.822184 0
M  V30 397 C 40.9605 4.35066 -1.43113 0
M  V30 398 N 42.4515 4.41711 -1.39448 0
M  V30 399 C 43.1865 5.43237 -1.83525 0
M  V30 400 N 42.6825 6.51555 -2.35474 0
M  V30 401 N 44.4755 5.34304 -1.74574 0
M  V30 402 H 36.6265 1.46941 -1.53369 0
M  V30 403 H 38.8895 0.699558 -0.639783 0
M  V30 404 H 38.5955 2.95755 -1.9032 0
M  V30 405 H 38.4695 3.75612 -0.345773 0
M  V30 406 H 40.8565 2.94266 0.221714 0
M  V30 407 H 40.9375 2.16347 -1.36483 0
M  V30 408 H 40.5815 4.43565 -2.47412 0
M  V30 409 H 40.5115 5.19465 -0.863899 0
M  V30 410 H 43.0025 3.64027 -1.01452 0
M  V30 411 H 43.3155 7.25203 -2.67021 0
M  V30 412 H 41.6605 6.52435 -2.39487 0
M  V30 413 H 44.8515 4.48581 -1.33763 0
M  V30 414 H 45.0245 6.13288 -2.09242 0
M  V30 415 N 38.4306 0.297415 1.54768 0
M  V30 416 C 39.3936 -0.567375 2.22066 0
M  V30 417 C 40.3936 -1.06409 1.20556 0
M  V30 418 O 41.5836 -0.960691 1.45315 0
M  V30 419 C 38.7156 -1.78517 2.90421 0
M  V30 420 H 39.9086 0.0205534 2.99893 0
M  V30 421 H 37.4616 0.0482163 1.56226 0
M  V30 422 H 38.1966 -2.41303 2.16664 0
M  V30 423 H 37.9816 -1.43669 3.64831 0
M  V30 424 H 39.4716 -2.39964 3.41771 0
M  V30 425 N 39.9087 -1.5758 0.0250728 0
M  V30 426 C 41.1857 -1.82917 -0.692873 0
M  V30 427 C 41.5657 -0.908137 -1.90568 0
M  V30 428 O 40.9137 0.0372298 -2.2847 0
M  V30 429 C 41.1237 -3.32034 -1.07492 0
M  V30 430 C 42.4717 -3.98406 -1.46826 0
M  V30 431 O 43.4957 -3.36505 -1.16801 0
M  V30 432 O 42.3547 -5.07497 -2.02754 0
M  V30 433 H 39.4487 -0.754079 -0.33955 0
M  V30 434 H 41.9947 -1.69619 0.0524456 0
M  V30 435 H 40.7667 -3.90728 -0.211552 0
M  V30 436 H 40.3897 -3.50424 -1.87854 0
M  V30 437 N 41.3868 0.248026 -1.55636 0
M  V30 438 C 42.6118 0.998028 -1.81808 0
M  V30 439 C 43.0368 1.78207 -0.601979 0
M  V30 440 O 42.3948 1.75653 0.448961 0
M  V30 441 C 42.4428 1.9125 -3.05705 0
M  V30 442 O 41.5468 3.00406 -2.82542 0
M  V30 443 H 40.8878 0.284045 -0.600179 0
M  V30 444 H 43.4178 0.269357 -2.02819 0
M  V30 445 H 43.4278 2.32737 -3.35108 0
M  V30 446 H 42.1028 1.33602 -3.93857 0
M  V30 447 H 40.6798 2.63056 -2.64303 0
M  V30 448 N 42.8649 1.48995 0.513639 0
M  V30 449 C 43.7949 1.67636 1.62544 0
M  V30 450 C 44.7759 0.525087 1.61793 0
M  V30 451 O 45.9609 0.759502 1.78732 0
M  V30 452 C 43.0909 1.73114 3.01079 0
M  V30 453 C 42.0449 2.87905 3.16693 0
M  V30 454 C 41.3709 2.78486 4.56453 0
M  V30 455 C 42.6709 4.29005 2.97913 0
M  V30 456 H 44.3649 2.60716 1.47198 0
M  V30 457 H 41.9109 1.25465 0.706714 0
M  V30 458 H 43.8639 1.84742 3.78746 0
M  V30 459 H 42.5879 0.766241 3.17484 0
M  V30 460 H 41.2469 2.75859 2.41448 0
M  V30 461 H 40.8949 1.7993 4.69717 0
M  V30 462 H 40.5949 3.55523 4.67843 0
M  V30 463 H 42.1189 2.92104 5.36197 0
M  V30 464 H 43.5329 4.41798 3.65359 0
M  V30 465 H 41.9299 5.07166 3.20785 0
M  V30 466 H 42.9999 4.44329 1.94165 0
M  V30 467 N 44.343 -0.763751 1.37857 0
M  V30 468 C 45.62 -1.51244 1.24035 0
M  V30 469 C 46 -2.10472 -0.162649 0
M  V30 470 O 45.348 -1.96206 -1.17112 0
M  V30 471 C 45.558 -2.58694 2.34261 0
M  V30 472 C 46.906 -3.25878 2.72193 0
M  V30 473 O 47.93 -2.68993 2.33497 0
M  V30 474 O 46.789 -4.2874 3.38887 0
M  V30 475 H 43.883 -0.670243 0.484462 0
M  V30 476 H 46.429 -0.800031 1.49658 0
M  V30 477 H 45.201 -2.13105 3.2818 0
M  V30 478 H 44.824 -3.37527 2.10146 0
M  V30 479 N 45.8211 -1.22559 -0.990812 0
M  V30 480 C 46.7311 -1.01394 -2.11557 0
M  V30 481 C 47.7471 0.0383962 -1.73958 0
M  V30 482 O 48.9231 -0.154787 -2.00804 0
M  V30 483 C 45.9881 -0.596569 -3.41529 0
M  V30 484 C 45.0491 -1.72276 -3.93217 0
M  V30 485 C 44.2821 -1.32521 -5.16985 0
M  V30 486 O 44.5051 -0.204909 -5.70032 0
M  V30 487 O 43.4391 -2.14247 -5.62478 0
M  V30 488 H 47.2651 -1.95633 -2.32296 0
M  V30 489 H 44.8501 -1.01172 -1.0993 0
M  V30 490 H 46.7321 -0.374263 -4.19735 0
M  V30 491 H 45.4071 0.316939 -3.22145 0
M  V30 492 H 44.3141 -1.99961 -3.16174 0
M  V30 493 H 45.6471 -2.61421 -4.17037 0
M  V30 494 N 47.2992 1.18797 -1.03562 0
M  V30 495 C 48.2312 2.21731 -0.580337 0
M  V30 496 C 49.2442 1.59051 0.347349 0
M  V30 497 O 50.4332 1.77929 0.142669 0
M  V30 498 C 47.5332 3.38459 0.172805 0
M  V30 499 C 46.7062 4.3072 -0.761496 0
M  V30 500 C 45.7652 5.26174 -0.0525547 0
M  V30 501 O 44.7912 5.65108 -0.681333 0
M  V30 502 N 45.9932 5.67624 1.21586 0
M  V30 503 H 48.7582 2.61417 -1.46565 0
M  V30 504 H 46.3192 1.33531 -0.915476 0
M  V30 505 H 48.3112 3.99335 0.656793 0
M  V30 506 H 46.8812 2.97507 0.959602 0
M  V30 507 H 46.1012 3.67525 -1.42544 0
M  V30 508 H 47.3892 4.89267 -1.39626 0
M  V30 509 H 46.7872 5.38038 1.74732 0
M  V30 510 H 45.3442 6.30721 1.64421 0
M  V30 511 N 48.7773 0.814389 1.34928 0
M  V30 512 C 50.1933 0.499084 1.51596 0
M  V30 513 C 50.3933 -0.978319 1.76157 0
M  V30 514 O 49.4493 -1.76309 1.80752 0
M  V30 515 C 50.7623 1.35121 2.68631 0
M  V30 516 C 52.3103 1.34746 2.82511 0
M  V30 517 C 52.7853 2.18388 4.0258 0
M  V30 518 N 54.2763 2.15966 4.09772 0
M  V30 519 C 55.0113 2.77437 5.01813 0
M  V30 520 N 54.5073 3.47866 5.99134 0
M  V30 521 N 56.3003 2.67037 4.94619 0
M  V30 522 H 48.4513 1.7711 1.17243 0
M  V30 523 H 50.7143 0.754256 0.574284 0
M  V30 524 H 50.4203 2.40001 2.57085 0
M  V30 525 H 50.2943 1.00991 3.63429 0
M  V30 526 H 52.6813 0.30648 2.93504 0
M  V30 527 H 52.7623 1.72869 1.88547 0
M  V30 528 H 52.4063 3.2253 3.92347 0
M  V30 529 H 52.3363 1.77621 4.9574 0
M  V30 530 H 54.8273 1.64729 3.40107 0
M  V30 531 H 55.1403 3.92038 6.65977 0
M  V30 532 H 53.4853 3.51972 5.99284 0
M  V30 533 H 56.6763 2.11597 4.17546 0
M  V30 534 H 56.8493 3.15232 5.66156 0
M  V30 535 N 50.2554 -1.46986 0.568584 0
M  V30 536 C 51.4804 -2.07335 0.0520528 0
M  V30 537 C 51.9054 -1.41675 -1.23733 0
M  V30 538 O 51.2634 -0.495623 -1.74394 0
M  V30 539 C 51.3114 -3.60417 -0.11501 0
M  V30 540 O 50.4154 -3.95309 -1.17492 0
M  V30 541 H 49.7564 -0.661597 0.0564385 0
M  V30 542 H 52.2864 -1.88837 0.787507 0
M  V30 543 H 52.2964 -4.06698 -0.325644 0
M  V30 544 H 50.9714 -4.07601 0.826675 0
M  V30 545 H 49.5484 -3.60757 -0.943869 0
M  V30 546 N 51.7335 -0.305618 -1.54608 0
M  V30 547 C 53.1495 0.0476228 -1.59529 0
M  V30 548 C 53.3495 1.52025 -1.32252 0
M  V30 549 O 52.4055 2.27368 -1.09818 0
M  V30 550 C 53.7185 -0.354471 -2.98603 0
M  V30 551 C 55.2665 -0.303622 -3.11524 0
M  V30 552 C 55.7415 -0.680608 -4.52915 0
M  V30 553 N 57.2325 -0.63332 -4.5885 0
M  V30 554 C 57.9675 -0.897432 -5.66334 0
M  V30 555 N 57.4635 -1.22775 -6.81834 0
M  V30 556 N 59.2565 -0.824186 -5.56025 0
M  V30 557 H 51.4075 -1.2653 -1.70599 0
M  V30 558 H 53.6705 -0.513291 -0.797017 0
M  V30 559 H 53.3765 -1.3798 -3.23503 0
M  V30 560 H 53.2505 0.289568 -3.76087 0
M  V30 561 H 55.6375 0.712472 -2.8637 0
M  V30 562 H 55.7185 -0.982348 -2.36185 0
M  V30 563 H 55.3625 -1.69453 -4.78799 0
M  V30 564 H 55.2925 0.0202385 -5.26596 0
M  V30 565 H 57.7835 -0.389138 -3.75891 0
M  V30 566 H 58.0965 -1.41513 -7.59733 0
M  V30 567 H 56.4415 -1.26583 -6.83375 0
M  V30 568 H 59.6325 -0.565748 -4.64669 0
M  V30 569 H 59.8055 -1.03338 -6.39707 0
M  V30 570 N 53.2116 1.57565 -0.0334293 0
M  V30 571 C 54.4416 1.95996 0.653398 0
M  V30 572 C 54.8496 0.908749 1.65947 0
M  V30 573 O 54.1926 -0.117471 1.83324 0
M  V30 574 C 54.2546 3.30589 1.41249 0
M  V30 575 C 53.9186 4.53503 0.564263 0
M  V30 576 C 54.9156 5.19647 -0.16225 0
M  V30 577 C 52.6006 4.99801 0.500398 0
M  V30 578 C 54.5946 6.30412 -0.941255 0
M  V30 579 C 52.2816 6.10448 -0.282308 0
M  V30 580 C 53.2796 6.75612 -1.00184 0
M  V30 581 O 52.9676 7.84134 -1.77171 0
M  V30 582 H 52.6996 0.65027 0.184728 0
M  V30 583 H 55.2536 2.05199 -0.0907841 0
M  V30 584 H 53.4836 3.17888 2.20191 0
M  V30 585 H 55.1726 3.53892 1.98784 0
M  V30 586 H 55.9386 4.84846 -0.12227 0
M  V30 587 H 51.8176 4.48883 1.05002 0
M  V30 588 H 55.3616 6.81208 -1.50339 0
M  V30 589 H 51.2586 6.44686 -0.323989 0
M  V30 590 H 52.0266 8.00822 -1.69194 0
M  V30 591 N 54.6897 -0.239769 1.55765 0
M  V30 592 C 55.6527 -1.28038 1.90103 0
M  V30 593 C 56.6527 -1.40723 0.778055 0
M  V30 594 O 57.8427 -1.39301 1.04599 0
M  V30 595 C 54.9747 -2.65702 2.13577 0
M  V30 596 H 56.1677 -0.988048 2.83157 0
M  V30 597 H 53.7207 -0.479382 1.48767 0
M  V30 598 H 54.4557 -3.00063 1.23015 0
M  V30 599 H 54.2407 -2.57875 2.95369 0
M  V30 600 H 55.7307 -3.40828 2.41301 0
M  V30 601 N 56.1678 -1.49265 -0.50573 0
M  V30 602 C 57.0998 -1.617 -1.62437 0
M  V30 603 C 58.1128 -0.499924 -1.54934 0
M  V30 604 O 59.3018 -0.771785 -1.60953 0
M  V30 605 C 56.4018 -1.5533 -3.01207 0
M  V30 606 C 55.5748 -2.8249 -3.33943 0
M  V30 607 C 54.6338 -2.69238 -4.52103 0
M  V30 608 O 53.6598 -3.43167 -4.5412 0
M  V30 609 N 54.8618 -1.80468 -5.51735 0
M  V30 610 H 57.6268 -2.58177 -1.52199 0
M  V30 611 H 55.1878 -1.46294 -0.693511 0
M  V30 612 H 57.1798 -1.44125 -3.78167 0
M  V30 613 H 55.7498 -0.667297 -3.05395 0
M  V30 614 H 54.9698 -3.08081 -2.45926 0
M  V30 615 H 56.2578 -3.66802 -3.5261 0
M  V30 616 H 55.6558 -1.19653 -5.52901 0
M  V30 617 H 54.2128 -1.75188 -6.27816 0
M  V30 618 N 57.6459 0.756429 -1.3826 0
M  V30 619 C 58.8949 1.51082 -1.3363 0
M  V30 620 C 59.2079 1.95467 0.0720068 0
M  V30 621 O 60.4139 2.7043 0.240834 0
M  V30 622 C 58.8699 2.72893 -2.34644 0
M  V30 623 C 58.4779 2.35544 -3.81081 0
M  V30 624 C 60.2219 3.50791 -2.39052 0
M  V30 625 C 58.1289 3.53948 -4.73787 0
M  V30 626 H 57.0589 0.56727 -0.49671 0
M  V30 627 H 59.7099 0.827147 -1.638 0
M  V30 628 H 58.0919 3.43227 -1.97513 0
M  V30 629 H 59.2659 1.72894 -4.27135 0
M  V30 630 H 57.5809 1.70786 -3.79764 0
M  V30 631 H 60.1779 4.38823 -3.05513 0
M  V30 632 H 60.5209 3.91745 -1.40861 0
M  V30 633 H 61.0539 2.87467 -2.74968 0
M  V30 634 H 57.7929 3.18064 -5.73163 0
M  V30 635 H 57.3129 4.15651 -4.32428 0
M  V30 636 H 58.9919 4.20566 -4.91663 0
M  V30 637 N 59.124 1.23083 0.984299 0
M  V30 638 C 60.071 1.00854 2.07598 0
M  V30 639 C 61.041 -0.0726709 1.65941 0
M  V30 640 O 62.226 0.0786535 1.90638 0
M  V30 641 C 59.366 0.601645 3.39815 0
M  V30 642 C 58.479 1.75456 3.94765 0
M  V30 643 C 57.614 1.29482 5.15177 0
M  V30 644 C 56.653 2.41873 5.62284 0
M  V30 645 N 55.79 1.96885 6.73929 0
M  V30 646 H 60.63 1.943 2.25946 0
M  V30 647 H 58.167 0.968001 1.10762 0
M  V30 648 H 60.125 0.346854 4.15756 0
M  V30 649 H 58.755 -0.295803 3.21442 0
M  V30 650 H 57.807 2.12346 3.15616 0
M  V30 651 H 59.119 2.59965 4.25699 0
M  V30 652 H 58.273 0.997923 5.98437 0
M  V30 653 H 57.012 0.420046 4.85888 0
M  V30 654 H 56.017 2.72342 4.77608 0
M  V30 655 H 57.242 3.29881 5.93595 0
M  V30 656 H 55.188 1.11782 6.46406 0
M  V30 657 H 55.105 2.74956 7.04227 0
M  V30 658 H 56.373 1.70289 7.60672 0
M  V30 659 N 60.6021 -1.18246 1.0419 0
M  V30 660 C 61.5341 -2.2142 0.592088 0
M  V30 661 C 62.5471 -1.59233 -0.338909 0
M  V30 662 O 63.7361 -1.78002 -0.133231 0
M  V30 663 C 60.8361 -3.38546 -0.154854 0
M  V30 664 C 60.0091 -4.3031 0.784328 0
M  V30 665 C 59.0681 -5.26138 0.0804583 0
M  V30 666 O 58.0941 -5.64738 0.711292 0
M  V30 667 N 59.2961 -5.68261 -1.18574 0
M  V30 668 H 62.0611 -2.60636 1.47949 0
M  V30 669 H 59.6221 -1.33044 0.922544 0
M  V30 670 H 61.6141 -3.99678 -0.635606 0
M  V30 671 H 60.1841 -2.98012 -0.943811 0
M  V30 672 H 59.4041 -3.66764 1.44491 0
M  V30 673 H 60.6921 -4.8852 1.42218 0
M  V30 674 H 60.0901 -5.38957 -1.71876 0
M  V30 675 H 58.6471 -6.31584 -1.61074 0
M  V30 676 N 62.0802 -0.821533 -1.34494 0
M  V30 677 C 63.0432 -0.247847 -2.27856 0
M  V30 678 C 64.0432 0.573453 -1.50227 0
M  V30 679 O 65.2332 0.389759 -1.69784 0
M  V30 680 C 62.3652 0.652698 -3.34593 0
M  V30 681 H 63.5582 -1.07146 -2.80107 0
M  V30 682 H 61.1112 -0.593291 -1.44602 0
M  V30 683 H 61.8462 1.49943 -2.87555 0
M  V30 684 H 61.6312 0.065292 -3.92046 0
M  V30 685 H 63.1212 1.04793 -4.04238 0
M  V30 686 N 63.5583 1.46682 -0.576371 0
M  V30 687 C 64.8043 2.03287 -0.0679305 0
M  V30 688 C 65.1593 1.44063 1.27529 0
M  V30 689 O 64.4523 0.593973 1.82161 0
M  V30 690 C 64.6463 3.57345 0.062886 0
M  V30 691 C 64.4753 4.31509 -1.26611 0
M  V30 692 C 63.2453 4.70664 -1.83856 0
M  V30 693 C 65.4433 4.65444 -2.18783 0
M  V30 694 N 63.4253 5.29552 -3.10561 0
M  V30 695 C 64.7963 5.24835 -3.30072 0
M  V30 696 C 66.8513 4.47375 -2.18542 0
M  V30 697 C 65.5543 5.68063 -4.41244 0
M  V30 698 C 67.5803 4.91614 -3.28739 0
M  V30 699 C 66.9423 5.51071 -4.38748 0
M  V30 700 H 63.0413 0.779083 -0.0674836 0
M  V30 701 H 65.6253 1.78918 -0.767877 0
M  V30 702 H 63.7963 3.8144 0.731988 0
M  V30 703 H 65.5283 4.00592 0.575134 0
M  V30 704 H 62.2833 4.53224 -1.37424 0
M  V30 705 H 62.7073 5.63523 -3.75195 0
M  V30 706 H 67.3493 4.00747 -1.34765 0
M  V30 707 H 65.0673 6.13672 -5.25768 0
M  V30 708 H 68.6533 4.79389 -3.29662 0
M  V30 709 H 67.5333 5.84678 -5.22611 0
M  V30 710 N 65.0364 0.313813 1.54444 0
M  V30 711 C 66.3134 -0.345447 1.92525 0
M  V30 712 C 66.6934 -1.70667 1.24242 0
M  V30 713 O 66.0414 -2.25273 0.382654 0
M  V30 714 C 66.2514 -0.44737 3.46121 0
M  V30 715 C 67.5994 -0.712238 4.18584 0
M  V30 716 O 68.6234 -0.530678 3.52225 0
M  V30 717 O 67.4824 -1.06183 5.36085 0
M  V30 718 H 64.5764 -0.195407 0.803583 0
M  V30 719 H 67.1224 0.362813 1.65776 0
M  V30 720 H 65.8944 0.509043 3.87975 0
M  V30 721 H 65.5174 -1.20359 3.78945 0
M  V30 722 N 66.5145 -1.57545 0.0417849 0
M  V30 723 C 67.4625 -2.12148 -0.953723 0
M  V30 724 C 68.4565 -1.05104 -1.32852 0
M  V30 725 O 69.6625 -1.23524 -1.30927 0
M  V30 726 H 66.0375 -0.677957 -0.325389 0
M  V30 727 H 68.0085 -2.94707 -0.467991 0
M  V30 728 C 66.7575 -2.6739 -2.22257 0
M  V30 729 H 66.0805 -3.49413 -1.94295 0
M  V30 730 H 67.5205 -3.09227 -2.90094 0
M  V30 731 C 65.9795 -1.60723 -2.96091 0
M  V30 732 O 66.5095 -1.01449 -3.88679 0
M  V30 733 N 64.7155 -1.32466 -2.58652 0
M  V30 734 H 64.2625 -1.80856 -1.83437 0
M  V30 735 H 64.2205 -0.61325 -3.08361 0
M  V30 736 N 67.9926 0.231505 -1.5589 0
M  V30 737 C 69.4086 0.580748 -1.48659 0
M  V30 738 C 69.6086 1.87617 -0.73498 0
M  V30 739 O 68.6646 2.51046 -0.270586 0
M  V30 740 C 69.9776 0.669202 -2.93159 0
M  V30 741 C 71.5256 0.760499 -3.03621 0
M  V30 742 C 72.0006 0.880383 -4.49459 0
M  V30 743 N 73.4916 0.944861 -4.53461 0
M  V30 744 C 74.2266 1.05716 -5.63571 0
M  V30 745 N 73.7226 1.13403 -6.83456 0
M  V30 746 N 75.5156 1.09152 -5.514 0
M  V30 747 H 67.6666 -0.618695 -2.03189 0
M  V30 748 H 69.9296 -0.215728 -0.923128 0
M  V30 749 H 69.6356 -0.212904 -3.51055 0
M  V30 750 H 69.5096 1.5361 -3.44505 0
M  V30 751 H 71.8966 1.63305 -2.45796 0
M  V30 752 H 71.9776 -0.131864 -2.5546 0
M  V30 753 H 71.6216 0.0123284 -5.07899 0
M  V30 754 H 71.5516 1.78802 -4.95316 0
M  V30 755 H 74.0426 0.896176 -3.6712 0
M  V30 756 H 74.3556 1.21921 -7.63122 0
M  V30 757 H 72.7006 1.10333 -6.86186 0
M  V30 758 H 75.8916 1.02805 -4.56671 0
M  V30 759 H 76.0646 1.17558 -6.37247 0
M  V30 760 N 69.4707 1.49531 0.497807 0
M  V30 761 C 70.4027 1.62559 1.61578 0
M  V30 762 C 71.4157 0.508134 1.54667 0
M  V30 763 O 72.6047 0.780309 1.60541 0
M  V30 764 C 69.7047 1.56925 3.00379 0
M  V30 765 C 68.8777 2.84257 3.3244 0
M  V30 766 C 67.9367 2.71632 4.50669 0
M  V30 767 O 66.9627 3.4557 4.52294 0
M  V30 768 N 68.1647 1.83391 5.5077 0
M  V30 769 H 70.9297 2.58981 1.50828 0
M  V30 770 H 68.4907 1.4666 0.685743 0
M  V30 771 H 70.4827 1.46129 3.77397 0
M  V30 772 H 69.0527 0.683483 3.05037 0
M  V30 773 H 68.2727 3.09381 2.44289 0
M  V30 774 H 69.5607 3.68666 3.5066 0
M  V30 775 H 68.9587 1.22583 5.52259 0
M  V30 776 H 67.5157 1.78515 6.26878 0
M  V30 777 N 70.9488 -0.749086 1.3866 0
M  V30 778 C 71.8818 -1.87111 1.30631 0
M  V30 779 C 72.8598 -1.61572 0.18251 0
M  V30 780 O 74.0438 -1.85019 0.360592 0
M  V30 781 C 71.1708 -3.22815 1.02511 0
M  V30 782 C 70.2168 -3.67234 2.1689 0
M  V30 783 S 71.0498 -3.78245 3.79066 0
M  V30 784 C 72.2058 -5.16761 3.53142 0
M  V30 785 H 72.4388 -1.93636 2.25594 0
M  V30 786 H 69.9718 -0.912525 1.24549 0
M  V30 787 H 71.9298 -4.01181 0.869701 0
M  V30 788 H 70.5908 -3.13964 0.0925884 0
M  V30 789 H 69.7838 -4.65677 1.92771 0
M  V30 790 H 69.3858 -2.96034 2.28561 0
M  V30 791 H 71.6778 -6.02656 3.09534 0
M  V30 792 H 72.6208 -5.45902 4.50995 0
M  V30 793 H 73.0288 -4.85771 2.87554 0
M  V30 794 N 72.4269 -1.23603 -0.977757 0
M  V30 795 C 73.7039 -0.977897 -1.69401 0
M  V30 796 C 74.0839 0.502738 -2.05026 0
M  V30 797 O 73.4319 1.47459 -1.74551 0
M  V30 798 C 73.6419 -1.89077 -2.93345 0
M  V30 799 C 74.9899 -2.15579 -3.65802 0
M  V30 800 O 76.0139 -1.86648 -3.03383 0
M  V30 801 O 74.8729 -2.64658 -4.78141 0
M  V30 802 H 71.9669 -0.369025 -0.740101 0
M  V30 803 H 74.5129 -1.34657 -1.03274 0
M  V30 804 H 73.2849 -2.89158 -2.63634 0
M  V30 805 H 72.9079 -1.52463 -3.67207 0
M  V30 806 N 73.905 1.17692 -1.04816 0
M  V30 807 C 75.151 1.88137 -0.75711 0
M  V30 808 C 75.484 1.80604 0.713841 0
M  V30 809 O 74.759 1.21146 1.52164 0
M  V30 810 C 75.042 3.38318 -1.2334 0
M  V30 811 C 74.895 3.54622 -2.76701 0
M  V30 812 C 76.214 4.32214 -0.829415 0
M  V30 813 H 73.333 0.683163 -0.27651 0
M  V30 814 H 75.975 1.38424 -1.30149 0
M  V30 815 H 74.125 3.80787 -0.770286 0
M  V30 816 H 75.797 3.21194 -3.31107 0
M  V30 817 H 74.04 2.97026 -3.16161 0
M  V30 818 H 74.711 4.60028 -3.05088 0
M  V30 819 H 77.187 3.97565 -1.22805 0
M  V30 820 H 76.063 5.35838 -1.19033 0
M  V30 821 H 76.324 4.41294 0.266891 0
M  V30 822 N 75.3831 0.828654 1.34056 0
M  V30 823 C 76.6291 0.42008 1.98402 0
M  V30 824 C 76.9621 -1.01564 1.65525 0
M  V30 825 O 76.2371 -1.70834 0.929831 0
M  V30 826 C 76.5201 0.62927 3.54559 0
M  V30 827 C 76.3731 2.11152 3.97159 0
M  V30 828 C 77.6921 0.0688756 4.40046 0
M  V30 829 H 74.8111 0.154104 0.720709 0
M  V30 830 H 77.4531 1.04228 1.5886 0
M  V30 831 H 75.6031 0.0996418 3.88372 0
M  V30 832 H 77.2751 2.70522 3.73651 0
M  V30 833 H 75.5181 2.59985 3.47261 0
M  V30 834 H 76.1891 2.20868 5.05887 0
M  V30 835 H 78.6651 0.521458 4.1282 0
M  V30 836 H 77.5411 0.245006 5.48353 0
M  V30 837 H 77.8021 -1.0266 4.30015 0
M  V30 838 N 76.8612 -1.46375 0.584142 0
M  V30 839 C 77.7712 -2.34115 -0.150728 0
M  V30 840 C 78.7872 -1.49838 -0.884567 0
M  V30 841 O 79.9632 -1.82704 -0.847429 0
M  V30 842 C 77.0282 -3.2705 -1.15062 0
M  V30 843 C 76.0892 -4.27228 -0.421293 0
M  V30 844 C 75.3222 -5.15722 -1.37355 0
M  V30 845 O 75.5452 -5.07176 -2.61014 0
M  V30 846 O 74.4792 -5.95383 -0.883355 0
M  V30 847 H 78.3052 -2.98309 0.569708 0
M  V30 848 H 75.8902 -1.45373 0.344535 0
M  V30 849 H 77.7722 -3.84381 -1.72712 0
M  V30 850 H 76.4472 -2.65451 -1.8525 0
M  V30 851 H 75.3542 -3.7358 0.197085 0
M  V30 852 H 76.6872 -4.91616 0.239641 0
M  V30 853 N 78.3393 -0.321999 -1.54275 0
M  V30 854 C 79.2713 0.578671 -2.21775 0
M  V30 855 C 80.2843 1.08109 -1.21722 0
M  V30 856 O 81.4733 0.994938 -1.482 0
M  V30 857 C 78.5733 1.80661 -2.86731 0
M  V30 858 C 77.7463 1.44314 -4.12907 0
M  V30 859 C 76.8053 2.52845 -4.61472 0
M  V30 860 O 75.8313 2.17054 -5.2619 0
M  V30 861 N 77.0333 3.83748 -4.35566 0
M  V30 862 H 79.7983 0.000709447 -2.997 0
M  V30 863 H 77.3593 -0.145132 -1.61248 0
M  V30 864 H 79.3513 2.52655 -3.16145 0
M  V30 865 H 77.9213 2.29245 -2.12521 0
M  V30 866 H 77.1413 0.554906 -3.90275 0
M  V30 867 H 78.4293 1.17598 -4.95023 0
M  V30 868 H 77.8273 4.15625 -3.83761 0
M  V30 869 H 76.3843 4.51977 -4.69638 0
M  V30 870 N 79.8174 1.5752 -0.0501392 0
M  V30 871 C 80.7504 2.07026 0.959962 0
M  V30 872 C 81.7284 0.970539 1.30458 0
M  V30 873 O 82.9124 1.2424 1.41763 0
M  V30 874 C 80.0394 2.5099 2.27424 0
M  V30 875 C 79.0854 3.72188 2.08275 0
M  V30 876 S 79.9184 5.17888 1.36207 0
M  V30 877 C 81.0744 5.65165 2.6896 0
M  V30 878 H 81.3074 2.9238 0.538631 0
M  V30 879 H 78.8404 1.53547 0.162099 0
M  V30 880 H 80.7984 2.76982 3.02971 0
M  V30 881 H 79.4594 1.65944 2.66686 0
M  V30 882 H 78.6524 4.00866 3.05487 0
M  V30 883 H 78.2544 3.46457 1.40868 0
M  V30 884 H 80.5464 5.70687 3.65133 0
M  V30 885 H 81.4894 6.64394 2.4492 0
M  V30 886 H 81.8974 4.9289 2.75172 0
M  V30 887 N 81.2955 -0.223234 1.56011 0
M  V30 888 C 82.2285 -1.30377 1.87289 0
M  V30 889 C 83.2065 -1.45286 0.730112 0
M  V30 890 O 84.3905 -1.61126 0.978302 0
M  V30 891 C 81.5175 -2.67431 2.07843 0
M  V30 892 C 80.5635 -2.69546 3.30526 0
M  V30 893 S 81.3965 -2.23781 4.865 0
M  V30 894 C 82.5525 -3.62714 5.10088 0
M  V30 895 H 82.7855 -1.03652 2.78646 0
M  V30 896 H 80.3185 -0.425393 1.48424 0
M  V30 897 H 82.2765 -3.46336 2.20368 0
M  V30 898 H 80.9375 -2.91381 1.17285 0
M  V30 899 H 80.1305 -3.70255 3.41947 0
M  V30 900 H 79.7325 -1.98703 3.16849 0
M  V30 901 H 82.0245 -4.58391 4.98883 0
M  V30 902 H 82.9675 -3.5621 6.11981 0
M  V30 903 H 83.3755 -3.56323 4.37829 0
M  V30 904 N 82.7736 -1.49793 -0.48987 0
M  V30 905 C 84.1846 -1.52914 -1.07118 0
M  V30 906 C 84.5356 -0.321738 -1.93544 0
M  V30 907 O 83.6606 0.567338 -2.08831 0
M  V30 908 C 84.2556 -2.771 -1.94938 0
M  V30 909 C 82.8146 -2.82963 -2.48212 0
M  V30 910 C 81.9616 -2.46972 -1.26096 0
M  V30 911 H 84.9126 -1.56329 -0.273289 0
M  V30 912 H 84.9336 -2.57892 -2.79771 0
M  V30 913 H 84.4456 -3.64959 -1.32009 0
M  V30 914 H 82.5466 -1.99411 -3.14748 0
M  V30 915 H 82.6596 -3.85406 -2.84603 0
M  V30 916 H 81.0236 -1.98994 -1.58976 0
M  V30 917 H 81.8066 -3.37118 -0.648581 0
M  V30 918 N 84.2517 0.741722 -1.39055 0
M  V30 919 C 85.4997 1.49818 -1.35643 0
M  V30 920 C 85.8207 1.94938 0.0491642 0
M  V30 921 O 85.0907 1.68505 0.999141 0
M  V30 922 H 83.6707 0.555755 -0.499144 0
M  V30 923 H 86.3327 0.880957 -1.73854 0
M  V30 924 H 85.4287 2.38348 -2.01486 0
M  V30 925 N 85.7298 1.2412 0.971189 0
M  V30 926 C 86.6598 1.05508 2.08304 0
M  V30 927 C 87.6408 -0.0308864 1.70072 0
M  V30 928 O 88.8258 0.135521 1.93727 0
M  V30 929 C 85.9558 0.655365 3.4106 0
M  V30 930 C 84.9098 1.68971 3.93234 0
M  V30 931 C 84.2358 1.14516 5.22293 0
M  V30 932 C 85.5358 3.08487 4.21465 0
M  V30 933 H 87.2298 1.98507 2.24132 0
M  V30 934 H 84.7758 0.955821 1.07704 0
M  V30 935 H 86.7288 0.51217 4.18276 0
M  V30 936 H 85.4528 -0.31032 3.25122 0
M  V30 937 H 84.1118 1.82106 3.18171 0
M  V30 938 H 83.7598 0.170189 5.02712 0
M  V30 939 H 83.4598 1.83635 5.58168 0
M  V30 940 H 84.9838 1.01401 6.02121 0
M  V30 941 H 86.3978 2.98601 4.89398 0
M  V30 942 H 84.7948 3.74926 4.68562 0
M  V30 943 H 85.8648 3.56787 3.28376 0
M  V30 944 N 87.2079 -1.17134 1.05439 0
M  V30 945 C 88.1549 -2.21235 0.657539 0
M  V30 946 C 89.1249 -1.62551 -0.341543 0
M  V30 947 O 90.3099 -1.89379 -0.232393 0
M  V30 948 C 87.4499 -3.45076 0.0410575 0
M  V30 949 C 86.5629 -4.18042 1.08927 0
M  V30 950 C 85.6979 -5.29376 0.439848 0
M  V30 951 C 84.7369 -5.94132 1.4722 0
M  V30 952 N 83.8739 -6.96975 0.846756 0
M  V30 953 H 88.7139 -2.54534 1.54972 0
M  V30 954 H 86.2509 -1.25028 0.775006 0
M  V30 955 H 88.2089 -4.15862 -0.33383 0
M  V30 956 H 86.8389 -3.12353 -0.814568 0
M  V30 957 H 85.8909 -3.45945 1.58196 0
M  V30 958 H 87.2029 -4.62306 1.87282 0
M  V30 959 H 86.3569 -6.06699 0.0115125 0
M  V30 960 H 85.0959 -4.86251 -0.375656 0
M  V30 961 H 84.1009 -5.15538 1.91052 0
M  V30 962 H 85.3259 -6.39337 2.28965 0
M  V30 963 H 83.2719 -6.5598 0.0518075 0
M  V30 964 H 83.1889 -7.39565 1.5678 0
M  V30 965 H 84.4569 -7.78239 0.443277 0
M  V30 966 N 88.686 -0.835752 -1.33615 0
M  V30 967 C 89.963 -0.352017 -1.92406 0
M  V30 968 C 90.343 1.16225 -1.76224 0
M  V30 969 O 89.691 1.97526 -1.14873 0
M  V30 970 C 89.901 -0.795485 -3.39813 0
M  V30 971 C 91.249 -0.801703 -4.16963 0
M  V30 972 O 92.273 -0.738889 -3.48452 0
M  V30 973 O 91.132 -0.886607 -5.3926 0
M  V30 974 H 88.226 -0.0989641 -0.821057 0
M  V30 975 H 90.772 -0.921397 -1.42507 0
M  V30 976 H 89.544 -1.83795 -3.45449 0
M  V30 977 H 89.167 -0.202505 -3.97084 0
M  V30 978 N 90.1641 1.46063 -0.591896 0
M  V30 979 C 91.3941 2.06418 -0.0867676 0
M  V30 980 C 91.8021 1.43975 1.22751 0
M  V30 981 O 91.1451 0.542531 1.75506 0
M  V30 982 C 91.2071 3.59213 0.143725 0
M  V30 983 C 90.8711 4.439 -1.08635 0
M  V30 984 C 91.8681 4.79864 -2.00067 0
M  V30 985 C 89.5531 4.84896 -1.31077 0
M  V30 986 C 91.5471 5.55661 -3.12282 0
M  V30 987 C 89.2341 5.6045 -2.43596 0
M  V30 988 C 90.2321 5.95747 -3.34027 0
M  V30 989 O 89.9201 6.69772 -4.4459 0
M  V30 990 H 89.6521 0.673443 -0.0587447 0
M  V30 991 H 92.2061 1.88539 -0.814994 0
M  V30 992 H 90.4361 3.75433 0.926668 0
M  V30 993 H 92.1251 4.01463 0.5985 0
M  V30 994 H 92.8911 4.48763 -1.83947 0
M  V30 995 H 88.7701 4.56867 -0.61594 0
M  V30 996 H 92.3141 5.8313 -3.82891 0
M  V30 997 H 88.2111 5.90965 -2.59674 0
M  V30 998 H 88.9791 6.88207 -4.43073 0
M  V30 999 N 91.6422 0.330177 1.54103 0
M  V30 1000 C 93.0532 -0.15652 1.86043 0
M  V30 1001 C 93.4042 -1.51086 1.2517 0
M  V30 1002 O 92.5292 -2.09023 0.560217 0
M  V30 1003 C 93.1242 -0.290784 3.3755 0
M  V30 1004 C 91.6832 -0.721705 3.69416 0
M  V30 1005 C 90.8302 0.152622 2.7688 0
M  V30 1006 H 93.7812 0.550237 1.48856 0
M  V30 1007 H 93.8022 -1.12058 3.63625 0
M  V30 1008 H 93.3142 0.695068 3.81825 0
M  V30 1009 H 91.4152 -1.71706 3.30678 0
M  V30 1010 H 91.5282 -0.520869 4.7626 0
M  V30 1011 H 89.8922 -0.372894 2.51956 0
M  V30 1012 H 90.6752 1.13536 3.23982 0
M  V30 1013 N 93.1203 -1.57491 0.0584922 0
M  V30 1014 C 94.0503 -2.14988 -0.911178 0
M  V30 1015 C 95.0313 -1.07343 -1.31952 0
M  V30 1016 O 96.2163 -1.35318 -1.39294 0
M  V30 1017 C 93.3463 -2.70078 -2.18347 0
M  V30 1018 C 92.3003 -3.82771 -1.91495 0
M  V30 1019 C 91.6263 -4.24408 -3.25241 0
M  V30 1020 C 92.9263 -5.07592 -1.23075 0
M  V30 1021 H 94.6203 -2.96263 -0.432246 0
M  V30 1022 H 92.1663 -1.42512 -0.206469 0
M  V30 1023 H 94.1193 -3.08943 -2.86587 0
M  V30 1024 H 92.8433 -1.86005 -2.68458 0
M  V30 1025 H 91.5023 -3.44389 -1.25664 0
M  V30 1026 H 91.1503 -3.37275 -3.73168 0
M  V30 1027 H 90.8503 -5.00366 -3.08071 0
M  V30 1028 H 92.3743 -4.65879 -3.94701 0
M  V30 1029 H 93.7883 -5.43857 -1.81362 0
M  V30 1030 H 92.1853 -5.88741 -1.16207 0
M  V30 1031 H 93.2553 -4.84454 -0.207847 0
M  V30 1032 N 94.5984 0.214957 -1.56127 0
M  V30 1033 C 95.8284 0.953707 -1.8327 0
M  V30 1034 C 96.2364 1.78181 -0.636262 0
M  V30 1035 O 95.5794 1.79191 0.404516 0
M  V30 1036 C 95.6414 1.91516 -3.0424 0
M  V30 1037 C 95.3054 1.27094 -4.38972 0
M  V30 1038 C 96.3024 0.657575 -5.15725 0
M  V30 1039 C 93.9874 1.28073 -4.85698 0
M  V30 1040 C 95.9814 0.0625968 -6.37369 0
M  V30 1041 C 93.6684 0.681914 -6.07283 0
M  V30 1042 C 94.6664 0.0739046 -6.8296 0
M  V30 1043 O 94.3544 -0.515582 -8.02245 0
M  V30 1044 H 94.0864 0.284764 -0.613095 0
M  V30 1045 H 96.6404 0.233283 -2.04071 0
M  V30 1046 H 94.8704 2.67475 -2.79274 0
M  V30 1047 H 96.5594 2.52001 -3.18198 0
M  V30 1048 H 97.3254 0.642288 -4.80728 0
M  V30 1049 H 93.2044 1.74337 -4.26764 0
M  V30 1050 H 96.7484 -0.412593 -6.96379 0
M  V30 1051 H 92.6454 0.694636 -6.41752 0
M  V30 1052 H 93.4134 -0.410544 -8.1747 0
M  V30 1053 N 96.0765 1.50051 0.48192 0
M  V30 1054 C 97.4875 1.5348 1.06305 0
M  V30 1055 C 97.8385 0.331997 1.93371 0
M  V30 1056 O 96.9635 -0.556256 2.09129 0
M  V30 1057 C 97.5585 2.7813 1.93466 0
M  V30 1058 C 96.1175 2.84275 2.46707 0
M  V30 1059 C 95.2645 2.47637 1.24785 0
M  V30 1060 H 98.2155 1.56472 0.264995 0
M  V30 1061 H 98.2365 2.59372 2.78399 0
M  V30 1062 H 97.7485 3.65654 1.30072 0
M  V30 1063 H 95.8495 2.01077 3.13686 0
M  V30 1064 H 95.9625 3.8691 2.82555 0
M  V30 1065 H 94.3265 1.99835 1.57918 0
M  V30 1066 H 95.1095 3.37457 0.630694 0
M  V30 1067 N 97.5546 -0.734337 1.39446 0
M  V30 1068 C 98.7846 -1.52137 1.39778 0
M  V30 1069 C 99.1926 -1.89198 -0.00929312 0
M  V30 1070 O 98.5356 -1.54666 -0.991168 0
M  V30 1071 C 98.5976 -2.83762 2.20724 0
M  V30 1072 C 98.2616 -2.69131 3.69347 0
M  V30 1073 C 99.2586 -2.37635 4.62413 0
M  V30 1074 C 96.9436 -2.85982 4.1294 0
M  V30 1075 C 98.9376 -2.23172 5.97054 0
M  V30 1076 C 96.6246 -2.71137 5.47657 0
M  V30 1077 C 97.6226 -2.39777 6.39528 0
M  V30 1078 O 97.3106 -2.25026 7.71763 0
M  V30 1079 H 97.0426 -0.476717 0.479288 0
M  V30 1080 H 99.5966 -0.915012 1.83893 0
M  V30 1081 H 97.8266 -3.4666 1.71359 0
M  V30 1082 H 99.5156 -3.45383 2.13226 0
M  V30 1083 H 100.282 -2.24267 4.30034 0
M  V30 1084 H 96.1606 -3.09383 3.41765 0
M  V30 1085 H 99.7046 -1.98617 6.68728 0
M  V30 1086 H 95.6016 -2.84083 5.79626 0
M  V30 1087 H 96.3696 -2.40091 7.82495 0
M  V30 1088 N 99.0327 -1.24633 -0.964593 0
M  V30 1089 C 99.9627 -1.06611 -2.07741 0
M  V30 1090 C 100.944 0.0218666 -1.70086 0
M  V30 1091 O 102.129 -0.145793 -1.93652 0
M  V30 1092 C 99.2587 -0.673444 -3.40708 0
M  V30 1093 C 98.2127 -1.71054 -3.92332 0
M  V30 1094 C 97.5387 -1.17285 -5.21678 0
M  V30 1095 C 98.8387 -3.10718 -4.19824 0
M  V30 1096 H 100.533 -1.99693 -2.23076 0
M  V30 1097 H 98.0787 -0.96152 -1.07195 0
M  V30 1098 H 100.032 -0.534345 -4.17998 0
M  V30 1099 H 98.7557 0.293073 -3.25282 0
M  V30 1100 H 97.4147 -1.83791 -3.17201 0
M  V30 1101 H 97.0627 -0.196847 -5.02615 0
M  V30 1102 H 96.7627 -1.86592 -5.57187 0
M  V30 1103 H 98.2867 -1.04593 -6.01575 0
M  V30 1104 H 99.7007 -3.01192 -4.87808 0
M  V30 1105 H 98.0977 -3.77406 -4.66567 0
M  V30 1106 H 99.1677 -3.58524 -3.26479 0
M  V30 1107 N 100.511 1.16574 -1.06058 0
M  V30 1108 C 101.421 2.2452 -0.680282 0
M  V30 1109 C 102.437 1.71348 0.302604 0
M  V30 1110 O 103.613 2.00822 0.152513 0
M  V30 1111 C 100.678 3.46629 -0.0700315 0
M  V30 1112 C 99.7388 4.14849 -1.10448 0
M  V30 1113 C 98.9718 5.31129 -0.523256 0
M  V30 1114 O 99.1948 5.66514 0.664709 0
M  V30 1115 O 98.1288 5.88526 -1.26179 0
M  V30 1116 H 101.955 2.59355 -1.58015 0
M  V30 1117 H 99.5398 1.24043 -0.832694 0
M  V30 1118 H 101.422 4.20543 0.268667 0
M  V30 1119 H 100.097 3.13573 0.803353 0
M  V30 1120 H 99.0038 3.42916 -1.49532 0
M  V30 1121 H 100.337 4.51954 -1.94931 0
M  V30 1122 N 101.989 0.842826 1.3317 0
M  V30 1123 C 103.219 0.453397 2.01564 0
M  V30 1124 C 103.627 -0.951147 1.63554 0
M  V30 1125 O 102.97 -1.63021 0.846746 0
M  V30 1126 C 103.032 0.499013 3.5602 0
M  V30 1127 C 102.696 1.86037 4.1742 0
M  V30 1128 C 103.693 2.82416 4.36506 0
M  V30 1129 C 101.378 2.15428 4.53757 0
M  V30 1130 C 103.372 4.06346 4.91082 0
M  V30 1131 C 101.059 3.39615 5.0804 0
M  V30 1132 C 102.057 4.3489 5.26649 0
M  V30 1133 O 101.745 5.5688 5.79776 0
M  V30 1134 H 101.477 0.177871 0.652179 0
M  V30 1135 H 104.031 1.13808 1.70988 0
M  V30 1136 H 102.261 -0.242467 3.85939 0
M  V30 1137 H 103.95 0.126852 4.05702 0
M  V30 1138 H 104.716 2.6101 4.08777 0
M  V30 1139 H 100.595 1.42061 4.38565 0
M  V30 1140 H 104.139 4.80722 5.05522 0
M  V30 1141 H 100.036 3.60876 5.352 0
M  V30 1142 H 100.804 5.58674 5.98185 0
M  V30 1143 N 103.467 -1.45747 0.599634 0
M  V30 1144 C 104.883 -1.57424 0.26264 0
M  V30 1145 C 105.083 -1.59222 -1.23493 0
M  V30 1146 O 104.139 -1.51825 -2.01756 0
M  V30 1147 C 105.452 -2.86061 0.926795 0
M  V30 1148 C 107 -2.99722 0.901967 0
M  V30 1149 C 107.475 -4.31119 1.54598 0
M  V30 1150 N 108.966 -4.37858 1.5111 0
M  V30 1151 C 109.701 -5.3818 1.97863 0
M  V30 1152 N 109.197 -6.45083 2.52666 0
M  V30 1153 N 110.99 -5.29487 1.88679 0
M  V30 1154 H 103.141 -1.42823 1.57211 0
M  V30 1155 H 105.404 -0.68235 0.658105 0
M  V30 1156 H 105.11 -2.90605 1.98095 0
M  V30 1157 H 104.984 -3.74563 0.445238 0
M  V30 1158 H 107.371 -2.9475 -0.143617 0
M  V30 1159 H 107.452 -2.12652 1.42171 0
M  V30 1160 H 107.096 -4.36849 2.59085 0
M  V30 1161 H 107.026 -5.16992 1.00132 0
M  V30 1162 H 109.517 -3.61209 1.11068 0
M  V30 1163 H 109.83 -7.17869 2.86155 0
M  V30 1164 H 108.175 -6.45856 2.56701 0
M  V30 1165 H 111.366 -4.44877 1.4561 0
M  V30 1166 H 111.539 -6.07524 2.25429 0
M  V30 1167 N 104.945 -0.338344 -1.53925 0
M  V30 1168 C 105.877 0.555117 -2.22376 0
M  V30 1169 C 106.89 1.06812 -1.22862 0
M  V30 1170 O 108.079 0.979163 -1.49247 0
M  V30 1171 C 105.179 1.77609 -2.88631 0
M  V30 1172 C 104.352 1.39927 -4.14414 0
M  V30 1173 C 103.411 2.47936 -4.64127 0
M  V30 1174 O 102.437 2.11461 -5.28463 0
M  V30 1175 N 103.639 3.79107 -4.39612 0
M  V30 1176 H 106.404 -0.0310778 -2.99684 0
M  V30 1177 H 103.965 -0.162226 -1.61085 0
M  V30 1178 H 105.957 2.49287 -3.18807 0
M  V30 1179 H 104.527 2.26978 -2.14941 0
M  V30 1180 H 103.747 0.513481 -3.90841 0
M  V30 1181 H 105.035 1.12341 -4.96243 0
M  V30 1182 H 104.433 4.11531 -3.88148 0
M  V30 1183 H 102.99 4.4697 -4.74406 0
M  V30 1184 N 106.423 1.57458 -0.0668435 0
M  V30 1185 C 107.672 1.92477 0.602947 0
M  V30 1186 C 107.985 0.948419 1.71068 0
M  V30 1187 O 109.191 1.19124 2.43971 0
M  V30 1188 C 107.647 3.41903 1.12383 0
M  V30 1189 C 107.255 4.47975 0.04737 0
M  V30 1190 C 108.999 3.85931 1.76797 0
M  V30 1191 C 106.906 5.88529 0.582022 0
M  V30 1192 H 105.836 0.718387 0.22899 0
M  V30 1193 H 108.487 1.82978 -0.138276 0
M  V30 1194 H 106.869 3.46459 1.91787 0
M  V30 1195 H 108.043 4.55029 -0.726978 0
M  V30 1196 H 106.358 4.13384 -0.500243 0
M  V30 1197 H 108.955 4.88322 2.17821 0
M  V30 1198 H 109.298 3.23029 2.62599 0
M  V30 1199 H 109.831 3.83958 1.04024 0
M  V30 1200 H 106.57 6.55065 -0.238721 0
M  V30 1201 H 106.09 5.85004 1.324 0
M  V30 1202 H 107.769 6.38258 1.05999 0
M  V30 1203 N 107.901 -0.206675 1.56239 0
M  V30 1204 C 109.129 -0.945345 1.8404 0
M  V30 1205 C 109.544 -1.77336 0.647885 0
M  V30 1206 O 108.901 -1.78425 -0.383511 0
M  V30 1207 C 108.952 -1.8509 3.10522 0
M  V30 1208 O 108.673 -1.05634 4.25174 0
M  V30 1209 C 110.174 -2.70222 3.51418 0
M  V30 1210 H 107.394 -0.276372 0.61144 0
M  V30 1211 H 109.938 -0.217417 2.03341 0
M  V30 1212 H 108.093 -2.53259 2.93153 0
M  V30 1213 H 108.507 -1.67238 4.97124 0
M  V30 1214 H 109.981 -3.29438 4.42916 0
M  V30 1215 H 110.458 -3.43358 2.73864 0
M  V30 1216 H 111.064 -2.07443 3.71278 0
M  V30 1217 N 109.379 -1.50304 -0.473955 0
M  V30 1218 C 110.656 -1.51667 -1.23518 0
M  V30 1219 C 111.036 -0.259701 -2.09496 0
M  V30 1220 O 110.384 0.756986 -2.15597 0
M  V30 1221 C 110.594 -2.81082 -2.06868 0
M  V30 1222 C 111.942 -3.31631 -2.65153 0
M  V30 1223 O 112.966 -2.82384 -2.17113 0
M  V30 1224 O 111.825 -4.17471 -3.52675 0
M  V30 1225 H 108.919 -0.60822 -0.560355 0
M  V30 1226 H 111.465 -1.62592 -0.486011 0
M  V30 1227 H 110.237 -3.64041 -1.4349 0
M  V30 1228 H 109.86 -2.73146 -2.88924 0
M  V30 1229 N 110.857 0.726932 -1.39834 0
M  V30 1230 C 112.134 1.47902 -1.28001 0
M  V30 1231 C 112.514 2.1083 0.106789 0
M  V30 1232 O 111.862 1.99242 1.11869 0
M  V30 1233 C 112.072 2.52392 -2.41038 0
M  V30 1234 C 113.42 3.18546 -2.80737 0
M  V30 1235 O 114.444 2.62708 -2.40547 0
M  V30 1236 O 113.303 4.19604 -3.50135 0
M  V30 1237 H 110.397 0.657163 -0.502062 0
M  V30 1238 H 112.943 0.760071 -1.51727 0
M  V30 1239 H 111.715 2.04329 -3.33715 0
M  V30 1240 H 111.338 3.31837 -2.19021 0
M  V30 1241 N 112.336 1.25143 0.95797 0
M  V30 1242 C 113.266 1.07711 2.07173 0
M  V30 1243 C 114.247 -0.0128462 1.70095 0
M  V30 1244 O 115.432 0.156061 1.93572 0
M  V30 1245 C 112.562 0.691503 3.40346 0
M  V30 1246 C 111.516 1.73132 3.9142 0
M  V30 1247 C 110.842 1.20049 5.21049 0
M  V30 1248 C 112.142 3.1294 4.1817 0
M  V30 1249 H 113.836 2.00873 2.22014 0
M  V30 1250 H 111.382 0.967191 1.06684 0
M  V30 1251 H 113.335 0.556505 4.17709 0
M  V30 1252 H 112.059 -0.275819 3.25433 0
M  V30 1253 H 110.718 1.8547 3.16222 0
M  V30 1254 H 110.366 0.223499 5.02503 0
M  V30 1255 H 110.066 1.89545 5.56189 0
M  V30 1256 H 111.59 1.07782 6.01012 0
M  V30 1257 H 113.004 3.03775 4.86203 0
M  V30 1258 H 111.401 3.79875 4.64559 0
M  V30 1259 H 112.471 3.6025 3.24573 0
M  V30 1260 N 113.814 -1.1601 1.06675 0
M  V30 1261 C 114.747 -2.1947 0.625168 0
M  V30 1262 C 115.725 -1.58699 -0.354041 0
M  V30 1263 O 116.909 -1.86669 -0.262098 0
M  V30 1264 C 114.036 -3.38598 -0.0829593 0
M  V30 1265 C 113.082 -4.1787 0.853611 0
M  V30 1266 S 113.915 -4.81135 2.35094 0
M  V30 1267 C 115.071 -6.03639 1.65441 0
M  V30 1268 H 115.304 -2.56587 1.50168 0
M  V30 1269 H 112.837 -1.26862 0.880078 0
M  V30 1270 H 114.795 -4.07621 -0.485288 0
M  V30 1271 H 113.456 -2.99839 -0.935716 0
M  V30 1272 H 112.649 -5.03078 0.304755 0
M  V30 1273 H 112.251 -3.54361 1.196 0
M  V30 1274 H 114.543 -6.70632 0.962201 0
M  V30 1275 H 115.486 -6.63081 2.48454 0
M  V30 1276 H 115.894 -5.52965 1.13534 0
M  V30 1277 N 115.292 -0.849877 -1.32721 0
M  V30 1278 C 116.24 -0.279745 -2.30912 0
M  V30 1279 C 117.234 0.594278 -1.58634 0
M  V30 1280 O 118.44 0.482613 -1.73409 0
M  V30 1281 H 114.815 -0.0717521 -0.748569 0
M  V30 1282 H 116.786 -1.12222 -2.76494 0
M  V30 1283 C 115.535 0.521108 -3.43773 0
M  V30 1284 H 114.858 -0.142141 -3.99547 0
M  V30 1285 H 116.298 0.885693 -4.14646 0
M  V30 1286 C 114.757 1.70442 -2.90605 0
M  V30 1287 O 115.287 2.8034 -2.87702 0
M  V30 1288 N 113.493 1.52991 -2.47067 0
M  V30 1289 H 113.04 0.635914 -2.49628 0
M  V30 1290 H 112.998 2.32311 -2.11847 0
M  V30 1291 N 116.77 1.45427 -0.607355 0
M  V30 1292 C 117.702 2.2871 0.149752 0
M  V30 1293 C 118.715 1.39937 0.831958 0
M  V30 1294 O 119.904 1.64313 0.697385 0
M  V30 1295 C 117.004 3.15673 1.23304 0
M  V30 1296 C 116.177 4.32722 0.637996 0
M  V30 1297 C 115.236 5.00895 1.61215 0
M  V30 1298 O 114.262 5.57697 1.13854 0
M  V30 1299 N 115.464 5.00159 2.94655 0
M  V30 1300 H 118.229 2.94328 -0.564882 0
M  V30 1301 H 115.79 1.55612 -0.446823 0
M  V30 1302 H 117.782 3.58144 1.88454 0
M  V30 1303 H 116.352 2.51965 1.8502 0
M  V30 1304 H 115.572 3.93734 -0.191572 0
M  V30 1305 H 116.86 5.08321 0.220665 0
M  V30 1306 H 116.258 4.553 3.35735 0
M  V30 1307 H 114.815 5.46495 3.55228 0
M  V30 1308 N 118.248 0.346503 1.53744 0
M  V30 1309 C 119.659 -0.136779 1.86198 0
M  V30 1310 C 120.01 -1.49749 1.26766 0
M  V30 1311 O 119.135 -2.08417 0.582355 0
M  V30 1312 C 119.73 -0.254966 3.37839 0
M  V30 1313 C 118.289 -0.682482 3.70161 0
M  V30 1314 C 117.436 0.181981 2.76702 0
M  V30 1315 H 120.387 0.565994 1.48264 0
M  V30 1316 H 120.408 -1.08195 3.64793 0
M  V30 1317 H 119.92 0.735526 3.81066 0
M  V30 1318 H 118.021 -1.68189 3.3248 0
M  V30 1319 H 118.134 -0.470326 4.76786 0
M  V30 1320 H 116.498 -0.34615 2.52337 0
M  V30 1321 H 117.281 1.16966 3.2276 0
M  V30 1322 N 119.726 -1.57421 0.075193 0
M  V30 1323 C 120.689 -2.11791 -0.876203 0
M  V30 1324 C 121.689 -1.04268 -1.22412 0
M  V30 1325 O 122.879 -1.30242 -1.15684 0
M  V30 1326 C 120.011 -2.62207 -2.17854 0
M  V30 1327 H 121.204 -2.9716 -0.40444 0
M  V30 1328 H 118.757 -1.55333 -0.173557 0
M  V30 1329 H 119.492 -1.803 -2.6956 0
M  V30 1330 H 119.277 -3.40802 -1.93897 0
M  V30 1331 H 120.767 -3.04335 -2.85955 0
M  V30 1332 N 121.204 0.198386 -1.56346 0
M  V30 1333 C 122.45 0.920648 -1.80698 0
M  V30 1334 C 122.783 1.83045 -0.648697 0
M  V30 1335 O 122.058 1.91308 0.350925 0
M  V30 1336 C 122.341 1.73971 -3.15287 0
M  V30 1337 C 122.194 0.85485 -4.41602 0
M  V30 1338 C 123.513 2.71296 -3.46535 0
M  V30 1339 H 120.632 0.333261 -0.657348 0
M  V30 1340 H 123.274 0.188198 -1.89066 0
M  V30 1341 H 121.424 2.36416 -3.08285 0
M  V30 1342 H 123.096 0.245362 -4.60647 0
M  V30 1343 H 121.339 0.161398 -4.335 0
M  V30 1344 H 122.01 1.46286 -5.32264 0
M  V30 1345 H 124.486 2.18983 -3.53816 0
M  V30 1346 H 123.362 3.2569 -4.41834 0
M  V30 1347 H 123.623 3.5018 -2.69864 0
M  V30 1348 N 122.682 1.50554 0.465978 0
M  V30 1349 C 123.91 1.65563 1.24083 0
M  V30 1350 C 124.325 0.341051 1.85694 0
M  V30 1351 O 123.682 -0.677543 1.69457 0
M  V30 1352 C 123.733 2.75051 2.34583 0
M  V30 1353 O 123.454 4.01413 1.75497 0
M  V30 1354 C 124.955 3.01078 3.25372 0
M  V30 1355 H 122.175 0.55638 0.375077 0
M  V30 1356 H 124.719 1.96807 0.555624 0
M  V30 1357 H 122.874 2.46486 2.9887 0
M  V30 1358 H 123.288 4.62002 2.48303 0
M  V30 1359 H 124.762 3.81339 3.99105 0
M  V30 1360 H 125.239 2.12349 3.84453 0
M  V30 1361 H 125.845 3.31194 2.66816 0
M  V30 1362 N 124.16 -0.719506 1.40217 0
M  V30 1363 C 125.406 -1.48152 1.38488 0
M  V30 1364 C 125.739 -1.94195 -0.0141867 0
M  V30 1365 O 125.014 -1.67884 -0.982096 0
M  V30 1366 C 125.297 -2.71035 2.37091 0
M  V30 1367 C 125.15 -2.30912 3.86005 0
M  V30 1368 C 126.469 -3.73182 2.33288 0
M  V30 1369 H 123.588 -0.537395 0.504357 0
M  V30 1370 H 126.23 -0.821472 1.71324 0
M  V30 1371 H 124.38 -3.27352 2.0922 0
M  V30 1372 H 126.052 -1.80107 4.24687 0
M  V30 1373 H 124.295 -1.62958 4.02029 0
M  V30 1374 H 124.966 -3.18978 4.50508 0
M  V30 1375 H 127.442 -3.26485 2.57966 0
M  V30 1376 H 126.318 -4.56806 3.04334 0
M  V30 1377 H 126.579 -4.21202 1.34317 0
M  V30 1378 N 125.638 -1.25649 -0.95132 0
M  V30 1379 C 126.866 -1.13343 -1.73092 0
M  V30 1380 C 127.281 0.312434 -1.86197 0
M  V30 1381 O 126.638 1.21465 -1.36207 0
M  V30 1382 C 126.689 -1.78602 -3.14299 0
M  V30 1383 O 126.41 -3.17537 -3.01831 0
M  V30 1384 C 127.911 -1.72119 -4.08522 0
M  V30 1385 H 125.131 -0.395181 -0.542285 0
M  V30 1386 H 127.675 -1.66076 -1.19328 0
M  V30 1387 H 125.83 -1.29832 -3.64996 0
M  V30 1388 H 126.244 -3.49676 -3.90931 0
M  V30 1389 H 127.718 -2.22435 -5.052 0
M  V30 1390 H 128.195 -0.685635 -4.33815 0
M  V30 1391 H 128.801 -2.20393 -3.63741 0
M  V30 1392 N 127.117 1.15442 -1.07289 0
M  V30 1393 C 128.065 2.22225 -0.686952 0
M  V30 1394 C 129.059 1.66688 0.30193 0
M  V30 1395 O 130.265 1.79236 0.165712 0
M  V30 1396 H 126.64 0.723783 -0.204064 0
M  V30 1397 H 128.611 2.52056 -1.5972 0
M  V30 1398 C 127.36 3.47556 -0.100149 0
M  V30 1399 H 126.683 3.90612 -0.852211 0
M  V30 1400 H 128.123 4.23794 0.132235 0
M  V30 1401 C 126.582 3.16337 1.159 0
M  V30 1402 O 127.112 3.33074 2.24555 0
M  V30 1403 N 125.318 2.70385 1.06491 0
M  V30 1404 H 124.865 2.56966 0.180668 0
M  V30 1405 H 124.823 2.49871 1.90819 0
M  V30 1406 N 128.595 0.856903 1.32268 0
M  V30 1407 C 129.842 0.461386 1.97174 0
M  V30 1408 C 130.17 -0.983491 1.67803 0
M  V30 1409 O 129.425 -1.70541 0.959903 0
M  V30 1410 C 129.724 0.649919 3.51441 0
M  V30 1411 C 129.39 2.0656 4.00804 0
M  V30 1412 C 128.052 2.45279 4.13995 0
M  V30 1413 C 130.404 2.98947 4.26943 0
M  V30 1414 C 127.732 3.75653 4.50668 0
M  V30 1415 C 130.084 4.28822 4.65075 0
M  V30 1416 C 128.748 4.67472 4.76472 0
M  V30 1417 H 128.018 0.168833 0.72151 0
M  V30 1418 H 130.665 1.08739 1.57633 0
M  V30 1419 H 128.97 -0.0593018 3.91755 0
M  V30 1420 H 130.667 0.32391 3.9969 0
M  V30 1421 H 127.257 1.75495 3.91024 0
M  V30 1422 H 131.441 2.70265 4.16258 0
M  V30 1423 H 126.697 4.05379 4.57688 0
M  V30 1424 H 130.871 5.0047 4.84255 0
M  V30 1425 H 128.498 5.68539 5.04646 0
M  V30 1426 N 130.073 -1.45103 0.615059 0
M  V30 1427 C 131.319 -2.02483 0.113347 0
M  V30 1428 C 131.652 -1.48146 -1.25564 0
M  V30 1429 O 130.927 -0.659104 -1.82992 0
M  V30 1430 C 131.21 -3.60005 0.0825278 0
M  V30 1431 C 131.063 -4.2466 1.48271 0
M  V30 1432 C 132.382 -4.35972 -0.601401 0
M  V30 1433 H 129.501 -0.735764 0.0426632 0
M  V30 1434 H 132.143 -1.72868 0.788461 0
M  V30 1435 H 130.293 -3.85367 -0.492378 0
M  V30 1436 H 131.965 -4.10458 2.10527 0
M  V30 1437 H 130.208 -3.82772 2.04127 0
M  V30 1438 H 130.879 -5.336 1.41332 0
M  V30 1439 H 133.355 -4.15947 -0.112666 0
M  V30 1440 H 132.231 -5.45697 -0.592097 0
M  V30 1441 H 132.492 -4.09391 -1.66887 0
M  V30 1442 N 131.551 -0.354651 -1.53558 0
M  V30 1443 C 132.967 -0.00315426 -1.596 0
M  V30 1444 C 133.167 1.47741 -1.37021 0
M  V30 1445 O 132.223 2.23759 -1.16996 0
M  V30 1446 C 133.536 -0.44929 -2.97325 0
M  V30 1447 C 135.084 -0.402578 -3.104 0
M  V30 1448 C 135.559 -0.824355 -4.5052 0
M  V30 1449 N 137.05 -0.778979 -4.56603 0
M  V30 1450 C 137.785 -1.07715 -5.63192 0
M  V30 1451 N 137.281 -1.44405 -6.77583 0
M  V30 1452 N 139.074 -1.00066 -5.53121 0
M  V30 1453 H 131.225 -1.31893 -1.66487 0
M  V30 1454 H 133.488 -0.538388 -0.780284 0
M  V30 1455 H 133.194 -1.48202 -3.1895 0
M  V30 1456 H 133.068 0.169772 -3.76818 0
M  V30 1457 H 135.455 0.621004 -2.88492 0
M  V30 1458 H 135.536 -1.05699 -2.32941 0
M  V30 1459 H 135.18 -1.846 -4.73165 0
M  V30 1460 H 135.11 -0.147304 -5.26394 0
M  V30 1461 H 137.601 -0.508528 -3.74463 0
M  V30 1462 H 137.914 -1.65612 -7.54846 0
M  V30 1463 H 136.259 -1.4826 -6.79002 0
M  V30 1464 H 139.45 -0.713293 -4.62633 0
M  V30 1465 H 139.623 -1.23638 -6.36096 0
M  V30 1466 N 133.029 1.57378 -0.0835403 0
M  V30 1467 C 133.992 2.12252 0.864959 0
M  V30 1468 C 134.992 1.04916 1.21858 0
M  V30 1469 O 136.182 1.30853 1.14991 0
M  V30 1470 C 133.314 2.63358 2.16461 0
M  V30 1471 H 134.507 2.97371 0.388676 0
M  V30 1472 H 132.06 1.55423 0.165317 0
M  V30 1473 H 132.795 1.81727 2.686 0
M  V30 1474 H 132.58 3.41826 1.92087 0
M  V30 1475 H 134.07 3.05847 2.84337 0
M  V30 1476 N 134.507 -0.190092 1.56449 0
M  V30 1477 C 135.455 -1.25501 1.95837 0
M  V30 1478 C 136.449 -1.4685 0.844485 0
M  V30 1479 O 137.655 -1.47651 1.02952 0
M  V30 1480 H 134.03 -0.421447 0.622805 0
M  V30 1481 H 136.001 -0.895821 2.84636 0
M  V30 1482 C 134.75 -2.59124 2.31841 0
M  V30 1483 H 134.073 -2.43514 3.17082 0
M  V30 1484 H 135.513 -3.32371 2.6326 0
M  V30 1485 C 133.972 -3.16488 1.15486 0
M  V30 1486 O 134.502 -3.99365 0.432535 0
M  V30 1487 N 132.708 -2.75305 0.930349 0
M  V30 1488 H 132.255 -2.08013 1.51948 0
M  V30 1489 H 132.213 -3.14024 0.153634 0
M  V30 1490 N 135.985 -1.50799 -0.457987 0
M  V30 1491 C 137.396 -1.55152 -1.0385 0
M  V30 1492 C 137.747 -0.362719 -1.92818 0
M  V30 1493 O 136.872 0.522915 -2.09987 0
M  V30 1494 C 137.467 -2.81173 -1.89017 0
M  V30 1495 C 136.026 -2.88164 -2.42154 0
M  V30 1496 C 135.173 -2.49591 -1.20829 0
M  V30 1497 H 138.124 -1.56874 -0.240068 0
M  V30 1498 H 138.145 -2.63769 -2.74238 0
M  V30 1499 H 137.657 -3.67677 -1.24238 0
M  V30 1500 H 135.758 -2.06042 -3.10447 0
M  V30 1501 H 135.871 -3.91356 -2.76364 0
M  V30 1502 H 134.235 -2.02322 -1.54719 0
M  V30 1503 H 135.018 -3.38418 -0.576927 0
M  V30 1504 N 137.463 0.71206 -1.40597 0
M  V30 1505 C 138.691 1.50111 -1.42388 0
M  V30 1506 C 139.106 1.88784 -0.0245395 0
M  V30 1507 O 138.463 1.55681 0.952351 0
M  V30 1508 C 138.514 2.7742 -2.31776 0
M  V30 1509 O 138.235 2.40382 -3.66262 0
M  V30 1510 C 139.736 3.7129 -2.42196 0
M  V30 1511 H 136.956 0.46314 -0.485533 0
M  V30 1512 H 139.5 0.878068 -1.8469 0
M  V30 1513 H 137.655 3.36001 -1.92827 0
M  V30 1514 H 138.069 3.22324 -4.13772 0
M  V30 1515 H 139.543 4.57448 -3.08943 0
M  V30 1516 H 140.02 4.14641 -1.44809 0
M  V30 1517 H 140.626 3.18619 -2.81712 0
M  V30 1518 N 138.941 1.26152 0.944643 0
M  V30 1519 C 139.871 1.09902 2.06019 0
M  V30 1520 C 140.852 0.00519538 1.70099 0
M  V30 1521 O 142.037 0.176583 1.93396 0
M  V30 1522 C 139.167 0.727562 3.39594 0
M  V30 1523 C 138.121 1.77274 3.89561 0
M  V30 1524 C 137.447 1.25569 5.19747 0
M  V30 1525 C 138.747 3.17357 4.14827 0
M  V30 1526 H 140.441 2.03217 2.19871 0
M  V30 1527 H 137.987 0.978452 1.05652 0
M  V30 1528 H 139.94 0.600777 4.17095 0
M  V30 1529 H 138.664 -0.241287 3.25707 0
M  V30 1530 H 137.323 1.88814 3.14237 0
M  V30 1531 H 136.971 0.276783 5.02238 0
M  V30 1532 H 136.671 1.95433 5.54148 0
M  V30 1533 H 138.195 1.1415 5.99835 0
M  V30 1534 H 139.609 3.08914 4.82954 0
M  V30 1535 H 138.006 3.84781 4.60504 0
M  V30 1536 H 139.076 3.63673 3.20734 0
M  V30 1537 N 140.419 -1.14872 1.07899 0
M  V30 1538 C 141.83 -1.67367 0.827363 0
M  V30 1539 C 142.181 -1.85236 -0.646693 0
M  V30 1540 O 141.306 -1.55974 -1.50004 0
M  V30 1541 C 141.901 -3.04016 1.49532 0
M  V30 1542 C 140.46 -3.53566 1.29106 0
M  V30 1543 C 139.607 -2.29161 1.56143 0
M  V30 1544 H 142.558 -0.990083 1.24028 0
M  V30 1545 H 142.579 -3.69219 0.919643 0
M  V30 1546 H 142.091 -2.90978 2.56814 0
M  V30 1547 H 140.192 -3.71835 0.238713 0
M  V30 1548 H 140.305 -4.34661 2.01511 0
M  V30 1549 H 138.669 -2.34978 0.982717 0
M  V30 1550 H 139.452 -2.18705 2.64619 0
M  V30 1551 N 141.898 -0.863906 -1.31812 0
M  V30 1552 C 143.309 -0.52522 -1.7916 0
M  V30 1553 C 143.66 0.957518 -1.71248 0
M  V30 1554 O 142.785 1.74734 -1.27659 0
M  V30 1555 C 143.38 -0.9466 -3.25307 0
M  V30 1556 C 141.939 -0.659668 -3.70574 0
M  V30 1557 C 141.086 -1.14126 -2.52726 0
M  V30 1558 H 144.037 -1.05022 -1.1898 0
M  V30 1559 H 144.058 -0.266766 -3.79564 0
M  V30 1560 H 143.57 -2.02579 -3.31034 0
M  V30 1561 H 141.671 0.408416 -3.70355 0
M  V30 1562 H 141.784 -1.23245 -4.62977 0
M  V30 1563 H 140.148 -0.561216 -2.4844 0
M  V30 1564 H 140.931 -2.22775 -2.61201 0
M  V30 1565 N 143.376 1.44774 -0.622745 0
M  V30 1566 C 144.339 2.29069 0.0774015 0
M  V30 1567 C 145.339 1.4059 0.780461 0
M  V30 1568 O 146.529 1.62551 0.626322 0
M  V30 1569 C 143.661 3.21974 1.12006 0
M  V30 1570 H 144.854 2.92459 -0.663901 0
M  V30 1571 H 142.407 1.51548 -0.382486 0
M  V30 1572 H 143.142 2.63417 1.89162 0
M  V30 1573 H 142.927 3.87168 0.619951 0
M  V30 1574 H 144.417 3.85318 1.60995 0
M  V30 1575 N 144.854 0.36279 1.53368 0
M  V30 1576 C 146.27 0.0116182 1.59596 0
M  V30 1577 C 146.47 -1.47012 1.37803 0
M  V30 1578 O 145.526 -2.23136 1.18181 0
M  V30 1579 C 146.839 0.465052 2.97082 0
M  V30 1580 C 148.387 0.419033 3.10182 0
M  V30 1581 C 148.862 0.848235 4.50077 0
M  V30 1582 N 150.353 0.803183 4.56183 0
M  V30 1583 C 151.088 1.107 5.62613 0
M  V30 1584 N 150.584 1.47996 6.76808 0
M  V30 1585 N 152.377 1.02998 5.52583 0
M  V30 1586 H 144.528 1.32775 1.65785 0
M  V30 1587 H 146.791 0.542518 0.777417 0
M  V30 1588 H 146.497 1.49892 3.18159 0
M  V30 1589 H 146.371 -0.149786 3.76902 0
M  V30 1590 H 148.758 -0.605696 2.88817 0
M  V30 1591 H 148.839 1.06933 2.32377 0
M  V30 1592 H 148.483 1.87107 4.7218 0
M  V30 1593 H 148.413 0.175218 5.26308 0
M  V30 1594 H 150.904 0.52838 3.74188 0
M  V30 1595 H 151.217 1.69613 7.53957 0
M  V30 1596 H 149.562 1.51859 6.78206 0
M  V30 1597 H 152.753 0.737817 4.62249 0
M  V30 1598 H 152.926 1.2701 6.35431 0
M  V30 1599 N 146.332 -1.57332 0.0918853 0
M  V30 1600 C 147.56 -1.98574 -0.581048 0
M  V30 1601 C 147.975 -0.970903 -1.61923 0
M  V30 1602 O 147.332 0.0399054 -1.82456 0
M  V30 1603 C 147.383 -3.39872 -1.23164 0
M  V30 1604 O 147.104 -4.37469 -0.234989 0
M  V30 1605 C 148.605 -3.96099 -1.99049 0
M  V30 1606 H 145.825 -0.65261 -0.156018 0
M  V30 1607 H 148.369 -2.0379 0.170225 0
M  V30 1608 H 146.524 -3.35679 -1.93386 0
M  V30 1609 H 146.938 -5.19751 -0.70418 0
M  V30 1610 H 148.412 -4.97127 -2.39934 0
M  V30 1611 H 148.889 -3.3374 -2.85507 0
M  V30 1612 H 149.495 -4.03755 -1.3365 0
M  V30 1613 N 147.81 0.181792 -1.56548 0
M  V30 1614 C 148.74 1.22765 -1.98623 0
M  V30 1615 C 149.721 1.46747 -0.860189 0
M  V30 1616 O 150.906 1.58259 -1.12551 0
M  V30 1617 C 148.036 2.56894 -2.33715 0
M  V30 1618 C 146.99 2.475 -3.49182 0
M  V30 1619 C 146.316 3.86023 -3.69986 0
M  V30 1620 C 147.616 1.98866 -4.82959 0
M  V30 1621 H 149.31 0.877942 -2.86239 0
M  V30 1622 H 146.856 0.42088 -1.37712 0
M  V30 1623 H 148.809 3.30253 -2.61746 0
M  V30 1624 H 147.533 2.93632 -1.42997 0
M  V30 1625 H 146.192 1.76596 -3.21262 0
M  V30 1626 H 145.84 4.20136 -2.76576 0
M  V30 1627 H 145.54 3.80609 -4.47672 0
M  V30 1628 H 147.064 4.60984 -4.00407 0
M  V30 1629 H 148.478 2.61992 -5.09934 0
M  V30 1630 H 146.875 2.04424 -5.64208 0
M  V30 1631 H 147.945 0.942465 -4.75653 0
M  V30 1632 N 149.288 1.51039 0.449983 0
M  V30 1633 C 150.22 1.67617 1.56324 0
M  V30 1634 C 151.233 0.557083 1.52972 0
M  V30 1635 O 152.422 0.830989 1.57977 0
M  V30 1636 C 149.522 1.66402 2.95235 0
M  V30 1637 C 148.695 2.9469 3.23229 0
M  V30 1638 C 147.754 2.85832 4.41799 0
M  V30 1639 O 146.78 3.59785 4.41071 0
M  V30 1640 N 147.982 2.00821 5.44657 0
M  V30 1641 H 150.747 2.63648 1.42512 0
M  V30 1642 H 148.308 1.48767 0.638737 0
M  V30 1643 H 150.3 1.58062 3.72557 0
M  V30 1644 H 148.87 0.780182 3.02708 0
M  V30 1645 H 148.09 3.16996 2.34323 0
M  V30 1646 H 149.378 3.79636 3.38754 0
M  V30 1647 H 148.776 1.40091 5.48079 0
M  V30 1648 H 147.333 1.98368 6.20881 0
M  V30 1649 N 150.766 -0.704594 1.40972 0
M  V30 1650 C 151.991 -1.49858 1.43378 0
M  V30 1651 C 152.416 -1.88061 0.038184 0
M  V30 1652 O 151.774 -1.5402 -0.956425 0
M  V30 1653 C 151.822 -2.74333 2.34038 0
M  V30 1654 O 150.926 -3.7147 1.7912 0
M  V30 1655 H 150.267 -0.45139 0.486974 0
M  V30 1656 H 152.797 -0.866832 1.8533 0
M  V30 1657 H 152.807 -3.22741 2.49604 0
M  V30 1658 H 151.482 -2.45863 3.35446 0
M  V30 1659 H 150.059 -3.30363 1.72958 0
M  V30 1660 N 152.244 -1.26651 -0.937939 0
M  V30 1661 C 153.66 -1.03834 -1.21205 0
M  V30 1662 C 153.86 0.234502 -2.00131 0
M  V30 1663 O 152.916 0.942767 -2.3424 0
M  V30 1664 C 154.229 -2.27167 -1.97017 0
M  V30 1665 C 155.777 -2.32101 -2.09996 0
M  V30 1666 C 156.252 -3.55136 -2.8921 0
M  V30 1667 N 157.743 -3.55632 -2.96783 0
M  V30 1668 C 158.478 -4.475 -3.58512 0
M  V30 1669 N 157.974 -5.4966 -4.21717 0
M  V30 1670 N 159.767 -4.35145 -3.55816 0
M  V30 1671 H 151.918 -2.08398 -0.410391 0
M  V30 1672 H 154.181 -0.916031 -0.244114 0
M  V30 1673 H 153.887 -3.19765 -1.46434 0
M  V30 1674 H 153.761 -2.31672 -2.97671 0
M  V30 1675 H 156.148 -1.40015 -2.59769 0
M  V30 1676 H 156.229 -2.31605 -1.08594 0
M  V30 1677 H 155.873 -4.47553 -2.40123 0
M  V30 1678 H 155.803 -3.5288 -3.90875 0
M  V30 1679 H 158.294 -2.81743 -2.51852 0
M  V30 1680 H 158.607 -6.15943 -4.66727 0
M  V30 1681 H 156.952 -5.53514 -4.20294 0
M  V30 1682 H 160.143 -3.5455 -3.05634 0
M  V30 1683 H 160.316 -5.06934 -4.03636 0
M  V30 1684 N 153.722 1.14298 -1.08507 0
M  V30 1685 C 154.969 1.85359 -0.815373 0
M  V30 1686 C 155.297 1.83001 0.658865 0
M  V30 1687 O 154.552 1.25655 1.50031 0
M  V30 1688 C 154.851 3.33547 -1.28379 0
M  V30 1689 C 154.517 3.56093 -2.76602 0
M  V30 1690 C 153.179 3.61955 -3.17084 0
M  V30 1691 C 155.531 3.64834 -3.72217 0
M  V30 1692 C 152.859 3.74082 -4.51973 0
M  V30 1693 C 155.211 3.78487 -5.06883 0
M  V30 1694 C 153.875 3.82598 -5.46969 0
M  V30 1695 H 153.145 0.678276 -0.298366 0
M  V30 1696 H 155.792 1.35002 -1.35819 0
M  V30 1697 H 154.097 3.86191 -0.660593 0
M  V30 1698 H 155.794 3.86959 -1.05186 0
M  V30 1699 H 152.384 3.52179 -2.4427 0
M  V30 1700 H 156.568 3.59595 -3.42061 0
M  V30 1701 H 151.824 3.75527 -4.82483 0
M  V30 1702 H 155.998 3.84193 -5.80834 0
M  V30 1703 H 153.625 3.91747 -6.51489 0
M  V30 1704 N 155.201 0.870884 1.31352 0
M  V30 1705 C 156.447 0.482987 1.96965 0
M  V30 1706 C 156.78 -0.962462 1.68672 0
M  V30 1707 O 156.055 -1.6779 0.98371 0
M  V30 1708 C 156.338 0.741752 3.52378 0
M  V30 1709 C 156.191 2.2368 3.9024 0
M  V30 1710 C 157.51 0.208838 4.39604 0
M  V30 1711 H 154.629 0.176955 0.715441 0
M  V30 1712 H 157.271 1.09229 1.55464 0
M  V30 1713 H 155.421 0.223149 3.87859 0
M  V30 1714 H 157.093 2.82273 3.64856 0
M  V30 1715 H 155.336 2.70901 3.38814 0
M  V30 1716 H 156.007 2.3685 4.98604 0
M  V30 1717 H 158.483 0.652529 4.10952 0
M  V30 1718 H 157.359 0.419336 5.47296 0
M  V30 1719 H 157.62 -0.889275 4.33064 0
M  V30 1720 N 156.679 -1.44442 0.630414 0
M  V30 1721 C 157.627 -2.32437 -0.0871428 0
M  V30 1722 C 158.621 -1.47304 -0.836525 0
M  V30 1723 O 159.827 -1.63653 -0.749506 0
M  V30 1724 H 156.202 -0.750533 -0.0469495 0
M  V30 1725 H 158.173 -2.90709 0.673096 0
M  V30 1726 C 156.922 -3.31288 -1.05563 0
M  V30 1727 H 156.245 -3.96805 -0.488426 0
M  V30 1728 H 157.685 -3.9554 -1.52721 0
M  V30 1729 C 156.144 -2.6016 -2.14052 0
M  V30 1730 O 156.674 -2.39997 -3.22124 0
M  V30 1731 N 154.88 -2.19911 -1.89967 0
M  V30 1732 H 154.427 -2.36509 -1.02085 0
M  V30 1733 H 154.385 -1.72646 -2.62756 0
M  V30 1734 N 158.157 -0.370918 -1.53173 0
M  V30 1735 C 159.067 0.480823 -2.2962 0
M  V30 1736 C 160.083 1.08789 -1.35798 0
M  V30 1737 O 161.259 1.09768 -1.68858 0
M  V30 1738 C 158.324 1.60227 -3.07454 0
M  V30 1739 C 157.385 1.0222 -4.16953 0
M  V30 1740 C 156.618 2.0902 -4.91066 0
M  V30 1741 O 156.841 3.30222 -4.65091 0
M  V30 1742 O 155.775 1.71778 -5.76867 0
M  V30 1743 H 159.601 -0.141421 -3.03371 0
M  V30 1744 H 157.186 -0.135146 -1.48787 0
M  V30 1745 H 159.068 2.25417 -3.56041 0
M  V30 1746 H 157.743 2.20982 -2.36535 0
M  V30 1747 H 156.65 0.334064 -3.72605 0
M  V30 1748 H 157.983 0.459131 -4.90054 0
M  V30 1749 N 159.635 1.57281 -0.100228 0
M  V30 1750 C 160.565 2.17328 0.853857 0
M  V30 1751 C 161.546 1.10804 1.2906 0
M  V30 1752 O 162.731 1.38963 1.35657 0
M  V30 1753 C 159.861 2.75772 2.11109 0
M  V30 1754 C 158.815 3.87713 1.81279 0
M  V30 1755 C 158.141 4.32882 3.13874 0
M  V30 1756 C 159.441 5.10677 1.09574 0
M  V30 1757 H 161.135 2.97305 0.353545 0
M  V30 1758 H 158.681 1.43009 0.168612 0
M  V30 1759 H 160.634 3.16433 2.78296 0
M  V30 1760 H 159.358 1.93057 2.63432 0
M  V30 1761 H 158.017 3.476 1.16489 0
M  V30 1762 H 157.665 3.47051 3.64095 0
M  V30 1763 H 157.365 5.08358 2.94696 0
M  V30 1764 H 158.889 4.7618 3.82211 0
M  V30 1765 H 160.303 5.48474 1.66879 0
M  V30 1766 H 158.7 5.91615 1.00557 0
M  V30 1767 H 159.77 4.84835 0.0793299 0
M  V30 1768 N 161.113 -0.173488 1.56642 0
M  V30 1769 C 162.076 -1.19859 1.95362 0
M  V30 1770 C 163.076 -1.37296 0.83704 0
M  V30 1771 O 164.266 -1.34739 1.10413 0
M  V30 1772 C 161.398 -2.56405 2.24654 0
M  V30 1773 H 162.591 -0.867062 2.87092 0
M  V30 1774 H 160.144 -0.415853 1.50666 0
M  V30 1775 H 160.879 -2.94576 1.35631 0
M  V30 1776 H 160.664 -2.45115 3.06041 0
M  V30 1777 H 162.154 -3.30287 2.5554 0
M  V30 1778 N 162.591 -1.51276 -0.441967 0
M  V30 1779 C 164.007 -1.39349 -0.778083 0
M  V30 1780 C 164.207 -0.472212 -1.95889 0
M  V30 1781 O 163.263 0.0743551 -2.5239 0
M  V30 1782 C 164.576 -2.81292 -1.0628 0
M  V30 1783 C 166.124 -2.9041 -1.16751 0
M  V30 1784 C 166.599 -4.33251 -1.48519 0
M  V30 1785 N 168.09 -4.36336 -1.55453 0
M  V30 1786 C 168.825 -5.43885 -1.81596 0
M  V30 1787 N 168.321 -6.61601 -2.05562 0
M  V30 1788 N 170.114 -5.3136 -1.8334 0
M  V30 1789 H 162.265 -2.09729 0.335774 0
M  V30 1790 H 164.528 -0.943925 0.0878028 0
M  V30 1791 H 164.234 -3.50678 -0.267905 0
M  V30 1792 H 164.108 -3.20334 -1.99163 0
M  V30 1793 H 166.495 -2.21225 -1.95304 0
M  V30 1794 H 166.576 -2.54871 -0.217801 0
M  V30 1795 H 166.22 -5.02984 -0.704958 0
M  V30 1796 H 166.15 -4.66299 -2.44689 0
M  V30 1797 H 168.641 -3.51466 -1.38853 0
M  V30 1798 H 168.954 -7.39361 -2.24867 0
M  V30 1799 H 167.299 -6.64725 -2.02894 0
M  V30 1800 H 170.49 -4.38382 -1.64132 0
M  V30 1801 H 170.663 -6.15258 -2.03377 0
M  V30 1802 N 164.069 0.697108 -1.41344 0
M  V30 1803 C 165.485 1.00751 -1.2378 0
M  V30 1804 C 165.685 2.01105 -0.126066 0
M  V30 1805 O 164.741 2.47295 0.51004 0
M  V30 1806 C 166.054 1.53359 -2.58653 0
M  V30 1807 C 167.602 1.6525 -2.65822 0
M  V30 1808 C 168.077 2.2126 -4.01009 0
M  V30 1809 N 169.568 2.28622 -4.02847 0
M  V30 1810 C 170.303 2.72984 -5.04249 0
M  V30 1811 N 169.799 3.16962 -6.16041 0
M  V30 1812 N 171.592 2.72534 -4.91611 0
M  V30 1813 H 163.743 0.0322662 -2.12375 0
M  V30 1814 H 166.006 0.0768853 -0.944877 0
M  V30 1815 H 165.712 0.870773 -3.4075 0
M  V30 1816 H 165.586 2.51597 -2.81032 0
M  V30 1817 H 167.973 2.30644 -1.84086 0
M  V30 1818 H 168.054 0.655614 -2.47256 0
M  V30 1819 H 167.698 1.56482 -4.83193 0
M  V30 1820 H 167.628 3.21698 -4.16915 0
M  V30 1821 H 170.119 1.97585 -3.22131 0
M  V30 1822 H 170.432 3.49434 -6.89287 0
M  V30 1823 H 168.777 3.14875 -6.1958 0
M  V30 1824 H 171.968 2.37525 -4.0336 0
M  V30 1825 H 172.141 3.06789 -5.70775 0
M  V30 1826 N 165.547 1.27147 0.931209 0
M  V30 1827 C 166.457 1.11372 2.06478 0
M  V30 1828 C 167.473 0.044645 1.73943 0
M  V30 1829 O 168.649 0.250417 1.99837 0
M  V30 1830 C 165.714 0.758838 3.38294 0
M  V30 1831 C 164.775 1.90841 3.84549 0
M  V30 1832 C 164.008 1.57036 5.10074 0
M  V30 1833 O 164.231 0.476645 5.68405 0
M  V30 1834 O 163.165 2.40839 5.51616 0
M  V30 1835 H 166.991 2.06493 2.22698 0
M  V30 1836 H 164.576 1.06301 1.04978 0
M  V30 1837 H 166.458 0.574098 4.17471 0
M  V30 1838 H 165.133 -0.162879 3.2329 0
M  V30 1839 H 164.04 2.14819 3.06274 0
M  V30 1840 H 165.373 2.81021 4.04089 0
M  V30 1841 N 167.025 -1.13721 1.09112 0
M  V30 1842 C 168.302 -1.81155 0.737706 0
M  V30 1843 C 168.682 -1.96253 -0.777683 0
M  V30 1844 O 168.03 -1.52807 -1.69889 0
M  V30 1845 C 168.24 -3.16392 1.47299 0
M  V30 1846 C 169.588 -3.91787 1.63671 0
M  V30 1847 O 170.612 -3.26005 1.43524 0
M  V30 1848 O 169.471 -5.0977 1.96969 0
M  V30 1849 H 166.565 -0.783518 0.26463 0
M  V30 1850 H 169.111 -1.20676 1.19312 0
M  V30 1851 H 167.883 -3.0061 2.50498 0
M  V30 1852 H 167.506 -3.8457 1.00953 0
M  V30 1853 N 168.503 -0.877838 -1.30888 0
M  V30 1854 C 169.749 -0.502773 -1.97088 0
M  V30 1855 C 170.104 0.936274 -1.68082 0
M  V30 1856 O 169.397 1.65162 -0.971196 0
M  V30 1857 C 169.591 -0.705748 -3.50363 0
M  V30 1858 C 169.42 -2.16297 -3.94266 0
M  V30 1859 C 168.19 -2.80614 -4.20219 0
M  V30 1860 C 170.388 -3.13606 -4.07622 0
M  V30 1861 N 168.37 -4.17007 -4.50532 0
M  V30 1862 C 169.741 -4.35051 -4.41736 0
M  V30 1863 C 171.796 -3.09491 -3.90026 0
M  V30 1864 C 170.499 -5.52911 -4.60089 0
M  V30 1865 C 172.525 -4.26616 -4.09576 0
M  V30 1866 C 171.887 -5.46825 -4.44029 0
M  V30 1867 H 167.986 -0.233168 -0.746429 0
M  V30 1868 H 170.57 -1.13408 -1.58261 0
M  V30 1869 H 168.741 -0.103976 -3.88261 0
M  V30 1870 H 170.473 -0.298291 -4.03599 0
M  V30 1871 H 167.228 -2.3152 -4.13153 0
M  V30 1872 H 167.652 -4.87426 -4.69834 0
M  V30 1873 H 172.294 -2.17657 -3.62471 0
M  V30 1874 H 170.012 -6.45255 -4.86489 0
M  V30 1875 H 173.598 -4.24894 -3.97438 0
M  V30 1876 H 172.478 -6.35947 -4.58848 0
M  V30 1877 N 169.982 1.44106 -0.638065 0
M  V30 1878 C 171.398 1.56672 -0.304286 0
M  V30 1879 C 171.598 1.6244 1.19228 0
M  V30 1880 O 170.654 1.57121 1.9766 0
M  V30 1881 C 171.967 2.83503 -1.00231 0
M  V30 1882 C 173.515 2.97226 -0.981116 0
M  V30 1883 C 173.99 4.26868 -1.65974 0
M  V30 1884 N 175.481 4.33698 -1.62666 0
M  V30 1885 C 176.216 5.32745 -2.12063 0
M  V30 1886 N 175.712 6.38157 -2.6968 0
M  V30 1887 N 177.505 5.24299 -2.02651 0
M  V30 1888 H 169.656 1.38605 -1.60942 0
M  V30 1889 H 171.919 0.664661 -0.675965 0
M  V30 1890 H 171.625 2.85251 -2.0573 0
M  V30 1891 H 171.499 3.73251 -0.54439 0
M  V30 1892 H 173.886 2.95027 0.0654188 0
M  V30 1893 H 173.967 2.08808 -1.47759 0
M  V30 1894 H 173.611 4.29826 -2.70576 0
M  V30 1895 H 173.541 5.14156 -1.13804 0
M  V30 1896 H 176.032 3.58138 -1.20606 0
M  V30 1897 H 176.345 7.10029 -3.05087 0
M  V30 1898 H 174.69 6.38823 -2.73734 0
M  V30 1899 H 177.881 4.4086 -1.57353 0
M  V30 1900 H 178.054 6.01334 -2.41457 0
M  V30 1901 N 171.46 0.379036 1.52974 0
M  V30 1902 C 172.708 -0.206014 2.01047 0
M  V30 1903 C 173.029 -1.48175 1.26765 0
M  V30 1904 O 172.299 -1.92085 0.384743 0
M  V30 1905 H 170.879 -0.0791184 0.742798 0
M  V30 1906 H 173.541 0.508366 1.88153 0
M  V30 1907 H 172.637 -0.423501 3.09213 0
M  V30 1908 N 172.938 -1.57226 0.108567 0
M  V30 1909 C 173.868 -2.17778 -0.84232 0
M  V30 1910 C 174.849 -1.11487 -1.2847 0
M  V30 1911 O 176.034 -1.39681 -1.34918 0
M  V30 1912 C 173.164 -2.76888 -2.09644 0
M  V30 1913 C 172.118 -3.88669 -1.79221 0
M  V30 1914 C 171.444 -4.34541 -3.11574 0
M  V30 1915 C 172.744 -5.11251 -1.06864 0
M  V30 1916 H 174.438 -2.97489 -0.337774 0
M  V30 1917 H 171.984 -1.43097 -0.161025 0
M  V30 1918 H 173.937 -3.17904 -2.76614 0
M  V30 1919 H 172.661 -1.94451 -2.62405 0
M  V30 1920 H 171.32 -3.48213 -1.14644 0
M  V30 1921 H 170.968 -3.48977 -3.62249 0
M  V30 1922 H 170.668 -5.09914 -2.91996 0
M  V30 1923 H 172.192 -4.782 -3.7968 0
M  V30 1924 H 173.606 -5.49352 -1.63968 0
M  V30 1925 H 172.003 -5.9214 -0.974178 0
M  V30 1926 H 173.073 -4.8487 -0.0536168 0
M  V30 1927 N 174.416 0.165178 -1.56732 0
M  V30 1928 C 175.346 1.20651 -1.99914 0
M  V30 1929 C 176.327 1.45827 -0.875705 0
M  V30 1930 O 177.512 1.57057 -1.14223 0
M  V30 1931 C 174.642 2.54401 -2.36427 0
M  V30 1932 C 173.596 2.43782 -3.51787 0
M  V30 1933 C 172.922 3.82078 -3.7406 0
M  V30 1934 C 174.222 1.93732 -4.85041 0
M  V30 1935 H 175.916 0.847534 -2.87154 0
M  V30 1936 H 173.462 0.40625 -1.38151 0
M  V30 1937 H 175.415 3.27458 -2.65234 0
M  V30 1938 H 174.139 2.92098 -1.46103 0
M  V30 1939 H 172.798 1.73178 -3.23117 0
M  V30 1940 H 172.446 4.17179 -2.81017 0
M  V30 1941 H 172.146 3.7584 -4.51684 0
M  V30 1942 H 173.67 4.56712 -4.05274 0
M  V30 1943 H 175.084 2.56569 -5.12684 0
M  V30 1944 H 173.481 1.98428 -5.66345 0
M  V30 1945 H 174.551 0.891962 -4.76626 0
M  V30 1946 N 175.894 1.51508 0.433938 0
M  V30 1947 C 176.857 1.72473 1.50949 0
M  V30 1948 C 177.857 0.594725 1.49398 0
M  V30 1949 O 179.047 0.862315 1.5136 0
M  V30 1950 C 176.179 1.78431 2.90474 0
M  V30 1951 H 177.372 2.68467 1.33662 0
M  V30 1952 H 174.925 1.41549 0.662836 0
M  V30 1953 H 175.66 0.842645 3.13161 0
M  V30 1954 H 175.445 2.60558 2.93005 0
M  V30 1955 H 176.935 1.96479 3.68491 0
M  V30 1956 N 177.372 -0.689602 1.41712 0
M  V30 1957 C 178.619 -1.44966 1.4139 0
M  V30 1958 C 178.947 -1.94484 0.025105 0
M  V30 1959 O 178.202 -1.70307 -0.964048 0
M  V30 1960 C 178.501 -2.67298 2.37247 0
M  V30 1961 C 178.167 -2.36405 3.83958 0
M  V30 1962 C 176.829 -2.27691 4.23923 0
M  V30 1963 C 179.181 -2.11043 4.76561 0
M  V30 1964 C 176.509 -1.91719 5.54492 0
M  V30 1965 C 178.861 -1.76578 6.07456 0
M  V30 1966 C 177.525 -1.66363 6.46436 0
M  V30 1967 H 176.795 -0.53047 0.517381 0
M  V30 1968 H 179.442 -0.787655 1.74552 0
M  V30 1969 H 177.747 -3.38461 1.9736 0
M  V30 1970 H 179.444 -3.25452 2.34269 0
M  V30 1971 H 176.034 -2.44085 3.52308 0
M  V30 1972 H 180.218 -2.16717 4.46483 0
M  V30 1973 H 175.474 -1.82367 5.83568 0
M  V30 1974 H 179.648 -1.55974 6.78708 0
M  V30 1975 H 177.275 -1.38258 7.47522 0
M  V30 1976 N 178.85 -1.27639 -0.924453 0
M  V30 1977 C 180.075 -1.17101 -1.71179 0
M  V30 1978 C 180.5 0.268134 -1.86179 0
M  V30 1979 O 179.858 1.19415 -1.36418 0
M  V30 1980 C 179.906 -1.86313 -3.08739 0
M  V30 1981 O 179.01 -1.16331 -3.95652 0
M  V30 1982 H 178.351 -0.407091 -0.524569 0
M  V30 1983 H 180.881 -1.68767 -1.15666 0
M  V30 1984 H 180.891 -1.938 -3.59034 0
M  V30 1985 H 179.566 -2.91001 -2.97138 0
M  V30 1986 H 178.143 -1.16935 -3.54091 0
M  V30 1987 N 180.328 1.1314 -1.09713 0
M  V30 1988 C 181.739 1.66029 -0.853885 0
M  V30 1989 C 182.09 1.86241 0.617142 0
M  V30 1990 O 181.215 1.5834 1.47503 0
M  V30 1991 C 181.81 3.01599 -1.5435 0
M  V30 1992 C 180.369 3.51467 -1.34714 0
M  V30 1993 C 179.516 2.26648 -1.59769 0
M  V30 1994 H 182.467 0.970226 -1.25588 0
M  V30 1995 H 182.488 3.67709 -0.978267 0
M  V30 1996 H 182 2.86856 -2.6141 0
M  V30 1997 H 180.101 3.71408 -0.297838 0
M  V30 1998 H 180.214 4.314 -2.08401 0
M  V30 1999 H 178.578 2.33385 -1.01998 0
M  V30 2000 H 179.361 2.14467 -2.68065 0
M  V30 2001 N 181.806 0.884767 1.30421 0
M  V30 2002 C 182.716 0.355398 2.31892 0
M  V30 2003 C 183.732 -0.542261 1.65335 0
M  V30 2004 O 184.908 -0.435432 1.96637 0
M  V30 2005 C 181.973 -0.421661 3.44126 0
M  V30 2006 C 181.034 0.505727 4.26311 0
M  V30 2007 C 180.267 -0.234343 5.33185 0
M  V30 2008 O 180.49 -1.46045 5.51386 0
M  V30 2009 O 179.424 0.415443 6.00465 0
M  V30 2010 H 183.25 1.19685 2.79122 0
M  V30 2011 H 180.835 0.648596 1.34587 0
M  V30 2012 H 182.717 -0.861641 4.12497 0
M  V30 2013 H 181.392 -1.23942 2.99032 0
M  V30 2014 H 180.299 0.994513 3.60639 0
M  V30 2015 H 181.632 1.28948 4.75009 0
M  V30 2016 N 183.284 -1.43765 0.645699 0
M  V30 2017 C 184.231 -2.30745 -0.0504648 0
M  V30 2018 C 185.201 -1.4432 -0.822241 0
M  V30 2019 O 186.386 -1.73202 -0.800358 0
M  V30 2020 C 183.526 -3.29802 -1.0161 0
M  V30 2021 C 182.639 -4.31326 -0.241219 0
M  V30 2022 C 181.774 -5.17469 -1.19998 0
M  V30 2023 C 180.813 -6.10691 -0.415094 0
M  V30 2024 N 179.95 -6.89483 -1.32506 0
M  V30 2025 H 184.79 -2.8973 0.697155 0
M  V30 2026 H 182.327 -1.42738 0.355563 0
M  V30 2027 H 184.285 -3.85734 -1.58949 0
M  V30 2028 H 182.915 -2.72483 -1.73069 0
M  V30 2029 H 181.967 -3.77749 0.448334 0
M  V30 2030 H 183.279 -4.9743 0.369437 0
M  V30 2031 H 182.433 -5.7799 -1.84424 0
M  V30 2032 H 181.172 -4.51473 -1.84455 0
M  V30 2033 H 180.177 -5.49265 0.242565 0
M  V30 2034 H 181.402 -6.78727 0.224966 0
M  V30 2035 H 179.348 -6.26142 -1.95657 0
M  V30 2036 H 179.265 -7.52081 -0.768783 0
M  V30 2037 H 180.533 -7.54516 -1.9577 0
M  V30 2038 N 184.763 -0.387143 -1.52771 0
M  V30 2039 C 186.174 0.0873634 -1.86495 0
M  V30 2040 C 186.525 1.46336 -1.30691 0
M  V30 2041 O 185.65 2.068 -0.637409 0
M  V30 2042 C 186.245 0.165305 -3.38396 0
M  V30 2043 C 184.804 0.584101 -3.7184 0
M  V30 2044 C 183.951 -0.255279 -2.76122 0
M  V30 2045 H 186.902 -0.605104 -1.46711 0
M  V30 2046 H 186.923 0.984848 -3.67534 0
M  V30 2047 H 186.435 -0.836301 -3.78982 0
M  V30 2048 H 184.536 1.59315 -3.36823 0
M  V30 2049 H 184.649 0.343749 -4.77865 0
M  V30 2050 H 183.013 0.279126 -2.53166 0
M  V30 2051 H 183.796 -1.25482 -3.19545 0
M  V30 2052 N 186.241 1.57166 -0.116904 0
M  V30 2053 C 187.489 1.94737 0.540533 0
M  V30 2054 C 187.81 1.00096 1.67349 0
M  V30 2055 O 187.08 0.0568854 1.95817 0
M  V30 2056 H 185.66 0.718981 0.202669 0
M  V30 2057 H 188.322 1.94017 -0.185353 0
M  V30 2058 H 187.418 2.97719 0.936483 0
M  V30 2059 N 187.719 -0.156864 1.56817 0
M  V30 2060 C 188.947 -0.886316 1.86955 0
M  V30 2061 C 189.362 -1.75185 0.703975 0
M  V30 2062 O 188.719 -1.79555 -0.326552 0
M  V30 2063 C 188.77 -1.75117 3.16253 0
M  V30 2064 O 188.491 -0.920537 4.2832 0
M  V30 2065 C 189.992 -2.58905 3.59837 0
M  V30 2066 H 187.212 -0.25678 0.619923 0
M  V30 2067 H 189.756 -0.152615 2.0393 0
M  V30 2068 H 187.911 -2.43805 3.01062 0
M  V30 2069 H 188.325 -1.51337 5.02192 0
M  V30 2070 H 189.799 -3.1518 4.53172 0
M  V30 2071 H 190.276 -3.34472 2.84649 0
M  V30 2072 H 190.882 -1.95526 3.7769 0
M  V30 2073 N 189.197 -1.51736 -0.425897 0
M  V30 2074 C 190.425 -1.68794 -1.1965 0
M  V30 2075 C 190.84 -0.390164 -1.84725 0
M  V30 2076 O 190.197 0.632376 -1.71194 0
M  V30 2077 C 190.248 -2.81174 -2.27208 0
M  V30 2078 O 189.969 -4.05925 -1.64793 0
M  V30 2079 C 191.47 -3.09599 -3.17275 0
M  V30 2080 H 188.69 -0.566128 -0.360194 0
M  V30 2081 H 191.234 -1.98211 -0.503249 0
M  V30 2082 H 189.389 -2.54324 -2.9223 0
M  V30 2083 H 189.803 -4.68423 -2.35967 0
M  V30 2084 H 191.277 -3.91786 -3.88854 0
M  V30 2085 H 191.754 -2.22468 -3.78688 0
M  V30 2086 H 192.36 -3.38151 -2.57941 0
M  V30 2087 N 190.675 0.682077 -1.42076 0
M  V30 2088 C 191.585 1.82535 -1.47371 0
M  V30 2089 C 192.601 1.7017 -0.363079 0
M  V30 2090 O 193.777 1.91848 -0.612875 0
M  V30 2091 C 190.842 3.18624 -1.36674 0
M  V30 2092 C 189.903 3.42999 -2.58167 0
M  V30 2093 C 189.136 4.72595 -2.4797 0
M  V30 2094 O 189.359 5.50006 -1.5116 0
M  V30 2095 O 188.293 4.98054 -3.37974 0
M  V30 2096 H 192.119 1.81023 -2.43853 0
M  V30 2097 H 189.704 0.836887 -1.2376 0
M  V30 2098 H 191.586 3.99847 -1.33043 0
M  V30 2099 H 190.261 3.20789 -0.433138 0
M  V30 2100 H 189.168 2.61653 -2.67373 0
M  V30 2101 H 190.501 3.45659 -3.50401 0
M  V30 2102 N 192.153 1.28127 0.917671 0
M  V30 2103 C 193.116 1.11744 2.00115 0
M  V30 2104 C 194.116 0.0583052 1.60694 0
M  V30 2105 O 195.306 0.303755 1.71531 0
M  V30 2106 C 192.438 0.704862 3.33533 0
M  V30 2107 H 193.631 2.07966 2.16079 0
M  V30 2108 H 191.184 1.11058 1.09981 0
M  V30 2109 H 191.919 -0.258299 3.2327 0
M  V30 2110 H 191.704 1.4699 3.63505 0
M  V30 2111 H 193.194 0.612768 4.1308 0
M  V30 2112 N 193.631 -1.12557 1.10312 0
M  V30 2113 C 194.563 -2.17971 0.708625 0
M  V30 2114 C 195.576 -1.60806 -0.254027 0
M  V30 2115 O 196.765 -1.78458 -0.0386891 0
M  V30 2116 C 193.865 -3.38891 0.0248198 0
M  V30 2117 C 193.038 -4.25548 1.01132 0
M  V30 2118 C 192.097 -5.24972 0.35924 0
M  V30 2119 O 191.123 -5.60174 1.00965 0
M  V30 2120 N 192.325 -5.73747 -0.882847 0
M  V30 2121 H 195.09 -2.52427 1.61557 0
M  V30 2122 H 192.651 -1.27967 0.991771 0
M  V30 2123 H 194.643 -4.02485 -0.422852 0
M  V30 2124 H 193.213 -3.02596 -0.784514 0
M  V30 2125 H 192.433 -3.58589 1.6373 0
M  V30 2126 H 193.721 -4.80294 1.67914 0
M  V30 2127 H 193.119 -5.4731 -1.43065 0
M  V30 2128 H 191.676 -6.39234 -1.27369 0
M  V30 2129 N 195.109 -0.891671 -1.2995 0
M  V30 2130 C 196.349 -0.520296 -1.97667 0
M  V30 2131 C 196.713 0.914797 -1.68806 0
M  V30 2132 O 197.914 1.39263 -2.29911 0
M  V30 2133 C 196.185 -0.795222 -3.48441 0
M  V30 2134 S 197.744 -0.526953 -4.35624 0
M  V30 2135 H 194.562 -0.19333 -0.684211 0
M  V30 2136 H 197.164 -1.15238 -1.57926 0
M  V30 2137 H 195.868 -1.83805 -3.66938 0
M  V30 2138 H 195.399 -0.15095 -3.9311 0
M  V30 2139 H 197.414 0.631533 -4.92165 0
M  V30 2140 N 196.587 1.43421 -0.653314 0
M  V30 2141 C 197.535 2.32546 0.0501531 0
M  V30 2142 C 198.529 1.48617 0.812985 0
M  V30 2143 O 199.735 1.64825 0.723375 0
M  V30 2144 H 196.11 0.751185 0.0350032 0
M  V30 2145 H 198.081 2.89602 -0.719261 0
M  V30 2146 C 196.83 3.32925 1.00279 0
M  V30 2147 H 196.153 3.97532 0.425236 0
M  V30 2148 H 197.593 3.9792 1.46409 0
M  V30 2149 C 196.052 2.63532 2.09886 0
M  V30 2150 O 196.582 2.45092 3.18265 0
M  V30 2151 N 194.788 2.22905 1.86445 0
M  V30 2152 H 194.335 2.38103 0.98309 0
M  V30 2153 H 194.293 1.76805 2.59976 0
M  V30 2154 N 198.065 0.39524 1.52563 0
M  V30 2155 C 199.295 -0.184675 2.05773 0
M  V30 2156 C 199.703 -1.40571 1.26635 0
M  V30 2157 O 199.046 -1.81105 0.30769 0
M  V30 2158 C 199.108 -0.613551 3.54226 0
M  V30 2159 C 198.772 0.49484 4.54313 0
M  V30 2160 C 199.769 1.3541 5.01956 0
M  V30 2161 C 197.454 0.663565 4.97898 0
M  V30 2162 C 199.448 2.36716 5.91814 0
M  V30 2163 C 197.135 1.67996 5.87555 0
M  V30 2164 C 198.133 2.53017 6.34406 0
M  V30 2165 O 197.821 3.52917 7.22291 0
M  V30 2166 H 197.553 -0.030077 0.675331 0
M  V30 2167 H 200.107 0.560708 1.97599 0
M  V30 2168 H 198.337 -1.411 3.60038 0
M  V30 2169 H 200.026 -1.11981 3.90148 0
M  V30 2170 H 200.792 1.23509 4.6901 0
M  V30 2171 H 196.671 0.0114913 4.60999 0
M  V30 2172 H 200.215 3.03113 6.28306 0
M  V30 2173 H 196.112 1.79933 6.19915 0
M  V30 2174 H 196.88 3.48996 7.40367 0
M  V30 2175 N 199.544 -1.57102 0.125237 0
M  V30 2176 C 200.774 -1.99472 -0.538015 0
M  V30 2177 C 201.182 -1.00395 -1.60366 0
M  V30 2178 O 200.525 0.0103875 -1.83697 0
M  V30 2179 C 200.587 -3.38262 -1.21734 0
M  V30 2180 C 200.251 -4.56021 -0.298897 0
M  V30 2181 C 201.248 -5.17817 0.464943 0
M  V30 2182 C 198.933 -5.01869 -0.208149 0
M  V30 2183 C 200.927 -6.23852 1.3072 0
M  V30 2184 C 198.614 -6.07763 0.637736 0
M  V30 2185 C 199.612 -6.68622 1.39403 0
M  V30 2186 O 199.3 -7.7247 2.22586 0
M  V30 2187 H 199.032 -0.659934 -0.146501 0
M  V30 2188 H 201.586 -2.04321 0.210267 0
M  V30 2189 H 199.816 -3.30185 -2.01282 0
M  V30 2190 H 201.505 -3.6488 -1.77813 0
M  V30 2191 H 202.271 -4.83308 0.404741 0
M  V30 2192 H 198.15 -4.54241 -0.786522 0
M  V30 2193 H 201.694 -6.71284 1.898 0
M  V30 2194 H 197.591 -6.41701 0.699309 0
M  V30 2195 H 198.359 -7.89595 2.15596 0
M  V30 2196 N 201.022 0.148545 -1.56898 0
M  V30 2197 C 202.252 0.875118 -1.8715 0
M  V30 2198 C 202.66 1.75322 -0.711262 0
M  V30 2199 O 202.003 1.80745 0.328151 0
M  V30 2200 C 202.065 1.7844 -3.12089 0
M  V30 2201 C 201.729 1.08361 -4.43967 0
M  V30 2202 C 202.726 0.438247 -5.1805 0
M  V30 2203 C 200.411 1.07358 -4.90693 0
M  V30 2204 C 202.405 -0.20779 -6.37061 0
M  V30 2205 C 200.092 0.42373 -6.09629 0
M  V30 2206 C 201.09 -0.215829 -6.82659 0
M  V30 2207 O 200.778 -0.855378 -7.99336 0
M  V30 2208 H 200.51 0.258504 -0.624621 0
M  V30 2209 H 203.064 0.14652 -2.04877 0
M  V30 2210 H 201.294 2.55389 -2.90367 0
M  V30 2211 H 202.983 2.38279 -3.286 0
M  V30 2212 H 203.749 0.437817 -4.8302 0
M  V30 2213 H 199.628 1.5608 -4.33774 0
M  V30 2214 H 203.172 -0.70758 -6.94002 0
M  V30 2215 H 199.069 0.421822 -6.4412 0
M  V30 2216 H 199.837 -0.756892 -8.14993 0
M  V30 2217 N 202.5 1.5196 0.417844 0
M  V30 2218 C 203.463 1.74065 1.49111 0
M  V30 2219 C 204.463 0.610537 1.48758 0
M  V30 2220 O 205.653 0.87832 1.50437 0
M  V30 2221 C 202.785 1.81502 2.88565 0
M  V30 2222 H 203.978 2.69869 1.30807 0
M  V30 2223 H 201.531 1.42244 0.647785 0
M  V30 2224 H 202.266 0.875813 3.1225 0
M  V30 2225 H 202.051 2.63651 2.90225 0
M  V30 2226 H 203.541 2.00376 3.66387 0
M  V30 2227 N 203.978 -0.674533 1.42435 0
M  V30 2228 C 204.925 -1.78807 1.45934 0
M  V30 2229 C 205.895 -1.63157 0.311271 0
M  V30 2230 O 207.08 -1.83707 0.515383 0
M  V30 2231 C 204.22 -3.16839 1.36773 0
M  V30 2232 C 203.333 -3.43774 2.61617 0
M  V30 2233 C 202.468 -4.71536 2.44597 0
M  V30 2234 C 201.507 -4.91505 3.64814 0
M  V30 2235 N 200.644 -6.10508 3.46734 0
M  V30 2236 H 205.484 -1.75151 2.41093 0
M  V30 2237 H 203.021 -0.85504 1.19697 0
M  V30 2238 H 204.979 -3.96606 1.29459 0
M  V30 2239 H 203.609 -3.19619 0.452089 0
M  V30 2240 H 202.661 -2.58259 2.79297 0
M  V30 2241 H 203.973 -3.54423 3.50978 0
M  V30 2242 H 203.127 -5.59393 2.3487 0
M  V30 2243 H 201.866 -4.6317 1.52726 0
M  V30 2244 H 200.871 -4.0209 3.74972 0
M  V30 2245 H 202.096 -5.01716 4.57665 0
M  V30 2246 H 200.042 -6.03315 2.5758 0
M  V30 2247 H 199.959 -6.2202 4.29682 0
M  V30 2248 H 201.227 -7.01044 3.40819 0
M  V30 2249 N 205.456 -1.28612 -0.910864 0
M  V30 2250 C 206.702 -1.17116 -1.66299 0
M  V30 2251 C 207.057 0.276917 -1.90397 0
M  V30 2252 O 206.35 1.19795 -1.49532 0
M  V30 2253 C 206.544 -1.90624 -3.0232 0
M  V30 2254 C 206.373 -3.42431 -2.91498 0
M  V30 2255 C 205.143 -4.11773 -2.92867 0
M  V30 2256 C 207.341 -4.38124 -2.69355 0
M  V30 2257 N 205.323 -5.50025 -2.72664 0
M  V30 2258 C 206.694 -5.63759 -2.58023 0
M  V30 2259 C 208.749 -4.28016 -2.54375 0
M  V30 2260 C 207.452 -6.80436 -2.33238 0
M  V30 2261 C 209.478 -5.44433 -2.30969 0
M  V30 2262 C 208.84 -6.69034 -2.20394 0
M  V30 2263 H 204.939 -0.483506 -0.61461 0
M  V30 2264 H 207.523 -1.62299 -1.0755 0
M  V30 2265 H 205.694 -1.4787 -3.5915 0
M  V30 2266 H 207.426 -1.71488 -3.66571 0
M  V30 2267 H 204.181 -3.63378 -3.03732 0
M  V30 2268 H 204.605 -6.22705 -2.65646 0
M  V30 2269 H 209.247 -3.32388 -2.613 0
M  V30 2270 H 206.965 -7.7613 -2.25051 0
M  V30 2271 H 210.551 -5.38504 -2.20238 0
M  V30 2272 H 209.431 -7.57595 -2.02531 0
M  V30 2273 N 206.934 1.1197 -1.10907 0
M  V30 2274 C 207.882 2.19927 -0.757303 0
M  V30 2275 C 208.876 1.67564 0.248747 0
M  V30 2276 O 210.082 1.79672 0.108605 0
M  V30 2277 H 206.457 0.716925 -0.226987 0
M  V30 2278 H 208.428 2.46847 -1.67658 0
M  V30 2279 C 207.177 3.47061 -0.210671 0
M  V30 2280 H 206.5 3.87703 -0.976049 0
M  V30 2281 H 207.94 4.24 -0.0026584 0
M  V30 2282 C 206.399 3.19864 1.05777 0
M  V30 2283 O 206.929 3.40049 2.13845 0
M  V30 2284 N 205.135 2.73636 0.978349 0
M  V30 2285 H 204.682 2.5741 0.0988246 0
M  V30 2286 H 204.64 2.55815 1.82773 0
M  V30 2287 N 208.412 0.89855 1.29475 0
M  V30 2288 C 209.64 0.539261 1.99749 0
M  V30 2289 C 210.055 -0.875716 1.67262 0
M  V30 2290 O 209.412 -1.57786 0.917049 0
M  V30 2291 C 209.463 0.72061 3.54245 0
M  V30 2292 O 209.184 2.07989 3.8558 0
M  V30 2293 C 210.685 0.366118 4.41786 0
M  V30 2294 H 207.905 0.207047 0.638258 0
M  V30 2295 H 210.449 1.20758 1.65039 0
M  V30 2296 H 208.604 0.0994862 3.87272 0
M  V30 2297 H 209.018 2.10841 4.80257 0
M  V30 2298 H 210.492 0.543848 5.49314 0
M  V30 2299 H 210.969 -0.696763 4.33638 0
M  V30 2300 H 211.575 0.964135 4.14228 0
M  V30 2301 N 209.89 -1.43072 0.660911 0
M  V30 2302 C 211.138 -2.01323 0.177094 0
M  V30 2303 C 211.459 -1.5245 -1.2159 0
M  V30 2304 O 210.729 -0.740322 -1.81373 0
M  V30 2305 H 209.309 -0.744382 0.0624804 0
M  V30 2306 H 211.971 -1.75179 0.854305 0
M  V30 2307 H 211.067 -3.11649 0.167641 0
M  V30 2308 N 211.368 -0.403325 -1.52352 0
M  V30 2309 C 212.3 0.4603 -2.2453 0
M  V30 2310 C 213.313 1.01505 -1.27282 0
M  V30 2311 O 214.502 0.914982 -1.53266 0
M  V30 2312 C 211.602 1.65208 -2.95905 0
M  V30 2313 C 210.775 1.22224 -4.19976 0
M  V30 2314 C 209.834 2.28028 -4.74226 0
M  V30 2315 O 208.86 1.88857 -5.36956 0
M  V30 2316 N 210.062 3.6012 -4.55295 0
M  V30 2317 H 212.827 -0.158156 -2.99282 0
M  V30 2318 H 210.388 -0.230402 -1.60252 0
M  V30 2319 H 212.38 2.35541 -3.29093 0
M  V30 2320 H 210.95 2.17658 -2.24374 0
M  V30 2321 H 210.17 0.34725 -3.92668 0
M  V30 2322 H 211.458 0.911924 -5.00561 0
M  V30 2323 H 210.856 3.94698 -4.05253 0
M  V30 2324 H 209.413 4.26447 -4.92936 0
M  V30 2325 N 212.846 1.57033 -0.133567 0
M  V30 2326 C 214.071 2.00475 0.531477 0
M  V30 2327 C 214.496 1.01291 1.58499 0
M  V30 2328 O 213.854 -0.0133279 1.81295 0
M  V30 2329 C 213.902 3.42729 1.12113 0
M  V30 2330 O 213.006 3.46498 2.23636 0
M  V30 2331 H 212.347 0.650876 0.131362 0
M  V30 2332 H 214.877 2.03344 -0.22634 0
M  V30 2333 H 214.887 3.81246 1.4531 0
M  V30 2334 H 213.562 4.14428 0.349557 0
M  V30 2335 H 212.139 3.19811 1.91769 0
M  V30 2336 N 214.325 -0.140222 1.56975 0
M  V30 2337 C 215.235 -1.19223 2.02047 0
M  V30 2338 C 216.251 -1.46612 0.937062 0
M  V30 2339 O 217.427 -1.58148 1.24704 0
M  V30 2340 C 214.492 -2.50414 2.39778 0
M  V30 2341 C 213.553 -2.30612 3.621 0
M  V30 2342 C 212.786 -3.55547 3.98023 0
M  V30 2343 O 213.009 -4.62004 3.34528 0
M  V30 2344 O 211.943 -3.47808 4.91237 0
M  V30 2345 H 215.769 -0.839559 2.91865 0
M  V30 2346 H 213.354 -0.349453 1.45256 0
M  V30 2347 H 215.236 -3.27747 2.64877 0
M  V30 2348 H 213.911 -2.85198 1.53114 0
M  V30 2349 H 212.818 -1.51207 3.4218 0
M  V30 2350 H 214.151 -2.00741 4.49404 0
M  V30 2351 N 215.803 -1.52179 -0.40978 0
M  V30 2352 C 216.713 -1.78364 -1.52392 0
M  V30 2353 C 217.729 -0.669183 -1.60617 0
M  V30 2354 O 218.905 -0.954518 -1.77344 0
M  V30 2355 C 215.97 -1.92822 -2.88133 0
M  V30 2356 C 215.031 -3.16725 -2.898 0
M  V30 2357 C 214.264 -3.30483 -4.19067 0
M  V30 2358 O 214.487 -2.49522 -5.12928 0
M  V30 2359 O 213.421 -4.2363 -4.27576 0
M  V30 2360 H 217.247 -2.72931 -1.33201 0
M  V30 2361 H 214.832 -1.37016 -0.59557 0
M  V30 2362 H 216.714 -2.04157 -3.68643 0
M  V30 2363 H 215.389 -1.01444 -3.07393 0
M  V30 2364 H 214.296 -3.10848 -2.08146 0
M  V30 2365 H 215.629 -4.07881 -2.75489 0
M  V30 2366 N 217.281 0.66697 -1.42791 0
M  V30 2367 C 218.244 1.76211 -1.46568 0
M  V30 2368 C 219.244 1.56896 -0.352196 0
M  V30 2369 O 220.434 1.63044 -0.613364 0
M  V30 2370 C 217.566 3.14935 -1.30494 0
M  V30 2371 H 218.759 1.74247 -2.44086 0
M  V30 2372 H 216.312 0.877342 -1.29354 0
M  V30 2373 H 217.047 3.2252 -0.339301 0
M  V30 2374 H 216.832 3.30359 -2.11199 0
M  V30 2375 H 218.322 3.94821 -1.36038 0
M  V30 2376 N 218.759 1.29093 0.90403 0
M  V30 2377 C 220.005 1.17996 1.65676 0
M  V30 2378 C 220.36 -0.266816 1.90541 0
M  V30 2379 O 219.653 -1.19 1.50165 0
M  V30 2380 C 219.847 1.92224 3.01305 0
M  V30 2381 C 219.676 3.43972 2.89678 0
M  V30 2382 C 218.446 4.1332 2.90679 0
M  V30 2383 C 220.644 4.39546 2.67028 0
M  V30 2384 N 218.626 5.51463 2.69743 0
M  V30 2385 C 219.997 5.65119 2.5503 0
M  V30 2386 C 222.052 4.29359 2.52101 0
M  V30 2387 C 220.755 6.81663 2.29626 0
M  V30 2388 C 222.781 5.4565 2.28079 0
M  V30 2389 C 222.143 6.70193 2.16843 0
M  V30 2390 H 218.242 0.486759 0.612037 0
M  V30 2391 H 220.826 1.62868 1.06688 0
M  V30 2392 H 218.997 1.49773 3.58361 0
M  V30 2393 H 220.729 1.73429 3.65656 0
M  V30 2394 H 217.484 3.64984 3.01801 0
M  V30 2395 H 217.908 6.24105 2.6234 0
M  V30 2396 H 222.55 3.33769 2.59534 0
M  V30 2397 H 220.268 7.77313 2.20932 0
M  V30 2398 H 223.854 5.39664 2.1738 0
M  V30 2399 H 222.734 7.58659 1.98511 0
M  V30 2400 N 220.237 -1.11381 1.11499 0
M  V30 2401 C 221.169 -2.17207 0.731704 0
M  V30 2402 C 222.182 -1.61066 -0.236957 0
M  V30 2403 O 223.371 -1.78489 -0.0197591 0
M  V30 2404 C 220.471 -3.38846 0.0607624 0
M  V30 2405 C 219.644 -4.24451 1.0564 0
M  V30 2406 C 218.703 -5.24562 0.4149 0
M  V30 2407 O 217.729 -5.59071 1.069 0
M  V30 2408 N 218.931 -5.74651 -0.821943 0
M  V30 2409 H 221.696 -2.50699 1.64225 0
M  V30 2410 H 219.257 -1.26908 1.00529 0
M  V30 2411 H 221.249 -4.02911 -0.380139 0
M  V30 2412 H 219.819 -3.03411 -0.752376 0
M  V30 2413 H 219.039 -3.56833 1.67524 0
M  V30 2414 H 220.327 -4.78486 1.72998 0
M  V30 2415 H 219.725 -5.48797 -1.37252 0
M  V30 2416 H 218.282 -6.40549 -1.20582 0
M  V30 2417 N 221.715 -0.905404 -1.28997 0
M  V30 2418 C 222.963 -0.533192 -1.9494 0
M  V30 2419 C 223.284 0.924618 -1.71685 0
M  V30 2420 O 222.554 1.65268 -1.05183 0
M  V30 2421 H 221.134 -0.194194 -0.721317 0
M  V30 2422 H 223.796 -1.15294 -1.57141 0
M  V30 2423 H 222.892 -0.72059 -3.03667 0
M  V30 2424 N 223.193 1.4272 -0.668489 0
M  V30 2425 C 224.156 2.292 0.00448567 0
M  V30 2426 C 225.156 1.43001 0.735339 0
M  V30 2427 O 226.346 1.64461 0.57429 0
M  V30 2428 C 223.478 3.25375 1.01705 0
M  V30 2429 H 224.671 2.90199 -0.756608 0
M  V30 2430 H 222.224 1.50254 -0.430506 0
M  V30 2431 H 222.959 2.69301 1.80686 0
M  V30 2432 H 222.744 3.88944 0.496463 0
M  V30 2433 H 224.234 3.90245 1.48655 0
M  V30 2434 N 224.671 0.411399 1.52136 0
M  V30 2435 C 225.618 -0.412975 2.27075 0
M  V30 2436 C 226.588 -1.03912 1.29582 0
M  V30 2437 O 227.773 -1.06296 1.58448 0
M  V30 2438 C 224.913 -1.52247 3.09701 0
M  V30 2439 C 224.026 -0.917021 4.22155 0
M  V30 2440 C 223.161 -1.9994 4.92135 0
M  V30 2441 C 222.2 -1.37101 5.96548 0
M  V30 2442 N 221.337 -2.39364 6.60038 0
M  V30 2443 H 226.177 0.232499 2.97092 0
M  V30 2444 H 223.714 0.126496 1.46555 0
M  V30 2445 H 225.672 -2.17674 3.55913 0
M  V30 2446 H 224.302 -2.13794 2.41851 0
M  V30 2447 H 223.354 -0.151742 3.80097 0
M  V30 2448 H 224.666 -0.418006 4.97045 0
M  V30 2449 H 223.82 -2.73088 5.41763 0
M  V30 2450 H 222.559 -2.53208 4.16818 0
M  V30 2451 H 221.564 -0.624873 5.46237 0
M  V30 2452 H 222.789 -0.845998 6.7381 0
M  V30 2453 H 220.735 -2.91759 5.87548 0
M  V30 2454 H 220.652 -1.9428 7.3061 0
M  V30 2455 H 221.92 -3.12074 7.14304 0
M  V30 2456 N 226.149 -1.5696 0.141893 0
M  V30 2457 C 227.059 -2.20066 -0.812905 0
M  V30 2458 C 228.075 -1.18344 -1.27557 0
M  V30 2459 O 229.251 -1.50902 -1.33381 0
M  V30 2460 C 226.316 -2.80583 -2.03652 0
M  V30 2461 C 225.377 -3.97414 -1.62359 0
M  V30 2462 C 224.61 -4.55036 -2.78887 0
M  V30 2463 O 224.833 -4.11538 -3.94959 0
M  V30 2464 O 223.767 -5.45376 -2.54653 0
M  V30 2465 H 227.593 -3.02157 -0.305746 0
M  V30 2466 H 225.178 -1.49159 -0.0848799 0
M  V30 2467 H 227.06 -3.19067 -2.75272 0
M  V30 2468 H 225.735 -2.01508 -2.5333 0
M  V30 2469 H 224.642 -3.63656 -0.877775 0
M  V30 2470 H 225.975 -4.77994 -1.17401 0
M  V30 2471 N 227.627 0.131896 -1.57047 0
M  V30 2472 C 228.557 1.16384 -2.02428 0
M  V30 2473 C 229.538 1.43936 -0.90644 0
M  V30 2474 O 230.723 1.54599 -1.17528 0
M  V30 2475 C 227.853 2.49328 -2.4177 0
M  V30 2476 C 226.807 2.36266 -3.56879 0
M  V30 2477 C 226.133 3.74057 -3.8208 0
M  V30 2478 C 227.433 1.834 -4.89042 0
M  V30 2479 H 229.127 0.786433 -2.88887 0
M  V30 2480 H 226.673 0.376855 -1.38981 0
M  V30 2481 H 228.626 3.21759 -2.7212 0
M  V30 2482 H 227.35 2.88934 -1.52266 0
M  V30 2483 H 226.009 1.66286 -3.26718 0
M  V30 2484 H 225.657 4.11125 -2.89803 0
M  V30 2485 H 225.357 3.66174 -4.59554 0
M  V30 2486 H 226.881 4.48012 -4.1487 0
M  V30 2487 H 228.295 2.45636 -5.18011 0
M  V30 2488 H 226.692 1.8637 -5.70426 0
M  V30 2489 H 227.762 0.790662 -4.7841 0
M  V30 2490 N 229.106 1.52395 0.401703 0
M  V30 2491 C 230.352 1.68019 1.14635 0
M  V30 2492 C 230.707 0.408722 1.88009 0
M  V30 2493 O 230 -0.597133 1.82057 0
M  V30 2494 C 230.194 2.84578 2.16217 0
M  V30 2495 C 230.023 4.22938 1.5282 0
M  V30 2496 C 228.793 4.88352 1.29772 0
M  V30 2497 C 230.991 5.04778 0.985094 0
M  V30 2498 N 228.973 6.10726 0.623455 0
M  V30 2499 C 230.344 6.1845 0.438172 0
M  V30 2500 C 232.399 4.90057 0.880275 0
M  V30 2501 C 231.102 7.19013 -0.203306 0
M  V30 2502 C 233.128 5.9086 0.252639 0
M  V30 2503 C 232.49 7.03829 -0.283573 0
M  V30 2504 H 228.589 0.668413 0.405892 0
M  V30 2505 H 231.173 1.89717 0.437674 0
M  V30 2506 H 229.344 2.64483 2.84435 0
M  V30 2507 H 231.076 2.89202 2.83098 0
M  V30 2508 H 227.831 4.46846 1.56926 0
M  V30 2509 H 228.255 6.76323 0.302733 0
M  V30 2510 H 232.897 4.02938 1.28065 0
M  V30 2511 H 230.615 8.05751 -0.615726 0
M  V30 2512 H 234.201 5.81543 0.172954 0
M  V30 2513 H 233.081 7.80493 -0.761575 0
M  V30 2514 N 230.584 -0.659388 1.43143 0
M  V30 2515 C 231.514 -1.78422 1.50625 0
M  V30 2516 C 232.495 -1.66216 0.361443 0
M  V30 2517 O 233.68 -1.85404 0.577834 0
M  V30 2518 C 230.81 -3.16815 1.42287 0
M  V30 2519 C 229.764 -3.43777 2.54954 0
M  V30 2520 C 229.09 -4.81905 2.31671 0
M  V30 2521 C 230.39 -3.39134 3.97222 0
M  V30 2522 H 232.084 -1.72417 2.44771 0
M  V30 2523 H 229.63 -0.828084 1.17808 0
M  V30 2524 H 231.583 -3.95253 1.46127 0
M  V30 2525 H 230.307 -3.23534 0.446435 0
M  V30 2526 H 228.966 -2.67707 2.50457 0
M  V30 2527 H 228.614 -4.85294 1.32284 0
M  V30 2528 H 228.314 -5.00906 3.07192 0
M  V30 2529 H 229.838 -5.62609 2.37284 0
M  V30 2530 H 231.252 -4.07518 4.03239 0
M  V30 2531 H 229.649 -3.69671 4.72719 0
M  V30 2532 H 230.719 -2.37426 4.22797 0
M  V30 2533 N 232.062 -1.29571 -0.897171 0
M  V30 2534 C 233.29 -1.20583 -1.68129 0
M  V30 2535 C 233.705 0.233181 -1.87354 0
M  V30 2536 O 233.062 1.15579 -1.41236 0
M  V30 2537 C 233.113 -1.91772 -3.06441 0
M  V30 2538 O 232.834 -3.30053 -2.88091 0
M  V30 2539 C 234.335 -1.89291 -4.00854 0
M  V30 2540 H 231.555 -0.417826 -0.525036 0
M  V30 2541 H 234.099 -1.70987 -1.12177 0
M  V30 2542 H 232.254 -1.45196 -3.59161 0
M  V30 2543 H 232.668 -3.65942 -3.75748 0
M  V30 2544 H 234.142 -2.43662 -4.95311 0
M  V30 2545 H 234.619 -0.869014 -4.30517 0
M  V30 2546 H 235.225 -2.35622 -3.54066 0
M  V30 2547 N 233.54 1.10788 -1.12088 0
M  V30 2548 C 234.788 1.8231 -0.872205 0
M  V30 2549 C 235.109 1.85419 0.603709 0
M  V30 2550 O 234.379 1.32963 1.43867 0
M  V30 2551 H 232.959 0.675137 -0.319686 0
M  V30 2552 H 235.621 1.34068 -1.41463 0
M  V30 2553 H 234.717 2.85955 -1.25045 0
M  V30 2554 N 235.018 0.912232 1.28515 0
M  V30 2555 C 235.965 0.397954 2.27343 0
M  V30 2556 C 236.935 -0.526766 1.57526 0
M  V30 2557 O 238.12 -0.449292 1.85435 0
M  V30 2558 C 235.26 -0.357263 3.43246 0
M  V30 2559 C 234.373 0.599788 4.27816 0
M  V30 2560 C 233.508 -0.173725 5.30916 0
M  V30 2561 C 232.547 0.777039 6.07148 0
M  V30 2562 N 231.684 0.0371398 7.0209 0
M  V30 2563 H 236.524 1.24577 2.70711 0
M  V30 2564 H 234.061 0.625612 1.33133 0
M  V30 2565 H 236.019 -0.8113 4.09236 0
M  V30 2566 H 234.649 -1.16943 3.00872 0
M  V30 2567 H 233.701 1.17235 3.61884 0
M  V30 2568 H 235.013 1.32704 4.80823 0
M  V30 2569 H 234.167 -0.688394 6.02782 0
M  V30 2570 H 232.906 -0.934041 4.78672 0
M  V30 2571 H 231.911 1.3031 5.34134 0
M  V30 2572 H 233.136 1.53689 6.61481 0
M  V30 2573 H 231.082 -0.705213 6.52198 0
M  V30 2574 H 230.999 0.704249 7.52713 0
M  V30 2575 H 232.267 -0.457383 7.78157 0
M  V30 2576 N 236.496 -1.42363 0.676048 0
M  V30 2577 C 237.721 -2.06377 0.205705 0
M  V30 2578 C 238.146 -1.50463 -1.12883 0
M  V30 2579 O 237.504 -0.623619 -1.70237 0
M  V30 2580 C 237.552 -3.60277 0.152655 0
M  V30 2581 O 236.656 -4.02935 -0.87845 0
M  V30 2582 H 235.997 -0.655588 0.105359 0
M  V30 2583 H 238.527 -1.82475 0.925412 0
M  V30 2584 H 238.537 -4.07993 -0.0230675 0
M  V30 2585 H 237.212 -4.00346 1.12675 0
M  V30 2586 H 235.789 -3.66764 -0.673668 0
M  V30 2587 N 237.974 -0.419461 -1.51915 0
M  V30 2588 C 238.906 0.43646 -2.25006 0
M  V30 2589 C 239.919 1.00149 -1.28351 0
M  V30 2590 O 241.108 0.898674 -1.54227 0
M  V30 2591 C 238.208 1.6206 -2.9764 0
M  V30 2592 C 237.381 1.17763 -4.21249 0
M  V30 2593 C 236.44 2.22985 -4.76617 0
M  V30 2594 O 235.466 1.83151 -5.38929 0
M  V30 2595 N 236.668 3.55271 -4.59089 0
M  V30 2596 H 239.433 -0.18989 -2.99098 0
M  V30 2597 H 236.994 -0.247386 -1.59999 0
M  V30 2598 H 238.986 2.32038 -3.31573 0
M  V30 2599 H 237.556 2.15266 -2.2667 0
M  V30 2600 H 236.776 0.305582 -3.93014 0
M  V30 2601 H 238.064 0.858781 -5.015 0
M  V30 2602 H 237.462 3.90377 -4.09417 0
M  V30 2603 H 236.019 4.21195 -4.97432 0
M  V30 2604 N 239.452 1.56882 -0.150215 0
M  V30 2605 C 240.863 1.82995 0.370076 0
M  V30 2606 C 241.214 1.06907 1.64515 0
M  V30 2607 O 240.339 0.315369 2.1409 0
M  V30 2608 C 240.934 3.31942 0.678208 0
M  V30 2609 C 239.493 3.58625 1.14301 0
M  V30 2610 C 238.64 2.76792 0.167778 0
M  V30 2611 H 241.591 1.54209 -0.374858 0
M  V30 2612 H 241.612 3.48272 1.53254 0
M  V30 2613 H 241.124 3.87294 -0.249991 0
M  V30 2614 H 239.225 3.08664 2.08704 0
M  V30 2615 H 239.338 4.67073 1.06676 0
M  V30 2616 H 237.702 2.45972 0.661037 0
M  V30 2617 H 238.485 3.34916 -0.754069 0
M  V30 2618 N 240.93 -0.123565 1.57115 0
M  V30 2619 C 241.878 -1.17082 2.00984 0
M  V30 2620 C 242.872 -1.43136 0.906009 0
M  V30 2621 O 244.078 -1.43152 1.09121 0
M  V30 2622 H 240.453 -0.394653 0.64012 0
M  V30 2623 H 242.424 -0.774292 2.88179 0
M  V30 2624 C 241.173 -2.49057 2.42623 0
M  V30 2625 H 240.496 -2.29846 3.27125 0
M  V30 2626 H 241.936 -3.20906 2.7712 0
M  V30 2627 C 240.395 -3.11305 1.28805 0
M  V30 2628 O 240.925 -3.97171 0.60153 0
M  V30 2629 N 239.131 -2.71111 1.04628 0
M  V30 2630 H 238.678 -2.01382 1.60634 0
M  V30 2631 H 238.636 -3.1309 0.286685 0
M  V30 2632 N 242.408 -1.52605 -0.393616 0
M  V30 2633 C 243.371 -1.76415 -1.46323 0
M  V30 2634 C 244.371 -0.634126 -1.47768 0
M  V30 2635 O 245.561 -0.902142 -1.4902 0
M  V30 2636 C 242.693 -1.8607 -2.85641 0
M  V30 2637 H 243.886 -2.71916 -1.26498 0
M  V30 2638 H 241.439 -1.43257 -0.625073 0
M  V30 2639 H 242.174 -0.925378 -3.10817 0
M  V30 2640 H 241.959 -2.68235 -2.85993 0
M  V30 2641 H 243.449 -2.06179 -3.63153 0
M  V30 2642 N 243.887 0.651787 -1.4349 0
M  V30 2643 C 245.127 1.42345 -1.46688 0
M  V30 2644 C 245.491 1.91793 -0.0891023 0
M  V30 2645 O 246.692 2.688 0.00423594 0
M  V30 2646 C 244.963 2.57221 -2.48137 0
M  V30 2647 S 246.522 3.45725 -2.70221 0
M  V30 2648 H 243.34 0.485878 -0.51908 0
M  V30 2649 H 245.942 0.756578 -1.80267 0
M  V30 2650 H 244.646 2.1917 -3.46976 0
M  V30 2651 H 244.177 3.28757 -2.16061 0
M  V30 2652 H 246.192 4.53996 -2.00255 0
M  V30 2653 N 245.365 1.30045 0.890287 0
M  V30 2654 C 246.642 1.09227 1.62262 0
M  V30 2655 C 247.022 -0.360305 2.08002 0
M  V30 2656 O 246.37 -1.35084 1.84295 0
M  V30 2657 C 246.58 2.08835 2.79623 0
M  V30 2658 C 247.928 2.40266 3.50082 0
M  V30 2659 O 248.952 2.07104 2.89804 0
M  V30 2660 O 247.811 2.96967 4.58773 0
M  V30 2661 H 244.905 0.419132 0.712922 0
M  V30 2662 H 247.451 1.41451 0.937529 0
M  V30 2663 H 246.223 3.06633 2.43089 0
M  V30 2664 H 245.846 1.77397 3.55832 0
M  V30 2665 N 246.843 -1.10192 1.12674 0
M  V30 2666 C 247.79 -2.16606 0.796906 0
M  V30 2667 C 248.76 -1.64394 -0.237476 0
M  V30 2668 O 249.945 -1.90474 -0.111484 0
M  V30 2669 C 247.085 -3.44116 0.26043 0
M  V30 2670 C 246.198 -4.10268 1.35293 0
M  V30 2671 C 245.333 -5.25507 0.775621 0
M  V30 2672 C 244.372 -5.83567 1.84706 0
M  V30 2673 N 243.509 -6.90179 1.28829 0
M  V30 2674 H 248.349 -2.44163 1.70846 0
M  V30 2675 H 245.886 -1.19846 0.85295 0
M  V30 2676 H 247.844 -4.17143 -0.0686814 0
M  V30 2677 H 246.474 -3.16901 -0.614274 0
M  V30 2678 H 245.526 -3.35184 1.79877 0
M  V30 2679 H 246.838 -4.4946 2.16303 0
M  V30 2680 H 245.992 -6.05398 0.397327 0
M  V30 2681 H 244.731 -4.87656 -0.0656581 0
M  V30 2682 H 243.736 -5.02344 2.23452 0
M  V30 2683 H 244.961 -6.23482 2.69161 0
M  V30 2684 H 242.907 -6.54322 0.468881 0
M  V30 2685 H 242.824 -7.28097 2.03497 0
M  V30 2686 H 244.092 -7.73844 0.937311 0
M  V30 2687 N 248.321 -0.919034 -1.28029 0
M  V30 2688 C 249.251 -0.428581 -2.29533 0
M  V30 2689 C 250.232 0.50659 -1.62381 0
M  V30 2690 O 251.417 0.413195 -1.89753 0
M  V30 2691 C 248.547 0.327388 -3.45753 0
M  V30 2692 C 247.501 -0.519137 -4.2484 0
M  V30 2693 C 246.827 0.365486 -5.33449 0
M  V30 2694 C 248.127 -1.77914 -4.91064 0
M  V30 2695 H 249.821 -1.27687 -2.70807 0
M  V30 2696 H 247.367 -0.615428 -1.30186 0
M  V30 2697 H 249.32 0.681378 -4.15855 0
M  V30 2698 H 248.044 1.20963 -3.03374 0
M  V30 2699 H 246.703 -0.855717 -3.56473 0
M  V30 2700 H 246.351 1.24642 -4.87312 0
M  V30 2701 H 246.051 -0.197356 -5.87268 0
M  V30 2702 H 247.575 0.715241 -6.06396 0
M  V30 2703 H 248.989 -1.49374 -5.53498 0
M  V30 2704 H 247.386 -2.2848 -5.54903 0
M  V30 2705 H 248.456 -2.50382 -4.15255 0
M  V30 2706 N 249.799 1.42003 -0.683588 0
M  V30 2707 C 251.046 2.01413 -0.209514 0
M  V30 2708 C 251.374 1.54088 1.1869 0
M  V30 2709 O 250.629 0.737591 1.81268 0
M  V30 2710 C 250.928 3.56827 -0.202357 0
M  V30 2711 C 250.594 4.23617 -1.54464 0
M  V30 2712 C 249.256 4.41577 -1.91215 0
M  V30 2713 C 251.608 4.61178 -2.42826 0
M  V30 2714 C 248.936 4.9437 -3.15935 0
M  V30 2715 C 251.288 5.15355 -3.66867 0
M  V30 2716 C 249.952 5.31528 -4.03776 0
M  V30 2717 H 249.222 0.737023 -0.0766668 0
M  V30 2718 H 251.869 1.70067 -0.880312 0
M  V30 2719 H 250.174 3.87892 0.551969 0
M  V30 2720 H 251.871 4.00588 0.181793 0
M  V30 2721 H 248.461 4.10004 -1.24877 0
M  V30 2722 H 252.645 4.46968 -2.15717 0
M  V30 2723 H 247.901 5.05076 -3.44541 0
M  V30 2724 H 252.075 5.43402 -4.35531 0
M  V30 2725 H 249.702 5.72199 -5.00492 0
M  V30 2726 N 251.277 0.427512 1.51691 0
M  V30 2727 C 252.502 -0.143601 2.06902 0
M  V30 2728 C 252.927 -1.36536 1.29382 0
M  V30 2729 O 252.285 -1.78289 0.329043 0
M  V30 2730 C 252.333 -0.454207 3.57728 0
M  V30 2731 O 251.437 -1.54228 3.82475 0
M  V30 2732 H 250.778 -0.00617128 0.663971 0
M  V30 2733 H 253.308 0.606014 1.95419 0
M  V30 2734 H 253.318 -0.707525 4.01818 0
M  V30 2735 H 251.993 0.438812 4.13579 0
M  V30 2736 H 250.57 -1.2797 3.50254 0
M  V30 2737 N 252.755 -1.56801 0.158532 0
M  V30 2738 C 254.001 -1.96781 -0.490405 0
M  V30 2739 C 254.334 -1.04397 -1.63753 0
M  V30 2740 O 253.609 -0.0885805 -1.94298 0
M  V30 2741 C 253.892 -3.4635 -0.985594 0
M  V30 2742 C 253.745 -4.49512 0.160824 0
M  V30 2743 C 255.064 -3.98697 -1.86355 0
M  V30 2744 H 252.183 -0.715482 -0.176788 0
M  V30 2745 H 254.825 -1.88451 0.242088 0
M  V30 2746 H 252.975 -3.53579 -1.60978 0
M  V30 2747 H 254.647 -4.54353 0.797537 0
M  V30 2748 H 252.89 -4.26013 0.818256 0
M  V30 2749 H 253.561 -5.51531 -0.227569 0
M  V30 2750 H 256.037 -3.94019 -1.33746 0
M  V30 2751 H 254.913 -5.03792 -2.17909 0
M  V30 2752 H 255.174 -3.41744 -2.8047 0
M  V30 2753 N 254.233 0.115231 -1.57178 0
M  V30 2754 C 255.479 0.818565 -1.86202 0
M  V30 2755 C 255.834 1.77316 -0.746785 0
M  V30 2756 O 255.127 1.89923 0.25291 0
M  V30 2757 C 255.321 1.60324 -3.19423 0
M  V30 2758 C 255.15 0.726138 -4.43799 0
M  V30 2759 C 253.92 0.379535 -5.03873 0
M  V30 2760 C 256.118 0.0420774 -5.14283 0
M  V30 2761 N 254.1 -0.507841 -6.11796 0
M  V30 2762 C 255.471 -0.704152 -6.15988 0
M  V30 2763 C 257.526 -0.0339486 -4.97888 0
M  V30 2764 C 256.229 -1.51927 -7.03072 0
M  V30 2765 C 258.255 -0.835906 -5.85463 0
M  V30 2766 C 257.617 -1.57031 -6.86673 0
M  V30 2767 H 253.716 0.276343 -0.731545 0
M  V30 2768 H 256.3 0.0821032 -1.94527 0
M  V30 2769 H 254.471 2.31072 -3.12186 0
M  V30 2770 H 256.203 2.2522 -3.36241 0
M  V30 2771 H 252.958 0.722634 -4.68054 0
M  V30 2772 H 253.382 -0.94349 -6.70393 0
M  V30 2773 H 258.024 0.519496 -4.19596 0
M  V30 2774 H 255.742 -2.08386 -7.80769 0
M  V30 2775 H 259.328 -0.89714 -5.74841 0
M  V30 2776 H 258.208 -2.18088 -7.53264 0
M  V30 2777 N 255.711 1.52812 0.385517 0
M  V30 2778 C 257.127 1.4214 0.725829 0
M  V30 2779 C 257.327 0.544589 1.94001 0
M  V30 2780 O 256.383 0.0193693 2.52493 0
M  V30 2781 C 257.696 2.85042 0.957668 0
M  V30 2782 C 259.244 2.94543 1.05892 0
M  V30 2783 C 259.719 4.38464 1.32337 0
M  V30 2784 N 261.21 4.41804 1.39151 0
M  V30 2785 C 261.945 5.5025 1.61285 0
M  V30 2786 N 261.441 6.68775 1.80866 0
M  V30 2787 N 263.234 5.37798 1.63492 0
M  V30 2788 H 255.385 2.08338 -0.413383 0
M  V30 2789 H 257.648 0.940016 -0.122775 0
M  V30 2790 H 257.354 3.51431 0.137568 0
M  V30 2791 H 257.228 3.27505 1.87137 0
M  V30 2792 H 259.615 2.28321 1.86959 0
M  V30 2793 H 259.696 2.55504 0.123057 0
M  V30 2794 H 259.34 5.05254 0.517793 0
M  V30 2795 H 259.27 4.75059 2.27214 0
M  V30 2796 H 261.761 3.56377 1.25713 0
M  V30 2797 H 262.074 7.47197 1.97271 0
M  V30 2798 H 260.419 6.71797 1.78083 0
M  V30 2799 H 263.61 4.44171 1.47749 0
M  V30 2800 H 263.783 6.22382 1.80402 0
M  V30 2801 N 257.189 -0.644168 1.43834 0
M  V30 2802 C 258.152 -1.73857 1.49353 0
M  V30 2803 C 259.152 -1.56315 0.377112 0
M  V30 2804 O 260.342 -1.62048 0.639226 0
M  V30 2805 C 257.474 -3.12819 1.35488 0
M  V30 2806 H 258.667 -1.70342 2.46827 0
M  V30 2807 H 256.22 -0.856652 1.30733 0
M  V30 2808 H 256.955 -3.2194 0.390569 0
M  V30 2809 H 256.74 -3.26958 2.16428 0
M  V30 2810 H 258.23 -3.92606 1.42302 0
M  V30 2811 N 258.668 -1.30515 -0.883378 0
M  V30 2812 C 259.893 -1.22487 -1.67367 0
M  V30 2813 C 260.318 0.208767 -1.86938 0
M  V30 2814 O 259.676 1.15015 -1.40148 0
M  V30 2815 C 259.724 -1.96041 -3.02655 0
M  V30 2816 O 258.828 -1.28859 -3.91751 0
M  V30 2817 H 258.169 -0.423573 -0.511353 0
M  V30 2818 H 260.699 -1.72362 -1.10239 0
M  V30 2819 H 260.709 -2.05124 -3.52687 0
M  V30 2820 H 259.384 -3.00307 -2.8773 0
M  V30 2821 H 257.961 -1.28141 -3.50192 0
M  V30 2822 N 260.146 1.09593 -1.13257 0
M  V30 2823 C 261.394 1.81375 -0.891492 0
M  V30 2824 C 261.715 1.86049 0.584009 0
M  V30 2825 O 260.985 1.34481 1.42449 0
M  V30 2826 H 259.565 0.671708 -0.326828 0
M  V30 2827 H 262.227 1.3256 -1.42877 0
M  V30 2828 H 261.323 2.84612 -1.28071 0
M  V30 2829 N 261.624 0.925811 1.2754 0
M  V30 2830 C 262.571 0.422045 2.26908 0
M  V30 2831 C 263.541 -0.510029 1.58076 0
M  V30 2832 O 264.726 -0.429599 1.85901 0
M  V30 2833 C 261.866 -0.320837 3.43605 0
M  V30 2834 C 260.979 0.64513 4.27156 0
M  V30 2835 C 260.114 -0.117405 5.3107 0
M  V30 2836 C 259.153 0.841391 6.0629 0
M  V30 2837 N 258.29 0.111604 7.02011 0
M  V30 2838 H 263.13 1.27441 2.69375 0
M  V30 2839 H 260.667 0.639697 1.32462 0
M  V30 2840 H 262.625 -0.76785 4.10073 0
M  V30 2841 H 261.255 -1.13745 3.02096 0
M  V30 2842 H 260.307 1.21067 3.6062 0
M  V30 2843 H 261.619 1.37797 4.79389 0
M  V30 2844 H 260.773 -0.624422 6.03478 0
M  V30 2845 H 259.512 -0.883219 4.79636 0
M  V30 2846 H 258.517 1.35967 5.32722 0
M  V30 2847 H 259.742 1.60696 6.59813 0
M  V30 2848 H 257.688 -0.635999 6.5291 0
M  V30 2849 H 257.605 0.784044 7.51923 0
M  V30 2850 H 258.873 -0.374823 7.78598 0
M  V30 2851 N 263.102 -1.41638 0.69111 0
M  V30 2852 C 264.034 -2.29194 -0.0161523 0
M  V30 2853 C 265.047 -1.44549 -0.748955 0
M  V30 2854 O 266.236 -1.681 -0.6004 0
M  V30 2855 C 263.336 -3.22325 -1.0469 0
M  V30 2856 C 262.509 -4.35706 -0.384621 0
M  V30 2857 C 261.568 -5.09443 -1.31737 0
M  V30 2858 O 260.594 -5.63386 -0.811451 0
M  V30 2859 N 261.796 -5.16487 -2.64993 0
M  V30 2860 H 264.561 -2.90534 0.735523 0
M  V30 2861 H 262.122 -1.52742 0.53679 0
M  V30 2862 H 264.114 -3.68522 -1.67252 0
M  V30 2863 H 262.684 -2.62323 -1.70015 0
M  V30 2864 H 261.904 -3.91948 0.420804 0
M  V30 2865 H 263.192 -5.08743 0.0760765 0
M  V30 2866 H 262.59 -4.741 -3.08619 0
M  V30 2867 H 261.147 -5.66276 -3.22761 0
M  V30 2868 N 264.58 -0.43555 -1.51462 0
M  V30 2869 C 265.857 0.191364 -1.94662 0
M  V30 2870 C 266.237 1.60254 -1.37411 0
M  V30 2871 O 265.585 2.2152 -0.560458 0
M  V30 2872 C 265.795 0.17091 -3.48581 0
M  V30 2873 C 267.143 0.377357 -4.2292 0
M  V30 2874 O 268.167 0.249104 -3.55328 0
M  V30 2875 O 267.026 0.63247 -5.42828 0
M  V30 2876 H 264.12 0.130932 -0.816569 0
M  V30 2877 H 266.666 -0.4934 -1.62369 0
M  V30 2878 H 265.438 -0.815738 -3.82703 0
M  V30 2879 H 265.061 0.898659 -3.87311 0
M  V30 2880 N 266.058 1.56714 -0.166846 0
M  V30 2881 C 267.469 1.83378 0.350646 0
M  V30 2882 C 267.82 1.08646 1.63372 0
M  V30 2883 O 266.945 0.338058 2.13743 0
M  V30 2884 C 267.54 3.32643 0.642963 0
M  V30 2885 C 266.099 3.59818 1.10491 0
M  V30 2886 C 265.246 2.76954 0.138411 0
M  V30 2887 H 268.197 1.53803 -0.391193 0
M  V30 2888 H 268.218 3.49878 1.49551 0
M  V30 2889 H 267.73 3.87007 -0.291055 0
M  V30 2890 H 265.831 3.1086 2.05418 0
M  V30 2891 H 265.944 4.68178 1.01716 0
M  V30 2892 H 264.308 2.4666 0.634911 0
M  V30 2893 H 265.091 3.34097 -0.789549 0
M  V30 2894 N 267.536 -0.106894 1.57237 0
M  V30 2895 C 268.466 -1.13148 2.04254 0
M  V30 2896 C 269.447 -1.42476 0.929224 0
M  V30 2897 O 270.632 -1.52709 1.19973 0
M  V30 2898 C 267.762 -2.4545 2.45706 0
M  V30 2899 C 266.716 -2.30558 3.60592 0
M  V30 2900 C 266.042 -3.67931 3.87983 0
M  V30 2901 C 267.342 -1.75597 4.91897 0
M  V30 2902 H 269.036 -0.740374 2.90101 0
M  V30 2903 H 266.582 -0.354696 1.39563 0
M  V30 2904 H 268.535 -3.17389 2.77205 0
M  V30 2905 H 267.259 -2.86475 1.56843 0
M  V30 2906 H 265.918 -1.61067 3.29322 0
M  V30 2907 H 265.566 -4.06462 2.96306 0
M  V30 2908 H 265.266 -3.58817 4.65322 0
M  V30 2909 H 266.79 -4.41356 4.21945 0
M  V30 2910 H 268.204 -2.37364 5.21854 0
M  V30 2911 H 266.601 -1.77272 5.73319 0
M  V30 2912 H 267.671 -0.714451 4.79608 0
M  V30 2913 N 269.014 -1.53014 -0.377408 0
M  V30 2914 C 269.977 -1.77957 -1.44444 0
M  V30 2915 C 270.977 -0.649763 -1.47087 0
M  V30 2916 O 272.167 -0.917897 -1.48055 0
M  V30 2917 C 269.299 -1.89089 -2.83651 0
M  V30 2918 H 270.492 -2.73243 -1.23606 0
M  V30 2919 H 268.045 -1.43912 -0.609844 0
M  V30 2920 H 268.78 -0.958293 -3.09818 0
M  V30 2921 H 268.565 -2.71254 -2.83132 0
M  V30 2922 H 270.055 -2.1002 -3.60945 0
M  V30 2923 N 270.492 0.636531 -1.44174 0
M  V30 2924 C 271.722 1.42146 -1.49927 0
M  V30 2925 C 272.13 1.88812 -0.121063 0
M  V30 2926 O 271.473 1.61126 0.882267 0
M  V30 2927 C 271.535 2.67883 -2.39748 0
M  V30 2928 C 271.199 2.43048 -3.8701 0
M  V30 2929 C 272.196 2.05216 -4.77684 0
M  V30 2930 C 269.881 2.56856 -4.3166 0
M  V30 2931 C 271.875 1.81512 -6.11009 0
M  V30 2932 C 269.562 2.32766 -5.65034 0
M  V30 2933 C 270.56 1.95152 -6.54526 0
M  V30 2934 O 270.248 1.71326 -7.85431 0
M  V30 2935 H 269.98 0.442567 -0.51099 0
M  V30 2936 H 272.534 0.786158 -1.8976 0
M  V30 2937 H 270.764 3.34032 -1.94832 0
M  V30 2938 H 272.453 3.29874 -2.36513 0
M  V30 2939 H 273.219 1.94111 -4.44462 0
M  V30 2940 H 269.098 2.85104 -3.62266 0
M  V30 2941 H 272.642 1.52077 -6.80822 0
M  V30 2942 H 268.539 2.43479 -5.97819 0
M  V30 2943 H 269.307 1.85616 -7.97176 0
M  V30 2944 N 271.97 1.30982 0.876444 0
M  V30 2945 C 272.9 1.20668 1.99903 0
M  V30 2946 C 273.881 0.095354 1.69833 0
M  V30 2947 O 275.066 0.27885 1.92188 0
M  V30 2948 C 272.196 0.90655 3.3526 0
M  V30 2949 C 271.15 1.97675 3.79617 0
M  V30 2950 C 270.476 1.52943 5.1236 0
M  V30 2951 C 271.776 3.389 3.97422 0
M  V30 2952 H 273.47 2.14586 2.0879 0
M  V30 2953 H 271.016 1.03308 1.00317 0
M  V30 2954 H 272.969 0.821025 4.13324 0
M  V30 2955 H 271.693 -0.0682969 3.26529 0
M  V30 2956 H 270.352 2.05205 3.03787 0
M  V30 2957 H 270 0.54262 5.00065 0
M  V30 2958 H 269.7 2.24532 5.43009 0
M  V30 2959 H 271.224 1.45786 5.92941 0
M  V30 2960 H 272.638 3.34081 4.659 0
M  V30 2961 H 271.035 4.0865 4.3946 0
M  V30 2962 H 272.105 3.80163 3.01006 0
M  V30 2963 N 273.449 -1.08991 1.13837 0
M  V30 2964 C 274.359 -2.19301 0.833333 0
M  V30 2965 C 275.375 -1.73026 -0.183847 0
M  V30 2966 O 276.551 -2.01395 -0.0138092 0
M  V30 2967 C 273.616 -3.45323 0.308651 0
M  V30 2968 C 272.677 -4.06255 1.38764 0
M  V30 2969 C 271.91 -5.26262 0.887896 0
M  V30 2970 O 272.133 -5.69747 -0.27287 0
M  V30 2971 O 271.067 -5.78435 1.66421 0
M  V30 2972 H 274.893 -2.47854 1.75506 0
M  V30 2973 H 272.478 -1.18012 0.916166 0
M  V30 2974 H 274.36 -4.21394 0.0216739 0
M  V30 2975 H 273.035 -3.18362 -0.585431 0
M  V30 2976 H 271.942 -3.318 1.72799 0
M  V30 2977 H 273.275 -4.37452 2.25602 0
M  V30 2978 N 274.927 -0.932562 -1.27047 0
M  V30 2979 C 276.343 -0.633544 -1.46487 0
M  V30 2980 C 276.543 0.815746 -1.84249 0
M  V30 2981 O 275.599 1.59319 -1.95892 0
M  V30 2982 C 276.912 -1.58758 -2.55375 0
M  V30 2983 C 278.46 -1.59634 -2.69232 0
M  V30 2984 C 278.935 -2.53747 -3.81283 0
M  V30 2985 N 280.426 -2.51982 -3.88664 0
M  V30 2986 C 281.161 -3.21491 -4.74796 0
M  V30 2987 N 280.657 -4.00395 -5.65381 0
M  V30 2988 N 282.45 -3.10485 -4.68568 0
M  V30 2989 H 274.601 -1.86946 -1.00821 0
M  V30 2990 H 276.864 -0.802897 -0.504044 0
M  V30 2991 H 276.57 -2.62172 -2.34432 0
M  V30 2992 H 276.444 -1.33301 -3.52861 0
M  V30 2993 H 278.831 -0.569488 -2.89553 0
M  V30 2994 H 278.912 -1.89142 -1.72218 0
M  V30 2995 H 278.556 -3.56545 -3.61715 0
M  V30 2996 H 278.486 -2.21532 -4.77735 0
M  V30 2997 H 280.977 -1.94681 -3.23895 0
M  V30 2998 H 281.29 -4.50406 -6.27976 0
M  V30 2999 H 279.635 -4.04498 -5.65161 0
M  V30 3000 H 282.826 -2.48331 -3.96799 0
M  V30 3001 H 282.999 -3.64925 -5.35475 0
M  V30 3002 N 276.405 1.4127 -0.698611 0
M  V30 3003 C 277.654 2.00408 -0.227949 0
M  V30 3004 C 277.967 1.55981 1.18023 0
M  V30 3005 O 279.173 2.07699 1.74852 0
M  V30 3006 C 277.629 3.58129 -0.356636 0
M  V30 3007 C 277.237 4.11536 -1.77037 0
M  V30 3008 C 278.981 4.24466 0.0540969 0
M  V30 3009 C 276.888 5.61701 -1.85055 0
M  V30 3010 H 275.818 0.749586 -0.0814657 0
M  V30 3011 H 278.469 1.61713 -0.867249 0
M  V30 3012 H 276.851 3.94442 0.350965 0
M  V30 3013 H 278.025 3.86636 -2.50698 0
M  V30 3014 H 276.34 3.57736 -2.13105 0
M  V30 3015 H 278.937 5.34698 0.0146723 0
M  V30 3016 H 279.28 4.01687 1.09332 0
M  V30 3017 H 279.813 3.93198 -0.603337 0
M  V30 3018 H 276.552 5.89312 -2.8704 0
M  V30 3019 H 276.072 5.88519 -1.15783 0
M  V30 3020 H 277.751 6.26524 -1.61484 0
M  V30 3021 N 277.883 0.443576 1.51229 0
M  V30 3022 C 279.299 0.0962001 1.5931 0
M  V30 3023 C 279.499 -1.39501 1.45402 0
M  V30 3024 O 278.555 -2.16557 1.29843 0
M  V30 3025 C 279.868 0.621875 2.94199 0
M  V30 3026 C 281.416 0.582865 3.07525 0
M  V30 3027 C 281.891 1.08562 4.44948 0
M  V30 3028 N 283.382 1.04387 4.51284 0
M  V30 3029 C 284.117 1.40368 5.55954 0
M  V30 3030 N 283.613 1.83664 6.68011 0
M  V30 3031 N 285.406 1.32145 5.46346 0
M  V30 3032 H 277.557 1.41376 1.58514 0
M  V30 3033 H 279.82 0.582965 0.747567 0
M  V30 3034 H 279.526 1.66546 3.09767 0
M  V30 3035 H 279.4 0.0502125 3.77167 0
M  V30 3036 H 281.787 -0.451749 2.91622 0
M  V30 3037 H 281.868 1.191 2.26382 0
M  V30 3038 H 281.512 2.11873 4.61598 0
M  V30 3039 H 281.442 0.453956 5.2464 0
M  V30 3040 H 283.933 0.725986 3.70861 0
M  V30 3041 H 284.246 2.0934 7.43906 0
M  V30 3042 H 282.591 1.87596 6.69203 0
M  V30 3043 H 285.782 0.981808 4.57688 0
M  V30 3044 H 285.955 1.60514 6.27805 0
M  V30 3045 N 279.361 -1.56624 0.175154 0
M  V30 3046 C 280.291 -2.21155 -0.749195 0
M  V30 3047 C 281.272 -1.16836 -1.23626 0
M  V30 3048 O 282.457 -1.45277 -1.28873 0
M  V30 3049 C 279.587 -2.8553 -1.97711 0
M  V30 3050 C 278.541 -3.95921 -1.62575 0
M  V30 3051 C 277.867 -4.47365 -2.92864 0
M  V30 3052 C 279.167 -5.15323 -0.850838 0
M  V30 3053 H 280.861 -2.98653 -0.211295 0
M  V30 3054 H 278.407 -1.43651 -0.100188 0
M  V30 3055 H 280.36 -3.2935 -2.62881 0
M  V30 3056 H 279.084 -2.05406 -2.53921 0
M  V30 3057 H 277.743 -3.52762 -0.997719 0
M  V30 3058 H 277.391 -3.64027 -3.47122 0
M  V30 3059 H 277.091 -5.21839 -2.70106 0
M  V30 3060 H 278.615 -4.93873 -3.59056 0
M  V30 3061 H 280.029 -5.55812 -1.40521 0
M  V30 3062 H 278.426 -5.95739 -0.722154 0
M  V30 3063 H 279.496 -4.84661 0.152082 0
M  V30 3064 N 280.839 0.0985539 -1.57292 0
M  V30 3065 C 281.802 1.10402 -2.00858 0
M  V30 3066 C 282.802 1.33146 -0.901593 0
M  V30 3067 O 283.992 1.29318 -1.16716 0
M  V30 3068 C 281.124 2.45394 -2.36632 0
M  V30 3069 H 282.317 0.729099 -2.90902 0
M  V30 3070 H 279.87 0.343495 -1.52479 0
M  V30 3071 H 280.605 2.87769 -1.49531 0
M  V30 3072 H 280.39 2.30235 -3.17387 0
M  V30 3073 H 281.88 3.17718 -2.71007 0
M  V30 3074 N 282.317 1.53212 0.369288 0
M  V30 3075 C 283.25 1.74166 1.4745 0
M  V30 3076 C 284.228 0.589923 1.51521 0
M  V30 3077 O 285.412 0.822078 1.69629 0
M  V30 3078 C 282.539 1.81711 2.8583 0
M  V30 3079 C 281.585 3.03649 2.99499 0
M  V30 3080 S 282.418 4.63242 2.6864 0
M  V30 3081 C 283.574 4.7363 4.09177 0
M  V30 3082 H 283.807 2.67636 1.29454 0
M  V30 3083 H 281.34 1.43754 0.563396 0
M  V30 3084 H 283.298 1.86743 3.65564 0
M  V30 3085 H 281.959 0.89299 3.01139 0
M  V30 3086 H 281.152 3.05526 4.00836 0
M  V30 3087 H 280.754 2.9671 2.27683 0
M  V30 3088 H 283.046 4.53456 5.03372 0
M  V30 3089 H 283.989 5.75682 4.12306 0
M  V30 3090 H 284.397 4.02295 3.96004 0
M  V30 3091 N 283.795 -0.628877 1.44509 0
M  V30 3092 C 284.742 -1.74074 1.51549 0
M  V30 3093 C 285.712 -1.62084 0.363021 0
M  V30 3094 O 286.897 -1.81975 0.573567 0
M  V30 3095 C 284.037 -3.12328 1.46784 0
M  V30 3096 C 283.15 -3.35277 2.72422 0
M  V30 3097 C 282.285 -4.63515 2.59475 0
M  V30 3098 C 281.324 -4.7965 3.80266 0
M  V30 3099 N 280.461 -5.99168 3.65981 0
M  V30 3100 H 285.301 -1.67392 2.46544 0
M  V30 3101 H 282.838 -0.816527 1.22357 0
M  V30 3102 H 284.796 -3.92286 1.42012 0
M  V30 3103 H 283.426 -3.18018 0.553544 0
M  V30 3104 H 282.478 -2.49242 2.87372 0
M  V30 3105 H 283.79 -3.43078 3.62076 0
M  V30 3106 H 282.944 -5.51638 2.52548 0
M  V30 3107 H 281.683 -4.58076 1.67384 0
M  V30 3108 H 280.688 -3.89957 3.87574 0
M  V30 3109 H 281.913 -4.86902 4.73395 0
M  V30 3110 H 279.859 -5.94814 2.76644 0
M  V30 3111 H 279.776 -6.08035 4.49254 0
M  V30 3112 H 281.044 -6.89846 3.6295 0
M  V30 3113 N 285.273 -1.31445 -0.869486 0
M  V30 3114 C 286.236 -1.19094 -1.9583 0
M  V30 3115 C 287.236 -0.117906 -1.60367 0
M  V30 3116 O 288.426 -0.367208 -1.70286 0
M  V30 3117 C 285.558 -0.828165 -3.30688 0
M  V30 3118 H 286.751 -2.15842 -2.08212 0
M  V30 3119 H 284.304 -1.15063 -1.05784 0
M  V30 3120 H 285.039 0.138142 -3.24006 0
M  V30 3121 H 284.824 -1.6038 -3.578 0
M  V30 3122 H 286.314 -0.765658 -4.10521 0
M  V30 3123 N 286.751 1.08385 -1.14413 0
M  V30 3124 C 287.999 1.80419 -0.910679 0
M  V30 3125 C 288.32 1.86658 0.564243 0
M  V30 3126 O 287.59 1.35985 1.41014 0
M  V30 3127 H 286.17 0.668204 -0.333934 0
M  V30 3128 H 288.832 1.31037 -1.44275 0
M  V30 3129 H 287.928 2.83238 -1.31082 0
M  V30 3130 N 288.23 0.939286 1.26551 0
M  V30 3131 C 289.178 0.43815 2.28436 0
M  V30 3132 C 290.172 -0.483587 1.62351 0
M  V30 3133 O 291.378 -0.362009 1.76322 0
M  V30 3134 H 287.753 0.123149 0.741848 0
M  V30 3135 H 289.724 1.31002 2.68106 0
M  V30 3136 C 288.473 -0.283052 3.46546 0
M  V30 3137 H 287.796 0.417043 3.97619 0
M  V30 3138 H 289.236 -0.597948 4.19763 0
M  V30 3139 C 287.695 -1.50018 3.01656 0
M  V30 3140 O 288.225 -2.59855 3.0633 0
M  V30 3141 N 286.431 -1.35608 2.57019 0
M  V30 3142 H 285.978 -0.46244 2.53415 0
M  V30 3143 H 285.936 -2.17165 2.27347 0
M  V30 3144 N 289.708 -1.40897 0.706093 0
M  V30 3145 C 290.936 -2.05373 0.250887 0
M  V30 3146 C 291.351 -1.53172 -1.10381 0
M  V30 3147 O 290.708 -0.684305 -1.69185 0
M  V30 3148 C 290.759 -3.6088 0.211571 0
M  V30 3149 O 290.48 -4.11153 1.51276 0
M  V30 3150 C 291.981 -4.42517 -0.263346 0
M  V30 3151 H 289.201 -0.66115 0.114552 0
M  V30 3152 H 291.745 -1.80479 0.961635 0
M  V30 3153 H 289.9 -3.84777 -0.450073 0
M  V30 3154 H 290.314 -5.05279 1.40689 0
M  V30 3155 H 291.788 -5.51479 -0.239718 0
M  V30 3156 H 292.265 -4.19396 -1.30397 0
M  V30 3157 H 292.871 -4.23708 0.367677 0
M  V30 3158 N 291.186 -0.45159 -1.50991 0
M  V30 3159 C 292.434 0.109857 -2.01801 0
M  V30 3160 C 292.755 1.41958 -1.3369 0
M  V30 3161 O 292.025 1.9003 -0.475951 0
M  V30 3162 H 290.605 0.0435884 -0.745727 0
M  V30 3163 H 293.267 -0.597557 -1.85514 0
M  V30 3164 H 292.363 0.275489 -3.10882 0
M  V30 3165 N 292.664 1.56529 -0.183458 0
M  V30 3166 C 293.594 2.21549 0.737456 0
M  V30 3167 C 294.575 1.17489 1.23005 0
M  V30 3168 O 295.76 1.45959 1.281 0
M  V30 3169 C 292.89 2.86575 1.96194 0
M  V30 3170 C 291.844 3.96778 1.60473 0
M  V30 3171 C 291.17 4.48911 2.90487 0
M  V30 3172 C 292.47 5.15767 0.823497 0
M  V30 3173 H 294.164 2.98761 0.195453 0
M  V30 3174 H 291.71 1.43702 0.0925686 0
M  V30 3175 H 293.663 3.30739 2.61131 0
M  V30 3176 H 292.387 2.06749 2.52828 0
M  V30 3177 H 291.046 3.53286 0.978997 0
M  V30 3178 H 290.694 3.65862 3.45186 0
M  V30 3179 H 290.394 5.23265 2.67335 0
M  V30 3180 H 291.918 4.95771 3.56432 0
M  V30 3181 H 293.332 5.56549 1.37571 0
M  V30 3182 H 291.729 5.96114 0.690551 0
M  V30 3183 H 292.799 4.84574 -0.177782 0
M  V30 3184 N 294.142 -0.090211 1.57342 0
M  V30 3185 C 295.388 -0.793982 1.86611 0
M  V30 3186 C 295.721 -1.78142 0.773252 0
M  V30 3187 O 294.996 -1.93271 -0.218304 0
M  V30 3188 C 295.279 -1.51839 3.26523 0
M  V30 3189 C 295.132 -0.548609 4.46442 0
M  V30 3190 C 296.451 -2.46779 3.64401 0
M  V30 3191 H 293.57 -0.287186 0.678744 0
M  V30 3192 H 296.212 -0.0575076 1.89913 0
M  V30 3193 H 294.362 -2.14617 3.23839 0
M  V30 3194 H 296.034 0.0725513 4.61243 0
M  V30 3195 H 294.277 0.137614 4.33582 0
M  V30 3196 H 294.948 -1.09271 5.41076 0
M  V30 3197 H 297.424 -1.94089 3.68061 0
M  V30 3198 H 296.3 -2.94479 4.63221 0
M  V30 3199 H 296.561 -3.30758 2.93346 0
M  V30 3200 N 295.62 -1.53406 -0.361157 0
M  V30 3201 C 296.848 -1.73717 -1.12383 0
M  V30 3202 C 297.263 -0.468161 -1.82904 0
M  V30 3203 O 296.62 0.559198 -1.73722 0
M  V30 3204 C 296.671 -2.90558 -2.15078 0
M  V30 3205 O 296.392 -4.12549 -1.47428 0
M  V30 3206 C 297.893 -3.22777 -3.03858 0
M  V30 3207 H 295.113 -0.580896 -0.335858 0
M  V30 3208 H 297.657 -2.00167 -0.418728 0
M  V30 3209 H 295.812 -2.66489 -2.8118 0
M  V30 3210 H 296.226 -4.78009 -2.15887 0
M  V30 3211 H 297.7 -4.07927 -3.71887 0
M  V30 3212 H 298.177 -2.38329 -3.68912 0
M  V30 3213 H 298.783 -3.48787 -2.43367 0
M  V30 3214 N 297.098 0.621204 -1.44841 0
M  V30 3215 C 298.344 1.3826 -1.48365 0
M  V30 3216 C 298.677 1.93831 -0.119624 0
M  V30 3217 O 297.952 1.74251 0.864111 0
M  V30 3218 C 298.235 2.54058 -2.55199 0
M  V30 3219 C 298.088 2.03772 -4.00995 0
M  V30 3220 C 299.407 3.56225 -2.58442 0
M  V30 3221 H 296.526 0.501374 -0.540179 0
M  V30 3222 H 299.168 0.7015 -1.76576 0
M  V30 3223 H 297.318 3.12162 -2.31274 0
M  V30 3224 H 298.99 1.50423 -4.36086 0
M  V30 3225 H 297.233 1.34876 -4.12299 0
M  V30 3226 H 297.904 2.87185 -4.71411 0
M  V30 3227 H 300.38 3.07939 -2.79844 0
M  V30 3228 H 299.256 4.34756 -3.3508 0
M  V30 3229 H 299.517 4.10949 -1.63013 0
M  V30 3230 N 298.576 1.31904 0.862503 0
M  V30 3231 C 299.506 1.22782 1.98612 0
M  V30 3232 C 300.487 0.113362 1.69722 0
M  V30 3233 O 301.672 0.299218 1.91881 0
M  V30 3234 C 298.802 0.942058 3.34279 0
M  V30 3235 C 297.756 2.0169 3.77499 0
M  V30 3236 C 297.082 1.58369 5.10709 0
M  V30 3237 C 298.382 3.43096 3.93805 0
M  V30 3238 H 300.076 2.16788 2.06502 0
M  V30 3239 H 297.622 1.04366 0.992154 0
M  V30 3240 H 299.575 0.864818 4.1243 0
M  V30 3241 H 298.299 -0.0336603 3.26583 0
M  V30 3242 H 296.958 2.08416 3.01593 0
M  V30 3243 H 296.606 0.595628 4.99461 0
M  V30 3244 H 296.306 2.30279 5.40597 0
M  V30 3245 H 297.83 1.52067 5.91361 0
M  V30 3246 H 299.244 3.39003 4.62331 0
M  V30 3247 H 297.641 4.13288 4.35101 0
M  V30 3248 H 298.711 3.83334 2.96957 0
M  V30 3249 N 300.054 -1.07777 1.14986 0
M  V30 3250 C 301.017 -2.13041 0.845358 0
M  V30 3251 C 302.017 -1.60071 -0.152931 0
M  V30 3252 O 303.207 -1.74033 0.0761879 0
M  V30 3253 C 300.339 -3.39896 0.261383 0
M  V30 3254 H 301.532 -2.41485 1.77834 0
M  V30 3255 H 299.085 -1.23595 0.956757 0
M  V30 3256 H 299.82 -3.17091 -0.68 0
M  V30 3257 H 299.605 -3.79642 0.980514 0
M  V30 3258 H 301.095 -4.17548 0.0657687 0
M  V30 3259 N 301.532 -0.945985 -1.26051 0
M  V30 3260 C 302.78 -0.594941 -1.93145 0
M  V30 3261 C 303.101 0.86953 -1.7454 0
M  V30 3262 O 302.371 1.61838 -1.10387 0
M  V30 3263 H 300.951 -0.217044 -0.714773 0
M  V30 3264 H 303.613 -1.20235 -1.53393 0
M  V30 3265 H 302.709 -0.816835 -3.01221 0
M  V30 3266 N 303.011 1.40521 -0.713556 0
M  V30 3267 C 303.943 2.29191 -0.0203126 0
M  V30 3268 C 304.956 1.45723 0.725864 0
M  V30 3269 O 306.145 1.69033 0.573581 0
M  V30 3270 C 303.245 3.2395 0.995486 0
M  V30 3271 C 302.418 4.36262 0.315256 0
M  V30 3272 C 301.477 5.11474 1.23616 0
M  V30 3273 O 300.503 5.64606 0.721719 0
M  V30 3274 N 301.705 5.20638 2.56743 0
M  V30 3275 H 304.47 2.89327 -0.781652 0
M  V30 3276 H 302.031 1.51869 -0.561022 0
M  V30 3277 H 304.023 3.71137 1.61368 0
M  V30 3278 H 302.593 2.64995 1.6582 0
M  V30 3279 H 301.813 3.91228 -0.483106 0
M  V30 3280 H 303.101 5.08558 -0.157004 0
M  V30 3281 H 302.499 4.7895 3.01037 0
M  V30 3282 H 301.056 5.71339 3.13712 0
M  V30 3283 N 304.489 0.459591 1.5075 0
M  V30 3284 C 305.422 -0.386257 2.24907 0
M  V30 3285 C 306.4 -1.006 1.27744 0
M  V30 3286 O 307.584 -1.04416 1.56938 0
M  V30 3287 C 304.711 -1.54021 3.01654 0
M  V30 3288 C 303.757 -1.03898 4.13651 0
M  V30 3289 S 304.59 0.0370501 5.35487 0
M  V30 3290 C 305.746 -1.12105 6.15779 0
M  V30 3291 H 305.979 0.243272 2.96303 0
M  V30 3292 H 303.512 0.244339 1.52454 0
M  V30 3293 H 305.47 -2.20163 3.46466 0
M  V30 3294 H 304.131 -2.14121 2.29806 0
M  V30 3295 H 303.324 -1.90254 4.66711 0
M  V30 3296 H 302.926 -0.45545 3.71216 0
M  V30 3297 H 305.218 -2.03501 6.46215 0
M  V30 3298 H 306.161 -0.62995 7.05292 0
M  V30 3299 H 306.569 -1.36967 5.47631 0
M  V30 3300 N 305.967 -1.56429 0.191757 0
M  V30 3301 C 307.378 -1.83912 -0.321428 0
M  V30 3302 C 307.729 -1.11231 -1.61623 0
M  V30 3303 O 306.854 -0.37202 -2.13178 0
M  V30 3304 C 307.449 -3.33624 -0.589961 0
M  V30 3305 C 306.008 -3.6153 -1.04753 0
M  V30 3306 C 305.155 -2.7714 -0.0943327 0
M  V30 3307 H 308.106 -1.53161 0.415612 0
M  V30 3308 H 308.127 -3.52213 -1.43966 0
M  V30 3309 H 307.639 -3.86495 0.352588 0
M  V30 3310 H 305.74 -3.14089 -2.00447 0
M  V30 3311 H 305.853 -4.69737 -0.942549 0
M  V30 3312 H 304.217 -2.47638 -0.595589 0
M  V30 3313 H 305 -3.32799 0.842601 0
M  V30 3314 N 307.445 0.0818655 -1.57387 0
M  V30 3315 C 308.408 1.08265 -2.02018 0
M  V30 3316 C 309.408 1.32183 -0.915664 0
M  V30 3317 O 310.598 1.28073 -1.18081 0
M  V30 3318 C 307.73 2.42871 -2.39221 0
M  V30 3319 H 308.923 0.698204 -2.91659 0
M  V30 3320 H 306.476 0.327303 -1.52835 0
M  V30 3321 H 307.211 2.86167 -1.52575 0
M  V30 3322 H 306.996 2.26855 -3.19811 0
M  V30 3323 H 308.486 3.14826 -2.74362 0
M  V30 3324 N 308.923 1.53595 0.353017 0
M  V30 3325 C 310.2 1.61002 1.11075 0
M  V30 3326 C 310.58 0.425356 2.0677 0
M  V30 3327 O 309.928 -0.583267 2.2093 0
M  V30 3328 C 310.138 2.96631 1.83877 0
M  V30 3329 C 311.486 3.51653 2.37961 0
M  V30 3330 O 312.51 2.98743 1.93987 0
M  V30 3331 O 311.369 4.44177 3.18386 0
M  V30 3332 H 308.463 0.650825 0.510251 0
M  V30 3333 H 311.009 1.6594 0.35527 0
M  V30 3334 H 309.781 3.74293 1.14108 0
M  V30 3335 H 309.404 2.95242 2.66304 0
M  V30 3336 N 310.401 -0.613514 1.45168 0
M  V30 3337 C 311.631 -1.39743 1.52169 0
M  V30 3338 C 312.039 -1.88596 0.151086 0
M  V30 3339 O 311.382 -1.6251 -0.856521 0
M  V30 3340 C 311.444 -2.64035 2.43979 0
M  V30 3341 C 311.108 -2.36861 3.90827 0
M  V30 3342 C 312.105 -1.97591 4.80889 0
M  V30 3343 C 309.79 -2.49956 4.35692 0
M  V30 3344 C 311.784 -1.71768 6.1382 0
M  V30 3345 C 309.471 -2.23747 5.68665 0
M  V30 3346 C 310.469 -1.84714 6.57548 0
M  V30 3347 O 310.157 -1.58809 7.88058 0
M  V30 3348 H 309.889 -0.434382 0.517966 0
M  V30 3349 H 312.443 -0.75587 1.90986 0
M  V30 3350 H 310.673 -3.3089 2.00122 0
M  V30 3351 H 312.362 -3.26069 2.41731 0
M  V30 3352 H 313.128 -1.87015 4.47493 0
M  V30 3353 H 309.007 -2.79305 3.66756 0
M  V30 3354 H 312.551 -1.41227 6.83155 0
M  V30 3355 H 308.448 -2.33938 6.01617 0
M  V30 3356 H 309.216 -1.7291 8.00028 0
M  V30 3357 N 311.879 -1.3236 -0.855495 0
M  V30 3358 C 312.811 -1.17052 -1.97057 0
M  V30 3359 C 313.824 -0.10574 -1.62456 0
M  V30 3360 O 315.013 -0.354619 -1.74942 0
M  V30 3361 C 312.113 -0.769305 -3.30053 0
M  V30 3362 C 311.286 -1.9222 -3.929 0
M  V30 3363 C 310.345 -1.50466 -5.04228 0
M  V30 3364 O 309.371 -2.21655 -5.24269 0
M  V30 3365 N 310.573 -0.400209 -5.79119 0
M  V30 3366 H 313.338 -2.13103 -2.1073 0
M  V30 3367 H 310.899 -1.24885 -1.0303 0
M  V30 3368 H 312.891 -0.472407 -4.01933 0
M  V30 3369 H 311.461 0.100025 -3.1244 0
M  V30 3370 H 310.681 -2.38563 -3.13817 0
M  V30 3371 H 311.969 -2.69403 -4.31624 0
M  V30 3372 H 311.367 0.192319 -5.65373 0
M  V30 3373 H 309.924 -0.162912 -6.51596 0
M  V30 3374 N 313.357 1.07166 -1.15556 0
M  V30 3375 C 314.585 1.83514 -0.955519 0
M  V30 3376 C 315 1.82163 0.49621 0
M  V30 3377 O 314.357 1.23441 1.34419 0
M  V30 3378 C 314.408 3.30515 -1.46432 0
M  V30 3379 O 314.129 3.31937 -2.85918 0
M  V30 3380 C 315.63 4.23625 -1.30603 0
M  V30 3381 H 312.85 0.578926 -0.339244 0
M  V30 3382 H 315.394 1.35265 -1.53374 0
M  V30 3383 H 313.549 3.76106 -0.928584 0
M  V30 3384 H 313.963 4.23794 -3.09029 0
M  V30 3385 H 315.437 5.24831 -1.71047 0
M  V30 3386 H 315.914 4.38485 -0.250441 0
M  V30 3387 H 316.52 3.83871 -1.83094 0
M  V30 3388 N 314.835 0.952656 1.25548 0
M  V30 3389 C 316.084 0.602053 1.92505 0
M  V30 3390 C 316.397 -0.864663 1.75451 0
M  V30 3391 O 317.603 -1.32514 2.36965 0
M  V30 3392 C 316.059 1.02607 3.44963 0
M  V30 3393 C 315.667 2.51519 3.70732 0
M  V30 3394 C 317.411 0.747905 4.1786 0
M  V30 3395 C 315.318 2.87732 5.16686 0
M  V30 3396 H 314.248 0.22146 0.720744 0
M  V30 3397 H 316.899 1.15684 1.42441 0
M  V30 3398 H 315.281 0.399712 3.93978 0
M  V30 3399 H 316.455 3.19157 3.32378 0
M  V30 3400 H 314.77 2.76786 3.11092 0
M  V30 3401 H 317.367 0.994647 5.25367 0
M  V30 3402 H 317.71 -0.315629 4.15102 0
M  V30 3403 H 318.243 1.33452 3.74747 0
M  V30 3404 H 314.982 3.93095 5.24554 0
M  V30 3405 H 314.502 2.24765 5.56094 0
M  V30 3406 H 316.181 2.76817 5.84792 0
M  V30 3407 N 316.313 -1.40141 0.720998 0
M  V30 3408 C 317.276 -2.29058 0.0805834 0
M  V30 3409 C 318.276 -1.45632 -0.681758 0
M  V30 3410 O 319.466 -1.6648 -0.512856 0
M  V30 3411 C 316.598 -3.28925 -0.895593 0
M  V30 3412 H 317.791 -2.87191 0.863793 0
M  V30 3413 H 315.344 -1.48553 0.485975 0
M  V30 3414 H 316.079 -2.75822 -1.70566 0
M  V30 3415 H 315.864 -3.90519 -0.351766 0
M  V30 3416 H 317.354 -3.95494 -1.34069 0
M  V30 3417 N 317.792 -0.46758 -1.50504 0
M  V30 3418 C 319.017 0.0886943 -2.0721 0
M  V30 3419 C 319.442 1.33057 -1.32956 0
M  V30 3420 O 318.8 1.77354 -0.376197 0
M  V30 3421 C 318.848 0.359202 -3.58806 0
M  V30 3422 O 317.952 1.44034 -3.8643 0
M  V30 3423 H 317.293 -0.0114349 -0.663902 0
M  V30 3424 H 319.823 -0.657613 -1.93744 0
M  V30 3425 H 319.833 0.600742 -4.03553 0
M  V30 3426 H 318.508 -0.548311 -4.1227 0
M  V30 3427 H 317.085 1.18638 -3.53524 0
M  V30 3428 N 319.27 1.56325 -0.20005 0
M  V30 3429 C 320.233 2.18084 0.705132 0
M  V30 3430 C 321.233 1.13666 1.1374 0
M  V30 3431 O 322.423 1.39023 1.04968 0
M  V30 3432 C 319.555 2.78689 1.96329 0
M  V30 3433 H 320.748 2.99435 0.167023 0
M  V30 3434 H 318.301 1.56221 0.0495725 0
M  V30 3435 H 319.036 2.0115 2.5438 0
M  V30 3436 H 318.821 3.55133 1.66202 0
M  V30 3437 H 320.311 3.26096 2.60866 0
M  V30 3438 N 320.748 -0.0735177 1.57428 0
M  V30 3439 C 321.997 -0.771809 1.86349 0
M  V30 3440 C 322.31 -1.78828 0.792452 0
M  V30 3441 O 323.516 -2.53602 0.96945 0
M  V30 3442 C 321.972 -1.42358 3.30548 0
M  V30 3443 C 321.58 -0.445761 4.45777 0
M  V30 3444 C 323.324 -2.10434 3.6867 0
M  V30 3445 C 321.231 -1.10335 5.81016 0
M  V30 3446 H 320.161 -0.291999 0.695164 0
M  V30 3447 H 322.812 -0.0250749 1.83483 0
M  V30 3448 H 321.194 -2.21852 3.28021 0
M  V30 3449 H 322.368 0.319239 4.59693 0
M  V30 3450 H 320.683 0.130457 4.16196 0
M  V30 3451 H 323.28 -2.60405 4.67004 0
M  V30 3452 H 323.623 -2.90298 2.98383 0
M  V30 3453 H 324.156 -1.37773 3.7318 0
M  V30 3454 H 320.895 -0.345061 6.54591 0
M  V30 3455 H 320.415 -1.83925 5.70904 0
M  V30 3456 H 322.094 -1.62367 6.26295 0
M  V30 3457 N 322.226 -1.5378 -0.344866 0
M  V30 3458 C 323.475 -1.7018 -1.08267 0
M  V30 3459 C 323.788 -0.471 -1.89845 0
M  V30 3460 O 324.994 -0.515917 -2.66553 0
M  V30 3461 C 323.45 -3.00923 -1.97417 0
M  V30 3462 C 323.058 -4.31335 -1.21053 0
M  V30 3463 C 324.802 -3.26688 -2.71063 0
M  V30 3464 C 322.709 -5.53153 -2.09225 0
M  V30 3465 H 321.639 -0.634138 -0.407903 0
M  V30 3466 H 324.29 -1.8028 -0.342246 0
M  V30 3467 H 322.672 -2.84676 -2.75274 0
M  V30 3468 H 323.846 -4.58281 -0.481159 0
M  V30 3469 H 322.161 -4.12173 -0.591813 0
M  V30 3470 H 324.758 -4.1489 -3.37299 0
M  V30 3471 H 325.101 -2.43639 -3.37558 0
M  V30 3472 H 325.634 -3.43705 -2.0028 0
M  V30 3473 H 322.373 -6.38741 -1.47274 0
M  V30 3474 H 321.893 -5.30458 -2.79955 0
M  V30 3475 H 323.572 -5.88744 -2.68308 0
M  V30 3476 N 323.704 0.605807 -1.45491 0
M  V30 3477 C 324.929 1.39625 -1.53361 0
M  V30 3478 C 325.354 1.87351 -0.167645 0
M  V30 3479 O 324.712 1.60243 0.848051 0
M  V30 3480 C 324.76 2.57559 -2.5238 0
M  V30 3481 O 323.864 3.58248 -2.04285 0
M  V30 3482 H 323.205 0.416771 -0.516912 0
M  V30 3483 H 325.735 0.737103 -1.90861 0
M  V30 3484 H 325.745 3.0478 -2.71244 0
M  V30 3485 H 324.42 2.22171 -3.51586 0
M  V30 3486 H 322.997 3.17664 -1.95305 0
M  V30 3487 N 325.182 1.32811 0.848464 0
M  V30 3488 C 326.112 1.24882 1.97299 0
M  V30 3489 C 327.093 0.131357 1.69592 0
M  V30 3490 O 328.278 0.319553 1.91553 0
M  V30 3491 C 325.408 0.97746 3.33261 0
M  V30 3492 C 324.362 2.05682 3.75338 0
M  V30 3493 C 323.688 1.63777 5.09 0
M  V30 3494 C 324.988 3.47254 3.90144 0
M  V30 3495 H 326.682 2.18966 2.04191 0
M  V30 3496 H 324.228 1.05413 0.981029 0
M  V30 3497 H 326.181 0.908513 4.1149 0
M  V30 3498 H 324.905 0.000980011 3.266 0
M  V30 3499 H 323.564 2.11603 2.99366 0
M  V30 3500 H 323.212 0.648569 4.98801 0
M  V30 3501 H 322.912 2.36 5.38124 0
M  V30 3502 H 324.436 1.5833 5.89715 0
M  V30 3503 H 325.85 3.43888 4.58709 0
M  V30 3504 H 324.247 4.1788 4.30693 0
M  V30 3505 H 325.317 3.86462 2.92874 0
M  V30 3506 N 326.66 -1.06551 1.16123 0
M  V30 3507 C 327.623 -2.12132 0.867906 0
M  V30 3508 C 328.623 -1.60224 -0.135944 0
M  V30 3509 O 329.813 -1.73943 0.0946422 0
M  V30 3510 C 326.945 -3.396 0.297419 0
M  V30 3511 H 328.138 -2.39586 1.80385 0
M  V30 3512 H 325.691 -1.22574 0.969812 0
M  V30 3513 H 326.426 -3.17794 -0.64633 0
M  V30 3514 H 326.211 -3.78581 1.02073 0
M  V30 3515 H 327.701 -4.17455 0.110052 0
M  V30 3516 N 328.138 -0.959301 -1.25041 0
M  V30 3517 C 329.086 -0.474437 -2.2771 0
M  V30 3518 C 330.08 0.457697 -1.631 0
M  V30 3519 O 331.286 0.333912 -1.76876 0
M  V30 3520 H 327.661 -0.134936 -0.739795 0
M  V30 3521 H 329.632 -1.35251 -2.65988 0
M  V30 3522 C 328.381 0.227884 -3.46952 0
M  V30 3523 H 327.704 -0.480248 -3.96905 0
M  V30 3524 H 329.144 0.531091 -4.20661 0
M  V30 3525 C 327.603 1.452 -3.04004 0
M  V30 3526 O 328.133 2.54949 -3.10426 0
M  V30 3527 N 326.339 1.31502 -2.59144 0
M  V30 3528 H 325.886 0.422065 -2.54119 0
M  V30 3529 H 325.844 2.13521 -2.30773 0
M  V30 3530 N 329.616 1.39756 -0.72842 0
M  V30 3531 C 330.564 2.32485 -0.0731849 0
M  V30 3532 C 331.558 1.52717 0.733063 0
M  V30 3533 O 332.764 1.68428 0.634988 0
M  V30 3534 H 329.139 0.751984 -0.00486469 0
M  V30 3535 H 331.11 2.85382 -0.871761 0
M  V30 3536 C 329.859 3.37773 0.824908 0
M  V30 3537 H 329.182 3.99227 0.213915 0
M  V30 3538 H 330.622 4.05121 1.25111 0
M  V30 3539 C 329.081 2.74287 1.95622 0
M  V30 3540 O 329.611 2.61618 3.04826 0
M  V30 3541 N 327.817 2.32475 1.74367 0
M  V30 3542 H 327.364 2.4298 0.855494 0
M  V30 3543 H 327.322 1.90337 2.50238 0
M  V30 3544 N 331.094 0.475555 1.50254 0
M  V30 3545 C 332.505 0.0215174 1.86688 0
M  V30 3546 C 332.856 -1.38467 1.39001 0
M  V30 3547 O 331.981 -2.02732 0.756894 0
M  V30 3548 C 332.576 0.0322715 3.38785 0
M  V30 3549 C 331.135 -0.366314 3.74613 0
M  V30 3550 C 330.282 0.415832 2.74164 0
M  V30 3551 H 333.233 0.689612 1.42934 0
M  V30 3552 H 333.254 -0.76889 3.7265 0
M  V30 3553 H 332.766 1.05584 3.73462 0
M  V30 3554 H 330.867 -1.39406 3.45538 0
M  V30 3555 H 330.98 -0.064555 4.79057 0
M  V30 3556 H 329.344 -0.131048 2.54363 0
M  V30 3557 H 330.127 1.43899 3.11686 0
M  V30 3558 N 332.573 -1.56217 0.208337 0
M  V30 3559 C 333.521 -2.21053 -0.723769 0
M  V30 3560 C 334.515 -1.18578 -1.20978 0
M  V30 3561 O 335.721 -1.36691 -1.17114 0
M  V30 3562 H 332.096 -0.708595 -0.251788 0
M  V30 3563 H 334.067 -2.98006 -0.153365 0
M  V30 3564 C 332.816 -2.89417 -1.927 0
M  V30 3565 H 332.139 -3.68019 -1.56212 0
M  V30 3566 H 333.579 -3.38201 -2.55727 0
M  V30 3567 C 332.038 -1.91166 -2.77411 0
M  V30 3568 O 332.568 -1.42026 -3.75754 0
M  V30 3569 N 330.774 -1.59105 -2.43175 0
M  V30 3570 H 330.321 -1.99259 -1.63259 0
M  V30 3571 H 330.279 -0.936255 -3.00136 0
M  V30 3572 N 334.051 0.0651679 -1.57465 0
M  V30 3573 C 335.279 0.775808 -1.91804 0
M  V30 3574 C 335.694 1.70782 -0.804916 0
M  V30 3575 O 335.051 1.81153 0.221311 0
M  V30 3576 C 335.102 1.56381 -3.25925 0
M  V30 3577 O 334.823 0.669248 -4.32958 0
M  V30 3578 C 336.324 2.37485 -3.7432 0
M  V30 3579 H 333.544 0.2202 -0.63384 0
M  V30 3580 H 336.088 0.0334587 -2.04473 0
M  V30 3581 H 334.243 2.25837 -3.14764 0
M  V30 3582 H 334.657 1.21801 -5.10162 0
M  V30 3583 H 336.131 2.88223 -4.70778 0
M  V30 3584 H 336.608 3.17307 -3.03666 0
M  V30 3585 H 337.214 1.73173 -3.88447 0
M  V30 3586 N 335.529 1.53961 0.336706 0
M  V30 3587 C 336.775 1.7179 1.07777 0
M  V30 3588 C 337.108 0.483263 1.88091 0
M  V30 3589 O 336.383 -0.519747 1.87427 0
M  V30 3590 C 336.666 2.98558 2.01334 0
M  V30 3591 C 336.519 4.32245 1.24437 0
M  V30 3592 C 337.838 3.21023 3.01052 0
M  V30 3593 H 334.957 0.625089 0.390426 0
M  V30 3594 H 337.599 1.86641 0.35567 0
M  V30 3595 H 335.749 2.86028 2.62908 0
M  V30 3596 H 337.421 4.56637 0.654243 0
M  V30 3597 H 335.664 4.30344 0.546458 0
M  V30 3598 H 336.335 5.17137 1.93063 0
M  V30 3599 H 338.811 3.32929 2.49595 0
M  V30 3600 H 337.687 4.11104 3.6371 0
M  V30 3601 H 337.948 2.37637 3.72802 0
M  V30 3602 N 337.007 -0.598083 1.45811 0
M  V30 3603 C 337.937 -1.71873 1.58057 0
M  V30 3604 C 338.918 -1.64533 0.431615 0
M  V30 3605 O 340.103 -1.82787 0.65595 0
M  V30 3606 C 337.233 -3.10495 1.55597 0
M  V30 3607 C 336.187 -3.32654 2.69305 0
M  V30 3608 C 335.513 -4.71646 2.51902 0
M  V30 3609 C 336.813 -3.21981 4.11248 0
M  V30 3610 H 338.507 -1.61881 2.51863 0
M  V30 3611 H 336.053 -0.777372 1.21214 0
M  V30 3612 H 338.006 -3.88699 1.6276 0
M  V30 3613 H 336.73 -3.2135 0.583255 0
M  V30 3614 H 335.389 -2.56843 2.61586 0
M  V30 3615 H 335.037 -4.79246 1.52748 0
M  V30 3616 H 334.737 -4.87426 3.2816 0
M  V30 3617 H 336.261 -5.52038 2.60933 0
M  V30 3618 H 337.675 -3.90049 4.20161 0
M  V30 3619 H 336.072 -3.49289 4.87972 0
M  V30 3620 H 337.142 -2.1928 4.32486 0
M  V30 3621 N 338.485 -1.33259 -0.841409 0
M  V30 3622 C 339.713 -1.27605 -1.62864 0
M  V30 3623 C 340.128 0.153507 -1.88175 0
M  V30 3624 O 339.485 1.09485 -1.46011 0
M  V30 3625 C 339.536 -2.04596 -2.98031 0
M  V30 3626 O 339.257 -3.41975 -2.73834 0
M  V30 3627 C 340.758 -2.06122 -3.92465 0
M  V30 3628 H 337.978 -0.439718 -0.506842 0
M  V30 3629 H 340.522 -1.75591 -1.04824 0
M  V30 3630 H 338.677 -1.60299 -3.5268 0
M  V30 3631 H 339.091 -3.81549 -3.59889 0
M  V30 3632 H 340.565 -2.64451 -4.84531 0
M  V30 3633 H 341.042 -1.05083 -4.26444 0
M  V30 3634 H 341.648 -2.50427 -3.43753 0
M  V30 3635 N 339.963 1.05934 -1.16686 0
M  V30 3636 C 341.21 1.788 -0.950622 0
M  V30 3637 C 341.538 1.87384 0.521305 0
M  V30 3638 O 340.793 1.36438 1.40297 0
M  V30 3639 C 341.092 3.23105 -1.52767 0
M  V30 3640 C 340.758 3.34594 -3.02254 0
M  V30 3641 C 339.42 3.37437 -3.43059 0
M  V30 3642 C 341.772 3.36219 -3.98254 0
M  V30 3643 C 339.1 3.39525 -4.78477 0
M  V30 3644 C 341.452 3.39845 -5.33562 0
M  V30 3645 C 340.116 3.40971 -5.73842 0
M  V30 3646 H 339.386 0.654275 -0.347857 0
M  V30 3647 H 342.033 1.24555 -1.45459 0
M  V30 3648 H 340.338 3.80227 -0.94524 0
M  V30 3649 H 342.035 3.7809 -1.336 0
M  V30 3650 H 338.625 3.3309 -2.6972 0
M  V30 3651 H 342.809 3.33231 -3.67792 0
M  V30 3652 H 338.065 3.38703 -5.09009 0
M  V30 3653 H 342.239 3.4005 -6.07733 0
M  V30 3654 H 339.866 3.42342 -6.78753 0
M  V30 3655 N 341.441 0.965919 1.2453 0
M  V30 3656 C 342.404 0.499547 2.2369 0
M  V30 3657 C 343.404 -0.40294 1.5567 0
M  V30 3658 O 344.594 -0.19865 1.73064 0
M  V30 3659 C 341.726 -0.276792 3.39774 0
M  V30 3660 H 342.919 1.37613 2.66463 0
M  V30 3661 H 340.472 0.750324 1.37112 0
M  V30 3662 H 341.207 -1.17055 3.02438 0
M  V30 3663 H 340.992 0.370826 3.90343 0
M  V30 3664 H 342.482 -0.592175 4.1338 0
M  V30 3665 N 342.919 -1.39368 0.735821 0
M  V30 3666 C 344.335 -1.54204 0.411492 0
M  V30 3667 C 344.535 -1.70268 -1.07755 0
M  V30 3668 O 343.591 -1.70364 -1.86366 0
M  V30 3669 C 344.904 -2.75925 1.19523 0
M  V30 3670 C 346.452 -2.89761 1.18354 0
M  V30 3671 C 346.927 -4.14421 1.94986 0
M  V30 3672 N 348.418 -4.21462 1.92156 0
M  V30 3673 C 349.153 -5.16871 2.48258 0
M  V30 3674 N 348.649 -6.18063 3.13001 0
M  V30 3675 N 350.442 -5.09093 2.38287 0
M  V30 3676 H 342.593 -1.27189 1.70108 0
M  V30 3677 H 344.856 -0.616517 0.720147 0
M  V30 3678 H 344.562 -2.70401 2.24892 0
M  V30 3679 H 344.436 -3.68614 0.800222 0
M  V30 3680 H 346.823 -2.94777 0.137975 0
M  V30 3681 H 346.904 -1.98133 1.61793 0
M  V30 3682 H 346.548 -4.10166 2.99543 0
M  V30 3683 H 346.478 -5.05095 1.48953 0
M  V30 3684 H 348.969 -3.48979 1.44991 0
M  V30 3685 H 349.282 -6.87326 3.53275 0
M  V30 3686 H 347.627 -6.18448 3.17091 0
M  V30 3687 H 350.818 -4.28973 1.8735 0
M  V30 3688 H 350.991 -5.83272 2.82308 0
M  V30 3689 N 344.397 -0.483516 -1.5 0
M  V30 3690 C 345.625 0.0644831 -2.06799 0
M  V30 3691 C 346.04 1.32399 -1.34596 0
M  V30 3692 O 345.397 1.77626 -0.418946 0
M  V30 3693 C 345.448 0.339927 -3.59898 0
M  V30 3694 O 345.169 -0.869635 -4.29382 0
M  V30 3695 C 346.67 0.933515 -4.33359 0
M  V30 3696 H 343.89 -0.0126333 -0.670881 0
M  V30 3697 H 346.434 -0.675864 -1.93009 0
M  V30 3698 H 344.589 1.03022 -3.7345 0
M  V30 3699 H 345.003 -0.62179 -5.20801 0
M  V30 3700 H 346.477 1.07593 -5.41413 0
M  V30 3701 H 346.954 1.92685 -3.94676 0
M  V30 3702 H 347.56 0.281221 -4.24369 0
M  V30 3703 N 345.875 1.56104 -0.216619 0
M  V30 3704 C 347.103 2.02563 0.421413 0
M  V30 3705 C 347.518 1.0965 1.53695 0
M  V30 3706 O 346.875 0.10521 1.82196 0
M  V30 3707 C 346.926 3.48584 0.957665 0
M  V30 3708 O 346.647 4.37953 -0.113389 0
M  V30 3709 C 348.148 4.10664 1.66943 0
M  V30 3710 H 345.368 0.662944 0.103665 0
M  V30 3711 H 347.912 2.01793 -0.331629 0
M  V30 3712 H 346.067 3.49985 1.661 0
M  V30 3713 H 346.481 5.23704 0.288932 0
M  V30 3714 H 347.955 5.14622 1.99671 0
M  V30 3715 H 348.432 3.55373 2.58083 0
M  V30 3716 H 349.038 4.13098 1.01142 0
M  V30 3717 N 347.353 -0.0568162 1.57498 0
M  V30 3718 C 348.601 -0.751617 1.87604 0
M  V30 3719 C 348.922 -1.77351 0.81066 0
M  V30 3720 O 348.192 -1.95254 -0.159018 0
M  V30 3721 H 346.772 -0.280583 0.692302 0
M  V30 3722 H 349.434 -0.0293483 1.94878 0
M  V30 3723 H 348.53 -1.25852 2.856 0
M  V30 3724 N 348.832 -1.54138 -0.328536 0
M  V30 3725 C 349.795 -1.82462 -1.38709 0
M  V30 3726 C 350.795 -0.696229 -1.44946 0
M  V30 3727 O 351.985 -0.964535 -1.4506 0
M  V30 3728 C 349.117 -1.98018 -2.77492 0
M  V30 3729 H 350.31 -2.77037 -1.14851 0
M  V30 3730 H 347.863 -1.45779 -0.563751 0
M  V30 3731 H 348.598 -1.05637 -3.06613 0
M  V30 3732 H 348.383 -2.80124 -2.74359 0
M  V30 3733 H 349.873 -2.21396 -3.54081 0
M  V30 3734 N 350.31 0.590341 -1.46126 0
M  V30 3735 C 351.538 1.37504 -1.54597 0
M  V30 3736 C 351.953 1.87897 -0.184447 0
M  V30 3737 O 351.31 1.63192 0.816984 0
M  V30 3738 C 351.361 2.56779 -2.54454 0
M  V30 3739 O 351.082 2.08476 -3.85317 0
M  V30 3740 C 352.583 3.49427 -2.72792 0
M  V30 3741 H 349.803 0.420325 -0.523037 0
M  V30 3742 H 352.347 0.718383 -1.91467 0
M  V30 3743 H 350.502 3.1845 -2.20609 0
M  V30 3744 H 350.916 2.86097 -4.396 0
M  V30 3745 H 352.39 4.29619 -3.466 0
M  V30 3746 H 352.867 4.00876 -1.79429 0
M  V30 3747 H 353.473 2.93598 -3.07702 0
M  V30 3748 N 351.788 1.33704 0.83433 0
M  V30 3749 C 353.065 1.16011 1.57483 0
M  V30 3750 C 353.445 -0.27176 2.09343 0
M  V30 3751 O 352.793 -1.27146 1.89858 0
M  V30 3752 C 353.003 2.20507 2.70514 0
M  V30 3753 C 354.351 2.54898 3.39577 0
M  V30 3754 O 355.375 2.19209 2.80759 0
M  V30 3755 O 354.234 3.16158 4.45765 0
M  V30 3756 H 351.328 0.448992 0.694503 0
M  V30 3757 H 353.874 1.453 0.876691 0
M  V30 3758 H 352.646 3.16667 2.29865 0
M  V30 3759 H 352.269 1.92329 3.47987 0
M  V30 3760 N 353.266 -1.05314 1.17247 0
M  V30 3761 C 354.513 -1.78293 0.960091 0
M  V30 3762 C 354.841 -1.87658 -0.51136 0
M  V30 3763 O 354.096 -1.3718 -1.39571 0
M  V30 3764 C 354.395 -3.2229 1.54479 0
M  V30 3765 C 354.061 -3.32987 3.04024 0
M  V30 3766 C 352.723 -3.35613 3.44844 0
M  V30 3767 C 355.075 -3.34102 4.00031 0
M  V30 3768 C 352.403 -3.36982 4.8027 0
M  V30 3769 C 354.755 -3.3701 5.35357 0
M  V30 3770 C 353.419 -3.37923 5.75642 0
M  V30 3771 H 352.689 -0.652422 0.351322 0
M  V30 3772 H 355.336 -1.23782 1.46117 0
M  V30 3773 H 353.641 -3.7972 0.965391 0
M  V30 3774 H 355.338 -3.77376 1.35603 0
M  V30 3775 H 351.928 -3.31655 2.71483 0
M  V30 3776 H 356.112 -3.31276 3.69554 0
M  V30 3777 H 351.368 -3.35999 5.10798 0
M  V30 3778 H 355.542 -3.36822 6.09528 0
M  V30 3779 H 353.169 -3.38738 6.80559 0
M  V30 3780 N 354.744 -0.972509 -1.24016 0
M  V30 3781 C 355.972 -0.654803 -1.96265 0
M  V30 3782 C 356.387 0.776708 -1.72083 0
M  V30 3783 O 355.744 1.52171 -1.00748 0
M  V30 3784 C 355.795 -0.92592 -3.49441 0
M  V30 3785 O 355.516 -2.30116 -3.72798 0
M  V30 3786 C 357.017 -0.623068 -4.38899 0
M  V30 3787 H 354.237 -0.243907 -0.6251 0
M  V30 3788 H 356.781 -1.30175 -1.57717 0
M  V30 3789 H 354.936 -0.325108 -3.86033 0
M  V30 3790 H 355.35 -2.38483 -4.67147 0
M  V30 3791 H 356.824 -0.863189 -5.45209 0
M  V30 3792 H 357.301 0.442754 -4.36963 0
M  V30 3793 H 357.907 -1.204 -4.07902 0
M  V30 3794 N 356.222 1.38976 -0.743202 0
M  V30 3795 C 357.638 1.53984 -0.419664 0
M  V30 3796 C 357.838 1.70837 1.0685 0
M  V30 3797 O 356.894 1.7135 1.8546 0
M  V30 3798 C 358.207 2.75287 -1.20985 0
M  V30 3799 C 359.755 2.89129 -1.19889 0
M  V30 3800 C 360.23 4.13381 -1.97181 0
M  V30 3801 N 361.721 4.20437 -1.94389 0
M  V30 3802 C 362.456 5.15547 -2.50996 0
M  V30 3803 N 361.952 6.16395 -3.16274 0
M  V30 3804 N 363.745 5.07822 -2.40984 0
M  V30 3805 H 355.896 1.26285 -1.7078 0
M  V30 3806 H 358.159 0.612689 -0.723406 0
M  V30 3807 H 357.865 2.69204 -2.26323 0
M  V30 3808 H 357.739 3.68184 -0.819759 0
M  V30 3809 H 360.126 2.947 -0.153606 0
M  V30 3810 H 360.207 1.97272 -1.62841 0
M  V30 3811 H 359.851 4.08572 -3.01714 0
M  V30 3812 H 359.781 5.04298 -1.51629 0
M  V30 3813 H 362.272 3.48205 -1.46839 0
M  V30 3814 H 362.585 6.85443 -3.56915 0
M  V30 3815 H 360.93 6.16758 -3.20367 0
M  V30 3816 H 364.121 4.27973 -1.89622 0
M  V30 3817 H 364.294 5.81767 -2.85397 0
M  V30 3818 N 357.7 0.491464 1.49741 0
M  V30 3819 C 358.632 -0.328609 2.26832 0
M  V30 3820 C 359.645 -0.939113 1.32983 0
M  V30 3821 O 360.834 -0.824067 1.58339 0
M  V30 3822 C 357.934 -1.47675 3.05033 0
M  V30 3823 C 357.107 -0.975305 4.26388 0
M  V30 3824 C 356.166 -1.99991 4.86714 0
M  V30 3825 O 355.192 -1.57229 5.47054 0
M  V30 3826 N 356.394 -3.32962 4.75517 0
M  V30 3827 H 359.159 0.332377 2.97851 0
M  V30 3828 H 356.72 0.323441 1.58636 0
M  V30 3829 H 358.712 -2.15954 3.42266 0
M  V30 3830 H 357.282 -2.04206 2.36683 0
M  V30 3831 H 356.502 -0.117723 3.94024 0
M  V30 3832 H 357.79 -0.618531 5.05026 0
M  V30 3833 H 357.188 -3.70399 4.27576 0
M  V30 3834 H 355.745 -3.96982 5.16961 0
M  V30 3835 N 359.178 -1.55987 0.224894 0
M  V30 3836 C 360.111 -2.16413 -0.723929 0
M  V30 3837 C 361.089 -1.10952 -1.18863 0
M  V30 3838 O 362.273 -1.39225 -1.27077 0
M  V30 3839 C 359.4 -2.74711 -1.98121 0
M  V30 3840 C 358.446 -3.9303 -1.6562 0
M  V30 3841 S 359.279 -5.29817 -0.778058 0
M  V30 3842 C 360.435 -5.91555 -2.04483 0
M  V30 3843 H 360.668 -2.96555 -0.210347 0
M  V30 3844 H 358.201 -1.54397 0.00955457 0
M  V30 3845 H 360.159 -3.08938 -2.70311 0
M  V30 3846 H 358.82 -1.94555 -2.46591 0
M  V30 3847 H 358.013 -4.32334 -2.59043 0
M  V30 3848 H 357.615 -3.59966 -1.01491 0
M  V30 3849 H 359.907 -6.07732 -2.99446 0
M  V30 3850 H 360.85 -6.87498 -1.69563 0
M  V30 3851 H 361.258 -5.20419 -2.18688 0
M  V30 3852 N 360.656 0.0484629 -1.57525 0
M  V30 3853 C 361.619 1.03956 -2.04269 0
M  V30 3854 C 362.619 1.30211 -0.943496 0
M  V30 3855 O 363.809 1.25539 -1.20771 0
M  V30 3856 C 360.941 2.37742 -2.44319 0
M  V30 3857 H 362.134 0.636182 -2.93075 0
M  V30 3858 H 359.687 0.294811 -1.53494 0
M  V30 3859 H 360.422 2.82866 -1.5861 0
M  V30 3860 H 360.207 2.20021 -3.24551 0
M  V30 3861 H 361.697 3.08936 -2.80978 0
M  V30 3862 N 362.134 1.5431 0.320358 0
M  V30 3863 C 363.097 1.83195 1.3774 0
M  V30 3864 C 364.097 0.703906 1.44575 0
M  V30 3865 O 365.287 0.972214 1.44546 0
M  V30 3866 C 362.419 1.99487 2.76438 0
M  V30 3867 H 363.612 2.77642 1.1338 0
M  V30 3868 H 361.165 1.46076 0.556012 0
M  V30 3869 H 361.9 1.07262 3.06048 0
M  V30 3870 H 361.685 2.81575 2.7287 0
M  V30 3871 H 363.175 2.23271 3.52902 0
M  V30 3872 N 363.613 -0.582584 1.46437 0
M  V30 3873 C 364.859 -1.34278 1.51978 0
M  V30 3874 C 365.192 -1.93446 0.170973 0
M  V30 3875 O 364.467 -1.76481 -0.817608 0
M  V30 3876 C 364.75 -2.47203 2.61845 0
M  V30 3877 C 364.603 -1.93069 4.06257 0
M  V30 3878 C 365.922 -3.49247 2.67795 0
M  V30 3879 H 363.041 -0.486876 0.553282 0
M  V30 3880 H 365.683 -0.654437 1.78374 0
M  V30 3881 H 363.833 -3.0592 2.39469 0
M  V30 3882 H 365.505 -1.38808 4.3992 0
M  V30 3883 H 363.748 -1.23898 4.1573 0
M  V30 3884 H 364.419 -2.74586 4.7886 0
M  V30 3885 H 366.895 -3.00411 2.8791 0
M  V30 3886 H 365.771 -4.25719 3.46489 0
M  V30 3887 H 366.032 -4.06482 1.73852 0
M  V30 3888 N 365.091 -1.34144 -0.827227 0
M  V30 3889 C 366.054 -1.25264 -1.91942 0
M  V30 3890 C 367.054 -0.168866 -1.59911 0
M  V30 3891 O 368.244 -0.421198 -1.69031 0
M  V30 3892 C 365.376 -0.932952 -3.27885 0
M  V30 3893 H 366.569 -2.22357 -2.0124 0
M  V30 3894 H 364.122 -1.1837 -1.0207 0
M  V30 3895 H 364.857 0.0349917 -3.24281 0
M  V30 3896 H 364.642 -1.71682 -3.52516 0
M  V30 3897 H 366.132 -0.895874 -4.07877 0
M  V30 3898 N 366.569 1.04691 -1.17803 0
M  V30 3899 C 367.816 1.77782 -0.969532 0
M  V30 3900 C 368.144 1.87926 0.501401 0
M  V30 3901 O 367.399 1.37918 1.38842 0
M  V30 3902 C 367.698 3.21467 -1.56186 0
M  V30 3903 C 367.364 3.3137 -3.05786 0
M  V30 3904 C 366.026 3.3378 -3.46619 0
M  V30 3905 C 368.378 3.31976 -4.01797 0
M  V30 3906 C 365.706 3.34431 -4.82051 0
M  V30 3907 C 368.058 3.34167 -5.37136 0
M  V30 3908 C 366.722 3.34866 -5.77426 0
M  V30 3909 H 365.992 0.650549 -0.354777 0
M  V30 3910 H 368.639 1.23006 -1.46772 0
M  V30 3911 H 366.944 3.79203 -0.985515 0
M  V30 3912 H 368.641 3.76652 -1.37602 0
M  V30 3913 H 365.231 3.3021 -2.73238 0
M  V30 3914 H 369.415 3.29311 -3.71306 0
M  V30 3915 H 364.671 3.33285 -5.12573 0
M  V30 3916 H 368.845 3.33585 -6.11305 0
M  V30 3917 H 366.472 3.35124 -6.82346 0
M  V30 3918 N 368.047 0.979072 1.23499 0
M  V30 3919 C 369.01 0.523244 2.23147 0
M  V30 3920 C 370.01 -0.386406 1.56088 0
M  V30 3921 O 371.2 -0.180283 1.73265 0
M  V30 3922 C 368.332 -0.240739 3.40049 0
M  V30 3923 H 369.525 1.40432 2.64989 0
M  V30 3924 H 367.078 0.764824 1.36309 0
M  V30 3925 H 367.813 -1.13841 3.03662 0
M  V30 3926 H 367.598 0.412207 3.89927 0
M  V30 3927 H 369.088 -0.548297 4.13985 0
M  V30 3928 N 369.525 -1.3858 0.750561 0
M  V30 3929 C 370.75 -2.04997 0.314812 0
M  V30 3930 C 371.175 -1.56235 -1.04749 0
M  V30 3931 O 370.533 -0.712981 -1.66692 0
M  V30 3932 C 370.581 -3.58961 0.343415 0
M  V30 3933 O 369.685 -4.07025 -0.663628 0
M  V30 3934 H 369.026 -0.649081 0.139962 0
M  V30 3935 H 371.556 -1.77313 1.02084 0
M  V30 3936 H 371.566 -4.07542 0.193233 0
M  V30 3937 H 370.241 -3.93811 1.33738 0
M  V30 3938 H 368.818 -3.6982 -0.478307 0
M  V30 3939 N 371.003 -0.499398 -1.49478 0
M  V30 3940 C 372.249 0.0457576 -2.02748 0
M  V30 3941 C 372.582 1.36793 -1.37846 0
M  V30 3942 O 371.857 1.87596 -0.513601 0
M  V30 3943 C 372.14 0.199986 -3.59544 0
M  V30 3944 C 371.993 -1.1452 -4.34977 0
M  V30 3945 C 373.312 0.94137 -4.29914 0
M  V30 3946 H 370.431 0.0151552 -0.736844 0
M  V30 3947 H 373.073 -0.650498 -1.78518 0
M  V30 3948 H 371.223 0.793007 -3.8032 0
M  V30 3949 H 372.895 -1.77697 -4.25701 0
M  V30 3950 H 371.138 -1.73488 -3.97598 0
M  V30 3951 H 371.809 -0.990607 -5.43039 0
M  V30 3952 H 374.285 0.43844 -4.13784 0
M  V30 3953 H 373.161 1.01812 -5.39375 0
M  V30 3954 H 373.422 1.98471 -3.95046 0
M  V30 3955 N 372.481 1.55866 -0.233164 0
M  V30 3956 C 373.444 2.1953 0.658715 0
M  V30 3957 C 374.444 1.16053 1.11303 0
M  V30 3958 O 375.634 1.41218 1.01996 0
M  V30 3959 C 372.766 2.82791 1.90373 0
M  V30 3960 H 373.959 2.99721 0.10347 0
M  V30 3961 H 371.512 1.56291 0.0164245 0
M  V30 3962 H 372.247 2.06501 2.50056 0
M  V30 3963 H 372.032 3.58578 1.58632 0
M  V30 3964 H 373.522 3.31556 2.53891 0
M  V30 3965 N 373.959 -0.0401083 1.57549 0
M  V30 3966 C 375.375 -0.395556 1.54621 0
M  V30 3967 C 375.575 -1.77281 0.957799 0
M  V30 3968 O 374.631 -2.45888 0.574031 0
M  V30 3969 C 375.944 -0.307535 2.99123 0
M  V30 3970 C 377.492 -0.385425 3.10618 0
M  V30 3971 C 377.967 -0.326973 4.56831 0
M  V30 3972 N 379.458 -0.386102 4.61588 0
M  V30 3973 C 380.193 -0.363591 5.72246 0
M  V30 3974 N 379.689 -0.29402 6.92176 0
M  V30 3975 N 381.482 -0.412503 5.60584 0
M  V30 3976 H 373.633 0.861325 1.94152 0
M  V30 3977 H 375.896 0.326445 0.890021 0
M  V30 3978 H 375.602 0.638461 3.45856 0
M  V30 3979 H 375.476 -1.10552 3.60636 0
M  V30 3980 H 377.863 -1.32185 2.63839 0
M  V30 3981 H 377.944 0.44171 2.51957 0
M  V30 3982 H 377.588 0.605738 5.04275 0
M  V30 3983 H 377.518 -1.17207 5.13391 0
M  V30 3984 H 380.009 -0.442832 3.75296 0
M  V30 3985 H 380.322 -0.28164 7.72287 0
M  V30 3986 H 378.667 -0.260232 6.94513 0
M  V30 3987 H 381.858 -0.464769 4.65787 0
M  V30 3988 H 382.031 -0.391492 6.46816 0
M  V30 3989 N 375.437 -1.54477 -0.31217 0
M  V30 3990 C 376.369 -1.81011 -1.40598 0
M  V30 3991 C 377.382 -0.692546 -1.47335 0
M  V30 3992 O 378.571 -0.969847 -1.49854 0
M  V30 3993 C 375.671 -1.92307 -2.79054 0
M  V30 3994 C 374.844 -3.22594 -2.95384 0
M  V30 3995 C 373.903 -3.24448 -4.1427 0
M  V30 3996 O 372.929 -3.98035 -4.06887 0
M  V30 3997 N 374.131 -2.49042 -5.24365 0
M  V30 3998 H 376.896 -2.75408 -1.18196 0
M  V30 3999 H 374.457 -1.53914 -0.502202 0
M  V30 4000 H 376.449 -1.90962 -3.56813 0
M  V30 4001 H 375.019 -1.04955 -2.94454 0
M  V30 4002 H 374.239 -3.36806 -2.04831 0
M  V30 4003 H 375.527 -4.08593 -3.03198 0
M  V30 4004 H 374.925 -1.88867 -5.33241 0
M  V30 4005 H 373.482 -2.53463 -6.005 0
M  V30 4006 N 376.915 0.57481 -1.46744 0
M  V30 4007 C 378.192 1.3352 -1.4294 0
M  V30 4008 C 378.572 2.10775 -0.117009 0
M  V30 4009 O 377.92 2.09966 0.901474 0
M  V30 4010 C 378.13 2.25456 -2.66403 0
M  V30 4011 C 379.478 2.87035 -3.12883 0
M  V30 4012 O 380.502 2.35766 -2.67007 0
M  V30 4013 O 379.361 3.80179 -3.92589 0
M  V30 4014 H 376.455 0.600318 -0.568812 0
M  V30 4015 H 379.001 0.595171 -1.58921 0
M  V30 4016 H 377.773 1.67851 -3.53471 0
M  V30 4017 H 377.396 3.06785 -2.52921 0
M  V30 4018 N 378.394 1.34581 0.820102 0
M  V30 4019 C 379.357 1.2628 1.91275 0
M  V30 4020 C 380.357 0.177344 1.59819 0
M  V30 4021 O 381.547 0.430156 1.68806 0
M  V30 4022 C 378.679 0.950327 3.27386 0
M  V30 4023 H 379.872 2.23421 2.00057 0
M  V30 4024 H 377.425 1.1891 1.0144 0
M  V30 4025 H 378.16 -0.0177938 3.24295 0
M  V30 4026 H 377.945 1.73549 3.51601 0
M  V30 4027 H 379.435 0.917492 4.07396 0
M  V30 4028 N 379.872 -1.04064 1.18357 0
M  V30 4029 C 380.782 -2.15569 0.925596 0
M  V30 4030 C 381.798 -1.7365 -0.110295 0
M  V30 4031 O 382.974 -2.01273 0.0716218 0
M  V30 4032 C 380.039 -3.43704 0.454836 0
M  V30 4033 C 379.1 -4.00004 1.55869 0
M  V30 4034 C 378.333 -5.22023 1.1103 0
M  V30 4035 O 378.556 -5.70392 -0.0309756 0
M  V30 4036 O 377.49 -5.70856 1.90805 0
M  V30 4037 H 381.316 -2.40187 1.8586 0
M  V30 4038 H 378.901 -1.1402 0.965394 0
M  V30 4039 H 380.783 -4.20923 0.200382 0
M  V30 4040 H 379.458 -3.20559 -0.449876 0
M  V30 4041 H 378.365 -3.24172 1.86716 0
M  V30 4042 H 379.698 -4.2749 2.43953 0
M  V30 4043 N 381.35 -0.985608 -1.22978 0
M  V30 4044 C 382.298 -0.522631 -2.26652 0
M  V30 4045 C 383.292 0.422998 -1.64034 0
M  V30 4046 O 384.498 0.296319 -1.77544 0
M  V30 4047 H 380.873 -0.150597 -0.736766 0
M  V30 4048 H 382.844 -1.40863 -2.63059 0
M  V30 4049 C 381.593 0.154238 -3.47358 0
M  V30 4050 H 380.916 -0.564329 -3.95797 0
M  V30 4051 H 382.356 0.441744 -4.21693 0
M  V30 4052 C 380.815 1.38719 -3.07016 0
M  V30 4053 O 381.345 2.48307 -3.15764 0
M  V30 4054 N 379.551 1.25975 -2.61875 0
M  V30 4055 H 379.098 0.368068 -2.54957 0
M  V30 4056 H 379.056 2.08578 -2.3525 0
M  V30 4057 N 382.828 1.3818 -0.7579 0
M  V30 4058 C 383.791 2.28764 -0.141286 0
M  V30 4059 C 384.791 1.47388 0.642907 0
M  V30 4060 O 385.981 1.67781 0.468536 0
M  V30 4061 C 383.113 3.31184 0.808069 0
M  V30 4062 H 384.306 2.848 -0.939633 0
M  V30 4063 H 381.859 1.47212 -0.525191 0
M  V30 4064 H 382.594 2.80247 1.63193 0
M  V30 4065 H 382.379 3.91314 0.248104 0
M  V30 4066 H 383.869 3.98909 1.23536 0
M  V30 4067 N 384.306 0.507319 1.49211 0
M  V30 4068 C 385.722 0.163682 1.58758 0
M  V30 4069 C 385.922 -1.33208 1.51188 0
M  V30 4070 O 384.978 -2.10855 1.38911 0
M  V30 4071 C 386.291 0.746095 2.91297 0
M  V30 4072 C 387.839 0.712773 3.04776 0
M  V30 4073 C 388.314 1.27336 4.39943 0
M  V30 4074 N 389.805 1.23433 4.46451 0
M  V30 4075 C 390.54 1.63821 5.495 0
M  V30 4076 N 390.036 2.11832 6.5962 0
M  V30 4077 N 391.829 1.55198 5.4025 0
M  V30 4078 H 383.98 1.47972 1.52375 0
M  V30 4079 H 386.243 0.614147 0.722168 0
M  V30 4080 H 385.949 1.79534 3.02424 0
M  V30 4081 H 385.823 0.210137 3.76614 0
M  V30 4082 H 388.21 -0.327656 2.93275 0
M  V30 4083 H 388.291 1.28595 2.21127 0
M  V30 4084 H 387.935 2.3126 4.52196 0
M  V30 4085 H 387.865 0.676066 5.22242 0
M  V30 4086 H 390.356 0.882627 3.67448 0
M  V30 4087 H 390.669 2.40703 7.34358 0
M  V30 4088 H 389.014 2.1581 6.60644 0
M  V30 4089 H 392.205 1.17505 4.53112 0
M  V30 4090 H 392.378 1.86997 6.20432 0
M  V30 4091 N 385.784 -1.5574 0.241426 0
M  V30 4092 C 386.714 -2.24133 -0.654722 0
M  V30 4093 C 387.695 -1.21974 -1.1856 0
M  V30 4094 O 388.88 -1.50612 -1.22595 0
M  V30 4095 C 386.01 -2.93659 -1.85423 0
M  V30 4096 C 384.964 -4.0246 -1.45636 0
M  V30 4097 C 384.29 -4.59383 -2.73626 0
M  V30 4098 C 385.59 -5.18468 -0.631506 0
M  V30 4099 H 387.284 -2.99281 -0.0844353 0
M  V30 4100 H 384.83 -1.43947 -0.0391707 0
M  V30 4101 H 386.783 -3.40203 -2.48676 0
M  V30 4102 H 385.507 -2.15991 -2.44981 0
M  V30 4103 H 384.166 -3.56676 -0.847202 0
M  V30 4104 H 383.814 -3.78422 -3.3137 0
M  V30 4105 H 383.514 -5.32826 -2.4773 0
M  V30 4106 H 385.038 -5.08658 -3.37786 0
M  V30 4107 H 386.452 -5.61272 -1.1682 0
M  V30 4108 H 384.849 -5.98266 -0.468831 0
M  V30 4109 H 385.919 -4.8358 0.357506 0
M  V30 4110 N 387.262 0.0317525 -1.57568 0
M  V30 4111 C 388.195 1.06621 -2.0176 0
M  V30 4112 C 389.173 1.35323 -0.901462 0
M  V30 4113 O 390.357 1.48025 -1.16708 0
M  V30 4114 C 387.484 2.40155 -2.38837 0
M  V30 4115 C 386.53 2.27327 -3.60867 0
M  V30 4116 S 387.363 1.62925 -5.10113 0
M  V30 4117 C 388.519 2.97955 -5.5043 0
M  V30 4118 H 388.752 0.689781 -2.89187 0
M  V30 4119 H 386.285 0.24164 -1.52497 0
M  V30 4120 H 388.243 3.1695 -2.6087 0
M  V30 4121 H 386.904 2.74946 -1.51867 0
M  V30 4122 H 386.097 3.25898 -3.84456 0
M  V30 4123 H 385.699 1.58675 -3.38671 0
M  V30 4124 H 387.991 3.94285 -5.5095 0
M  V30 4125 H 388.934 2.79102 -6.50775 0
M  V30 4126 H 389.342 3.00404 -4.77931 0
M  V30 4127 N 388.74 1.54641 0.303973 0
M  V30 4128 C 389.989 1.7299 1.03717 0
M  V30 4129 C 390.302 0.521168 1.88529 0
M  V30 4130 O 391.508 0.586408 2.65092 0
M  V30 4131 C 389.964 3.06051 1.89369 0
M  V30 4132 C 389.572 4.34393 1.09574 0
M  V30 4133 C 391.316 3.3376 2.62306 0
M  V30 4134 C 389.223 5.58506 1.94486 0
M  V30 4135 H 388.153 0.64473 0.390947 0
M  V30 4136 H 390.804 1.81124 0.294328 0
M  V30 4137 H 389.186 2.91874 2.67629 0
M  V30 4138 H 390.36 4.59396 0.359485 0
M  V30 4139 H 388.675 4.13597 0.482324 0
M  V30 4140 H 391.272 4.23687 3.26181 0
M  V30 4141 H 391.615 2.52503 3.3098 0
M  V30 4142 H 392.148 3.48894 1.91097 0
M  V30 4143 H 388.887 6.42422 1.30287 0
M  V30 4144 H 388.407 5.37694 2.65792 0
M  V30 4145 H 390.086 5.95651 2.52605 0
M  V30 4146 N 390.218 -0.567019 1.47046 0
M  V30 4147 C 391.629 -1.14916 1.47143 0
M  V30 4148 C 391.98 -1.94954 0.220767 0
M  V30 4149 O 391.105 -2.05602 -0.67505 0
M  V30 4150 C 391.7 -2.09069 2.666 0
M  V30 4151 C 390.259 -2.62575 2.69687 0
M  V30 4152 C 389.406 -1.38755 2.40088 0
M  V30 4153 H 392.357 -0.354126 1.54699 0
M  V30 4154 H 392.378 -2.92789 2.43011 0
M  V30 4155 H 391.89 -1.50789 3.57609 0
M  V30 4156 H 389.991 -3.24681 1.82792 0
M  V30 4157 H 390.104 -3.04239 3.70102 0
M  V30 4158 H 388.468 -1.69098 1.90468 0
M  V30 4159 H 389.251 -0.822822 3.33293 0
M  V30 4160 N 391.696 -1.35014 -0.812953 0
M  V30 4161 C 392.921 -1.31187 -1.60639 0
M  V30 4162 C 393.346 0.109382 -1.87782 0
M  V30 4163 O 392.704 1.07424 -1.46047 0
M  V30 4164 C 392.752 -2.11809 -2.91838 0
M  V30 4165 O 391.856 -1.49444 -3.8437 0
M  V30 4166 H 391.197 -0.450084 -0.488181 0
M  V30 4167 H 393.727 -1.77963 -1.00947 0
M  V30 4168 H 393.737 -2.23531 -3.41318 0
M  V30 4169 H 392.412 -3.15137 -2.71407 0
M  V30 4170 H 390.989 -1.46524 -3.42907 0
M  V30 4171 N 393.175 1.03435 -1.18907 0
M  V30 4172 C 394.105 2.13503 -0.945448 0
M  V30 4173 C 395.086 1.69682 0.119189 0
M  V30 4174 O 396.271 1.94169 -0.034707 0
M  V30 4175 C 393.401 3.44004 -0.477316 0
M  V30 4176 C 392.355 4.0148 -1.48316 0
M  V30 4177 C 391.681 5.27537 -0.872311 0
M  V30 4178 C 392.981 4.36921 -2.86177 0
M  V30 4179 H 394.675 2.34141 -1.86597 0
M  V30 4180 H 392.221 1.12523 -0.898584 0
M  V30 4181 H 394.174 4.20372 -0.294204 0
M  V30 4182 H 392.898 3.23072 0.478786 0
M  V30 4183 H 391.557 3.27201 -1.65332 0
M  V30 4184 H 391.205 5.02917 0.0911752 0
M  V30 4185 H 390.905 5.66954 -1.54393 0
M  V30 4186 H 392.429 6.06576 -0.699871 0
M  V30 4187 H 393.843 5.04248 -2.72776 0
M  V30 4188 H 392.24 4.87405 -3.50081 0
M  V30 4189 H 393.31 3.46466 -3.39248 0
M  V30 4190 N 394.653 0.992116 1.22453 0
M  V30 4191 C 395.616 0.546883 2.2258 0
M  V30 4192 C 396.616 -0.369829 1.56489 0
M  V30 4193 O 397.806 -0.161896 1.73446 0
M  V30 4194 C 394.938 -0.204659 3.40285 0
M  V30 4195 H 396.131 1.43234 2.63484 0
M  V30 4196 H 393.684 0.779239 1.3549 0
M  V30 4197 H 394.419 -1.10614 3.04853 0
M  V30 4198 H 394.204 0.45354 3.89468 0
M  V30 4199 H 395.694 -0.504358 4.14543 0
M  V30 4200 N 396.131 -1.37776 0.765217 0
M  V30 4201 C 397.063 -2.28958 0.105361 0
M  V30 4202 C 398.076 -1.48316 -0.67128 0
M  V30 4203 O 399.265 -1.71046 -0.51045 0
M  V30 4204 C 396.365 -3.27421 -0.874569 0
M  V30 4205 C 395.538 -4.37132 -0.153123 0
M  V30 4206 C 394.597 -5.1571 -1.04547 0
M  V30 4207 O 393.623 -5.66896 -0.511672 0
M  V30 4208 N 394.825 -5.29808 -2.37243 0
M  V30 4209 H 397.59 -2.86227 0.888495 0
M  V30 4210 H 395.151 -1.49682 0.617 0
M  V30 4211 H 397.143 -3.7687 -1.47483 0
M  V30 4212 H 395.713 -2.70967 -1.55871 0
M  V30 4213 H 394.933 -3.89166 0.627975 0
M  V30 4214 H 396.221 -5.07625 0.345643 0
M  V30 4215 H 395.619 -4.89793 -2.83054 0
M  V30 4216 H 394.176 -5.82589 -2.9229 0
M  V30 4217 N 397.609 -0.515225 -1.4894 0
M  V30 4218 C 398.572 0.244681 -2.2789 0
M  V30 4219 C 399.572 0.881166 -1.34507 0
M  V30 4220 O 400.762 0.743497 -1.57537 0
M  V30 4221 C 397.894 1.35247 -3.12923 0
M  V30 4222 H 399.087 -0.448289 -2.96531 0
M  V30 4223 H 396.64 -0.270656 -1.53939 0
M  V30 4224 H 397.375 2.07916 -2.48881 0
M  V30 4225 H 397.16 0.901374 -3.81599 0
M  V30 4226 H 398.65 1.88737 -3.72516 0
M  V30 4227 N 399.087 1.5561 -0.249682 0
M  V30 4228 C 400.019 2.18834 0.681496 0
M  V30 4229 C 401.032 1.16546 1.1367 0
M  V30 4230 O 402.221 1.43397 1.06299 0
M  V30 4231 C 399.321 2.77992 1.9384 0
M  V30 4232 C 398.494 4.05725 1.63419 0
M  V30 4233 C 397.553 4.49174 2.74096 0
M  V30 4234 O 396.579 5.15492 2.41364 0
M  V30 4235 N 397.781 4.17191 4.03649 0
M  V30 4236 H 400.546 2.9937 0.140514 0
M  V30 4237 H 398.107 1.6175 -0.0697541 0
M  V30 4238 H 400.099 3.04015 2.67127 0
M  V30 4239 H 398.669 2.01596 2.38909 0
M  V30 4240 H 397.889 3.87261 0.736358 0
M  V30 4241 H 399.177 4.88999 1.40562 0
M  V30 4242 H 398.575 3.63955 4.33074 0
M  V30 4243 H 397.132 4.48043 4.73393 0
M  V30 4244 N 400.565 -0.0233959 1.57583 0
M  V30 4245 C 401.497 -1.04994 2.03737 0
M  V30 4246 C 402.51 -1.32125 0.951152 0
M  V30 4247 O 403.699 -1.29512 1.22837 0
M  V30 4248 C 400.799 -2.39026 2.40249 0
M  V30 4249 C 399.972 -2.31171 3.7132 0
M  V30 4250 C 399.031 -3.47698 3.94959 0
M  V30 4251 O 398.057 -3.26937 4.65941 0
M  V30 4252 N 399.259 -4.6976 3.41037 0
M  V30 4253 H 402.024 -0.656507 2.92421 0
M  V30 4254 H 399.585 -0.211235 1.60516 0
M  V30 4255 H 401.577 -3.15712 2.53196 0
M  V30 4256 H 400.147 -2.70194 1.57207 0
M  V30 4257 H 399.367 -1.39547 3.68674 0
M  V30 4258 H 400.655 -2.23071 4.57293 0
M  V30 4259 H 400.053 -4.89528 2.83512 0
M  V30 4260 H 398.61 -5.43791 3.59353 0
M  V30 4261 N 402.043 -1.548 -0.295768 0
M  V30 4262 C 402.973 -1.89115 -1.36959 0
M  V30 4263 C 403.954 -0.75059 -1.52644 0
M  V30 4264 O 405.139 -1.00678 -1.66065 0
M  V30 4265 C 402.269 -2.14307 -2.73295 0
M  V30 4266 C 401.223 -3.30151 -2.72368 0
M  V30 4267 C 400.549 -3.40772 -4.12042 0
M  V30 4268 C 401.849 -4.67126 -2.33646 0
M  V30 4269 H 403.543 -2.79053 -1.08488 0
M  V30 4270 H 401.089 -1.34266 -0.520443 0
M  V30 4271 H 403.042 -2.36898 -3.48507 0
M  V30 4272 H 401.766 -1.21145 -3.03301 0
M  V30 4273 H 400.425 -3.0749 -1.99613 0
M  V30 4274 H 400.073 -2.45117 -4.39234 0
M  V30 4275 H 399.773 -4.18645 -4.12322 0
M  V30 4276 H 401.297 -3.6563 -4.89027 0
M  V30 4277 H 402.711 -4.89414 -2.98575 0
M  V30 4278 H 401.108 -5.47751 -2.45129 0
M  V30 4279 H 402.178 -4.67489 -1.28772 0
M  V30 4280 N 403.521 0.559213 -1.47345 0
M  V30 4281 C 404.469 1.68747 -1.60085 0
M  V30 4282 C 405.463 1.628 -0.46825 0
M  V30 4283 O 406.669 1.68009 -0.645977 0
M  V30 4284 H 403.044 0.558329 -0.503759 0
M  V30 4285 H 405.015 1.55138 -2.54902 0
M  V30 4286 C 403.764 3.07103 -1.63042 0
M  V30 4287 H 403.087 3.12361 -2.49541 0
M  V30 4288 H 404.527 3.85743 -1.76006 0
M  V30 4289 C 402.986 3.34935 -0.363357 0
M  V30 4290 O 403.516 3.98102 0.536416 0
M  V30 4291 N 401.722 2.89574 -0.244 0
M  V30 4292 H 401.269 2.38348 -0.977133 0
M  V30 4293 H 401.227 3.08566 0.602836 0
M  V30 4294 N 404.999 1.35443 0.805782 0
M  V30 4295 C 405.909 1.30546 1.94923 0
M  V30 4296 C 406.925 0.210233 1.72725 0
M  V30 4297 O 408.101 0.43975 1.9654 0
M  V30 4298 C 405.166 1.07782 3.29521 0
M  V30 4299 C 404.227 2.26625 3.64609 0
M  V30 4300 C 403.46 2.04938 4.92784 0
M  V30 4301 O 403.683 1.01624 5.61274 0
M  V30 4302 O 402.617 2.9232 5.26149 0
M  V30 4303 H 406.443 2.26779 2.02002 0
M  V30 4304 H 404.028 1.15823 0.943682 0
M  V30 4305 H 405.91 0.969392 4.10098 0
M  V30 4306 H 404.585 0.146003 3.23371 0
M  V30 4307 H 403.492 2.43033 2.84404 0
M  V30 4308 H 404.825 3.18257 3.75464 0
M  V30 4309 N 406.477 -1.02803 1.19454 0
M  V30 4310 C 407.754 -1.73299 0.907013 0
M  V30 4311 C 408.134 -2.02772 -0.587086 0
M  V30 4312 O 407.482 -1.68304 -1.54551 0
M  V30 4313 C 407.692 -3.00912 1.76785 0
M  V30 4314 C 409.04 -3.74403 2.00268 0
M  V30 4315 O 410.064 -3.10841 1.73943 0
M  V30 4316 O 408.923 -4.88675 2.4466 0
M  V30 4317 H 406.017 -0.754727 0.338106 0
M  V30 4318 H 408.563 -1.08754 1.30271 0
M  V30 4319 H 407.335 -2.75366 2.7801 0
M  V30 4320 H 406.958 -3.73197 1.37149 0
M  V30 4321 N 407.956 -0.998596 -1.21925 0
M  V30 4322 C 408.888 -0.511879 -2.23411 0
M  V30 4323 C 409.901 0.396094 -1.57908 0
M  V30 4324 O 411.09 0.197316 -1.77406 0
M  V30 4325 C 408.19 0.276802 -3.37768 0
M  V30 4326 C 407.363 -0.628687 -4.32858 0
M  V30 4327 C 406.422 0.109272 -5.26087 0
M  V30 4328 O 405.448 -0.507237 -5.66935 0
M  V30 4329 N 406.65 1.38983 -5.63617 0
M  V30 4330 H 409.415 -1.38457 -2.658 0
M  V30 4331 H 406.976 -0.873981 -1.36283 0
M  V30 4332 H 408.968 0.77928 -3.97126 0
M  V30 4333 H 407.538 1.05063 -2.94415 0
M  V30 4334 H 406.758 -1.31175 -3.71735 0
M  V30 4335 H 408.046 -1.24514 -4.93329 0
M  V30 4336 H 407.444 1.91194 -5.32411 0
M  V30 4337 H 406.001 1.83739 -6.25367 0
M  V30 4338 N 409.434 1.37368 -0.772513 0
M  V30 4339 C 410.683 1.98918 -0.333861 0
M  V30 4340 C 410.996 1.62017 1.09589 0
M  V30 4341 O 412.202 2.16676 1.63596 0
M  V30 4342 C 410.658 3.55735 -0.545971 0
M  V30 4343 C 410.266 4.01573 -1.98603 0
M  V30 4344 C 412.01 4.24156 -0.170979 0
M  V30 4345 C 409.917 5.51102 -2.1457 0
M  V30 4346 H 408.847 0.744214 -0.121085 0
M  V30 4347 H 411.498 1.56888 -0.95175 0
M  V30 4348 H 409.88 3.95748 0.141387 0
M  V30 4349 H 411.054 3.72803 -2.7084 0
M  V30 4350 H 409.369 3.45937 -2.31769 0
M  V30 4351 H 411.966 5.34024 -0.26878 0
M  V30 4352 H 412.309 4.06917 0.878855 0
M  V30 4353 H 412.842 3.89447 -0.810914 0
M  V30 4354 H 409.581 5.73268 -3.17875 0
M  V30 4355 H 409.101 5.81554 -1.46817 0
M  V30 4356 H 410.78 6.17083 -1.94468 0
M  V30 4357 N 410.912 0.523116 1.48665 0
M  V30 4358 C 411.844 -0.280421 2.27478 0
M  V30 4359 C 412.857 -0.910694 1.34945 0
M  V30 4360 O 414.046 -0.790295 1.60052 0
M  V30 4361 C 411.146 -1.41171 3.08097 0
M  V30 4362 C 410.319 -0.884642 4.28361 0
M  V30 4363 C 409.378 -1.89622 4.90846 0
M  V30 4364 O 408.404 -1.4559 5.50265 0
M  V30 4365 N 409.606 -3.22801 4.82472 0
M  V30 4366 H 412.371 0.395481 2.97079 0
M  V30 4367 H 409.932 0.357018 1.57915 0
M  V30 4368 H 411.924 -2.08645 3.4677 0
M  V30 4369 H 410.494 -1.99139 2.40961 0
M  V30 4370 H 409.714 -0.0341177 3.94185 0
M  V30 4371 H 411.002 -0.511268 5.06225 0
M  V30 4372 H 410.4 -3.61246 4.35336 0
M  V30 4373 H 408.957 -3.85927 5.25265 0
M  V30 4374 N 412.39 -1.55475 0.257931 0
M  V30 4375 C 413.3 -2.2549 -0.647425 0
M  V30 4376 C 414.316 -1.2748 -1.18427 0
M  V30 4377 O 415.492 -1.6038 -1.2182 0
M  V30 4378 C 412.557 -2.94916 -1.82278 0
M  V30 4379 C 411.618 -4.08363 -1.32432 0
M  V30 4380 C 410.851 -4.74469 -2.44366 0
M  V30 4381 O 411.074 -4.39701 -3.63344 0
M  V30 4382 O 410.008 -5.62763 -2.13497 0
M  V30 4383 H 413.834 -3.03593 -0.0807707 0
M  V30 4384 H 411.419 -1.49377 0.0259962 0
M  V30 4385 H 413.301 -3.38606 -2.50846 0
M  V30 4386 H 411.976 -2.19744 -2.37685 0
M  V30 4387 H 410.883 -3.69166 -0.605605 0
M  V30 4388 H 412.216 -4.85385 -0.816211 0
M  V30 4389 N 413.868 0.0150385 -1.57593 0
M  V30 4390 C 414.798 1.01047 -2.10503 0
M  V30 4391 C 415.779 1.36816 -1.01071 0
M  V30 4392 O 416.964 1.45455 -1.28672 0
M  V30 4393 C 414.094 2.30708 -2.59598 0
M  V30 4394 C 413.048 2.09142 -3.73421 0
M  V30 4395 C 412.374 3.44685 -4.08774 0
M  V30 4396 C 413.674 1.46619 -5.01298 0
M  V30 4397 H 415.368 0.569978 -2.93925 0
M  V30 4398 H 412.914 0.272724 -1.41394 0
M  V30 4399 H 414.867 3.00687 -2.95238 0
M  V30 4400 H 413.591 2.76843 -1.73279 0
M  V30 4401 H 412.25 1.41592 -3.38153 0
M  V30 4402 H 411.898 3.88495 -3.195 0
M  V30 4403 H 411.598 3.31077 -4.8545 0
M  V30 4404 H 413.122 4.16004 -4.4696 0
M  V30 4405 H 414.536 2.06535 -5.34805 0
M  V30 4406 H 412.933 1.43544 -5.82679 0
M  V30 4407 H 414.003 0.433611 -4.82957 0
M  V30 4408 N 415.346 1.54954 0.287554 0
M  V30 4409 C 416.762 1.46469 0.633964 0
M  V30 4410 C 416.962 0.666865 1.90145 0
M  V30 4411 O 416.018 0.179906 2.51858 0
M  V30 4412 C 417.331 2.90556 0.774454 0
M  V30 4413 C 418.879 3.00681 0.869462 0
M  V30 4414 C 419.354 4.45993 1.04184 0
M  V30 4415 N 420.845 4.4976 1.10772 0
M  V30 4416 C 421.58 5.59393 1.25964 0
M  V30 4417 N 421.076 6.78923 1.37968 0
M  V30 4418 N 422.869 5.47107 1.28959 0
M  V30 4419 H 415.02 2.05288 -0.545041 0
M  V30 4420 H 417.283 0.930305 -0.182308 0
M  V30 4421 H 416.989 3.51594 -0.086207 0
M  V30 4422 H 416.863 3.38743 1.6593 0
M  V30 4423 H 419.25 2.39749 1.7206 0
M  V30 4424 H 419.331 2.55769 -0.0396831 0
M  V30 4425 H 418.975 5.07524 0.195422 0
M  V30 4426 H 418.905 4.88548 1.96542 0
M  V30 4427 H 421.396 3.63651 1.02794 0
M  V30 4428 H 421.709 7.58231 1.49353 0
M  V30 4429 H 420.054 6.81763 1.34999 0
M  V30 4430 H 423.245 4.52668 1.19202 0
M  V30 4431 H 423.418 6.32595 1.40455 0
M  V30 4432 N 416.824 -0.551391 1.4764 0
M  V30 4433 C 418.101 -1.31229 1.45046 0
M  V30 4434 C 418.481 -2.10563 0.150527 0
M  V30 4435 O 417.829 -2.11374 -0.867956 0
M  V30 4436 C 418.039 -2.21189 2.69956 0
M  V30 4437 C 419.387 -2.82021 3.1741 0
M  V30 4438 O 420.411 -2.31488 2.70724 0
M  V30 4439 O 419.27 -3.73885 3.98588 0
M  V30 4440 H 416.364 -0.591193 0.578291 0
M  V30 4441 H 418.91 -0.569813 1.59847 0
M  V30 4442 H 417.682 -1.62207 3.56096 0
M  V30 4443 H 417.305 -3.02722 2.57769 0
M  V30 4444 N 418.302 -1.35869 -0.798587 0
M  V30 4445 C 419.551 -1.28921 -1.5512 0
M  V30 4446 C 419.864 0.13208 -1.95154 0
M  V30 4447 O 421.07 0.323879 -2.69561 0
M  V30 4448 C 419.526 -2.26141 -2.79979 0
M  V30 4449 C 419.134 -3.73658 -2.47151 0
M  V30 4450 C 420.878 -2.28152 -3.57976 0
M  V30 4451 C 418.785 -4.62679 -3.6835 0
M  V30 4452 H 417.715 -0.479031 -0.582276 0
M  V30 4453 H 420.366 -1.61179 -0.877125 0
M  V30 4454 H 418.748 -1.86865 -3.49138 0
M  V30 4455 H 419.922 -4.21616 -1.85947 0
M  V30 4456 H 418.237 -3.74333 -1.82383 0
M  V30 4457 H 420.834 -2.91875 -4.4801 0
M  V30 4458 H 421.177 -1.28748 -3.95891 0
M  V30 4459 H 421.71 -2.65998 -2.95787 0
M  V30 4460 H 418.449 -5.63111 -3.35538 0
M  V30 4461 H 417.969 -4.19442 -4.28752 0
M  V30 4462 H 419.648 -4.78498 -4.35487 0
M  V30 4463 N 419.78 1.02168 -1.19998 0
M  V30 4464 C 421.026 1.75945 -1.00852 0
M  V30 4465 C 421.359 1.88702 0.458828 0
M  V30 4466 O 420.634 1.40911 1.34069 0
M  V30 4467 C 420.917 3.18154 -1.68671 0
M  V30 4468 C 420.77 3.13224 -3.22817 0
M  V30 4469 C 422.089 4.16711 -1.41561 0
M  V30 4470 H 419.208 0.638673 -0.367785 0
M  V30 4471 H 421.85 1.19222 -1.4794 0
M  V30 4472 H 420 3.66586 -1.28636 0
M  V30 4473 H 421.672 2.72635 -3.72112 0
M  V30 4474 H 419.915 2.50751 -3.53986 0
M  V30 4475 H 420.586 4.13728 -3.65422 0
M  V30 4476 H 423.062 3.76913 -1.76284 0
M  V30 4477 H 421.938 5.14391 -1.91553 0
M  V30 4478 H 422.199 4.40774 -0.342193 0
M  V30 4479 N 421.258 1.00505 1.21394 0
M  V30 4480 C 422.221 0.570459 2.21987 0
M  V30 4481 C 423.221 -0.353211 1.56873 0
M  V30 4482 O 424.411 -0.14349 1.73608 0
M  V30 4483 C 421.543 -0.168555 3.40483 0
M  V30 4484 H 422.736 1.46021 2.6195 0
M  V30 4485 H 420.289 0.793565 1.34656 0
M  V30 4486 H 421.024 -1.07374 3.06009 0
M  V30 4487 H 420.809 0.494823 3.88965 0
M  V30 4488 H 422.299 -0.460362 4.15055 0
M  V30 4489 N 422.737 -1.36956 0.779787 0
M  V30 4490 C 423.983 -2.00237 0.357324 0
M  V30 4491 C 424.338 -1.60787 -1.05666 0
M  V30 4492 O 423.631 -0.847836 -1.71821 0
M  V30 4493 C 423.825 -3.54585 0.447686 0
M  V30 4494 C 423.654 -4.09025 1.86891 0
M  V30 4495 C 422.424 -4.39612 2.49138 0
M  V30 4496 C 424.622 -4.29461 2.82963 0
M  V30 4497 N 422.604 -4.79816 3.82949 0
M  V30 4498 C 423.975 -4.72363 4.01588 0
M  V30 4499 C 426.03 -4.1161 2.80145 0
M  V30 4500 C 424.733 -4.99284 5.17791 0
M  V30 4501 C 426.759 -4.39672 3.95528 0
M  V30 4502 C 426.121 -4.82822 5.12896 0
M  V30 4503 H 422.22 -0.76148 0.177968 0
M  V30 4504 H 424.804 -1.6613 1.01533 0
M  V30 4505 H 422.975 -3.87982 -0.180184 0
M  V30 4506 H 424.707 -4.047 0.0023955 0
M  V30 4507 H 421.462 -4.28975 2.00693 0
M  V30 4508 H 421.886 -5.04216 4.51769 0
M  V30 4509 H 426.528 -3.77415 1.90572 0
M  V30 4510 H 424.246 -5.32365 6.07958 0
M  V30 4511 H 427.832 -4.27441 3.94697 0
M  V30 4512 H 426.712 -5.04118 6.00695 0
M  V30 4513 N 424.215 -0.530993 -1.48385 0
M  V30 4514 C 425.631 -0.188919 -1.58478 0
M  V30 4515 C 425.831 1.30786 -1.53288 0
M  V30 4516 O 424.887 2.08619 -1.42248 0
M  V30 4517 C 426.2 -0.792343 -2.90073 0
M  V30 4518 C 427.748 -0.76117 -3.03604 0
M  V30 4519 C 428.223 -1.34319 -4.37861 0
M  V30 4520 N 429.714 -1.3052 -4.44431 0
M  V30 4521 C 430.449 -1.72543 -5.46824 0
M  V30 4522 N 429.945 -2.22299 -6.56167 0
M  V30 4523 N 431.738 -1.63773 -5.37712 0
M  V30 4524 H 423.889 -1.50377 -1.50002 0
M  V30 4525 H 426.152 -0.625559 -0.712306 0
M  V30 4526 H 425.858 -1.84323 -2.99529 0
M  V30 4527 H 425.732 -0.270026 -3.76232 0
M  V30 4528 H 428.119 0.280957 -2.93759 0
M  V30 4529 H 428.2 -1.32097 -2.19053 0
M  V30 4530 H 427.844 -2.38425 -4.4846 0
M  V30 4531 H 427.774 -0.759064 -5.21101 0
M  V30 4532 H 430.265 -0.940973 -3.65997 0
M  V30 4533 H 430.578 -2.52356 -7.30436 0
M  V30 4534 H 428.923 -2.26293 -6.57127 0
M  V30 4535 H 432.114 -1.24698 -4.51185 0
M  V30 4536 H 432.287 -1.96844 -6.17379 0
M  V30 4537 N 425.693 1.55336 -0.266172 0
M  V30 4538 C 426.623 2.25146 0.618981 0
M  V30 4539 C 427.604 1.23845 1.16604 0
M  V30 4540 O 428.789 1.52544 1.20183 0
M  V30 4541 C 425.919 2.96572 1.80728 0
M  V30 4542 C 424.873 4.04726 1.39215 0
M  V30 4543 C 424.199 4.63678 2.66283 0
M  V30 4544 C 425.499 5.19407 0.548942 0
M  V30 4545 H 427.193 2.99377 0.0368116 0
M  V30 4546 H 424.739 1.43991 0.0162651 0
M  V30 4547 H 426.692 3.44116 2.43232 0
M  V30 4548 H 425.416 2.19861 2.41514 0
M  V30 4549 H 424.075 3.57979 0.790351 0
M  V30 4550 H 423.723 3.83646 3.25308 0
M  V30 4551 H 423.423 5.367 2.39222 0
M  V30 4552 H 424.947 5.13967 3.29651 0
M  V30 4553 H 426.361 5.63059 1.07876 0
M  V30 4554 H 424.758 5.98936 0.373593 0
M  V30 4555 H 425.828 4.8295 -0.434394 0
M  V30 4556 N 427.171 -0.0066808 1.57599 0
M  V30 4557 C 428.104 -1.03397 2.03431 0
M  V30 4558 C 429.082 -1.33872 0.922877 0
M  V30 4559 O 430.266 -1.4615 1.19048 0
M  V30 4560 C 427.393 -2.36325 2.42628 0
M  V30 4561 C 426.439 -2.21557 3.64438 0
M  V30 4562 S 427.272 -1.54789 5.12641 0
M  V30 4563 C 428.428 -2.8916 5.55101 0
M  V30 4564 H 428.661 -0.643687 2.90248 0
M  V30 4565 H 426.194 -0.217349 1.52863 0
M  V30 4566 H 428.152 -3.12759 2.65879 0
M  V30 4567 H 426.813 -2.72495 1.56222 0
M  V30 4568 H 426.006 -3.1974 3.89592 0
M  V30 4569 H 425.608 -1.53267 3.41153 0
M  V30 4570 H 427.9 -3.8547 5.57153 0
M  V30 4571 H 428.843 -2.68713 6.55133 0
M  V30 4572 H 429.251 -2.92762 4.82649 0
M  V30 4573 N 428.649 -1.55105 -0.279332 0
M  V30 4574 C 429.897 -1.75066 -1.00977 0
M  V30 4575 C 430.218 -0.551276 -1.87045 0
M  V30 4576 O 429.488 0.433984 -1.91032 0
M  V30 4577 H 428.068 -0.645578 -0.375816 0
M  V30 4578 H 430.73 -1.92497 -0.305089 0
M  V30 4579 H 429.826 -2.64894 -1.65038 0
M  V30 4580 N 430.127 0.543554 -1.4793 0
M  V30 4581 C 431.075 1.67039 -1.61866 0
M  V30 4582 C 432.069 1.62294 -0.48549 0
M  V30 4583 O 433.275 1.67315 -0.66376 0
M  V30 4584 H 429.65 0.552954 -0.509652 0
M  V30 4585 H 431.621 1.52426 -2.56533 0
M  V30 4586 C 430.37 3.05357 -1.6629 0
M  V30 4587 H 429.693 3.09696 -2.5284 0
M  V30 4588 H 431.133 3.83855 -1.80088 0
M  V30 4589 C 429.592 3.34531 -0.398861 0
M  V30 4590 O 430.122 3.98649 0.494162 0
M  V30 4591 N 428.328 2.89299 -0.2747 0
M  V30 4592 H 427.875 2.37298 -1.00236 0
M  V30 4593 H 427.833 3.09188 0.570075 0
M  V30 4594 N 431.605 1.3629 0.791371 0
M  V30 4595 C 432.882 1.20962 1.53712 0
M  V30 4596 C 433.262 -0.205021 2.10102 0
M  V30 4597 O 432.61 -1.21042 1.93807 0
M  V30 4598 C 432.82 2.29002 2.63361 0
M  V30 4599 C 434.168 2.65572 3.31295 0
M  V30 4600 O 435.192 2.2803 2.73643 0
M  V30 4601 O 434.051 3.3018 4.35481 0
M  V30 4602 H 431.145 0.47086 0.679867 0
M  V30 4603 H 433.691 1.48016 0.830021 0
M  V30 4604 H 432.463 3.2382 2.19674 0
M  V30 4605 H 432.086 2.03303 3.41692 0
M  V30 4606 N 433.083 -1.0153 1.20538 0
M  V30 4607 C 434.329 -1.75408 1.01783 0
M  V30 4608 C 434.662 -1.88943 -0.448814 0
M  V30 4609 O 433.937 -1.4162 -1.33319 0
M  V30 4610 C 434.22 -3.17255 1.70356 0
M  V30 4611 C 434.073 -3.11508 3.24473 0
M  V30 4612 C 435.392 -4.15955 1.43769 0
M  V30 4613 H 432.511 -0.636713 0.371167 0
M  V30 4614 H 435.153 -1.18436 1.4857 0
M  V30 4615 H 433.303 -3.65898 1.30578 0
M  V30 4616 H 434.975 -2.70658 3.73553 0
M  V30 4617 H 433.218 -2.4887 3.55311 0
M  V30 4618 H 433.889 -4.11784 3.67611 0
M  V30 4619 H 436.365 -3.75973 1.7828 0
M  V30 4620 H 435.241 -5.13368 1.94279 0
M  V30 4621 H 435.502 -4.40586 0.365564 0
M  V30 4622 N 434.561 -1.01147 -1.20859 0
M  V30 4623 C 435.789 -0.716911 -1.94082 0
M  V30 4624 C 436.204 0.721568 -1.74467 0
M  V30 4625 O 435.561 1.48889 -1.05539 0
M  V30 4626 C 435.612 -1.03662 -3.46318 0
M  V30 4627 O 435.333 -2.4186 -3.65288 0
M  V30 4628 C 436.834 -0.762386 -4.36695 0
M  V30 4629 H 434.054 -0.26367 -0.617024 0
M  V30 4630 H 436.598 -1.35127 -1.53496 0
M  V30 4631 H 434.753 -0.447757 -3.84804 0
M  V30 4632 H 435.167 -2.53224 -4.59323 0
M  V30 4633 H 436.641 -1.03621 -5.42187 0
M  V30 4634 H 437.118 0.303514 -4.3815 0
M  V30 4635 H 437.724 -1.33316 -4.03865 0
M  V30 4636 N 436.039 1.36541 -0.78704 0
M  V30 4637 C 437.316 1.9355 -0.282424 0
M  V30 4638 C 437.696 1.71919 1.22503 0
M  V30 4639 O 437.044 1.07677 2.01539 0
M  V30 4640 C 437.254 3.4246 -0.672462 0
M  V30 4641 C 438.602 4.19582 -0.650863 0
M  V30 4642 O 439.626 3.50889 -0.612789 0
M  V30 4643 O 438.485 5.42106 -0.691623 0
M  V30 4644 H 435.579 0.824091 -0.0693 0
M  V30 4645 H 438.125 1.45736 -0.869423 0
M  V30 4646 H 436.897 3.51851 -1.71221 0
M  V30 4647 H 436.52 3.97556 -0.0592211 0
M  V30 4648 N 437.518 0.538854 1.48102 0
M  V30 4649 C 438.428 -0.222648 2.33541 0
M  V30 4650 C 439.444 -0.930225 1.47047 0
M  V30 4651 O 440.62 -0.903211 1.80011 0
M  V30 4652 C 437.685 -1.25064 3.23357 0
M  V30 4653 C 436.746 -0.552469 4.2573 0
M  V30 4654 C 435.979 -1.53149 5.11254 0
M  V30 4655 O 436.202 -2.76487 4.9891 0
M  V30 4656 O 435.136 -1.06602 5.92385 0
M  V30 4657 H 438.962 0.477707 2.99919 0
M  V30 4658 H 436.547 0.299669 1.46364 0
M  V30 4659 H 438.429 -1.8445 3.78888 0
M  V30 4660 H 437.104 -1.93325 2.59629 0
M  V30 4661 H 436.011 0.082114 3.7401 0
M  V30 4662 H 437.344 0.0883526 4.92121 0
M  V30 4663 N 438.996 -1.55193 0.274407 0
M  V30 4664 C 439.928 -2.1989 -0.646595 0
M  V30 4665 C 440.941 -1.1834 -1.11801 0
M  V30 4666 O 442.13 -1.4507 -1.04004 0
M  V30 4667 C 439.23 -2.8104 -1.89393 0
M  V30 4668 C 438.403 -4.08274 -1.56943 0
M  V30 4669 C 437.462 -4.53478 -2.66916 0
M  V30 4670 O 436.488 -5.19267 -2.33132 0
M  V30 4671 N 437.69 -4.2356 -3.9696 0
M  V30 4672 H 440.455 -2.99556 -0.0928686 0
M  V30 4673 H 438.016 -1.61618 0.0954783 0
M  V30 4674 H 440.008 -3.08226 -2.62257 0
M  V30 4675 H 438.578 -2.05372 -2.35672 0
M  V30 4676 H 437.798 -3.88384 -0.674655 0
M  V30 4677 H 439.086 -4.91173 -1.32764 0
M  V30 4678 H 438.484 -3.70799 -4.27229 0
M  V30 4679 H 437.041 -4.55518 -4.66205 0
M  V30 4680 N 440.474 -0.00167713 -1.576 0
M  V30 4681 C 441.437 0.974046 -2.07473 0
M  V30 4682 C 442.437 1.27143 -0.984444 0
M  V30 4683 O 443.627 1.21633 -1.24703 0
M  V30 4684 C 440.759 2.29849 -2.51759 0
M  V30 4685 H 441.952 0.54262 -2.9495 0
M  V30 4686 H 439.505 0.245829 -1.54355 0
M  V30 4687 H 440.24 2.77677 -1.67529 0
M  V30 4688 H 440.025 2.09584 -3.31386 0
M  V30 4689 H 441.515 2.9984 -2.90664 0
M  V30 4690 N 441.952 1.55251 0.271103 0
M  V30 4691 C 442.899 1.88261 1.33516 0
M  V30 4692 C 443.869 0.734296 1.48988 0
M  V30 4693 O 445.054 0.985741 1.63364 0
M  V30 4694 C 442.194 2.16168 2.69008 0
M  V30 4695 C 441.307 3.43678 2.61743 0
M  V30 4696 C 440.442 3.61276 3.89427 0
M  V30 4697 C 439.481 4.82472 3.7668 0
M  V30 4698 N 438.618 4.96717 4.96202 0
M  V30 4699 H 443.458 2.79015 1.04665 0
M  V30 4700 H 440.995 1.38137 0.505618 0
M  V30 4701 H 442.953 2.30349 3.47844 0
M  V30 4702 H 441.583 1.28646 2.96057 0
M  V30 4703 H 440.635 3.37959 1.74607 0
M  V30 4704 H 441.947 4.3265 2.48224 0
M  V30 4705 H 441.101 3.75284 4.76704 0
M  V30 4706 H 439.84 2.70492 4.05814 0
M  V30 4707 H 438.845 4.68465 2.87786 0
M  V30 4708 H 440.07 5.74692 3.61809 0
M  V30 4709 H 438.016 4.08865 5.12997 0
M  V30 4710 H 437.933 5.79738 4.85222 0
M  V30 4711 H 439.201 5.15113 5.85046 0
M  V30 4712 N 443.43 -0.535701 1.48216 0
M  V30 4713 C 444.676 -1.2913 1.57153 0
M  V30 4714 C 445.031 -1.90899 0.239823 0
M  V30 4715 O 444.324 -1.76022 -0.756748 0
M  V30 4716 C 444.518 -2.4068 2.64212 0
M  V30 4717 C 444.347 -1.89844 4.07663 0
M  V30 4718 C 443.117 -1.72708 4.74869 0
M  V30 4719 C 445.315 -1.43031 4.94011 0
M  V30 4720 N 443.297 -1.16437 6.02757 0
M  V30 4721 C 444.668 -0.986691 6.12098 0
M  V30 4722 C 446.723 -1.3128 4.80281 0
M  V30 4723 C 445.426 -0.437231 7.1797 0
M  V30 4724 C 447.452 -0.777346 5.86269 0
M  V30 4725 C 446.814 -0.343774 7.03561 0
M  V30 4726 H 442.913 -0.463753 0.629648 0
M  V30 4727 H 445.497 -0.604736 1.8507 0
M  V30 4728 H 443.668 -3.06839 2.38126 0
M  V30 4729 H 445.4 -3.07706 2.62867 0
M  V30 4730 H 442.155 -1.96061 4.31111 0
M  V30 4731 H 442.579 -0.903281 6.70947 0
M  V30 4732 H 447.221 -1.63408 3.89946 0
M  V30 4733 H 444.939 -0.103621 8.08034 0
M  V30 4734 H 448.525 -0.689688 5.77698 0
M  V30 4735 H 447.405 0.0641219 7.84174 0
M  V30 4736 N 444.908 -1.36708 -0.784132 0
M  V30 4737 C 446.324 -1.17237 -1.08294 0
M  V30 4738 C 446.524 -5.93947e-05 -2.015 0
M  V30 4739 O 445.58 0.663686 -2.43622 0
M  V30 4740 C 446.893 -2.48557 -1.69233 0
M  V30 4741 C 448.441 -2.54968 -1.8155 0
M  V30 4742 C 448.916 -3.86388 -2.45904 0
M  V30 4743 N 450.407 -3.87762 -2.53367 0
M  V30 4744 C 451.142 -4.86191 -3.03983 0
M  V30 4745 N 450.638 -5.95015 -3.54866 0
M  V30 4746 N 452.431 -4.73606 -3.02743 0
M  V30 4747 H 444.582 -2.11758 -0.16501 0
M  V30 4748 H 446.845 -0.93822 -0.135822 0
M  V30 4749 H 446.551 -3.34638 -1.08215 0
M  V30 4750 H 446.425 -2.64748 -2.68679 0
M  V30 4751 H 448.812 -1.69302 -2.41704 0
M  V30 4752 H 448.893 -2.42672 -0.80895 0
M  V30 4753 H 448.537 -4.72462 -1.86392 0
M  V30 4754 H 448.467 -3.95982 -3.4714 0
M  V30 4755 H 450.958 -3.09145 -2.17343 0
M  V30 4756 H 451.271 -6.66086 -3.91854 0
M  V30 4757 H 449.616 -5.98676 -3.53003 0
M  V30 4758 H 452.807 -3.87717 -2.62284 0
M  V30 4759 H 452.98 -5.50473 -3.41881 0
M  V30 4760 N 446.386 1.0089 -1.21074 0
M  V30 4761 C 447.663 1.71834 -0.934469 0
M  V30 4762 C 448.043 2.0368 0.554753 0
M  V30 4763 O 447.391 1.70742 1.51854 0
M  V30 4764 C 447.601 2.98061 -1.8155 0
M  V30 4765 C 448.949 3.7117 -2.06199 0
M  V30 4766 O 449.973 3.08034 -1.78867 0
M  V30 4767 O 448.832 4.84721 -2.52404 0
M  V30 4768 H 445.926 0.749253 -0.35007 0
M  V30 4769 H 448.472 1.06668 -1.31985 0
M  V30 4770 H 447.244 2.70908 -2.82355 0
M  V30 4771 H 446.867 3.70968 -1.43068 0
M  V30 4772 N 447.864 1.01787 1.20321 0
M  V30 4773 C 449.141 0.622978 1.85414 0
M  V30 4774 C 449.521 -0.898887 1.91006 0
M  V30 4775 O 448.869 -1.79112 1.41884 0
M  V30 4776 C 449.079 1.27226 3.24984 0
M  V30 4777 C 450.427 1.3885 4.01255 0
M  V30 4778 O 451.451 1.22857 3.34342 0
M  V30 4779 O 450.31 1.64705 5.2109 0
M  V30 4780 H 447.404 0.215116 0.798533 0
M  V30 4781 H 449.95 1.11533 1.27901 0
M  V30 4782 H 448.722 2.31209 3.15687 0
M  V30 4783 H 448.345 0.767069 3.90131 0
M  V30 4784 N 449.342 -1.36122 0.79427 0
M  V30 4785 C 450.305 -2.28309 0.201889 0
M  V30 4786 C 451.305 -1.49041 -0.603603 0
M  V30 4787 O 452.495 -1.68964 -0.423888 0
M  V30 4788 C 449.627 -3.3321 -0.719978 0
M  V30 4789 H 450.82 -2.82208 1.01481 0
M  V30 4790 H 448.373 -1.45768 0.564037 0
M  V30 4791 H 449.108 -2.84475 -1.55706 0
M  V30 4792 H 448.893 -3.91835 -0.144266 0
M  V30 4793 H 450.383 -4.02044 -1.12916 0
M  V30 4794 N 450.82 -0.546701 -1.47814 0
M  V30 4795 C 452.069 -0.0166497 -2.01693 0
M  V30 4796 C 452.382 1.33721 -1.42752 0
M  V30 4797 O 453.588 1.95658 -1.8823 0
M  V30 4798 C 452.044 0.0206769 -3.59894 0
M  V30 4799 C 451.652 -1.3293 -4.27824 0
M  V30 4800 C 453.396 0.498674 -4.21561 0
M  V30 4801 C 451.303 -1.25165 -5.78003 0
M  V30 4802 H 450.233 -0.0024541 -0.753996 0
M  V30 4803 H 452.884 -0.692984 -1.69912 0
M  V30 4804 H 451.266 0.76244 -3.88591 0
M  V30 4805 H 452.44 -2.08795 -4.10781 0
M  V30 4806 H 450.755 -1.74438 -3.78101 0
M  V30 4807 H 453.352 0.575 -5.31599 0
M  V30 4808 H 453.695 1.5083 -3.88016 0
M  V30 4809 H 454.228 -0.18791 -3.97356 0
M  V30 4810 H 450.967 -2.23695 -6.1615 0
M  V30 4811 H 450.487 -0.53464 -5.97412 0
M  V30 4812 H 452.166 -0.949299 -6.39998 0
M  V30 4813 N 452.299 1.55045 -0.282633 0
M  V30 4814 C 453.232 2.18951 0.64311 0
M  V30 4815 C 454.21 1.15287 1.14664 0
M  V30 4816 O 455.394 1.43846 1.21822 0
M  V30 4817 C 452.521 2.81874 1.87789 0
M  V30 4818 C 451.567 3.98906 1.50919 0
M  V30 4819 S 452.4 5.3234 0.580884 0
M  V30 4820 C 453.556 5.98737 1.82387 0
M  V30 4821 H 453.789 2.97131 0.100138 0
M  V30 4822 H 451.322 1.54255 -0.0668514 0
M  V30 4823 H 453.28 3.18757 2.58658 0
M  V30 4824 H 451.941 2.03573 2.392 0
M  V30 4825 H 451.134 4.4165 2.42819 0
M  V30 4826 H 450.736 3.63485 0.88061 0
M  V30 4827 H 453.028 6.18427 2.76684 0
M  V30 4828 H 453.971 6.93318 1.4393 0
M  V30 4829 H 454.379 5.28177 1.99223 0
M  V30 4830 N 453.777 0.010035 1.57597 0
M  V30 4831 C 455.193 -0.346164 1.55801 0
M  V30 4832 C 455.393 -1.74144 1.01371 0
M  V30 4833 O 454.449 -2.43938 0.651968 0
M  V30 4834 C 455.762 -0.212216 2.9995 0
M  V30 4835 C 457.31 -0.286409 3.11687 0
M  V30 4836 C 457.785 -0.18147 4.5764 0
M  V30 4837 N 459.276 -0.239056 4.62583 0
M  V30 4838 C 460.011 -0.181351 5.73113 0
M  V30 4839 N 459.507 -0.073661 6.92761 0
M  V30 4840 N 461.3 -0.233949 5.61613 0
M  V30 4841 H 453.451 0.922657 1.91313 0
M  V30 4842 H 455.714 0.354595 0.879185 0
M  V30 4843 H 455.42 0.748169 3.4365 0
M  V30 4844 H 455.294 -0.990224 3.6397 0
M  V30 4845 H 457.681 -1.23724 2.67911 0
M  V30 4846 H 457.762 0.521645 2.50425 0
M  V30 4847 H 457.406 0.765863 5.02093 0
M  V30 4848 H 457.336 -1.00814 5.1686 0
M  V30 4849 H 459.827 -0.32321 3.76515 0
M  V30 4850 H 460.14 -0.0358003 7.72792 0
M  V30 4851 H 458.485 -0.0391461 6.94989 0
M  V30 4852 H 461.676 -0.316347 4.6703 0
M  V30 4853 H 461.849 -0.185514 6.47734 0
M  V30 4854 N 455.255 -1.55392 -0.262866 0
M  V30 4855 C 456.48 -1.80847 -1.01533 0
M  V30 4856 C 456.905 -0.584946 -1.78774 0
M  V30 4857 O 456.263 0.465701 -1.75217 0
M  V30 4858 C 456.311 -3.03866 -1.94159 0
M  V30 4859 O 455.415 -2.79662 -3.03089 0
M  V30 4860 H 454.756 -0.597441 -0.289759 0
M  V30 4861 H 457.286 -2.02553 -0.288698 0
M  V30 4862 H 457.296 -3.32872 -2.35924 0
M  V30 4863 H 455.971 -3.92564 -1.37354 0
M  V30 4864 H 454.548 -2.61781 -2.65566 0
M  V30 4865 N 456.733 0.527833 -1.48498 0
M  V30 4866 C 457.665 1.6482 -1.5927 0
M  V30 4867 C 458.678 1.55659 -0.476869 0
M  V30 4868 O 459.867 1.62081 -0.747806 0
M  V30 4869 C 456.967 3.0348 -1.50842 0
M  V30 4870 C 456.14 3.381 -2.77502 0
M  V30 4871 C 455.199 4.5605 -2.62497 0
M  V30 4872 O 454.225 4.59165 -3.36387 0
M  V30 4873 N 455.427 5.54353 -1.72257 0
M  V30 4874 H 458.192 1.56015 -2.55889 0
M  V30 4875 H 455.753 0.715152 -1.45249 0
M  V30 4876 H 457.745 3.80264 -1.38496 0
M  V30 4877 H 456.315 3.06352 -0.621887 0
M  V30 4878 H 455.535 2.50473 -3.04396 0
M  V30 4879 H 456.823 3.58017 -3.61527 0
M  V30 4880 H 456.221 5.54617 -1.11431 0
M  V30 4881 H 454.778 6.30347 -1.65849 0
M  V30 4882 N 458.211 1.37122 0.776871 0
M  V30 4883 C 459.436 1.354 1.57104 0
M  V30 4884 C 459.861 -0.0595562 1.88006 0
M  V30 4885 O 459.219 -1.03514 1.48844 0
M  V30 4886 C 459.267 2.19472 2.8612 0
M  V30 4887 O 458.371 1.59582 3.80273 0
M  V30 4888 H 457.712 0.462869 0.476076 0
M  V30 4889 H 460.242 1.80577 0.961932 0
M  V30 4890 H 460.252 2.32502 3.35271 0
M  V30 4891 H 458.927 3.22222 2.62956 0
M  V30 4892 H 457.504 1.55564 3.38902 0
M  V30 4893 N 459.689 -1.00246 1.21608 0
M  V30 4894 C 460.917 -1.77631 1.06089 0
M  V30 4895 C 461.332 -1.84746 -0.38916 0
M  V30 4896 O 460.689 -1.31068 -1.26994 0
M  V30 4897 C 460.74 -3.21415 1.65453 0
M  V30 4898 O 460.461 -3.14703 3.04785 0
M  V30 4899 C 461.962 -4.15289 1.55079 0
M  V30 4900 H 459.182 -0.558162 0.37242 0
M  V30 4901 H 461.726 -1.26093 1.60999 0
M  V30 4902 H 459.881 -3.70053 1.14629 0
M  V30 4903 H 460.295 -4.05056 3.33212 0
M  V30 4904 H 461.769 -5.13965 2.01355 0
M  V30 4905 H 462.246 -4.36279 0.505665 0
M  V30 4906 H 462.852 -3.72543 2.05163 0
M  V30 4907 N 461.167 -1.02423 -1.1978 0
M  V30 4908 C 462.392 -0.7373 -1.93852 0
M  V30 4909 C 462.817 0.696923 -1.74713 0
M  V30 4910 O 462.175 1.48056 -1.04638 0
M  V30 4911 C 462.223 -1.08783 -3.438 0
M  V30 4912 O 461.327 -0.20383 -4.11896 0
M  V30 4913 H 460.668 -0.27284 -0.605355 0
M  V30 4914 H 463.198 -1.36966 -1.51992 0
M  V30 4915 H 463.208 -1.04276 -3.9445 0
M  V30 4916 H 461.883 -2.13274 -3.57053 0
M  V30 4917 H 460.46 -0.307091 -3.71633 0
M  V30 4918 N 462.645 1.35699 -0.801477 0
M  V30 4919 C 463.575 2.32436 -0.222658 0
M  V30 4920 C 464.556 1.5723 0.649057 0
M  V30 4921 O 465.741 1.85324 0.580387 0
M  V30 4922 C 462.871 3.41469 0.633719 0
M  V30 4923 C 461.825 4.27774 -0.139083 0
M  V30 4924 C 461.151 5.28082 0.838666 0
M  V30 4925 C 462.451 5.04946 -1.33517 0
M  V30 4926 H 464.145 2.81094 -1.03086 0
M  V30 4927 H 461.691 1.35146 -0.497155 0
M  V30 4928 H 463.644 4.08143 1.04868 0
M  V30 4929 H 462.368 2.91408 1.47475 0
M  V30 4930 H 461.027 3.62673 -0.535156 0
M  V30 4931 H 460.675 4.7429 1.67506 0
M  V30 4932 H 460.375 5.86695 0.32594 0
M  V30 4933 H 461.899 5.97628 1.25194 0
M  V30 4934 H 463.313 5.64593 -0.995349 0
M  V30 4935 H 461.71 5.7303 -1.78202 0
M  V30 4936 H 462.78 4.35886 -2.12442 0
M  V30 4937 N 464.123 0.554532 1.47522 0
M  V30 4938 C 465.372 0.0273458 2.01681 0
M  V30 4939 C 465.685 -1.32962 1.43459 0
M  V30 4940 O 466.891 -1.94657 1.89265 0
M  V30 4941 C 465.347 -0.00159057 3.599 0
M  V30 4942 C 464.955 1.35197 4.27113 0
M  V30 4943 C 466.699 -0.476311 4.21819 0
M  V30 4944 C 464.606 1.28229 5.77331 0
M  V30 4945 H 463.536 0.00645269 0.753972 0
M  V30 4946 H 466.187 0.701985 1.69542 0
M  V30 4947 H 464.569 -0.741821 3.8899 0
M  V30 4948 H 465.743 2.1097 4.09668 0
M  V30 4949 H 464.058 1.76441 3.77171 0
M  V30 4950 H 466.655 -0.5468 5.31897 0
M  V30 4951 H 466.998 -1.4877 3.8881 0
M  V30 4952 H 467.531 0.20898 3.97251 0
M  V30 4953 H 464.27 2.26959 6.14955 0
M  V30 4954 H 463.79 0.566314 5.97121 0
M  V30 4955 H 465.469 0.983226 6.39485 0
M  V30 4956 N 465.601 -1.54893 0.290851 0
M  V30 4957 C 466.511 -2.26812 -0.59945 0
M  V30 4958 C 467.527 -1.29963 -1.15696 0
M  V30 4959 O 468.703 -1.62928 -1.18391 0
M  V30 4960 C 465.768 -2.98716 -1.75982 0
M  V30 4961 C 464.829 -4.1108 -1.2374 0
M  V30 4962 C 464.062 -4.79546 -2.34246 0
M  V30 4963 O 464.285 -4.47309 -3.53936 0
M  V30 4964 O 463.219 -5.67165 -2.01512 0
M  V30 4965 H 467.045 -3.03696 -0.0163561 0
M  V30 4966 H 464.63 -1.49289 0.0576755 0
M  V30 4967 H 466.512 -3.43851 -2.43607 0
M  V30 4968 H 465.187 -2.24737 -2.3297 0
M  V30 4969 H 464.094 -3.70367 -0.527163 0
M  V30 4970 H 465.427 -4.87007 -0.71307 0
M  V30 4971 N 467.08 -0.0183926 -1.57589 0
M  V30 4972 C 468.496 0.337897 -1.55982 0
M  V30 4973 C 468.696 1.73604 -1.02294 0
M  V30 4974 O 467.752 2.43589 -0.664895 0
M  V30 4975 C 469.065 0.196305 -3.00059 0
M  V30 4976 C 470.613 0.269875 -3.11834 0
M  V30 4977 C 471.088 0.157197 -4.5773 0
M  V30 4978 N 472.579 0.214521 -4.62703 0
M  V30 4979 C 473.314 0.150955 -5.73201 0
M  V30 4980 N 472.81 0.0369212 -6.9279 0
M  V30 4981 N 474.603 0.204162 -5.61729 0
M  V30 4982 H 466.754 -0.93279 -1.90821 0
M  V30 4983 H 469.017 -0.359253 -0.877292 0
M  V30 4984 H 468.723 -0.766383 -3.43248 0
M  V30 4985 H 468.597 0.970908 -3.6449 0
M  V30 4986 H 470.984 1.22302 -2.68563 0
M  V30 4987 H 471.065 -0.534918 -2.50144 0
M  V30 4988 H 470.709 -0.792479 -5.01679 0
M  V30 4989 H 470.639 0.980717 -5.17387 0
M  V30 4990 H 473.13 0.303238 -3.76681 0
M  V30 4991 H 473.443 -0.00518321 -7.728 0
M  V30 4992 H 471.788 0.0022886 -6.95 0
M  V30 4993 H 474.979 0.291575 -4.67191 0
M  V30 4994 H 475.152 0.15116 -6.47824 0
M  V30 4995 N 468.558 1.5553 0.254621 0
M  V30 4996 C 469.974 1.4778 0.602753 0
M  V30 4997 C 470.174 0.707047 1.88688 0
M  V30 4998 O 469.23 0.233288 2.5142 0
M  V30 4999 C 470.543 2.92133 0.712648 0
M  V30 5000 C 472.091 3.02458 0.805488 0
M  V30 5001 C 472.566 4.48102 0.947009 0
M  V30 5002 N 474.057 4.52008 1.01207 0
M  V30 5003 C 474.792 5.61939 1.1407 0
M  V30 5004 N 474.288 6.81697 1.23536 0
M  V30 5005 N 476.081 5.49719 1.17325 0
M  V30 5006 H 468.232 2.04085 -0.588463 0
M  V30 5007 H 470.495 0.926229 -0.202001 0
M  V30 5008 H 470.201 3.51332 -0.160766 0
M  V30 5009 H 470.075 3.42187 1.58707 0
M  V30 5010 H 472.462 2.43344 1.66936 0
M  V30 5011 H 472.543 2.55627 -0.0939266 0
M  V30 5012 H 472.187 5.07824 0.087725 0
M  V30 5013 H 472.117 4.92607 1.86135 0
M  V30 5014 H 474.608 3.65749 0.950577 0
M  V30 5015 H 474.921 7.61228 1.33236 0
M  V30 5016 H 473.266 6.84473 1.20508 0
M  V30 5017 H 476.457 4.55095 1.09573 0
M  V30 5018 H 476.63 6.35432 1.27005 0
M  V30 5019 N 470.036 -0.519951 1.48776 0
M  V30 5020 C 471.282 -1.27711 1.57536 0
M  V30 5021 C 471.615 -1.92547 0.252866 0
M  V30 5022 O 470.89 -1.7979 -0.742021 0
M  V30 5023 C 471.173 -2.35875 2.72094 0
M  V30 5024 C 471.026 -1.75664 4.1408 0
M  V30 5025 C 472.345 -3.37575 2.82367 0
M  V30 5026 H 469.464 -0.462971 0.573434 0
M  V30 5027 H 472.106 -0.578194 1.80989 0
M  V30 5028 H 470.256 -2.95488 2.52228 0
M  V30 5029 H 471.928 -1.20025 4.45412 0
M  V30 5030 H 470.171 -1.06154 4.20611 0
M  V30 5031 H 470.842 -2.54029 4.90075 0
M  V30 5032 H 473.318 -2.87929 3.00393 0
M  V30 5033 H 472.194 -4.1064 3.64233 0
M  V30 5034 H 472.455 -3.98743 1.90936 0
M  V30 5035 N 471.514 -1.37532 -0.769588 0
M  V30 5036 C 472.93 -1.18379 -1.07045 0
M  V30 5037 C 473.13 -0.0214312 -2.01489 0
M  V30 5038 O 472.186 0.637809 -2.44312 0
M  V30 5039 C 473.499 -2.50338 -1.66588 0
M  V30 5040 C 475.047 -2.56879 -1.78835 0
M  V30 5041 C 475.522 -3.88974 -2.41792 0
M  V30 5042 N 477.013 -3.90428 -2.4924 0
M  V30 5043 C 477.748 -4.89388 -2.98809 0
M  V30 5044 N 477.244 -5.98745 -3.48535 0
M  V30 5045 N 479.037 -4.76791 -2.97703 0
M  V30 5046 H 471.188 -2.11921 -0.142541 0
M  V30 5047 H 473.451 -0.939608 -0.125863 0
M  V30 5048 H 473.157 -3.35767 -1.0466 0
M  V30 5049 H 473.031 -2.67583 -2.65856 0
M  V30 5050 H 475.418 -1.71856 -2.39895 0
M  V30 5051 H 475.499 -2.43516 -0.783166 0
M  V30 5052 H 475.143 -4.74412 -1.81371 0
M  V30 5053 H 475.073 -3.99641 -3.4292 0
M  V30 5054 H 477.564 -3.11433 -2.14052 0
M  V30 5055 H 477.877 -6.70205 -3.84767 0
M  V30 5056 H 476.222 -6.02387 -3.46634 0
M  V30 5057 H 479.413 -3.90478 -2.58157 0
M  V30 5058 H 479.586 -5.54069 -3.36024 0
M  V30 5059 N 472.992 0.995999 -1.22138 0
M  V30 5060 C 473.925 2.08302 -0.931952 0
M  V30 5061 C 474.903 1.62127 0.123956 0
M  V30 5062 O 476.087 1.88499 -0.00696004 0
M  V30 5063 C 473.214 3.36317 -0.401068 0
M  V30 5064 C 472.26 4.01413 -1.44117 0
M  V30 5065 S 473.093 4.42664 -3.01345 0
M  V30 5066 C 474.249 5.73853 -2.49887 0
M  V30 5067 H 474.482 2.32532 -1.85246 0
M  V30 5068 H 472.015 1.13005 -1.0521 0
M  V30 5069 H 473.973 4.10375 -0.101352 0
M  V30 5070 H 472.634 3.10123 0.498272 0
M  V30 5071 H 471.827 4.9358 -1.01952 0
M  V30 5072 H 471.429 3.33668 -1.68943 0
M  V30 5073 H 473.721 6.50039 -1.90934 0
M  V30 5074 H 474.664 6.20841 -3.40532 0
M  V30 5075 H 475.072 5.31105 -1.9128 0
M  V30 5076 N 474.47 1.03057 1.19235 0
M  V30 5077 C 475.433 0.617418 2.20727 0
M  V30 5078 C 476.433 -0.319856 1.57587 0
M  V30 5079 O 477.623 -0.106633 1.73873 0
M  V30 5080 C 474.755 -0.096296 3.40764 0
M  V30 5081 H 475.948 1.51544 2.58794 0
M  V30 5082 H 473.501 0.821949 1.32942 0
M  V30 5083 H 474.236 -1.00859 3.08217 0
M  V30 5084 H 474.021 0.577217 3.87828 0
M  V30 5085 H 475.511 -0.372219 4.15938 0
M  V30 5086 N 475.948 -1.35272 0.808662 0
M  V30 5087 C 476.878 -2.32315 0.234981 0
M  V30 5088 C 477.859 -1.57572 -0.64071 0
M  V30 5089 O 479.044 -1.8563 -0.570551 0
M  V30 5090 C 476.174 -3.41801 -0.615601 0
M  V30 5091 C 475.128 -4.27694 0.161767 0
M  V30 5092 C 474.454 -5.28519 -0.810649 0
M  V30 5093 C 475.754 -5.04231 1.36193 0
M  V30 5094 H 477.448 -2.80543 1.04575 0
M  V30 5095 H 474.994 -1.3488 0.504315 0
M  V30 5096 H 476.947 -4.08693 -1.02702 0
M  V30 5097 H 475.671 -2.92186 -1.45928 0
M  V30 5098 H 474.33 -3.62384 0.554382 0
M  V30 5099 H 473.978 -4.75171 -1.64988 0
M  V30 5100 H 473.678 -5.8686 -0.294822 0
M  V30 5101 H 475.202 -5.98283 -1.22023 0
M  V30 5102 H 476.616 -5.64058 1.02528 0
M  V30 5103 H 475.013 -5.72077 1.81239 0
M  V30 5104 H 476.083 -4.34753 2.14751 0
M  V30 5105 N 477.426 -0.562348 -1.47226 0
M  V30 5106 C 478.674 -0.0401371 -2.0206 0
M  V30 5107 C 478.995 1.3165 -1.43852 0
M  V30 5108 O 478.265 1.85976 -0.615599 0
M  V30 5109 H 476.845 -0.0118479 -0.746906 0
M  V30 5110 H 479.507 -0.73352 -1.8057 0
M  V30 5111 H 478.603 0.0441254 -3.12069 0
M  V30 5112 N 478.904 1.54736 -0.299062 0
M  V30 5113 C 480.132 2.04512 0.313447 0
M  V30 5114 C 480.547 1.17643 1.47667 0
M  V30 5115 O 479.904 0.20164 1.81383 0
M  V30 5116 C 479.955 3.53171 0.771542 0
M  V30 5117 O 479.676 4.36736 -0.345379 0
M  V30 5118 C 481.177 4.18936 1.4494 0
M  V30 5119 H 478.397 0.667507 0.0683784 0
M  V30 5120 H 480.941 1.99752 -0.438129 0
M  V30 5121 H 479.096 3.58298 1.47314 0
M  V30 5122 H 479.51 5.24499 0.0109219 0
M  V30 5123 H 480.984 5.24482 1.72111 0
M  V30 5124 H 481.461 3.68554 2.38883 0
M  V30 5125 H 482.067 4.17879 0.791028 0
M  V30 5126 N 480.382 0.0267497 1.57577 0
M  V30 5127 C 481.63 -0.651116 1.91324 0
M  V30 5128 C 481.951 -1.72804 0.90353 0
M  V30 5129 O 481.221 -1.95822 -0.0552946 0
M  V30 5130 H 479.801 -0.243491 0.706202 0
M  V30 5131 H 482.463 0.0739935 1.94759 0
M  V30 5132 H 481.559 -1.10536 2.9187 0
M  V30 5133 N 481.861 -1.55662 -0.24637 0
M  V30 5134 C 483.138 -1.68272 -0.997198 0
M  V30 5135 C 483.518 -0.566785 -2.03349 0
M  V30 5136 O 482.866 0.429688 -2.24424 0
M  V30 5137 C 483.076 -3.08594 -1.63006 0
M  V30 5138 C 484.424 -3.6721 -2.13171 0
M  V30 5139 O 485.448 -3.11397 -1.72946 0
M  V30 5140 O 484.307 -4.65054 -2.87031 0
M  V30 5141 H 481.401 -0.684429 -0.464205 0
M  V30 5142 H 483.947 -1.67993 -0.240114 0
M  V30 5143 H 482.719 -3.81264 -0.880527 0
M  V30 5144 H 482.342 -3.12886 -2.45333 0
M  V30 5145 N 483.339 0.512053 -1.4905 0
M  V30 5146 C 484.755 0.84224 -1.35567 0
M  V30 5147 C 484.955 1.97878 -0.380319 0
M  V30 5148 O 484.011 2.51769 0.19201 0
M  V30 5149 C 485.324 1.19286 -2.76028 0
M  V30 5150 C 486.872 1.30171 -2.84648 0
M  V30 5151 C 487.347 1.68568 -4.25851 0
M  V30 5152 N 488.838 1.75638 -4.28609 0
M  V30 5153 C 489.573 2.06769 -5.34821 0
M  V30 5154 N 489.069 2.36201 -6.51292 0
M  V30 5155 N 490.862 2.07927 -5.22229 0
M  V30 5156 H 483.013 -0.237574 -2.11067 0
M  V30 5157 H 485.276 -0.0436747 -0.946993 0
M  V30 5158 H 484.982 0.431199 -3.49047 0
M  V30 5159 H 484.856 2.13889 -3.10695 0
M  V30 5160 H 487.243 2.05411 -2.11873 0
M  V30 5161 H 487.324 0.336457 -2.53578 0
M  V30 5162 H 486.968 0.938824 -4.99148 0
M  V30 5163 H 486.898 2.66174 -4.54377 0
M  V30 5164 H 489.389 1.55097 -3.44606 0
M  V30 5165 H 489.702 2.59112 -7.28066 0
M  V30 5166 H 488.047 2.33681 -6.54536 0
M  V30 5167 H 491.238 1.84403 -4.30248 0
M  V30 5168 H 491.411 2.31856 -6.05101 0
M  V30 5169 N 484.817 1.37938 0.762283 0
M  V30 5170 C 486.233 1.18945 1.06415 0
M  V30 5171 C 486.433 0.0321163 2.01474 0
M  V30 5172 O 485.489 -0.624844 2.44647 0
M  V30 5173 C 486.802 2.51218 1.65258 0
M  V30 5174 C 488.35 2.57824 1.7747 0
M  V30 5175 C 488.825 3.90251 2.39725 0
M  V30 5176 N 490.316 3.91744 2.47166 0
M  V30 5177 C 491.051 4.90966 2.96209 0
M  V30 5178 N 490.547 6.00585 3.45354 0
M  V30 5179 N 492.34 4.78363 2.9517 0
M  V30 5180 H 484.491 2.11994 0.131301 0
M  V30 5181 H 486.754 0.940262 0.120879 0
M  V30 5182 H 486.46 3.36317 1.02878 0
M  V30 5183 H 486.334 2.68989 2.64433 0
M  V30 5184 H 488.721 1.73126 2.3898 0
M  V30 5185 H 488.802 2.43928 0.770241 0
M  V30 5186 H 488.446 4.75368 1.78852 0
M  V30 5187 H 488.376 4.01454 3.40796 0
M  V30 5188 H 490.867 3.12563 2.12397 0
M  V30 5189 H 491.18 6.72236 3.81207 0
M  V30 5190 H 489.525 6.04217 3.43434 0
M  V30 5191 H 492.716 3.91841 2.56082 0
M  V30 5192 H 492.889 5.55843 3.33081 0
M  V30 5193 N 486.295 -0.989507 1.22664 0
M  V30 5194 C 487.543 -1.72612 1.05117 0
M  V30 5195 C 487.864 -1.90552 -0.414131 0
M  V30 5196 O 487.134 -1.4676 -1.29762 0
M  V30 5197 H 485.714 -0.639555 0.385977 0
M  V30 5198 H 488.376 -1.19158 1.54232 0
M  V30 5199 H 487.472 -2.71926 1.53175 0
M  V30 5200 N 487.773 -1.03688 -1.18687 0
M  V30 5201 C 488.703 -0.645407 -2.24403 0
M  V30 5202 C 489.684 0.349511 -1.66471 0
M  V30 5203 O 490.869 0.230453 -1.92828 0
M  V30 5204 C 487.999 -0.00365337 -3.473 0
M  V30 5205 C 486.953 -0.921705 -4.17958 0
M  V30 5206 C 486.279 -0.144629 -5.34504 0
M  V30 5207 C 487.579 -2.23909 -4.71871 0
M  V30 5208 H 489.273 -1.52917 -2.57404 0
M  V30 5209 H 486.819 -0.736711 -1.23728 0
M  V30 5210 H 488.772 0.281908 -4.20456 0
M  V30 5211 H 487.496 0.914963 -3.13522 0
M  V30 5212 H 486.155 -1.19159 -3.46694 0
M  V30 5213 H 485.803 0.776274 -4.96974 0
M  V30 5214 H 485.503 -0.756206 -5.82714 0
M  V30 5215 H 487.027 0.134004 -6.10453 0
M  V30 5216 H 488.441 -2.0145 -5.36741 0
M  V30 5217 H 486.838 -2.8033 -5.30599 0
M  V30 5218 H 487.908 -2.88822 -3.895 0
M  V30 5219 N 489.251 1.34841 -0.815825 0
M  V30 5220 C 490.199 2.31549 -0.220888 0
M  V30 5221 C 491.193 1.5707 0.634457 0
M  V30 5222 O 492.399 1.72125 0.526589 0
M  V30 5223 H 488.774 0.750153 -0.0526782 0
M  V30 5224 H 490.745 2.7926 -1.05149 0
M  V30 5225 C 489.494 3.42335 0.608427 0
M  V30 5226 H 488.817 3.9978 -0.0404121 0
M  V30 5227 H 490.257 4.12258 0.990931 0
M  V30 5228 C 488.716 2.86173 1.77782 0
M  V30 5229 O 489.246 2.80474 2.87571 0
M  V30 5230 N 487.452 2.43093 1.59229 0
M  V30 5231 H 486.999 2.47928 0.699237 0
M  V30 5232 H 486.957 2.05866 2.37627 0
M  V30 5233 N 490.729 0.570148 1.46925 0
M  V30 5234 C 491.957 0.0561966 2.06824 0
M  V30 5235 C 492.372 -1.24326 1.42086 0
M  V30 5236 O 491.729 -1.74882 0.521794 0
M  V30 5237 C 491.78 -0.129517 3.61268 0
M  V30 5238 O 491.501 1.1185 4.23581 0
M  V30 5239 C 493.002 -0.679266 4.38065 0
M  V30 5240 H 490.222 0.0517261 0.669003 0
M  V30 5241 H 492.766 0.787243 1.8874 0
M  V30 5242 H 490.921 -0.810739 3.78822 0
M  V30 5243 H 491.335 0.924375 5.1629 0
M  V30 5244 H 492.809 -0.758445 5.46765 0
M  V30 5245 H 493.286 -1.69346 4.05239 0
M  V30 5246 H 493.892 -0.0333237 4.25287 0
M  V30 5247 N 492.207 -1.54576 0.307264 0
M  V30 5248 C 493.453 -2.01272 -0.293453 0
M  V30 5249 C 493.808 -1.19178 -1.51044 0
M  V30 5250 O 493.101 -0.261704 -1.89804 0
M  V30 5251 C 493.295 -3.50572 -0.695253 0
M  V30 5252 C 493.124 -4.47118 0.481249 0
M  V30 5253 C 491.894 -4.958 0.97524 0
M  V30 5254 C 494.092 -4.96853 1.32823 0
M  V30 5255 N 492.074 -5.76212 2.11785 0
M  V30 5256 C 493.445 -5.75028 2.31824 0
M  V30 5257 C 495.5 -4.79026 1.35788 0
M  V30 5258 C 494.203 -6.37276 3.33574 0
M  V30 5259 C 496.229 -5.42097 2.364 0
M  V30 5260 C 495.591 -6.2011 3.34129 0
M  V30 5261 H 491.69 -0.778709 -0.0716705 0
M  V30 5262 H 494.274 -1.89695 0.438602 0
M  V30 5263 H 492.445 -3.62427 -1.39647 0
M  V30 5264 H 494.177 -3.84056 -1.27604 0
M  V30 5265 H 490.932 -4.70405 0.549184 0
M  V30 5266 H 491.356 -6.21101 2.69375 0
M  V30 5267 H 495.998 -4.18288 0.616021 0
M  V30 5268 H 493.716 -6.97144 4.08676 0
M  V30 5269 H 497.302 -5.30229 2.39475 0
M  V30 5270 H 496.182 -6.68049 4.10707 0
M  V30 5271 N 493.685 -0.035106 -1.57561 0
M  V30 5272 C 494.615 0.942993 -2.13612 0
M  V30 5273 C 495.596 1.33531 -1.05373 0
M  V30 5274 O 496.781 1.41287 -1.33235 0
M  V30 5275 C 493.911 2.22332 -2.66807 0
M  V30 5276 C 492.865 1.97156 -3.79886 0
M  V30 5277 C 492.191 3.31506 -4.19533 0
M  V30 5278 C 493.491 1.30596 -5.05709 0
M  V30 5279 H 495.185 0.476179 -2.95589 0
M  V30 5280 H 492.731 0.227602 -1.4219 0
M  V30 5281 H 494.684 2.91142 -3.04654 0
M  V30 5282 H 493.408 2.7119 -1.81999 0
M  V30 5283 H 492.067 1.30763 -3.42486 0
M  V30 5284 H 491.715 3.78134 -3.31698 0
M  V30 5285 H 491.415 3.15465 -4.95738 0
M  V30 5286 H 492.939 4.01574 -4.59968 0
M  V30 5287 H 494.353 1.89416 -5.41105 0
M  V30 5288 H 492.75 1.24934 -5.86951 0
M  V30 5289 H 493.82 0.279742 -4.84092 0
M  V30 5290 N 495.163 1.55791 0.238111 0
M  V30 5291 C 496.126 1.90239 1.27835 0
M  V30 5292 C 497.126 0.779552 1.4064 0
M  V30 5293 O 498.316 1.04747 1.3919 0
M  V30 5294 C 495.448 2.13859 2.65475 0
M  V30 5295 H 496.641 2.83262 0.985034 0
M  V30 5296 H 494.194 1.48818 0.477799 0
M  V30 5297 H 494.929 1.23334 2.99932 0
M  V30 5298 H 494.714 2.95643 2.57561 0
M  V30 5299 H 496.204 2.41664 3.40571 0
M  V30 5300 N 496.642 -0.504142 1.49319 0
M  V30 5301 C 498.058 -0.835039 1.36012 0
M  V30 5302 C 498.258 -1.97674 0.390808 0
M  V30 5303 O 497.314 -2.51867 -0.178655 0
M  V30 5304 C 498.627 -1.17821 2.76656 0
M  V30 5305 C 500.175 -1.2866 2.85334 0
M  V30 5306 C 500.65 -1.66307 4.26739 0
M  V30 5307 N 502.141 -1.73362 4.29534 0
M  V30 5308 C 502.876 -2.0393 5.35911 0
M  V30 5309 N 502.372 -2.32744 6.52535 0
M  V30 5310 N 504.165 -2.05155 5.23324 0
M  V30 5311 H 496.316 0.248764 2.10938 0
M  V30 5312 H 498.579 0.0486962 0.946748 0
M  V30 5313 H 498.285 -0.412682 3.4927 0
M  V30 5314 H 498.159 -2.12239 3.11825 0
M  V30 5315 H 500.546 -2.04285 2.1296 0
M  V30 5316 H 500.627 -0.323004 2.53752 0
M  V30 5317 H 500.271 -0.91234 4.99639 0
M  V30 5318 H 500.201 -2.63761 4.55782 0
M  V30 5319 H 502.692 -1.53268 3.45424 0
M  V30 5320 H 503.005 -2.55248 7.2943 0
M  V30 5321 H 501.35 -2.30207 6.55767 0
M  V30 5322 H 504.541 -1.82119 4.3122 0
M  V30 5323 H 504.714 -2.28644 6.06322 0
M  V30 5324 N 498.12 -1.38341 -0.754957 0
M  V30 5325 C 499.05 -1.38176 -1.88227 0
M  V30 5326 C 500.031 -0.247873 -1.68284 0
M  V30 5327 O 501.216 -0.45075 -1.88896 0
M  V30 5328 C 498.346 -1.20471 -3.25736 0
M  V30 5329 C 497.3 -2.3105 -3.60278 0
M  V30 5330 C 496.626 -1.98452 -4.96509 0
M  V30 5331 C 497.926 -3.73305 -3.65295 0
M  V30 5332 H 499.62 -2.32512 -1.88622 0
M  V30 5333 H 497.166 -1.1192 -0.906082 0
M  V30 5334 H 499.119 -1.18982 -4.04254 0
M  V30 5335 H 497.843 -0.225965 -3.25817 0
M  V30 5336 H 496.502 -2.31723 -2.84078 0
M  V30 5337 H 496.15 -0.990641 -4.93148 0
M  V30 5338 H 495.85 -2.7251 -5.20588 0
M  V30 5339 H 497.374 -1.98578 -5.77407 0
M  V30 5340 H 498.788 -3.7467 -4.3393 0
M  V30 5341 H 497.185 -4.46557 -4.00883 0
M  V30 5342 H 498.255 -4.05719 -2.65556 0
M  V30 5343 N 499.598 0.982988 -1.23187 0
M  V30 5344 C 501.009 1.53847 -1.05773 0
M  V30 5345 C 501.36 1.92568 0.375744 0
M  V30 5346 O 500.485 1.75783 1.26211 0
M  V30 5347 C 501.08 2.79567 -1.91384 0
M  V30 5348 C 499.639 3.31524 -1.78238 0
M  V30 5349 C 498.786 2.04534 -1.87246 0
M  V30 5350 H 501.737 0.802962 -1.36888 0
M  V30 5351 H 501.758 3.52317 -1.43711 0
M  V30 5352 H 501.27 2.51353 -2.95708 0
M  V30 5353 H 499.371 3.64623 -0.766875 0
M  V30 5354 H 499.484 4.01457 -2.61475 0
M  V30 5355 H 497.848 2.1855 -1.30797 0
M  V30 5356 H 498.631 1.78706 -2.9312 0
M  V30 5357 N 501.076 1.04316 1.18135 0
M  V30 5358 C 502.009 0.580823 2.20685 0
M  V30 5359 C 502.987 -0.385943 1.57953 0
M  V30 5360 O 504.171 -0.299654 1.86103 0
M  V30 5361 C 501.298 -0.151162 3.38363 0
M  V30 5362 C 500.344 0.769247 4.19505 0
M  V30 5363 S 501.177 2.25352 4.85774 0
M  V30 5364 C 502.333 1.53246 6.0685 0
M  V30 5365 H 502.566 1.44968 2.5956 0
M  V30 5366 H 500.099 0.85434 1.28609 0
M  V30 5367 H 502.057 -0.567315 4.06561 0
M  V30 5368 H 500.718 -0.995936 2.97892 0
M  V30 5369 H 499.911 0.203335 5.0359 0
M  V30 5370 H 499.513 1.12436 3.56699 0
M  V30 5371 H 501.805 0.82689 6.72435 0
M  V30 5372 H 502.748 2.35044 6.67952 0
M  V30 5373 H 503.156 1.0237 5.5514 0
M  V30 5374 N 502.554 -1.34406 0.822964 0
M  V30 5375 C 503.464 -2.33298 0.246838 0
M  V30 5376 C 504.48 -1.62625 -0.618797 0
M  V30 5377 O 505.656 -1.94391 -0.526685 0
M  V30 5378 C 502.721 -3.41785 -0.581731 0
M  V30 5379 C 501.782 -4.28206 0.306309 0
M  V30 5380 C 501.015 -5.31512 -0.48281 0
M  V30 5381 O 501.238 -5.43973 -1.71607 0
M  V30 5382 O 500.172 -6.01749 0.134884 0
M  V30 5383 H 503.998 -2.84401 1.06534 0
M  V30 5384 H 501.583 -1.37466 0.585108 0
M  V30 5385 H 503.465 -4.08028 -1.05313 0
M  V30 5386 H 502.14 -2.92925 -1.37756 0
M  V30 5387 H 501.047 -3.64885 0.825199 0
M  V30 5388 H 502.38 -4.80507 1.06649 0
M  V30 5389 N 504.032 -0.577932 -1.46621 0
M  V30 5390 C 504.995 0.147805 -2.28723 0
M  V30 5391 C 505.995 0.823325 -1.38123 0
M  V30 5392 O 507.185 0.676011 -1.60548 0
M  V30 5393 C 504.317 1.21853 -3.18378 0
M  V30 5394 H 505.51 -0.573654 -2.94362 0
M  V30 5395 H 503.063 -0.335703 -1.52652 0
M  V30 5396 H 503.798 1.97173 -2.57475 0
M  V30 5397 H 503.583 0.738714 -3.85078 0
M  V30 5398 H 505.073 1.72768 -3.80186 0
M  V30 5399 N 505.51 1.54411 -0.315457 0
M  V30 5400 C 506.457 2.24048 0.554166 0
M  V30 5401 C 507.427 1.2283 1.11812 0
M  V30 5402 O 508.612 1.51491 1.15997 0
M  V30 5403 C 505.752 2.99574 1.71316 0
M  V30 5404 C 504.865 4.15594 1.17922 0
M  V30 5405 C 504 4.78669 2.30324 0
M  V30 5406 C 503.039 5.86807 1.74137 0
M  V30 5407 N 502.176 6.43777 2.8017 0
M  V30 5408 H 507.016 2.97964 -0.0462602 0
M  V30 5409 H 504.553 1.47059 -0.0346009 0
M  V30 5410 H 506.511 3.41604 2.39505 0
M  V30 5411 H 505.141 2.28008 2.285 0
M  V30 5412 H 504.193 3.78404 0.389136 0
M  V30 5413 H 505.505 4.93459 0.728012 0
M  V30 5414 H 504.659 5.23626 3.06433 0
M  V30 5415 H 503.398 4.00168 2.78778 0
M  V30 5416 H 502.403 5.41261 0.965236 0
M  V30 5417 H 503.628 6.67201 1.2657 0
M  V30 5418 H 501.574 5.68153 3.2793 0
M  V30 5419 H 501.491 7.17031 2.39588 0
M  V30 5420 H 502.759 6.9339 3.56132 0
M  V30 5421 N 506.988 0.0434614 1.5754 0
M  V30 5422 C 507.898 -0.94893 2.14552 0
M  V30 5423 C 508.914 -1.34707 1.10136 0
M  V30 5424 O 510.09 -1.42557 1.42266 0
M  V30 5425 C 507.155 -2.208 2.67298 0
M  V30 5426 C 506.216 -1.86893 3.86484 0
M  V30 5427 C 505.449 -3.06797 4.36705 0
M  V30 5428 O 505.672 -4.19921 3.86034 0
M  V30 5429 O 504.606 -2.8826 5.28384 0
M  V30 5430 H 508.432 -0.494099 2.99654 0
M  V30 5431 H 506.017 -0.177989 1.48336 0
M  V30 5432 H 507.899 -2.94686 3.01228 0
M  V30 5433 H 506.574 -2.65436 1.85272 0
M  V30 5434 H 505.481 -1.10347 3.57455 0
M  V30 5435 H 506.814 -1.47062 4.69716 0
M  V30 5436 N 508.466 -1.55915 -0.229846 0
M  V30 5437 C 509.413 -1.91734 -1.28478 0
M  V30 5438 C 510.383 -0.773539 -1.46988 0
M  V30 5439 O 511.568 -1.02871 -1.60693 0
M  V30 5440 C 508.708 -2.23224 -2.63182 0
M  V30 5441 C 507.821 -3.50497 -2.52539 0
M  V30 5442 C 506.956 -3.71474 -3.79711 0
M  V30 5443 C 505.995 -4.92289 -3.63755 0
M  V30 5444 N 505.132 -5.09698 -4.82858 0
M  V30 5445 H 509.972 -2.81692 -0.972308 0
M  V30 5446 H 507.509 -1.39429 -0.468815 0
M  V30 5447 H 509.467 -2.3949 -3.41614 0
M  V30 5448 H 508.097 -1.36451 -2.92542 0
M  V30 5449 H 507.149 -3.4247 -1.65585 0
M  V30 5450 H 508.461 -4.39079 -2.36666 0
M  V30 5451 H 507.615 -3.87791 -4.66586 0
M  V30 5452 H 506.354 -2.81157 -3.985 0
M  V30 5453 H 505.359 -4.7593 -2.75264 0
M  V30 5454 H 506.584 -5.84083 -3.46445 0
M  V30 5455 H 504.53 -4.22322 -5.01976 0
M  V30 5456 H 504.447 -5.92399 -4.69681 0
M  V30 5457 H 505.715 -5.30443 -5.71183 0
M  V30 5458 N 509.944 0.496216 -1.49584 0
M  V30 5459 C 511.221 1.25755 -1.49816 0
M  V30 5460 C 511.601 2.09859 -0.228572 0
M  V30 5461 O 510.949 2.14449 0.788908 0
M  V30 5462 C 511.159 2.11017 -2.7798 0
M  V30 5463 C 512.507 2.70047 -3.27658 0
M  V30 5464 O 513.531 2.21281 -2.79129 0
M  V30 5465 O 512.39 3.58834 -4.1219 0
M  V30 5466 H 509.484 0.569322 -0.599834 0
M  V30 5467 H 512.03 0.510094 -1.61852 0
M  V30 5468 H 510.802 1.48879 -3.61871 0
M  V30 5469 H 510.425 2.92947 -2.68827 0
M  V30 5470 N 511.423 1.38739 0.74761 0
M  V30 5471 C 512.333 1.38696 1.89211 0
M  V30 5472 C 513.349 0.283303 1.71678 0
M  V30 5473 O 514.525 0.522713 1.94498 0
M  V30 5474 C 511.59 1.21662 3.24653 0
M  V30 5475 C 510.651 2.41886 3.54669 0
M  V30 5476 C 509.884 2.25655 4.83648 0
M  V30 5477 O 510.107 1.25339 5.56459 0
M  V30 5478 O 509.041 3.14372 5.13277 0
M  V30 5479 H 512.867 2.35143 1.92202 0
M  V30 5480 H 510.452 1.19721 0.893708 0
M  V30 5481 H 512.334 1.14246 4.05618 0
M  V30 5482 H 511.009 0.283024 3.2246 0
M  V30 5483 H 509.916 2.54877 2.73841 0
M  V30 5484 H 511.249 3.33895 3.61628 0
M  V30 5485 N 512.901 -0.976442 1.23707 0
M  V30 5486 C 514.147 -1.72158 1.08319 0
M  V30 5487 C 514.502 -1.88701 -0.375445 0
M  V30 5488 O 513.795 -1.43107 -1.274 0
M  V30 5489 C 513.989 -3.11814 1.74662 0
M  V30 5490 C 513.818 -3.08892 3.26827 0
M  V30 5491 C 512.588 -3.13861 3.96004 0
M  V30 5492 C 514.786 -2.9175 4.2354 0
M  V30 5493 N 512.768 -3.00867 5.35119 0
M  V30 5494 C 514.139 -2.8696 5.49595 0
M  V30 5495 C 516.194 -2.76265 4.14225 0
M  V30 5496 C 514.897 -2.68268 6.67401 0
M  V30 5497 C 516.923 -2.58938 5.317 0
M  V30 5498 C 516.285 -2.54849 6.56682 0
M  V30 5499 H 512.384 -0.638896 0.450927 0
M  V30 5500 H 514.968 -1.15835 1.56494 0
M  V30 5501 H 513.139 -3.66347 1.29014 0
M  V30 5502 H 514.871 -3.74984 1.52215 0
M  V30 5503 H 511.626 -3.22198 3.4711 0
M  V30 5504 H 512.05 -2.97634 6.08065 0
M  V30 5505 H 516.692 -2.78213 3.18366 0
M  V30 5506 H 514.41 -2.65063 7.63392 0
M  V30 5507 H 517.996 -2.47914 5.26336 0
M  V30 5508 H 516.876 -2.41611 7.46052 0
M  V30 5509 N 514.379 -1.04941 -1.1758 0
M  V30 5510 C 515.795 -0.770282 -1.39781 0
M  V30 5511 C 515.995 0.636417 -1.91186 0
M  V30 5512 O 515.051 1.39923 -2.10185 0
M  V30 5513 C 516.364 -1.82376 -2.3908 0
M  V30 5514 C 517.912 -1.84569 -2.52791 0
M  V30 5515 C 518.387 -2.88933 -3.55361 0
M  V30 5516 N 519.878 -2.8788 -3.62877 0
M  V30 5517 C 520.613 -3.65282 -4.41992 0
M  V30 5518 N 520.109 -4.52461 -5.24643 0
M  V30 5519 N 521.902 -3.53732 -4.36841 0
M  V30 5520 H 514.053 -1.95705 -0.825438 0
M  V30 5521 H 516.316 -0.847284 -0.425222 0
M  V30 5522 H 516.022 -2.83323 -2.08376 0
M  V30 5523 H 515.896 -1.66327 -3.38549 0
M  V30 5524 H 518.283 -0.842879 -2.82807 0
M  V30 5525 H 518.364 -2.04696 -1.53406 0
M  V30 5526 H 518.008 -3.89398 -3.26085 0
M  V30 5527 H 517.938 -2.66059 -4.54445 0
M  V30 5528 H 520.429 -2.24666 -3.03864 0
M  V30 5529 H 520.742 -5.08211 -5.82187 0
M  V30 5530 H 519.087 -4.56524 -5.24033 0
M  V30 5531 H 522.278 -2.85021 -3.71323 0
M  V30 5532 H 522.451 -4.14302 -4.98255 0
M  V30 5533 N 515.857 1.33968 -0.830081 0
M  V30 5534 C 517.087 2.01987 -0.434142 0
M  V30 5535 C 517.495 1.62639 0.96671 0
M  V30 5536 O 516.838 0.831151 1.63822 0
M  V30 5537 C 516.9 3.5648 -0.465018 0
M  V30 5538 C 516.564 4.19176 -1.82045 0
M  V30 5539 C 517.561 4.39181 -2.78237 0
M  V30 5540 C 515.246 4.55792 -2.11089 0
M  V30 5541 C 517.24 4.94937 -4.01642 0
M  V30 5542 C 514.927 5.11258 -3.34752 0
M  V30 5543 C 515.925 5.30775 -4.29845 0
M  V30 5544 O 515.613 5.85064 -5.51322 0
M  V30 5545 H 515.345 0.653847 -0.171639 0
M  V30 5546 H 517.899 1.72066 -1.12171 0
M  V30 5547 H 516.129 3.8569 0.279284 0
M  V30 5548 H 517.818 4.05804 -0.0881334 0
M  V30 5549 H 518.584 4.11249 -2.57097 0
M  V30 5550 H 514.463 4.39901 -1.3787 0
M  V30 5551 H 518.007 5.10086 -4.75876 0
M  V30 5552 H 513.904 5.38619 -3.55753 0
M  V30 5553 H 514.672 6.03489 -5.5294 0
M  V30 5554 N 517.335 0.585699 1.46312 0
M  V30 5555 C 518.581 0.0808731 2.03239 0
M  V30 5556 C 518.936 -1.26609 1.44872 0
M  V30 5557 O 518.229 -1.81779 0.60556 0
M  V30 5558 C 518.423 -0.0401312 3.57377 0
M  V30 5559 C 518.252 1.29356 4.30694 0
M  V30 5560 C 517.022 1.86849 4.69484 0
M  V30 5561 C 519.22 2.21742 4.64042 0
M  V30 5562 N 517.202 3.13926 5.27564 0
M  V30 5563 C 518.573 3.33408 5.22723 0
M  V30 5564 C 520.628 2.21386 4.45974 0
M  V30 5565 C 519.331 4.44852 5.65242 0
M  V30 5566 C 521.357 3.31862 4.89511 0
M  V30 5567 C 520.719 4.42248 5.48266 0
M  V30 5568 H 516.818 0.072443 0.778637 0
M  V30 5569 H 519.402 0.779254 1.78426 0
M  V30 5570 H 517.573 -0.707686 3.81898 0
M  V30 5571 H 519.305 -0.549615 4.00951 0
M  V30 5572 H 516.06 1.40307 4.52339 0
M  V30 5573 H 516.484 3.78775 5.61122 0
M  V30 5574 H 521.126 1.37314 3.99881 0
M  V30 5575 H 518.844 5.29665 6.10312 0
M  V30 5576 H 522.43 3.32708 4.7728 0
M  V30 5577 H 521.31 5.26323 5.81338 0
M  V30 5578 N 518.813 -1.54241 0.323641 0
M  V30 5579 C 519.745 -2.21836 -0.576311 0
M  V30 5580 C 520.758 -1.21837 -1.07979 0
M  V30 5581 O 521.947 -1.48306 -0.99336 0
M  V30 5582 C 519.047 -2.86923 -1.80356 0
M  V30 5583 C 518.22 -4.1306 -1.43875 0
M  V30 5584 C 517.279 -4.6174 -2.52353 0
M  V30 5585 O 516.305 -5.26421 -2.16494 0
M  V30 5586 N 517.507 -4.35974 -3.83284 0
M  V30 5587 H 520.272 -2.997 0.00247987 0
M  V30 5588 H 517.833 -1.61233 0.146848 0
M  V30 5589 H 519.825 -3.16414 -2.52318 0
M  V30 5590 H 518.395 -2.12765 -2.29019 0
M  V30 5591 H 517.615 -3.90334 -0.550752 0
M  V30 5592 H 518.903 -4.95148 -1.17071 0
M  V30 5593 H 518.301 -3.84203 -4.15216 0
M  V30 5594 H 516.858 -4.70119 -4.51477 0
M  V30 5595 N 520.291 -0.0518155 -1.57515 0
M  V30 5596 C 521.254 0.907547 -2.10467 0
M  V30 5597 C 522.254 1.23947 -1.02439 0
M  V30 5598 O 523.444 1.17604 -1.2851 0
M  V30 5599 C 520.576 2.21723 -2.58944 0
M  V30 5600 H 521.769 0.44851 -2.96527 0
M  V30 5601 H 519.322 0.196598 -1.55059 0
M  V30 5602 H 520.057 2.72206 -1.76279 0
M  V30 5603 H 519.842 1.98935 -3.37886 0
M  V30 5604 H 521.332 2.90441 -3.00056 0
M  V30 5605 N 521.769 1.56035 0.221574 0
M  V30 5606 C 523.046 1.69837 0.970301 0
M  V30 5607 C 523.426 0.599065 2.02421 0
M  V30 5608 O 522.774 -0.393929 2.25079 0
M  V30 5609 C 522.984 3.11148 1.58076 0
M  V30 5610 C 524.332 3.70555 2.07302 0
M  V30 5611 O 525.356 3.14109 1.6797 0
M  V30 5612 O 524.215 4.69562 2.79596 0
M  V30 5613 H 521.309 0.691727 0.453257 0
M  V30 5614 H 523.855 1.68353 0.213358 0
M  V30 5615 H 522.627 3.82617 0.819759 0
M  V30 5616 H 522.25 3.16749 2.40324 0
M  V30 5617 N 523.247 -0.488276 1.49845 0
M  V30 5618 C 524.177 -1.59675 1.70371 0
M  V30 5619 C 525.158 -1.60878 0.552473 0
M  V30 5620 O 526.343 -1.77417 0.78973 0
M  V30 5621 C 523.473 -2.98098 1.782 0
M  V30 5622 C 522.427 -3.11761 2.93239 0
M  V30 5623 C 521.753 -4.51661 2.86193 0
M  V30 5624 C 523.053 -2.90589 4.33999 0
M  V30 5625 H 524.747 -1.42752 2.63177 0
M  V30 5626 H 522.293 -0.685317 1.26647 0
M  V30 5627 H 524.246 -3.75555 1.91144 0
M  V30 5628 H 522.97 -3.16138 0.820018 0
M  V30 5629 H 521.629 -2.36732 2.79917 0
M  V30 5630 H 521.277 -4.66595 1.87877 0
M  V30 5631 H 520.977 -4.61742 3.63412 0
M  V30 5632 H 522.501 -5.31162 3.01163 0
M  V30 5633 H 523.915 -3.57807 4.47936 0
M  V30 5634 H 522.312 -3.1213 5.12538 0
M  V30 5635 H 523.382 -1.86595 4.4756 0
M  V30 5636 N 524.725 -1.39134 -0.740242 0
M  V30 5637 C 525.655 -1.40165 -1.86751 0
M  V30 5638 C 526.636 -0.265708 -1.68012 0
M  V30 5639 O 527.821 -0.47076 -1.88408 0
M  V30 5640 C 524.951 -1.2392 -3.2444 0
M  V30 5641 C 523.905 -2.34858 -3.57807 0
M  V30 5642 C 523.231 -2.03707 -4.94376 0
M  V30 5643 C 524.531 -3.77159 -3.61315 0
M  V30 5644 H 526.225 -2.345 -1.86145 0
M  V30 5645 H 523.771 -1.12875 -0.89416 0
M  V30 5646 H 525.724 -1.23263 -4.02969 0
M  V30 5647 H 524.448 -0.26051 -3.25559 0
M  V30 5648 H 523.107 -2.34723 -2.81604 0
M  V30 5649 H 522.755 -1.04289 -4.9207 0
M  V30 5650 H 522.455 -2.78016 -5.17669 0
M  V30 5651 H 523.979 -2.04691 -5.75268 0
M  V30 5652 H 525.393 -3.79252 -4.29931 0
M  V30 5653 H 523.79 -4.50784 -3.96124 0
M  V30 5654 H 524.86 -4.08513 -2.61238 0
M  V30 5655 N 526.204 0.969867 -1.24223 0
M  V30 5656 C 527.134 2.08191 -1.05729 0
M  V30 5657 C 528.115 1.70075 0.0290765 0
M  V30 5658 O 529.3 1.93712 -0.137583 0
M  V30 5659 C 526.43 3.40991 -0.658995 0
M  V30 5660 C 525.384 3.93054 -1.69389 0
M  V30 5661 C 524.71 5.22171 -1.15072 0
M  V30 5662 C 526.01 4.21137 -3.08935 0
M  V30 5663 H 527.704 2.23921 -1.98746 0
M  V30 5664 H 525.25 1.07602 -0.956967 0
M  V30 5665 H 527.203 4.18221 -0.51662 0
M  V30 5666 H 525.927 3.25155 0.30686 0
M  V30 5667 H 524.586 3.17977 -1.82444 0
M  V30 5668 H 524.234 5.02694 -0.175539 0
M  V30 5669 H 523.934 5.57973 -1.84229 0
M  V30 5670 H 525.458 6.02013 -1.02042 0
M  V30 5671 H 526.872 4.8908 -2.99121 0
M  V30 5672 H 525.269 4.68163 -3.75425 0
M  V30 5673 H 526.339 3.27996 -3.57137 0
M  V30 5674 N 527.682 1.05563 1.17022 0
M  V30 5675 C 528.592 0.670758 2.24807 0
M  V30 5676 C 529.608 -0.309865 1.71219 0
M  V30 5677 O 530.784 -0.161025 2.00755 0
M  V30 5678 C 527.849 0.055337 3.46656 0
M  V30 5679 C 526.91 1.08688 4.15314 0
M  V30 5680 C 526.143 0.500736 5.31346 0
M  V30 5681 O 526.366 -0.688718 5.66227 0
M  V30 5682 O 525.3 1.23683 5.89055 0
M  V30 5683 H 529.126 1.56914 2.60023 0
M  V30 5684 H 526.711 0.827428 1.24395 0
M  V30 5685 H 528.593 -0.286492 4.20425 0
M  V30 5686 H 527.268 -0.816638 3.13229 0
M  V30 5687 H 526.175 1.48077 3.43546 0
M  V30 5688 H 527.508 1.93014 4.52777 0
M  V30 5689 N 529.16 -1.33526 0.837174 0
M  V30 5690 C 530.576 -1.50727 0.524743 0
M  V30 5691 C 530.776 -1.77792 -0.948279 0
M  V30 5692 O 529.832 -1.83719 -1.73216 0
M  V30 5693 C 531.145 -2.66299 1.39661 0
M  V30 5694 C 532.693 -2.80183 1.39521 0
M  V30 5695 C 533.168 -3.98815 2.25189 0
M  V30 5696 N 534.659 -4.06047 2.2289 0
M  V30 5697 C 535.394 -4.97032 2.85915 0
M  V30 5698 N 534.89 -5.93143 3.57985 0
M  V30 5699 N 536.683 -4.90015 2.75394 0
M  V30 5700 H 528.834 -1.1422 1.79074 0
M  V30 5701 H 531.097 -0.561399 0.763894 0
M  V30 5702 H 530.803 -2.52974 2.4433 0
M  V30 5703 H 530.677 -3.61663 1.07145 0
M  V30 5704 H 533.064 -2.92942 0.356253 0
M  V30 5705 H 533.145 -1.85586 1.76044 0
M  V30 5706 H 532.789 -3.86817 3.29143 0
M  V30 5707 H 532.719 -4.92654 1.86009 0
M  V30 5708 H 535.21 -3.37262 1.70478 0
M  V30 5709 H 535.523 -6.59227 4.03286 0
M  V30 5710 H 533.868 -5.93223 3.62093 0
M  V30 5711 H 537.059 -4.13894 2.18654 0
M  V30 5712 H 537.232 -5.60724 3.24796 0
M  V30 5713 N 530.638 -0.59345 -1.46 0
M  V30 5714 C 531.886 -0.082988 -2.0193 0
M  V30 5715 C 532.207 1.28569 -1.46612 0
M  V30 5716 O 531.477 1.84629 -0.654909 0
M  V30 5717 H 530.057 -0.0276882 -0.746487 0
M  V30 5718 H 532.719 -0.771657 -1.78973 0
M  V30 5719 H 531.815 -0.022079 -3.12092 0
M  V30 5720 N 532.116 1.54067 -0.331816 0
M  V30 5721 C 533.532 1.59587 0.0205388 0
M  V30 5722 C 533.732 1.34813 1.49759 0
M  V30 5723 O 532.788 1.13661 2.25471 0
M  V30 5724 C 534.101 2.97959 -0.405103 0
M  V30 5725 C 535.649 3.10964 -0.356454 0
M  V30 5726 C 536.124 4.51694 -0.757384 0
M  V30 5727 N 537.615 4.57709 -0.71111 0
M  V30 5728 C 538.35 5.64729 -0.993427 0
M  V30 5729 N 537.846 6.79652 -1.3433 0
M  V30 5730 N 539.639 5.54546 -0.918442 0
M  V30 5731 H 531.79 1.68426 -1.29407 0
M  V30 5732 H 534.053 0.78819 -0.526745 0
M  V30 5733 H 533.759 3.21115 -1.43451 0
M  V30 5734 H 533.633 3.76524 0.225692 0
M  V30 5735 H 536.02 2.87538 0.663763 0
M  V30 5736 H 536.101 2.34484 -1.02229 0
M  V30 5737 H 535.745 4.75853 -1.77555 0
M  V30 5738 H 535.675 5.26555 -0.0691444 0
M  V30 5739 H 538.166 3.75176 -0.452883 0
M  V30 5740 H 538.479 7.57221 -1.54388 0
M  V30 5741 H 536.824 6.81128 -1.38164 0
M  V30 5742 H 540.015 4.63641 -0.644536 0
M  V30 5743 H 540.188 6.37861 -1.14181 0
M  V30 5744 N 533.594 0.0601682 1.57485 0
M  V30 5745 C 534.504 -0.926121 2.15546 0
M  V30 5746 C 535.52 -1.33532 1.11558 0
M  V30 5747 O 536.696 -1.4104 1.4377 0
M  V30 5748 C 533.761 -2.17952 2.69625 0
M  V30 5749 C 532.822 -1.82783 3.88444 0
M  V30 5750 C 532.055 -3.02148 4.39935 0
M  V30 5751 O 532.278 -4.15803 3.90466 0
M  V30 5752 O 531.212 -2.82639 5.31412 0
M  V30 5753 H 535.038 -0.462289 3.00161 0
M  V30 5754 H 532.623 -0.162246 1.48516 0
M  V30 5755 H 534.505 -2.91474 3.04337 0
M  V30 5756 H 533.18 -2.63456 1.88077 0
M  V30 5757 H 532.087 -1.06549 3.58606 0
M  V30 5758 H 533.42 -1.42072 4.7125 0
M  V30 5759 N 535.072 -1.5615 -0.213296 0
M  V30 5760 C 536.035 -1.92249 -1.24792 0
M  V30 5761 C 537.035 -0.801828 -1.39382 0
M  V30 5762 O 538.225 -1.06948 -1.37506 0
M  V30 5763 C 535.357 -2.18056 -2.62039 0
M  V30 5764 H 536.55 -2.84793 -0.939845 0
M  V30 5765 H 534.103 -1.49559 -0.454062 0
M  V30 5766 H 534.838 -1.2809 -2.97932 0
M  V30 5767 H 534.623 -2.99703 -2.52825 0
M  V30 5768 H 536.113 -2.47051 -3.36683 0
M  V30 5769 N 536.55 0.480323 -1.50102 0
M  V30 5770 C 537.46 1.60547 -1.71061 0
M  V30 5771 C 538.476 1.63564 -0.593529 0
M  V30 5772 O 539.652 1.81604 -0.870751 0
M  V30 5773 C 536.717 2.96814 -1.79171 0
M  V30 5774 C 535.778 3.04259 -3.02861 0
M  V30 5775 C 535.011 4.34027 -3.10574 0
M  V30 5776 O 535.234 5.24009 -2.25323 0
M  V30 5777 O 534.168 4.46873 -4.03223 0
M  V30 5778 H 537.994 1.45788 -2.6642 0
M  V30 5779 H 535.579 0.658838 -1.34088 0
M  V30 5780 H 537.461 3.77765 -1.86738 0
M  V30 5781 H 536.136 3.11791 -0.869947 0
M  V30 5782 H 535.043 2.22419 -3.008 0
M  V30 5783 H 536.376 2.94216 -3.94586 0
M  V30 5784 N 538.028 1.39524 0.732853 0
M  V30 5785 C 538.991 1.38189 1.82857 0
M  V30 5786 C 539.991 0.278624 1.58368 0
M  V30 5787 O 541.181 0.536639 1.65728 0
M  V30 5788 C 538.313 1.15661 3.2068 0
M  V30 5789 H 539.506 2.35692 1.85444 0
M  V30 5790 H 537.059 1.2512 0.936728 0
M  V30 5791 H 537.794 0.188482 3.23752 0
M  V30 5792 H 537.579 1.95559 3.39852 0
M  V30 5793 H 539.069 1.17472 4.00737 0
M  V30 5794 N 539.506 -0.963266 1.24736 0
M  V30 5795 C 540.453 -2.05857 1.04363 0
M  V30 5796 C 541.423 -1.6604 -0.0444951 0
M  V30 5797 O 542.608 -1.90477 0.110999 0
M  V30 5798 C 539.748 -3.38745 0.659235 0
M  V30 5799 C 538.861 -3.9173 1.82131 0
M  V30 5800 C 537.996 -5.12906 1.38208 0
M  V30 5801 C 537.035 -5.58098 2.51382 0
M  V30 5802 N 536.172 -6.7049 2.08295 0
M  V30 5803 H 541.012 -2.22616 1.98107 0
M  V30 5804 H 538.549 -1.09103 0.986661 0
M  V30 5805 H 540.507 -4.15107 0.417371 0
M  V30 5806 H 539.137 -3.21898 -0.241201 0
M  V30 5807 H 538.189 -3.11966 2.17672 0
M  V30 5808 H 539.501 -4.21225 2.67153 0
M  V30 5809 H 538.655 -5.96657 1.09935 0
M  V30 5810 H 537.394 -4.85105 0.502456 0
M  V30 5811 H 536.399 -4.72917 2.80409 0
M  V30 5812 H 537.624 -5.87911 3.39909 0
M  V30 5813 H 535.57 -6.44416 1.22737 0
M  V30 5814 H 535.487 -6.99458 2.86869 0
M  V30 5815 H 536.755 -7.57672 1.83175 0
M  V30 5816 N 540.985 -1.06182 -1.16461 0
M  V30 5817 C 541.895 -0.682671 -2.24448 0
M  V30 5818 C 542.911 0.30078 -1.71381 0
M  V30 5819 O 544.087 0.150376 -2.00838 0
M  V30 5820 C 541.152 -0.0737202 -3.46622 0
M  V30 5821 C 540.213 -1.10889 -4.14731 0
M  V30 5822 C 539.446 -0.528908 -5.31073 0
M  V30 5823 O 539.669 0.65868 -5.66584 0
M  V30 5824 O 538.603 -1.26805 -5.88391 0
M  V30 5825 H 542.429 -1.58291 -2.59187 0
M  V30 5826 H 540.014 -0.834013 -1.23954 0
M  V30 5827 H 541.896 0.264192 -4.20571 0
M  V30 5828 H 540.571 0.800015 -3.13658 0
M  V30 5829 H 539.478 -1.49896 -3.42756 0
M  V30 5830 H 540.811 -1.95412 -4.51747 0
M  V30 5831 N 542.463 1.3308 -0.844243 0
M  V30 5832 C 543.712 1.96868 -0.438833 0
M  V30 5833 C 544.025 1.67599 1.00846 0
M  V30 5834 O 545.231 2.25043 1.51881 0
M  V30 5835 C 543.687 3.5234 -0.73377 0
M  V30 5836 C 543.295 3.90481 -2.1961 0
M  V30 5837 C 545.039 4.22653 -0.395574 0
M  V30 5838 C 542.946 5.38954 -2.43481 0
M  V30 5839 H 541.876 0.736749 -0.160364 0
M  V30 5840 H 544.527 1.51623 -1.03358 0
M  V30 5841 H 542.909 3.95941 -0.068589 0
M  V30 5842 H 544.083 3.57922 -2.90221 0
M  V30 5843 H 542.398 3.33165 -2.4978 0
M  V30 5844 H 544.995 5.31848 -0.551477 0
M  V30 5845 H 545.338 4.11004 0.661921 0
M  V30 5846 H 545.871 3.84601 -1.01621 0
M  V30 5847 H 542.61 5.55612 -3.47816 0
M  V30 5848 H 542.13 5.72954 -1.77437 0
M  V30 5849 H 543.809 6.05907 -2.26905 0
M  V30 5850 N 543.941 0.601185 1.45683 0
M  V30 5851 C 544.871 -0.108824 2.33246 0
M  V30 5852 C 545.852 -0.865223 1.46451 0
M  V30 5853 O 547.037 -0.83704 1.75235 0
M  V30 5854 C 544.167 -1.11101 3.2905 0
M  V30 5855 C 543.121 -0.468244 4.25431 0
M  V30 5856 C 542.447 -1.57822 5.10878 0
M  V30 5857 C 543.747 0.606469 5.18767 0
M  V30 5858 H 545.441 0.622306 2.92861 0
M  V30 5859 H 542.987 0.300714 1.40825 0
M  V30 5860 H 544.94 -1.61622 3.89174 0
M  V30 5861 H 543.664 -1.87265 2.67581 0
M  V30 5862 H 542.323 0.0160484 3.66596 0
M  V30 5863 H 541.971 -2.32998 4.45781 0
M  V30 5864 H 541.671 -1.15369 5.76163 0
M  V30 5865 H 543.195 -2.08583 5.73869 0
M  V30 5866 H 544.609 0.185589 5.73 0
M  V30 5867 H 543.006 0.952381 5.92494 0
M  V30 5868 H 544.076 1.48559 4.61582 0
M  V30 5869 N 545.419 -1.53889 0.339982 0
M  V30 5870 C 546.369 -2.2165 -0.534354 0
M  V30 5871 C 547.353 -1.20266 -1.06887 0
M  V30 5872 O 548.545 -1.45827 -1.00316 0
M  V30 5873 C 545.674 -2.99014 -1.68659 0
M  V30 5874 C 544.76 -4.07751 -1.16618 0
M  V30 5875 N 545.151 -5.04469 -0.366717 0
M  V30 5876 C 543.449 -4.21998 -1.4434 0
M  V30 5877 C 544.15 -5.81638 -0.0847275 0
M  V30 5878 N 543.126 -5.39388 -0.675391 0
M  V30 5879 H 546.928 -2.93781 0.0835562 0
M  V30 5880 H 544.442 -1.61736 0.146665 0
M  V30 5881 H 546.439 -3.46056 -2.32489 0
M  V30 5882 H 545.099 -2.28408 -2.30781 0
M  V30 5883 H 546.11 -5.17899 -0.00811038 0
M  V30 5884 H 542.787 -3.62612 -2.06928 0
M  V30 5885 H 544.177 -6.69563 0.559943 0
M  V30 5886 N 546.897 -0.0685191 -1.57451 0
M  V30 5887 C 547.829 0.929372 -2.09512 0
M  V30 5888 C 548.842 1.26354 -1.02657 0
M  V30 5889 O 550.031 1.2213 -1.30179 0
M  V30 5890 C 547.131 2.24612 -2.53777 0
M  V30 5891 C 546.304 2.09128 -3.84167 0
M  V30 5892 C 545.363 3.24079 -4.14559 0
M  V30 5893 O 544.389 2.99215 -4.8421 0
M  V30 5894 N 545.591 4.49077 -3.67845 0
M  V30 5895 H 548.356 0.484901 -2.95751 0
M  V30 5896 H 545.917 0.11729 -1.61475 0
M  V30 5897 H 547.909 3.00412 -2.71172 0
M  V30 5898 H 546.479 2.60569 -1.72692 0
M  V30 5899 H 545.699 1.17815 -3.76182 0
M  V30 5900 H 546.987 1.9603 -4.69521 0
M  V30 5901 H 546.385 4.72165 -3.11571 0
M  V30 5902 H 544.942 5.21915 -3.90446 0
M  V30 5903 N 548.375 1.56261 0.205012 0
M  V30 5904 C 549.305 1.96779 1.257 0
M  V30 5905 C 550.286 0.838309 1.48008 0
M  V30 5906 O 551.471 1.10189 1.59913 0
M  V30 5907 C 548.601 2.29876 2.60335 0
M  V30 5908 C 547.555 3.45469 2.52656 0
M  V30 5909 C 546.881 3.64215 3.91473 0
M  V30 5910 C 548.181 4.79954 2.06014 0
M  V30 5911 H 549.875 2.84904 0.920338 0
M  V30 5912 H 547.421 1.37072 0.441277 0
M  V30 5913 H 549.374 2.56814 3.34102 0
M  V30 5914 H 548.098 1.38622 2.95722 0
M  V30 5915 H 546.757 3.18605 1.81345 0
M  V30 5916 H 546.405 2.70309 4.24196 0
M  V30 5917 H 546.105 4.41973 3.87213 0
M  V30 5918 H 547.629 3.93519 4.66878 0
M  V30 5919 H 549.043 5.05989 2.69533 0
M  V30 5920 H 547.44 5.61111 2.12777 0
M  V30 5921 H 548.51 4.74201 1.01297 0
M  V30 5922 N 549.853 -0.472356 1.50355 0
M  V30 5923 C 550.786 -1.58923 1.63764 0
M  V30 5924 C 551.764 -1.55173 0.485793 0
M  V30 5925 O 552.948 -1.74815 0.705132 0
M  V30 5926 C 550.075 -2.97497 1.61905 0
M  V30 5927 C 549.121 -3.19405 2.82635 0
M  V30 5928 S 549.954 -2.99441 4.43954 0
M  V30 5929 C 551.11 -4.40359 4.44786 0
M  V30 5930 H 551.343 -1.47309 2.58239 0
M  V30 5931 H 548.876 -0.659601 1.39602 0
M  V30 5932 H 550.834 -3.77389 1.61518 0
M  V30 5933 H 549.495 -3.06502 0.686683 0
M  V30 5934 H 548.688 -4.20636 2.77636 0
M  V30 5935 H 548.29 -2.47283 2.80583 0
M  V30 5936 H 550.582 -5.32969 4.1827 0
M  V30 5937 H 551.525 -4.50403 5.46391 0
M  V30 5938 H 551.933 -4.22378 3.74509 0
M  V30 5939 N 551.331 -1.39911 -0.725443 0
M  V30 5940 C 552.263 -1.35301 -1.85003 0
M  V30 5941 C 553.276 -0.260102 -1.60709 0
M  V30 5942 O 554.465 -0.519749 -1.70766 0
M  V30 5943 C 551.565 -1.08039 -3.21218 0
M  V30 5944 C 550.738 -2.28793 -3.7279 0
M  V30 5945 C 549.797 -1.97841 -4.87591 0
M  V30 5946 O 548.823 -2.70616 -5.00755 0
M  V30 5947 N 550.025 -0.950367 -5.72668 0
M  V30 5948 H 552.79 -2.32218 -1.89459 0
M  V30 5949 H 550.351 -1.34137 -0.90658 0
M  V30 5950 H 552.343 -0.853354 -3.95601 0
M  V30 5951 H 550.913 -0.198229 -3.11971 0
M  V30 5952 H 550.133 -2.67388 -2.8965 0
M  V30 5953 H 551.421 -3.09317 -4.03981 0
M  V30 5954 H 550.819 -0.347436 -5.64632 0
M  V30 5955 H 549.376 -0.783232 -6.47077 0
M  V30 5956 N 552.809 0.956637 -1.25245 0
M  V30 5957 C 553.741 2.05628 -1.01242 0
M  V30 5958 C 554.754 1.62785 0.0219579 0
M  V30 5959 O 555.943 1.77184 -0.216365 0
M  V30 5960 C 553.043 3.35069 -0.508161 0
M  V30 5961 C 552.216 4.06761 -1.60823 0
M  V30 5962 C 551.275 5.14473 -1.1047 0
M  V30 5963 O 550.301 5.40033 -1.79868 0
M  V30 5964 N 551.503 5.80474 0.0550773 0
M  V30 5965 H 554.268 2.2679 -1.95925 0
M  V30 5966 H 551.829 1.12505 -1.16423 0
M  V30 5967 H 553.821 4.044 -0.155819 0
M  V30 5968 H 552.391 3.10694 0.344683 0
M  V30 5969 H 551.611 3.31555 -2.13224 0
M  V30 5970 H 552.899 4.51418 -2.34733 0
M  V30 5971 H 552.297 5.62125 0.635004 0
M  V30 5972 H 550.854 6.50868 0.348469 0
M  V30 5973 N 554.287 1.06798 1.15896 0
M  V30 5974 C 555.703 0.792423 1.38538 0
M  V30 5975 C 555.903 -0.60592 1.92174 0
M  V30 5976 O 554.959 -1.36561 2.12385 0
M  V30 5977 C 556.272 1.86157 2.36149 0
M  V30 5978 C 557.82 1.88567 2.49823 0
M  V30 5979 C 558.295 2.9455 3.5072 0
M  V30 5980 N 559.786 2.93616 3.58251 0
M  V30 5981 C 560.521 3.72267 4.36125 0
M  V30 5982 N 560.017 4.60751 5.17379 0
M  V30 5983 N 561.81 3.60637 4.31158 0
M  V30 5984 H 553.961 1.96993 0.794198 0
M  V30 5985 H 556.224 0.853942 0.411688 0
M  V30 5986 H 555.93 2.86603 2.03843 0
M  V30 5987 H 555.804 1.71692 3.3586 0
M  V30 5988 H 558.191 0.887765 2.8143 0
M  V30 5989 H 558.272 2.0711 1.5013 0
M  V30 5990 H 557.916 3.94537 3.19849 0
M  V30 5991 H 557.846 2.73255 4.50155 0
M  V30 5992 H 560.337 2.29472 3.00252 0
M  V30 5993 H 560.65 5.17408 5.74028 0
M  V30 5994 H 558.995 4.64803 5.16704 0
M  V30 5995 H 562.186 2.90892 3.66742 0
M  V30 5996 H 562.359 4.22176 4.91601 0
M  V30 5997 N 555.766 -1.3263 0.851289 0
M  V30 5998 C 557.014 -1.96978 0.452128 0
M  V30 5999 C 557.335 -1.67715 -0.99482 0
M  V30 6000 O 556.605 -0.98259 -1.69476 0
M  V30 6001 H 555.185 -0.72873 0.164202 0
M  V30 6002 H 557.847 -1.61774 1.08698 0
M  V30 6003 H 556.943 -3.06387 0.594407 0
M  V30 6004 N 557.244 -0.608902 -1.45362 0
M  V30 6005 C 558.491 -0.104607 -2.0223 0
M  V30 6006 C 558.819 1.26534 -1.47714 0
M  V30 6007 O 558.074 1.84855 -0.642435 0
M  V30 6008 C 558.373 -0.0167296 -3.57396 0
M  V30 6009 C 558.039 -1.32251 -4.31069 0
M  V30 6010 C 556.701 -1.68019 -4.50914 0
M  V30 6011 C 559.053 -2.18542 -4.73169 0
M  V30 6012 C 556.381 -2.89828 -5.10114 0
M  V30 6013 C 558.733 -3.39602 -5.33717 0
M  V30 6014 C 557.397 -3.7562 -5.51784 0
M  V30 6015 H 556.667 -0.0382785 -0.740011 0
M  V30 6016 H 559.314 -0.790782 -1.7441 0
M  V30 6017 H 557.619 0.752715 -3.84502 0
M  V30 6018 H 559.316 0.389634 -3.99103 0
M  V30 6019 H 555.906 -1.03411 -4.15938 0
M  V30 6020 H 560.09 -1.92208 -4.5757 0
M  V30 6021 H 555.346 -3.17839 -5.22291 0
M  V30 6022 H 559.52 -4.06716 -5.65292 0
M  V30 6023 H 557.147 -4.70093 -5.97425 0
M  V30 6024 N 558.722 1.53707 -0.348139 0
M  V30 6025 C 559.952 2.05108 0.247864 0
M  V30 6026 C 560.36 1.22252 1.44399 0
M  V30 6027 O 559.703 0.251853 1.81965 0
M  V30 6028 C 559.765 3.52171 0.722187 0
M  V30 6029 C 559.429 4.5562 -0.354902 0
M  V30 6030 C 560.426 5.05883 -1.19911 0
M  V30 6031 C 558.111 4.99703 -0.510145 0
M  V30 6032 C 560.105 5.98814 -2.18406 0
M  V30 6033 C 557.792 5.92443 -1.49848 0
M  V30 6034 C 558.79 6.41887 -2.33389 0
M  V30 6035 O 558.478 7.32802 -3.3054 0
M  V30 6036 H 558.21 0.674086 0.0508296 0
M  V30 6037 H 560.764 1.99229 -0.49968 0
M  V30 6038 H 558.994 3.55529 1.52105 0
M  V30 6039 H 560.683 3.8652 1.23925 0
M  V30 6040 H 561.449 4.72586 -1.09028 0
M  V30 6041 H 557.328 4.60816 0.130274 0
M  V30 6042 H 560.872 6.3733 -2.83649 0
M  V30 6043 H 556.769 6.25155 -1.60786 0
M  V30 6044 H 557.537 7.50749 -3.26064 0
M  V30 6045 N 560.2 0.0768682 1.57412 0
M  V30 6046 C 561.611 -0.455037 1.8107 0
M  V30 6047 C 561.962 -1.69323 0.991162 0
M  V30 6048 O 561.087 -2.15328 0.215156 0
M  V30 6049 C 561.682 -0.832316 3.28417 0
M  V30 6050 C 560.241 -1.30906 3.52903 0
M  V30 6051 C 559.388 -0.296714 2.75708 0
M  V30 6052 H 562.339 0.302514 1.5579 0
M  V30 6053 H 562.36 -1.69333 3.40744 0
M  V30 6054 H 561.872 0.0690532 3.88039 0
M  V30 6055 H 559.973 -2.22875 2.98592 0
M  V30 6056 H 560.086 -1.28348 4.61588 0
M  V30 6057 H 558.45 -0.775059 2.42621 0
M  V30 6058 H 559.233 0.597015 3.38069 0
M  V30 6059 N 561.678 -1.56367 -0.196722 0
M  V30 6060 C 562.611 -1.89475 -1.2718 0
M  V30 6061 C 563.589 -0.754667 -1.44026 0
M  V30 6062 O 564.773 -1.00551 -1.59442 0
M  V30 6063 C 561.9 -2.12352 -2.63864 0
M  V30 6064 C 560.946 -3.35053 -2.63897 0
M  V30 6065 S 561.779 -4.90228 -2.15492 0
M  V30 6066 C 562.935 -5.16171 -3.54004 0
M  V30 6067 H 563.168 -2.80365 -0.989075 0
M  V30 6068 H 560.701 -1.49125 -0.40014 0
M  V30 6069 H 562.659 -2.26214 -3.42545 0
M  V30 6070 H 561.32 -1.22214 -2.89349 0
M  V30 6071 H 560.513 -3.48182 -3.64397 0
M  V30 6072 H 560.115 -3.20176 -1.93296 0
M  V30 6073 H 562.407 -5.06591 -4.49857 0
M  V30 6074 H 563.35 -6.17938 -3.45771 0
M  V30 6075 H 563.758 -4.43814 -3.48841 0
M  V30 6076 N 563.156 0.464375 -1.50603 0
M  V30 6077 C 564.402 1.21776 -1.62168 0
M  V30 6078 C 564.735 1.91476 -0.324154 0
M  V30 6079 O 564.01 1.8242 0.674782 0
M  V30 6080 C 564.293 2.25614 -2.80661 0
M  V30 6081 C 564.146 1.60175 -4.20314 0
M  V30 6082 C 565.465 3.26862 -2.94702 0
M  V30 6083 H 562.584 0.44137 -0.590222 0
M  V30 6084 H 565.226 0.510623 -1.8301 0
M  V30 6085 H 563.376 2.85923 -2.63021 0
M  V30 6086 H 565.048 1.03411 -4.4956 0
M  V30 6087 H 563.291 0.904697 -4.24261 0
M  V30 6088 H 563.962 2.35665 -4.99165 0
M  V30 6089 H 566.438 2.76582 -3.10872 0
M  V30 6090 H 565.314 3.96839 -3.79223 0
M  V30 6091 H 565.575 3.91382 -2.05603 0
M  V30 6092 N 564.634 1.40294 0.718013 0
M  V30 6093 C 565.597 1.4012 1.81381 0
M  V30 6094 C 566.597 0.295405 1.58063 0
M  V30 6095 O 567.787 0.554187 1.6515 0
M  V30 6096 C 564.919 1.19056 3.19435 0
M  V30 6097 H 566.112 2.37645 1.82933 0
M  V30 6098 H 563.665 1.26107 0.923405 0
M  V30 6099 H 564.4 0.222809 3.23534 0
M  V30 6100 H 564.185 1.99152 3.37758 0
M  V30 6101 H 565.675 1.21716 3.99468 0
M  V30 6102 N 566.112 -0.949982 1.2575 0
M  V30 6103 C 567.075 -2.02894 1.06615 0
M  V30 6104 C 568.075 -1.60791 0.0173905 0
M  V30 6105 O 569.265 -1.72249 0.260003 0
M  V30 6106 C 566.397 -3.35219 0.619751 0
M  V30 6107 H 567.59 -2.21302 2.02399 0
M  V30 6108 H 565.143 -1.12772 1.08223 0
M  V30 6109 H 565.878 -3.22508 -0.340486 0
M  V30 6110 H 565.663 -3.67129 1.37692 0
M  V30 6111 H 567.153 -4.14505 0.507443 0
M  V30 6112 N 567.59 -1.07411 -1.15328 0
M  V30 6113 C 568.522 -0.652924 -2.19703 0
M  V30 6114 C 569.535 0.294869 -1.60107 0
M  V30 6115 O 570.724 0.0840932 -1.78302 0
M  V30 6116 C 567.824 0.061434 -3.38844 0
M  V30 6117 C 566.997 -0.902696 -4.27984 0
M  V30 6118 C 566.056 -0.225521 -5.25717 0
M  V30 6119 O 565.082 -0.86676 -5.62562 0
M  V30 6120 N 566.284 1.02858 -5.71315 0
M  V30 6121 H 569.049 -1.55081 -2.56457 0
M  V30 6122 H 566.61 -0.958883 -1.30449 0
M  V30 6123 H 568.602 0.525145 -4.01278 0
M  V30 6124 H 567.172 0.861269 -3.00501 0
M  V30 6125 H 566.392 -1.54551 -3.6264 0
M  V30 6126 H 567.68 -1.55636 -4.84412 0
M  V30 6127 H 567.078 1.56948 -5.43492 0
M  V30 6128 H 565.635 1.43596 -6.35786 0
M  V30 6129 N 569.068 1.32177 -0.85831 0
M  V30 6130 C 570.484 1.49873 -0.548656 0
M  V30 6131 C 570.684 1.79278 0.919874 0
M  V30 6132 O 569.74 1.86451 1.70271 0
M  V30 6133 C 571.053 2.64043 -1.4388 0
M  V30 6134 C 572.601 2.77928 -1.43961 0
M  V30 6135 C 573.076 3.95182 -2.31506 0
M  V30 6136 N 574.567 4.0245 -2.29321 0
M  V30 6137 C 575.302 4.9242 -2.93786 0
M  V30 6138 N 574.798 5.87373 -3.67376 0
M  V30 6139 N 576.591 4.85572 -2.83155 0
M  V30 6140 H 568.742 1.11357 -1.80868 0
M  V30 6141 H 571.005 0.549175 -0.772729 0
M  V30 6142 H 570.711 2.49055 -2.48324 0
M  V30 6143 H 570.585 3.59912 -1.12885 0
M  V30 6144 H 572.972 2.92338 -0.402813 0
M  V30 6145 H 573.053 1.82762 -1.78974 0
M  V30 6146 H 572.697 3.81531 -3.35256 0
M  V30 6147 H 572.627 4.89633 -1.93823 0
M  V30 6148 H 575.118 3.34507 -1.75822 0
M  V30 6149 H 575.431 6.52728 -4.13722 0
M  V30 6150 H 573.776 5.87388 -3.71484 0
M  V30 6151 H 576.967 4.10363 -2.25211 0
M  V30 6152 H 577.14 5.55486 -3.33676 0
M  V30 6153 N 570.547 0.616602 1.45037 0
M  V30 6154 C 571.796 0.112861 2.01384 0
M  V30 6155 C 572.109 -1.26758 1.48969 0
M  V30 6156 O 573.315 -1.86454 1.9735 0
M  V30 6157 C 571.771 0.151057 3.59583 0
M  V30 6158 C 571.379 1.53191 4.20995 0
M  V30 6159 C 573.123 -0.296974 4.2346 0
M  V30 6160 C 571.03 1.526 5.71373 0
M  V30 6161 H 569.96 0.0384254 0.75302 0
M  V30 6162 H 572.611 0.773262 1.66412 0
M  V30 6163 H 570.993 -0.57617 3.91786 0
M  V30 6164 H 572.167 2.28156 4.00352 0
M  V30 6165 H 570.482 1.92279 3.69348 0
M  V30 6166 H 573.079 -0.320712 5.33737 0
M  V30 6167 H 573.422 -1.32145 3.9477 0
M  V30 6168 H 573.955 0.377279 3.96007 0
M  V30 6169 H 570.694 2.52837 6.04776 0
M  V30 6170 H 570.214 0.819064 5.94181 0
M  V30 6171 H 571.893 1.25357 6.3474 0
M  V30 6172 N 572.025 -1.5352 0.356285 0
M  V30 6173 C 573.273 -2.00719 -0.235837 0
M  V30 6174 C 573.594 -1.24551 -1.5004 0
M  V30 6175 O 572.864 -0.356185 -1.92635 0
M  V30 6176 H 571.444 -0.741542 -0.0901366 0
M  V30 6177 H 574.106 -1.88887 0.480378 0
M  V30 6178 H 573.202 -3.08551 -0.469357 0
M  V30 6179 N 573.503 -0.0852151 -1.57369 0
M  V30 6180 C 574.413 0.891712 -2.16992 0
M  V30 6181 C 575.429 1.3174 -1.13669 0
M  V30 6182 O 576.605 1.38735 -1.45995 0
M  V30 6183 C 573.67 2.13635 -2.73059 0
M  V30 6184 C 572.731 1.7658 -3.91303 0
M  V30 6185 C 571.964 2.95111 -4.44686 0
M  V30 6186 O 572.187 4.09539 -3.97032 0
M  V30 6187 O 571.121 2.74149 -5.35841 0
M  V30 6188 H 574.947 0.414477 -3.00858 0
M  V30 6189 H 572.532 0.138598 -1.48756 0
M  V30 6190 H 574.414 2.86595 -3.08935 0
M  V30 6191 H 573.089 2.6043 -1.92244 0
M  V30 6192 H 571.996 1.00831 -3.60255 0
M  V30 6193 H 573.329 1.34557 -4.7345 0
M  V30 6194 N 574.981 1.5647 0.188427 0
M  V30 6195 C 575.891 1.98285 1.2538 0
M  V30 6196 C 576.907 0.891535 1.49424 0
M  V30 6197 O 578.083 1.19782 1.61908 0
M  V30 6198 C 575.148 2.31965 2.57669 0
M  V30 6199 C 574.209 3.54838 2.41638 0
M  V30 6200 C 573.442 3.86901 3.67618 0
M  V30 6201 O 573.665 3.20163 4.72072 0
M  V30 6202 O 572.599 4.80309 3.62749 0
M  V30 6203 H 576.425 2.89145 0.928912 0
M  V30 6204 H 574.01 1.44112 0.393955 0
M  V30 6205 H 575.892 2.54673 3.35737 0
M  V30 6206 H 574.567 1.44271 2.89771 0
M  V30 6207 H 573.474 3.37369 1.61658 0
M  V30 6208 H 574.807 4.43019 2.14465 0
M  V30 6209 N 576.459 -0.456382 1.50847 0
M  V30 6210 C 577.689 -1.22848 1.66108 0
M  V30 6211 C 578.097 -1.85936 0.349897 0
M  V30 6212 O 577.44 -1.70664 -0.679665 0
M  V30 6213 C 577.502 -2.36722 2.70561 0
M  V30 6214 C 577.166 -1.94154 4.13707 0
M  V30 6215 C 578.163 -1.4557 4.99105 0
M  V30 6216 C 575.848 -2.02426 4.59705 0
M  V30 6217 C 577.842 -1.0582 6.28555 0
M  V30 6218 C 575.529 -1.62287 5.89157 0
M  V30 6219 C 576.527 -1.14064 6.73408 0
M  V30 6220 O 576.215 -0.744873 8.00442 0
M  V30 6221 H 575.947 -0.377105 0.561042 0
M  V30 6222 H 578.501 -0.549431 1.97915 0
M  V30 6223 H 576.731 -3.07844 2.34027 0
M  V30 6224 H 578.42 -2.98646 2.74892 0
M  V30 6225 H 579.186 -1.38589 4.64777 0
M  V30 6226 H 575.065 -2.38908 3.94264 0
M  V30 6227 H 578.609 -0.6811 6.94267 0
M  V30 6228 H 574.506 -1.68932 6.23003 0
M  V30 6229 H 575.274 -0.87242 8.13837 0
M  V30 6230 N 577.937 -1.40673 -0.710563 0
M  V30 6231 C 578.847 -1.43663 -1.85467 0
M  V30 6232 C 579.863 -0.328721 -1.70867 0
M  V30 6233 O 581.039 -0.574098 -1.93044 0
M  V30 6234 C 578.104 -1.30226 -3.21313 0
M  V30 6235 C 577.165 -2.51204 -3.48131 0
M  V30 6236 C 576.398 -2.38398 -4.77495 0
M  V30 6237 O 576.621 -1.40048 -5.5294 0
M  V30 6238 O 575.555 -3.2787 -5.04762 0
M  V30 6239 H 579.381 -2.40156 -1.859 0
M  V30 6240 H 576.966 -1.22049 -0.861652 0
M  V30 6241 H 578.848 -1.2496 -4.02446 0
M  V30 6242 H 577.523 -0.368419 -3.21597 0
M  V30 6243 H 576.43 -2.62048 -2.66987 0
M  V30 6244 H 577.763 -3.43366 -3.52648 0
M  V30 6245 N 579.415 0.9433 -1.26252 0
M  V30 6246 C 580.345 2.05902 -1.10122 0
M  V30 6247 C 581.326 1.70099 -0.00700552 0
M  V30 6248 O 582.511 1.93377 -0.178641 0
M  V30 6249 C 579.641 3.39516 -0.731175 0
M  V30 6250 C 578.595 3.89372 -1.77688 0
M  V30 6251 C 577.921 5.19613 -1.26122 0
M  V30 6252 C 579.221 4.14489 -3.17799 0
M  V30 6253 H 580.915 2.19655 -2.03451 0
M  V30 6254 H 578.461 1.05548 -0.979576 0
M  V30 6255 H 580.414 4.17031 -0.605215 0
M  V30 6256 H 579.138 3.25733 0.23782 0
M  V30 6257 H 577.797 3.14036 -1.89148 0
M  V30 6258 H 577.445 5.02208 -0.282128 0
M  V30 6259 H 577.145 5.53939 -1.96023 0
M  V30 6260 H 578.669 5.99713 -1.14789 0
M  V30 6261 H 580.083 4.82625 -3.09428 0
M  V30 6262 H 578.48 4.60094 -3.85271 0
M  V30 6263 H 579.55 3.20347 -3.64014 0
M  V30 6264 N 580.893 1.08022 1.14757 0
M  V30 6265 C 581.84 0.706657 2.19716 0
M  V30 6266 C 582.81 -0.30525 1.63271 0
M  V30 6267 O 583.995 -0.19015 1.8985 0
M  V30 6268 C 581.135 0.117914 3.44898 0
M  V30 6269 C 580.248 1.18212 4.15512 0
M  V30 6270 C 579.383 0.557659 5.28265 0
M  V30 6271 C 578.422 1.60418 5.90705 0
M  V30 6272 N 577.559 1.0018 6.94916 0
M  V30 6273 H 582.399 1.60603 2.51019 0
M  V30 6274 H 579.936 0.802664 1.23271 0
M  V30 6275 H 581.894 -0.241112 4.16503 0
M  V30 6276 H 580.524 -0.744788 3.1409 0
M  V30 6277 H 579.576 1.65863 3.42335 0
M  V30 6278 H 580.888 1.97533 4.5802 0
M  V30 6279 H 580.042 0.146654 6.06523 0
M  V30 6280 H 578.781 -0.267249 4.86967 0
M  V30 6281 H 577.786 2.02489 5.11154 0
M  V30 6282 H 579.011 2.43149 6.34078 0
M  V30 6283 H 576.957 0.197917 6.55701 0
M  V30 6284 H 576.874 1.73216 7.35889 0
M  V30 6285 H 578.142 0.616523 7.77058 0
M  V30 6286 N 582.371 -1.3172 0.865308 0
M  V30 6287 C 583.62 -1.96145 0.470098 0
M  V30 6288 C 583.933 -1.69182 -0.981674 0
M  V30 6289 O 585.139 -2.27431 -1.48281 0
M  V30 6290 C 583.595 -3.51129 0.789732 0
M  V30 6291 C 583.203 -3.86938 2.25795 0
M  V30 6292 C 584.947 -4.2197 0.462765 0
M  V30 6293 C 582.854 -5.35012 2.52024 0
M  V30 6294 H 581.784 -0.734105 0.172065 0
M  V30 6295 H 584.435 -1.49959 1.05757 0
M  V30 6296 H 582.817 -3.95781 0.131571 0
M  V30 6297 H 583.991 -3.5326 2.95879 0
M  V30 6298 H 582.306 -3.29149 2.55049 0
M  V30 6299 H 584.903 -5.30904 0.636019 0
M  V30 6300 H 585.246 -4.12005 -0.59645 0
M  V30 6301 H 585.779 -3.82936 1.07727 0
M  V30 6302 H 582.518 -5.50008 3.56611 0
M  V30 6303 H 582.038 -5.70058 1.8653 0
M  V30 6304 H 583.717 -6.0222 2.36515 0
M  V30 6305 N 583.85 -0.624285 -1.44708 0
M  V30 6306 C 585.127 -0.0572781 -1.95516 0
M  V30 6307 C 585.507 1.41516 -1.56641 0
M  V30 6308 O 584.855 2.12614 -0.837111 0
M  V30 6309 C 585.065 -0.272944 -3.47931 0
M  V30 6310 C 586.413 -0.162529 -4.24289 0
M  V30 6311 O 587.437 -0.203946 -3.55616 0
M  V30 6312 O 586.296 -0.0616847 -5.46465 0
M  V30 6313 H 583.389 0.0262219 -0.826584 0
M  V30 6314 H 585.936 -0.695512 -1.54793 0
M  V30 6315 H 584.707 -1.29492 -3.69253 0
M  V30 6316 H 584.331 0.399756 -3.95585 0
M  V30 6317 N 585.328 1.53329 -0.364422 0
M  V30 6318 C 586.275 2.25698 0.482607 0
M  V30 6319 C 587.245 1.26325 1.07848 0
M  V30 6320 O 588.43 1.55104 1.11119 0
M  V30 6321 C 585.57 3.04873 1.61699 0
M  V30 6322 C 584.683 4.19135 1.0464 0
M  V30 6323 C 583.818 4.85754 2.14979 0
M  V30 6324 C 582.857 5.9205 1.5538 0
M  V30 6325 N 581.994 6.52365 2.59547 0
M  V30 6326 H 586.834 2.97666 -0.141032 0
M  V30 6327 H 584.371 1.46875 -0.0813692 0
M  V30 6328 H 586.329 3.49051 2.28516 0
M  V30 6329 H 584.959 2.35162 2.2113 0
M  V30 6330 H 584.011 3.79451 0.268553 0
M  V30 6331 H 585.323 4.95525 0.570653 0
M  V30 6332 H 584.477 5.3311 2.89619 0
M  V30 6333 H 583.216 4.08834 2.65906 0
M  V30 6334 H 582.221 5.44058 0.792549 0
M  V30 6335 H 583.446 6.7089 1.0528 0
M  V30 6336 H 581.392 5.78298 3.09689 0
M  V30 6337 H 581.309 7.2429 2.16655 0
M  V30 6338 H 582.577 7.0437 3.33892 0
M  V30 6339 N 586.806 0.0935595 1.57322 0
M  V30 6340 C 587.769 -0.851426 2.12799 0
M  V30 6341 C 588.769 -1.21187 1.0569 0
M  V30 6342 O 589.959 -1.14156 1.31583 0
M  V30 6343 C 587.091 -2.14779 2.64731 0
M  V30 6344 H 588.284 -0.369733 2.97612 0
M  V30 6345 H 585.837 -0.155417 1.55525 0
M  V30 6346 H 586.572 -2.67437 1.83434 0
M  V30 6347 H 586.357 -1.89907 3.43042 0
M  V30 6348 H 587.847 -2.82383 3.07651 0
M  V30 6349 N 588.284 -1.56567 -0.180126 0
M  V30 6350 C 589.695 -1.7126 -0.743422 0
M  V30 6351 C 590.046 -0.70263 -1.83187 0
M  V30 6352 O 589.171 0.137856 -2.1596 0
M  V30 6353 C 589.766 -3.10512 -1.35528 0
M  V30 6354 C 588.325 -3.26919 -1.8655 0
M  V30 6355 C 587.472 -2.67213 -0.741099 0
M  V30 6356 H 590.423 -1.58636 0.0451543 0
M  V30 6357 H 590.444 -3.08673 -2.22489 0
M  V30 6358 H 589.956 -3.83997 -0.562862 0
M  V30 6359 H 588.057 -2.58376 -2.68464 0
M  V30 6360 H 588.17 -4.34574 -2.01699 0
M  V30 6361 H 586.534 -2.26788 -1.15927 0
M  V30 6362 H 587.317 -3.43277 0.0393291 0
M  V30 6363 N 589.762 0.448376 -1.51087 0
M  V30 6364 C 590.694 1.56146 -1.67783 0
M  V30 6365 C 591.707 1.52913 -0.55871 0
M  V30 6366 O 592.896 1.57889 -0.83267 0
M  V30 6367 C 589.996 2.95057 -1.66716 0
M  V30 6368 C 589.169 3.22915 -2.95033 0
M  V30 6369 C 588.228 4.41495 -2.86302 0
M  V30 6370 O 587.254 4.40688 -3.60254 0
M  V30 6371 N 588.456 5.44443 -2.014 0
M  V30 6372 H 591.221 1.42232 -2.638 0
M  V30 6373 H 588.782 0.637153 -1.48835 0
M  V30 6374 H 590.774 3.72388 -1.58458 0
M  V30 6375 H 589.344 3.02624 -0.783403 0
M  V30 6376 H 588.564 2.33985 -3.17245 0
M  V30 6377 H 589.852 3.38349 -3.79996 0
M  V30 6378 H 589.25 5.4793 -1.40674 0
M  V30 6379 H 587.807 6.2067 -1.99029 0
M  V30 6380 N 591.24 1.41047 0.703093 0
M  V30 6381 C 592.188 1.42494 1.83843 0
M  V30 6382 C 593.182 0.303885 1.66652 0
M  V30 6383 O 594.388 0.475544 1.73605 0
M  V30 6384 H 590.763 0.445685 0.605697 0
M  V30 6385 H 592.734 2.38194 1.79739 0
M  V30 6386 C 591.483 1.31666 3.21807 0
M  V30 6387 H 590.806 2.17212 3.35647 0
M  V30 6388 H 592.246 1.36738 4.01346 0
M  V30 6389 C 590.705 0.0281828 3.36888 0
M  V30 6390 O 591.235 -0.929995 3.90786 0
M  V30 6391 N 589.441 -0.0454322 2.90564 0
M  V30 6392 H 588.988 0.735046 2.4689 0
M  V30 6393 H 588.946 -0.906968 3.01034 0
M  V30 6394 N 592.718 -0.936591 1.26751 0
M  V30 6395 C 593.964 -1.6858 1.12733 0
M  V30 6396 C 594.297 -1.91414 -0.327745 0
M  V30 6397 O 593.572 -1.49812 -1.24043 0
M  V30 6398 C 593.855 -3.05779 1.90187 0
M  V30 6399 C 593.708 -2.90242 3.43627 0
M  V30 6400 C 595.027 -4.0597 1.69931 0
M  V30 6401 H 592.146 -0.61182 0.410908 0
M  V30 6402 H 594.788 -1.08747 1.55801 0
M  V30 6403 H 592.938 -3.56853 1.53584 0
M  V30 6404 H 594.61 -2.46354 3.9001 0
M  V30 6405 H 592.853 -2.2577 3.70419 0
M  V30 6406 H 593.524 -3.87572 3.93055 0
M  V30 6407 H 596 -3.63874 2.0183 0
M  V30 6408 H 594.876 -4.99974 2.26534 0
M  V30 6409 H 595.137 -4.37369 0.64502 0
M  V30 6410 N 594.196 -1.08629 -1.14182 0
M  V30 6411 C 595.473 -0.73002 -1.81466 0
M  V30 6412 C 595.853 0.785996 -1.95922 0
M  V30 6413 O 595.201 1.70535 -1.52086 0
M  V30 6414 C 595.411 -1.45957 -3.17014 0
M  V30 6415 C 596.759 -1.62008 -3.92477 0
M  V30 6416 O 597.783 -1.42141 -3.26611 0
M  V30 6417 O 596.642 -1.94806 -5.106 0
M  V30 6418 H 593.736 -0.261307 -0.784632 0
M  V30 6419 H 596.282 -1.188 -1.2118 0
M  V30 6420 H 595.054 -2.49221 -3.01669 0
M  V30 6421 H 594.677 -0.993222 -3.84995 0
M  V30 6422 N 595.674 1.31259 -0.872281 0
M  V30 6423 C 596.899 2.0133 -0.498099 0
M  V30 6424 C 597.324 1.65031 0.902568 0
M  V30 6425 O 596.682 0.860164 1.59596 0
M  V30 6426 C 596.73 3.54411 -0.665205 0
M  V30 6427 O 595.834 4.11347 0.294473 0
M  V30 6428 H 595.175 0.633844 -0.197832 0
M  V30 6429 H 597.705 1.67402 -1.17633 0
M  V30 6430 H 597.715 4.04147 -0.559373 0
M  V30 6431 H 596.39 3.80171 -1.68651 0
M  V30 6432 H 594.967 3.72624 0.143403 0
M  V30 6433 N 597.152 0.631951 1.44375 0
M  V30 6434 C 598.115 -0.0628142 2.29114 0
M  V30 6435 C 599.115 -0.771494 1.41084 0
M  V30 6436 O 600.305 -0.615959 1.62947 0
M  V30 6437 C 597.437 -1.09953 3.22681 0
M  V30 6438 H 598.63 0.682509 2.92031 0
M  V30 6439 H 596.183 0.392128 1.51301 0
M  V30 6440 H 596.918 -1.87481 2.64616 0
M  V30 6441 H 596.703 -0.595286 3.87555 0
M  V30 6442 H 598.193 -1.58538 3.86336 0
M  V30 6443 N 598.631 -1.53133 0.372548 0
M  V30 6444 C 599.561 -2.28876 -0.462412 0
M  V30 6445 C 600.542 -1.31583 -1.07796 0
M  V30 6446 O 601.727 -1.60461 -1.09389 0
M  V30 6447 C 598.857 -3.08317 -1.59868 0
M  V30 6448 C 597.811 -4.13355 -1.11003 0
M  V30 6449 C 597.137 -4.8092 -2.33708 0
M  V30 6450 C 598.437 -5.21955 -0.18983 0
M  V30 6451 H 600.131 -2.9892 0.169511 0
M  V30 6452 H 597.677 -1.43761 0.0829658 0
M  V30 6453 H 599.63 -3.60055 -2.18949 0
M  V30 6454 H 598.354 -2.35976 -2.25794 0
M  V30 6455 H 597.013 -3.62573 -0.541869 0
M  V30 6456 H 596.661 -4.05144 -2.98106 0
M  V30 6457 H 596.361 -5.51904 -2.01682 0
M  V30 6458 H 597.885 -5.35455 -2.93462 0
M  V30 6459 H 599.299 -5.69153 -0.688319 0
M  V30 6460 H 597.696 -6.00087 0.0398887 0
M  V30 6461 H 598.766 -4.78811 0.766057 0
M  V30 6462 N 600.109 -0.101901 -1.5727 0
M  V30 6463 C 601.337 0.568392 -1.98939 0
M  V30 6464 C 601.752 1.61301 -0.981194 0
M  V30 6465 O 601.109 1.82478 0.0282869 0
M  V30 6466 C 601.16 1.20997 -3.40649 0
M  V30 6467 O 600.881 0.207129 -4.3761 0
M  V30 6468 C 602.382 1.96523 -3.97358 0
M  V30 6469 H 599.602 0.15186 -0.65359 0
M  V30 6470 H 602.146 -0.183198 -2.03678 0
M  V30 6471 H 600.301 1.91245 -3.36904 0
M  V30 6472 H 600.715 0.671071 -5.20189 0
M  V30 6473 H 602.189 2.36764 -4.98645 0
M  V30 6474 H 602.666 2.83376 -3.35552 0
M  V30 6475 H 603.272 1.31076 -4.04598 0
M  V30 6476 N 601.587 1.56661 0.17182 0
M  V30 6477 C 602.519 1.92934 1.2373 0
M  V30 6478 C 603.532 0.822385 1.40502 0
M  V30 6479 O 604.721 1.10083 1.40514 0
M  V30 6480 C 601.821 2.16651 2.60607 0
M  V30 6481 C 600.994 3.47878 2.6514 0
M  V30 6482 C 600.053 3.60429 3.83377 0
M  V30 6483 O 599.079 4.33051 3.69398 0
M  V30 6484 N 600.281 2.95241 4.99813 0
M  V30 6485 H 603.046 2.84931 0.929205 0
M  V30 6486 H 600.607 1.5781 0.361588 0
M  V30 6487 H 602.599 2.22312 3.38171 0
M  V30 6488 H 601.169 1.3104 2.83809 0
M  V30 6489 H 600.389 3.53879 1.73675 0
M  V30 6490 H 601.677 4.34232 2.6518 0
M  V30 6491 H 601.075 2.3611 5.14071 0
M  V30 6492 H 599.632 3.06499 5.75241 0
M  V30 6493 N 603.065 -0.440357 1.51323 0
M  V30 6494 C 604.313 -1.18769 1.63518 0
M  V30 6495 C 604.634 -1.91793 0.352201 0
M  V30 6496 O 603.904 -1.85432 -0.631811 0
M  V30 6497 H 602.484 -0.441408 0.602634 0
M  V30 6498 H 605.146 -0.505162 1.8824 0
M  V30 6499 H 604.242 -1.91892 2.46138 0
M  V30 6500 N 604.543 -1.41418 -0.695603 0
M  V30 6501 C 605.954 -1.36335 -1.27552 0
M  V30 6502 C 606.305 -0.0464336 -1.96145 0
M  V30 6503 O 605.43 0.855304 -1.9878 0
M  V30 6504 C 606.025 -2.46941 -2.3196 0
M  V30 6505 C 604.584 -2.45256 -2.85529 0
M  V30 6506 C 603.731 -2.2679 -1.59566 0
M  V30 6507 H 606.682 -1.50934 -0.490362 0
M  V30 6508 H 606.703 -2.15997 -3.1325 0
M  V30 6509 H 606.215 -3.42775 -1.82008 0
M  V30 6510 H 604.316 -1.53179 -3.39657 0
M  V30 6511 H 604.429 -3.41565 -3.35961 0
M  V30 6512 H 602.793 -1.74667 -1.85374 0
M  V30 6513 H 603.576 -3.24651 -1.1161 0
M  V30 6514 N 606.021 0.929856 -1.27246 0
M  V30 6515 C 606.931 2.0636 -1.11592 0
M  V30 6516 C 607.947 1.73938 -0.046496 0
M  V30 6517 O 609.123 1.9981 -0.252544 0
M  V30 6518 C 606.188 3.38213 -0.762437 0
M  V30 6519 C 605.249 3.84346 -1.9125 0
M  V30 6520 C 604.482 5.09906 -1.57579 0
M  V30 6521 O 604.705 5.68354 -0.482694 0
M  V30 6522 O 603.639 5.51359 -2.41426 0
M  V30 6523 H 607.465 2.22478 -2.0673 0
M  V30 6524 H 605.05 1.04865 -1.06413 0
M  V30 6525 H 606.932 4.1741 -0.57854 0
M  V30 6526 H 605.607 3.23307 0.159439 0
M  V30 6527 H 604.514 3.06045 -2.15144 0
M  V30 6528 H 605.847 4.0379 -2.81451 0
M  V30 6529 N 607.499 1.09233 1.13605 0
M  V30 6530 C 608.432 0.6739 2.18023 0
M  V30 6531 C 609.41 -0.318603 1.59448 0
M  V30 6532 O 610.594 -0.220452 1.87206 0
M  V30 6533 C 607.721 -0.00751458 3.38699 0
M  V30 6534 C 606.767 0.946481 4.15865 0
M  V30 6535 S 607.6 2.45753 4.75779 0
M  V30 6536 C 608.756 1.78846 5.99804 0
M  V30 6537 H 608.989 1.55846 2.53178 0
M  V30 6538 H 606.522 0.908118 1.2487 0
M  V30 6539 H 608.48 -0.394368 4.08601 0
M  V30 6540 H 607.141 -0.868693 3.01849 0
M  V30 6541 H 606.334 0.416742 5.02274 0
M  V30 6542 H 605.936 1.27464 3.51609 0
M  V30 6543 H 608.228 1.11135 6.68323 0
M  V30 6544 H 609.171 2.63163 6.57382 0
M  V30 6545 H 609.579 1.25823 5.50299 0
M  V30 6546 N 608.977 -1.30795 0.87923 0
M  V30 6547 C 609.94 -2.26563 0.346676 0
M  V30 6548 C 610.94 -1.52578 -0.507597 0
M  V30 6549 O 612.13 -1.71318 -0.315575 0
M  V30 6550 C 609.262 -3.37115 -0.506611 0
M  V30 6551 H 610.455 -2.75183 1.19223 0
M  V30 6552 H 608.008 -1.41886 0.655598 0
M  V30 6553 H 608.743 -2.93802 -1.37299 0
M  V30 6554 H 608.528 -3.91959 0.105218 0
M  V30 6555 H 610.018 -4.08412 -0.871192 0
M  V30 6556 N 610.455 -0.639598 -1.44038 0
M  V30 6557 C 611.871 -0.305953 -1.5664 0
M  V30 6558 C 612.071 1.19055 -1.62567 0
M  V30 6559 O 611.127 1.97492 -1.57331 0
M  V30 6560 C 612.44 -1.00533 -2.83397 0
M  V30 6561 C 613.988 -0.984278 -2.97121 0
M  V30 6562 C 614.463 -1.66428 -4.26691 0
M  V30 6563 N 615.954 -1.63127 -4.33525 0
M  V30 6564 C 616.689 -2.12629 -5.32519 0
M  V30 6565 N 616.185 -2.70359 -6.3787 0
M  V30 6566 N 617.978 -2.03208 -5.24083 0
M  V30 6567 H 610.129 -1.6109 -1.38434 0
M  V30 6568 H 612.392 -0.676672 -0.663942 0
M  V30 6569 H 612.098 -2.06034 -2.85032 0
M  V30 6570 H 611.972 -0.548362 -3.73193 0
M  V30 6571 H 614.359 0.0622792 -2.95034 0
M  V30 6572 H 614.44 -1.47981 -2.08651 0
M  V30 6573 H 614.084 -2.71034 -4.29538 0
M  V30 6574 H 614.014 -1.14351 -5.14034 0
M  V30 6575 H 616.505 -1.20987 -3.58009 0
M  V30 6576 H 616.818 -3.05842 -7.09704 0
M  V30 6577 H 615.163 -2.74414 -6.38531 0
M  V30 6578 H 618.354 -1.57823 -4.40692 0
M  V30 6579 H 618.527 -2.42097 -6.01077 0
M  V30 6580 N 611.933 1.52934 -0.380664 0
M  V30 6581 C 613.179 2.01765 0.20458 0
M  V30 6582 C 613.512 1.26696 1.47179 0
M  V30 6583 O 612.787 0.364936 1.91046 0
M  V30 6584 C 613.07 3.56869 0.481269 0
M  V30 6585 C 612.923 4.42617 -0.800629 0
M  V30 6586 C 614.242 4.2121 1.27554 0
M  V30 6587 H 611.361 0.733388 0.0728803 0
M  V30 6588 H 614.003 1.83068 -0.50853 0
M  V30 6589 H 612.153 3.72932 1.08875 0
M  V30 6590 H 613.825 4.38323 -1.43773 0
M  V30 6591 H 612.068 4.09977 -1.4178 0
M  V30 6592 H 612.739 5.49134 -0.561791 0
M  V30 6593 H 615.215 4.09072 0.761514 0
M  V30 6594 H 614.091 5.29732 1.43788 0
M  V30 6595 H 614.352 3.78269 2.28833 0
M  V30 6596 N 613.412 0.11024 1.57214 0
M  V30 6597 C 614.828 -0.24638 1.57687 0
M  V30 6598 C 615.028 -1.67344 1.12241 0
M  V30 6599 O 614.084 -2.39298 0.805783 0
M  V30 6600 C 615.397 -0.0210288 3.00693 0
M  V30 6601 C 616.945 -0.0876077 3.12877 0
M  V30 6602 C 617.42 0.10994 4.57868 0
M  V30 6603 N 618.911 0.0556135 4.63167 0
M  V30 6604 C 619.646 0.183495 5.73106 0
M  V30 6605 N 619.142 0.367058 6.91827 0
M  V30 6606 N 620.935 0.123689 5.61964 0
M  V30 6607 H 613.086 1.04246 1.85058 0
M  V30 6608 H 615.349 0.40979 0.854854 0
M  V30 6609 H 615.055 0.965203 3.38196 0
M  V30 6610 H 614.929 -0.756748 3.69531 0
M  V30 6611 H 617.316 -1.06436 2.75237 0
M  V30 6612 H 617.397 0.67985 2.466 0
M  V30 6613 H 617.041 1.08362 4.96206 0
M  V30 6614 H 616.971 -0.677397 5.22225 0
M  V30 6615 H 619.462 -0.0831062 3.77809 0
M  V30 6616 H 619.775 0.455739 7.71455 0
M  V30 6617 H 618.12 0.40292 6.93831 0
M  V30 6618 H 621.311 -0.0186928 4.68096 0
M  V30 6619 H 621.484 0.226797 6.47603 0
M  V30 6620 N 614.89 -1.56749 -0.16351 0
M  V30 6621 C 615.8 -2.00255 -1.2221 0
M  V30 6622 C 616.816 -0.915194 -1.47987 0
M  V30 6623 O 617.992 -1.22342 -1.59982 0
M  V30 6624 C 615.057 -2.36035 -2.53946 0
M  V30 6625 C 614.118 -3.58637 -2.35962 0
M  V30 6626 C 613.351 -3.92701 -3.61416 0
M  V30 6627 O 613.574 -3.27632 -4.66919 0
M  V30 6628 O 612.508 -4.86019 -3.55062 0
M  V30 6629 H 616.334 -2.90586 -0.882794 0
M  V30 6630 H 613.919 -1.44721 -0.370978 0
M  V30 6631 H 615.801 -2.59982 -3.31643 0
M  V30 6632 H 614.476 -1.48863 -2.8744 0
M  V30 6633 H 613.383 -3.39898 -1.5627 0
M  V30 6634 H 614.716 -4.46374 -2.0739 0
M  V30 6635 N 616.368 0.432326 -1.51554 0
M  V30 6636 C 617.298 1.53242 -1.76179 0
M  V30 6637 C 618.279 1.58717 -0.611801 0
M  V30 6638 O 619.464 1.74364 -0.855033 0
M  V30 6639 C 616.594 2.91278 -1.89141 0
M  V30 6640 C 615.548 3.00663 -3.04608 0
M  V30 6641 C 614.874 4.40728 -3.02759 0
M  V30 6642 C 616.174 2.74281 -4.44485 0
M  V30 6643 H 617.868 1.32886 -2.68294 0
M  V30 6644 H 615.414 0.637841 -1.29103 0
M  V30 6645 H 617.367 3.68203 -2.04951 0
M  V30 6646 H 616.091 3.12877 -0.936785 0
M  V30 6647 H 614.75 2.26179 -2.88511 0
M  V30 6648 H 614.398 4.59301 -2.05065 0
M  V30 6649 H 614.098 4.47936 -3.80299 0
M  V30 6650 H 615.622 5.19619 -3.20669 0
M  V30 6651 H 617.036 3.40936 -4.60907 0
M  V30 6652 H 615.433 2.92893 -5.23769 0
M  V30 6653 H 616.503 1.69856 -4.54177 0
M  V30 6654 N 617.846 1.41785 0.688094 0
M  V30 6655 C 618.779 1.38643 1.81255 0
M  V30 6656 C 619.757 0.252583 1.60626 0
M  V30 6657 O 620.941 0.440691 1.83276 0
M  V30 6658 C 618.068 1.16449 3.18053 0
M  V30 6659 C 617.114 2.32651 3.57457 0
M  V30 6660 S 617.947 3.95152 3.61407 0
M  V30 6661 C 619.103 3.75275 5.00919 0
M  V30 6662 H 619.336 2.33799 1.83644 0
M  V30 6663 H 616.869 1.28398 0.857513 0
M  V30 6664 H 618.827 1.0433 3.97021 0
M  V30 6665 H 617.488 0.229002 3.13264 0
M  V30 6666 H 616.681 2.12835 4.56856 0
M  V30 6667 H 616.283 2.41215 2.85817 0
M  V30 6668 H 618.575 3.35443 5.88629 0
M  V30 6669 H 619.518 4.74302 5.25778 0
M  V30 6670 H 619.926 3.08401 4.7281 0
M  V30 6671 N 619.324 -0.923095 1.27737 0
M  V30 6672 C 620.554 -1.70277 1.17001 0
M  V30 6673 C 620.962 -1.87188 -0.275199 0
M  V30 6674 O 620.305 -1.39195 -1.19877 0
M  V30 6675 C 620.367 -3.11976 1.78637 0
M  V30 6676 C 620.031 -3.18386 3.27841 0
M  V30 6677 C 621.028 -3.00287 4.2441 0
M  V30 6678 C 618.713 -3.41198 3.68632 0
M  V30 6679 C 620.707 -3.04896 5.59747 0
M  V30 6680 C 618.394 -3.4544 5.04097 0
M  V30 6681 C 619.392 -3.27309 5.99465 0
M  V30 6682 O 619.08 -3.31295 7.32461 0
M  V30 6683 H 618.812 -0.539366 0.407505 0
M  V30 6684 H 621.366 -1.16446 1.69202 0
M  V30 6685 H 619.596 -3.67308 1.20919 0
M  V30 6686 H 621.285 -3.7193 1.6255 0
M  V30 6687 H 622.051 -2.825 3.94232 0
M  V30 6688 H 617.93 -3.54359 2.94873 0
M  V30 6689 H 621.474 -2.90662 6.34162 0
M  V30 6690 H 617.371 -3.62753 5.33929 0
M  V30 6691 H 618.139 -3.47719 7.40968 0
M  V30 6692 N 620.802 -1.09834 -1.13024 0
M  V30 6693 C 622.048 -0.848072 -1.84876 0
M  V30 6694 C 622.403 0.619663 -1.82148 0
M  V30 6695 O 621.696 1.45067 -1.25164 0
M  V30 6696 C 621.89 -1.32263 -3.32026 0
M  V30 6697 C 621.719 -2.83497 -3.49084 0
M  V30 6698 C 620.489 -3.51425 -3.63082 0
M  V30 6699 C 622.687 -3.81623 -3.44773 0
M  V30 6700 N 620.669 -4.91042 -3.68443 0
M  V30 6701 C 622.04 -5.07217 -3.56555 0
M  V30 6702 C 624.095 -3.74419 -3.282 0
M  V30 6703 C 622.798 -6.26457 -3.53474 0
M  V30 6704 C 624.824 -4.93151 -3.26429 0
M  V30 6705 C 624.186 -6.1759 -3.38765 0
M  V30 6706 H 620.285 -0.363249 -0.692513 0
M  V30 6707 H 622.869 -1.39952 -1.35357 0
M  V30 6708 H 621.04 -0.79858 -3.80102 0
M  V30 6709 H 622.772 -1.01725 -3.91707 0
M  V30 6710 H 619.527 -3.0186 -3.64935 0
M  V30 6711 H 619.951 -5.63782 -3.74805 0
M  V30 6712 H 624.593 -2.79132 -3.17561 0
M  V30 6713 H 622.311 -7.22039 -3.62884 0
M  V30 6714 H 625.897 -4.8928 -3.14796 0
M  V30 6715 H 624.777 -7.07925 -3.37361 0
M  V30 6716 N 622.28 1.30327 -0.886154 0
M  V30 6717 C 623.228 2.30052 -0.343317 0
M  V30 6718 C 624.222 1.60212 0.550305 0
M  V30 6719 O 625.428 1.74674 0.434609 0
M  V30 6720 H 621.803 0.746306 -0.0923681 0
M  V30 6721 H 623.774 2.73294 -1.19804 0
M  V30 6722 C 622.523 3.45079 0.426107 0
M  V30 6723 H 621.846 3.99003 -0.25227 0
M  V30 6724 H 623.286 4.16931 0.771009 0
M  V30 6725 C 621.745 2.95195 1.62363 0
M  V30 6726 O 622.275 2.95323 2.723 0
M  V30 6727 N 620.481 2.51192 1.4612 0
M  V30 6728 H 620.028 2.51286 0.566832 0
M  V30 6729 H 619.986 2.18173 2.2638 0
M  V30 6730 N 623.758 0.647228 1.43697 0
M  V30 6731 C 624.688 -0.0345631 2.33474 0
M  V30 6732 C 625.669 -0.818193 1.4913 0
M  V30 6733 O 626.854 -0.780867 1.77809 0
M  V30 6734 C 623.984 -1.00576 3.32418 0
M  V30 6735 C 622.938 -0.33266 4.26705 0
M  V30 6736 C 622.264 -1.41489 5.1564 0
M  V30 6737 C 623.564 0.771204 5.16575 0
M  V30 6738 H 625.258 0.715163 2.90733 0
M  V30 6739 H 622.804 0.345364 1.39797 0
M  V30 6740 H 624.757 -1.49159 3.94119 0
M  V30 6741 H 623.481 -1.78657 2.73403 0
M  V30 6742 H 622.14 0.13267 3.6636 0
M  V30 6743 H 621.788 -2.18698 4.52968 0
M  V30 6744 H 621.488 -0.969799 5.79542 0
M  V30 6745 H 623.012 -1.9022 5.80214 0
M  V30 6746 H 624.426 0.36779 5.72119 0
M  V30 6747 H 622.823 1.1404 5.89165 0
M  V30 6748 H 623.893 1.63169 4.56622 0
M  V30 6749 N 625.236 -1.5273 0.388769 0
M  V30 6750 C 626.513 -1.93981 -0.251133 0
M  V30 6751 C 626.893 -1.32418 -1.64404 0
M  V30 6752 O 626.241 -0.492074 -2.23139 0
M  V30 6753 C 626.451 -3.47891 -0.27802 0
M  V30 6754 C 627.799 -4.21559 -0.507229 0
M  V30 6755 O 628.823 -3.54394 -0.358252 0
M  V30 6756 O 627.682 -5.40626 -0.799094 0
M  V30 6757 H 624.776 -0.812157 -0.15598 0
M  V30 6758 H 627.322 -1.63809 0.443237 0
M  V30 6759 H 626.094 -3.8503 0.697669 0
M  V30 6760 H 625.717 -3.84364 -1.01733 0
M  V30 6761 N 626.714 -0.118576 -1.57153 0
M  V30 6762 C 627.662 0.849114 -2.16547 0
M  V30 6763 C 628.656 1.27567 -1.11458 0
M  V30 6764 O 629.862 1.24746 -1.29763 0
M  V30 6765 H 626.237 0.291935 -0.693021 0
M  V30 6766 H 628.208 0.323693 -2.96639 0
M  V30 6767 C 626.957 2.08951 -2.77912 0
M  V30 6768 H 626.28 1.77021 -3.58474 0
M  V30 6769 H 627.72 2.74666 -3.23008 0
M  V30 6770 C 626.179 2.87899 -1.74974 0
M  V30 6771 O 626.709 3.83268 -1.20285 0
M  V30 6772 N 624.915 2.51884 -1.44924 0
M  V30 6773 H 624.462 1.74397 -1.89587 0
M  V30 6774 H 624.42 3.05003 -0.762921 0
M  V30 6775 N 628.193 1.56834 0.155195 0
M  V30 6776 C 629.421 1.87049 0.884326 0
M  V30 6777 C 629.836 0.705839 1.7511 0
M  V30 6778 O 629.193 -0.324641 1.79589 0
M  V30 6779 C 629.244 3.1644 1.74781 0
M  V30 6780 O 628.965 4.28417 0.915978 0
M  V30 6781 C 630.466 3.60113 2.58522 0
M  V30 6782 H 627.686 0.620196 0.25612 0
M  V30 6783 H 630.23 2.03946 0.150445 0
M  V30 6784 H 628.385 3.01321 2.43484 0
M  V30 6785 H 628.799 5.02353 1.50803 0
M  V30 6786 H 630.273 4.53508 3.14698 0
M  V30 6787 H 630.75 2.85005 3.34169 0
M  V30 6788 H 631.356 3.77898 1.95124 0
M  V30 6789 N 629.671 -0.424282 1.51781 0
M  V30 6790 C 630.634 -1.49848 1.73431 0
M  V30 6791 C 631.634 -1.49016 0.604225 0
M  V30 6792 O 632.824 -1.50808 0.871935 0
M  V30 6793 C 629.956 -2.89332 1.80277 0
M  V30 6794 H 631.149 -1.3195 2.69312 0
M  V30 6795 H 628.702 -0.653809 1.41968 0
M  V30 6796 H 629.437 -3.12618 0.862568 0
M  V30 6797 H 629.222 -2.9134 2.62419 0
M  V30 6798 H 630.712 -3.67233 1.98821 0
M  V30 6799 N 631.149 -1.42148 -0.680565 0
M  V30 6800 C 632.565 -1.24947 -0.992995 0
M  V30 6801 C 632.765 -0.149527 -2.00944 0
M  V30 6802 O 631.821 0.481145 -2.47873 0
M  V30 6803 C 633.134 -2.60426 -1.5033 0
M  V30 6804 C 634.682 -2.67733 -1.62137 0
M  V30 6805 C 635.157 -4.03564 -2.16565 0
M  V30 6806 N 636.648 -4.05488 -2.23905 0
M  V30 6807 C 637.383 -5.07401 -2.67081 0
M  V30 6808 N 636.879 -6.19698 -3.09751 0
M  V30 6809 N 638.672 -4.94758 -2.66778 0
M  V30 6810 H 630.823 -2.12399 -0.0074788 0
M  V30 6811 H 633.086 -0.94571 -0.0658529 0
M  V30 6812 H 632.792 -3.41743 -0.830947 0
M  V30 6813 H 632.666 -2.83949 -2.483 0
M  V30 6814 H 635.053 -1.86765 -2.2848 0
M  V30 6815 H 635.134 -2.48004 -0.626713 0
M  V30 6816 H 634.778 -4.84987 -1.50833 0
M  V30 6817 H 634.708 -4.20641 -3.1681 0
M  V30 6818 H 637.199 -3.24415 -1.93812 0
M  V30 6819 H 637.512 -6.93318 -3.41365 0
M  V30 6820 H 635.857 -6.23212 -3.07623 0
M  V30 6821 H 639.048 -4.06105 -2.32801 0
M  V30 6822 H 639.221 -5.74317 -3.00107 0
M  V30 6823 N 632.627 0.916307 -1.28225 0
M  V30 6824 C 633.852 1.7043 -1.18188 0
M  V30 6825 C 634.277 1.86346 0.256274 0
M  V30 6826 O 633.635 1.37175 1.18544 0
M  V30 6827 C 633.683 3.07546 -1.88275 0
M  V30 6828 O 632.787 3.94904 -1.18848 0
M  V30 6829 H 632.128 0.521967 -0.410423 0
M  V30 6830 H 634.658 1.14589 -1.69501 0
M  V30 6831 H 634.668 3.57793 -1.96082 0
M  V30 6832 H 633.343 2.95279 -2.92887 0
M  V30 6833 H 631.92 3.53339 -1.19187 0
M  V30 6834 N 634.105 1.10431 1.1244 0
M  V30 6835 C 635.015 0.765502 2.21759 0
M  V30 6836 C 636.031 -0.236966 1.72379 0
M  V30 6837 O 637.207 -0.0757329 2.01258 0
M  V30 6838 C 634.272 0.202316 3.46109 0
M  V30 6839 C 633.333 1.26205 4.1033 0
M  V30 6840 C 632.566 0.725648 5.28744 0
M  V30 6841 O 632.789 -0.447942 5.68638 0
M  V30 6842 O 631.723 1.48555 5.83279 0
M  V30 6843 H 635.549 1.67801 2.53133 0
M  V30 6844 H 633.134 0.879443 1.20773 0
M  V30 6845 H 635.016 -0.107918 4.21262 0
M  V30 6846 H 633.691 -0.683052 3.16411 0
M  V30 6847 H 632.598 1.62514 3.36957 0
M  V30 6848 H 633.931 2.12044 4.44183 0
M  V30 6849 N 635.583 -1.29855 0.893053 0
M  V30 6850 C 636.829 -1.96488 0.52574 0
M  V30 6851 C 637.184 -1.69164 -0.916594 0
M  V30 6852 O 636.477 -0.990405 -1.64017 0
M  V30 6853 C 636.671 -3.49515 0.746588 0
M  V30 6854 C 636.5 -3.91715 2.20884 0
M  V30 6855 C 635.27 -4.16915 2.85499 0
M  V30 6856 C 637.468 -4.03934 3.18342 0
M  V30 6857 N 635.45 -4.45634 4.22236 0
M  V30 6858 C 636.821 -4.36629 4.40176 0
M  V30 6859 C 638.876 -3.86387 3.14021 0
M  V30 6860 C 637.579 -4.53605 5.58243 0
M  V30 6861 C 639.605 -4.04569 4.31367 0
M  V30 6862 C 638.967 -4.37617 5.5197 0
M  V30 6863 H 635.066 -0.743657 0.241863 0
M  V30 6864 H 637.65 -1.56927 1.15248 0
M  V30 6865 H 635.821 -3.88113 0.149281 0
M  V30 6866 H 637.553 -4.03224 0.345372 0
M  V30 6867 H 634.308 -4.10423 2.36326 0
M  V30 6868 H 634.732 -4.64114 4.92876 0
M  V30 6869 H 639.374 -3.59906 2.21873 0
M  V30 6870 H 637.092 -4.78925 6.50889 0
M  V30 6871 H 640.678 -3.92452 4.29503 0
M  V30 6872 H 639.558 -4.51395 6.41258 0
M  V30 6873 N 637.061 -0.65484 -1.43351 0
M  V30 6874 C 638.024 0.0263562 -2.29185 0
M  V30 6875 C 639.024 0.748951 -1.42293 0
M  V30 6876 O 640.214 0.589957 -1.63906 0
M  V30 6877 C 637.346 1.04806 -3.2439 0
M  V30 6878 H 638.539 -0.728883 -2.90908 0
M  V30 6879 H 636.092 -0.416149 -1.50658 0
M  V30 6880 H 636.827 1.83247 -2.67565 0
M  V30 6881 H 636.612 0.533554 -3.88453 0
M  V30 6882 H 638.102 1.52372 -3.88809 0
M  V30 6883 N 638.539 1.52521 -0.396863 0
M  V30 6884 C 639.487 2.28217 0.44943 0
M  V30 6885 C 640.481 1.32416 1.05652 0
M  V30 6886 O 641.687 1.49925 0.996124 0
M  V30 6887 H 638.062 0.733966 0.1637 0
M  V30 6888 H 640.033 2.97658 -0.210367 0
M  V30 6889 C 638.782 3.10713 1.56054 0
M  V30 6890 H 638.105 3.84291 1.10273 0
M  V30 6891 H 639.545 3.66803 2.12677 0
M  V30 6892 C 638.004 2.23499 2.52091 0
M  V30 6893 O 638.534 1.8669 3.55682 0
M  V30 6894 N 636.74 1.8751 2.2201 0
M  V30 6895 H 636.287 2.17643 1.37802 0
M  V30 6896 H 636.245 1.29448 2.86514 0
M  V30 6897 N 640.017 0.126909 1.57088 0
M  V30 6898 C 640.947 -0.816847 2.18746 0
M  V30 6899 C 641.928 -1.27161 1.12979 0
M  V30 6900 O 643.113 -1.33279 1.41246 0
M  V30 6901 C 640.243 -2.06398 2.79315 0
M  V30 6902 C 639.197 -1.74673 3.90735 0
M  V30 6903 C 638.523 -3.06482 4.38147 0
M  V30 6904 C 639.823 -1.0089 5.12463 0
M  V30 6905 H 641.517 -0.303032 2.97863 0
M  V30 6906 H 639.063 -0.144314 1.43275 0
M  V30 6907 H 641.016 -2.72885 3.2111 0
M  V30 6908 H 639.74 -2.60118 1.975 0
M  V30 6909 H 638.399 -1.10572 3.49527 0
M  V30 6910 H 638.047 -3.58152 3.5318 0
M  V30 6911 H 637.747 -2.86025 5.13287 0
M  V30 6912 H 639.271 -3.74073 4.82599 0
M  V30 6913 H 640.685 -1.57546 5.51228 0
M  V30 6914 H 639.082 -0.905006 5.93237 0
M  V30 6915 H 640.152 0.00297335 4.849 0
M  V30 6916 N 641.495 -1.56914 -0.146875 0
M  V30 6917 C 642.741 -1.83628 -0.860741 0
M  V30 6918 C 643.074 -0.708528 -1.80813 0
M  V30 6919 O 642.349 0.287838 -1.92358 0
M  V30 6920 C 642.632 -3.20836 -1.63511 0
M  V30 6921 C 642.485 -4.44174 -0.709199 0
M  V30 6922 C 643.804 -3.55268 -2.59756 0
M  V30 6923 H 640.923 -0.667949 -0.311468 0
M  V30 6924 H 643.565 -1.89582 -0.125936 0
M  V30 6925 H 641.715 -3.15891 -2.26153 0
M  V30 6926 H 643.387 -4.61205 -0.0937781 0
M  V30 6927 H 641.63 -4.33796 -0.0187856 0
M  V30 6928 H 642.301 -5.36785 -1.28707 0
M  V30 6929 H 644.777 -3.60824 -2.07232 0
M  V30 6930 H 643.653 -4.52303 -3.10987 0
M  V30 6931 H 643.914 -2.81231 -3.41118 0
M  V30 6932 N 642.974 0.416227 -1.52004 0
M  V30 6933 C 643.921 1.50666 -1.74838 0
M  V30 6934 C 644.891 1.55245 -0.590599 0
M  V30 6935 O 646.076 1.71928 -0.827374 0
M  V30 6936 C 643.216 2.88185 -1.89851 0
M  V30 6937 C 642.329 2.92971 -3.17478 0
M  V30 6938 C 641.464 4.21745 -3.22962 0
M  V30 6939 C 640.503 4.20478 -4.4482 0
M  V30 6940 N 639.64 5.40811 -4.47736 0
M  V30 6941 H 644.48 1.30498 -2.67907 0
M  V30 6942 H 642.017 0.633568 -1.32757 0
M  V30 6943 H 643.975 3.68007 -1.96537 0
M  V30 6944 H 642.605 3.06865 -1.00169 0
M  V30 6945 H 641.657 2.05684 -3.19997 0
M  V30 6946 H 642.969 2.87899 -4.07328 0
M  V30 6947 H 642.123 5.09954 -3.28682 0
M  V30 6948 H 640.862 4.29503 -2.31038 0
M  V30 6949 H 639.867 3.30659 -4.39254 0
M  V30 6950 H 641.092 4.14366 -5.38031 0
M  V30 6951 H 639.038 5.4925 -3.58692 0
M  V30 6952 H 638.955 5.37705 -5.31422 0
M  V30 6953 H 640.223 6.30993 -4.57676 0
M  V30 6954 N 644.452 1.42507 0.673017 0
M  V30 6955 C 645.677 1.4668 1.46627 0
M  V30 6956 C 646.102 0.080066 1.8793 0
M  V30 6957 O 645.46 -0.921879 1.56112 0
M  V30 6958 C 645.508 2.40091 2.69051 0
M  V30 6959 O 644.612 1.8735 3.67387 0
M  V30 6960 H 643.953 0.496908 0.44043 0
M  V30 6961 H 646.483 1.87215 0.825334 0
M  V30 6962 H 646.493 2.56731 3.17101 0
M  V30 6963 H 645.168 3.4084 2.3833 0
M  V30 6964 H 643.745 1.80274 3.26429 0
M  V30 6965 N 645.93 -0.909495 1.28709 0
M  V30 6966 C 646.877 -2.01245 1.13 0
M  V30 6967 C 647.847 -1.6608 0.0259684 0
M  V30 6968 O 649.032 -1.89835 0.191687 0
M  V30 6969 C 646.172 -3.35644 0.802315 0
M  V30 6970 C 645.285 -3.83653 1.98582 0
M  V30 6971 C 644.42 -5.06582 1.59837 0
M  V30 6972 C 643.459 -5.46934 2.74827 0
M  V30 6973 N 642.596 -6.61053 2.36546 0
M  V30 6974 H 647.436 -2.14013 2.0737 0
M  V30 6975 H 644.973 -1.0482 1.03205 0
M  V30 6976 H 646.931 -4.12963 0.593057 0
M  V30 6977 H 645.561 -3.22631 -0.104457 0
M  V30 6978 H 644.613 -3.02454 2.30708 0
M  V30 6979 H 645.925 -4.09515 2.84779 0
M  V30 6980 H 645.079 -5.91457 1.35143 0
M  V30 6981 H 643.818 -4.82537 0.707753 0
M  V30 6982 H 642.823 -4.60599 3.00215 0
M  V30 6983 H 644.048 -5.72965 3.64538 0
M  V30 6984 H 641.994 -6.3863 1.49959 0
M  V30 6985 H 641.911 -6.86662 3.16277 0
M  V30 6986 H 643.179 -7.49221 2.15146 0
M  V30 6987 N 647.408 -1.11026 -1.11852 0
M  V30 6988 C 648.633 -0.879064 -1.87849 0
M  V30 6989 C 649.058 0.565406 -1.79401 0
M  V30 6990 O 648.416 1.39886 -1.15333 0
M  V30 6991 C 648.464 -1.33985 -3.34784 0
M  V30 6992 O 647.568 -0.508803 -4.09249 0
M  V30 6993 H 646.909 -0.316992 -0.583448 0
M  V30 6994 H 649.439 -1.47863 -1.41413 0
M  V30 6995 H 649.449 -1.33248 -3.85628 0
M  V30 6996 H 648.124 -2.39172 -3.40249 0
M  V30 6997 H 646.701 -0.581913 -3.68332 0
M  V30 6998 N 648.886 1.2938 -0.899927 0
M  V30 6999 C 649.833 2.27713 -0.376243 0
M  V30 7000 C 650.803 1.57016 0.541774 0
M  V30 7001 O 651.988 1.84997 0.466966 0
M  V30 7002 C 649.128 3.42889 0.39 0
M  V30 7003 C 648.241 4.28369 -0.558938 0
M  V30 7004 C 647.376 5.30726 0.224379 0
M  V30 7005 C 646.415 6.07862 -0.719068 0
M  V30 7006 N 645.552 7.02094 0.0298569 0
M  V30 7007 H 650.392 2.71888 -1.21988 0
M  V30 7008 H 647.929 1.33724 -0.612879 0
M  V30 7009 H 649.887 4.08443 0.850314 0
M  V30 7010 H 648.517 2.99743 1.19809 0
M  V30 7011 H 647.569 3.62986 -1.13777 0
M  V30 7012 H 648.881 4.82068 -1.2811 0
M  V30 7013 H 648.035 6.02098 0.745881 0
M  V30 7014 H 646.774 4.77759 0.979674 0
M  V30 7015 H 645.779 5.35353 -1.25207 0
M  V30 7016 H 647.004 6.62917 -1.4737 0
M  V30 7017 H 644.95 6.51496 0.767415 0
M  V30 7018 H 644.867 7.5335 -0.632391 0
M  V30 7019 H 646.135 7.77685 0.531615 0
M  V30 7020 N 650.364 0.662433 1.43002 0
M  V30 7021 C 651.592 0.187615 2.06048 0
M  V30 7022 C 652.007 -1.15039 1.49705 0
M  V30 7023 O 651.364 -1.71209 0.631956 0
M  V30 7024 C 651.415 0.100498 3.6136 0
M  V30 7025 O 651.136 1.38562 4.15611 0
M  V30 7026 C 652.637 -0.399298 4.41498 0
M  V30 7027 H 649.857 0.0941675 0.664359 0
M  V30 7028 H 652.401 0.905681 1.83351 0
M  V30 7029 H 650.556 -0.568181 3.83211 0
M  V30 7030 H 650.97 1.25084 5.09366 0
M  V30 7031 H 652.444 -0.409187 5.50481 0
M  V30 7032 H 652.921 -1.43232 4.15188 0
M  V30 7033 H 653.527 0.23721 4.24638 0
M  V30 7034 N 651.842 -1.52309 0.404946 0
M  V30 7035 C 652.752 -2.30634 -0.429555 0
M  V30 7036 C 653.768 -1.38187 -1.05737 0
M  V30 7037 O 654.944 -1.71261 -1.05979 0
M  V30 7038 C 652.009 -3.10947 -1.53339 0
M  V30 7039 C 651.07 -4.19126 -0.929065 0
M  V30 7040 C 650.303 -4.95601 -1.9803 0
M  V30 7041 O 650.526 -4.72331 -3.1978 0
M  V30 7042 O 649.46 -5.80551 -1.58886 0
M  V30 7043 H 653.286 -3.0298 0.208963 0
M  V30 7044 H 650.871 -1.4845 0.168255 0
M  V30 7045 H 652.753 -3.60974 -2.1743 0
M  V30 7046 H 651.428 -2.41399 -2.15658 0
M  V30 7047 H 650.335 -3.73257 -0.250982 0
M  V30 7048 H 651.668 -4.90955 -0.349855 0
M  V30 7049 N 653.32 -0.135238 -1.57019 0
M  V30 7050 C 654.252 0.839675 -2.13265 0
M  V30 7051 C 655.265 1.21887 -1.07923 0
M  V30 7052 O 656.454 1.16499 -1.35241 0
M  V30 7053 C 653.554 2.13647 -2.63075 0
M  V30 7054 C 652.727 1.92646 -3.92691 0
M  V30 7055 C 651.786 3.06205 -4.27931 0
M  V30 7056 O 650.812 2.78409 -4.96465 0
M  V30 7057 N 652.014 4.33072 -3.86561 0
M  V30 7058 H 654.779 0.359026 -2.97542 0
M  V30 7059 H 652.34 0.0486979 -1.61827 0
M  V30 7060 H 654.332 2.88641 -2.8367 0
M  V30 7061 H 652.902 2.5301 -1.83588 0
M  V30 7062 H 652.122 1.01754 -3.80841 0
M  V30 7063 H 653.41 1.75939 -4.77413 0
M  V30 7064 H 652.808 4.58526 -3.31316 0
M  V30 7065 H 651.365 5.04885 -4.12231 0
M  V30 7066 N 654.798 1.5699 0.138552 0
M  V30 7067 C 655.761 1.97984 1.15478 0
M  V30 7068 C 656.761 0.867416 1.35398 0
M  V30 7069 O 657.951 1.13387 1.32246 0
M  V30 7070 C 655.083 2.3031 2.51337 0
M  V30 7071 H 656.276 2.88953 0.802896 0
M  V30 7072 H 653.829 1.51555 0.382189 0
M  V30 7073 H 654.564 1.42159 2.91481 0
M  V30 7074 H 654.349 3.11425 2.38237 0
M  V30 7075 H 655.839 2.62834 3.24512 0
M  V30 7076 N 656.276 -0.40816 1.52223 0
M  V30 7077 C 657.208 -1.51642 1.71864 0
M  V30 7078 C 658.221 -1.51378 0.599056 0
M  V30 7079 O 659.41 -1.55626 0.874239 0
M  V30 7080 C 656.51 -2.90534 1.74481 0
M  V30 7081 C 655.683 -3.14979 3.03491 0
M  V30 7082 C 654.742 -4.33749 2.97907 0
M  V30 7083 O 653.768 -4.30982 3.71811 0
M  V30 7084 N 654.97 -5.38912 2.15764 0
M  V30 7085 H 657.735 -1.35188 2.67478 0
M  V30 7086 H 655.296 -0.597468 1.50472 0
M  V30 7087 H 657.288 -3.68056 1.68275 0
M  V30 7088 H 655.858 -3.00441 0.863363 0
M  V30 7089 H 655.078 -2.25492 3.23337 0
M  V30 7090 H 656.366 -3.28156 3.88833 0
M  V30 7091 H 655.764 -5.44008 1.55152 0
M  V30 7092 H 654.321 -6.15174 2.15415 0
M  V30 7093 N 657.755 -1.42862 -0.66545 0
M  V30 7094 C 658.685 -1.49867 -1.79059 0
M  V30 7095 C 659.666 -0.354394 -1.66367 0
M  V30 7096 O 660.851 -0.569969 -1.85647 0
M  V30 7097 C 657.981 -1.40943 -3.17415 0
M  V30 7098 C 656.935 -2.53495 -3.44854 0
M  V30 7099 C 656.261 -2.29626 -4.82883 0
M  V30 7100 C 657.561 -3.95781 -3.40815 0
M  V30 7101 H 659.255 -2.44037 -1.73453 0
M  V30 7102 H 656.801 -1.17456 -0.833071 0
M  V30 7103 H 658.754 -1.4445 -3.95869 0
M  V30 7104 H 657.478 -0.432716 -3.23721 0
M  V30 7105 H 656.137 -2.4932 -2.68766 0
M  V30 7106 H 655.785 -1.30226 -4.8585 0
M  V30 7107 H 655.485 -3.05065 -5.02204 0
M  V30 7108 H 657.009 -2.34897 -5.63609 0
M  V30 7109 H 658.423 -4.01508 -4.09224 0
M  V30 7110 H 656.82 -4.71148 -3.71672 0
M  V30 7111 H 657.89 -4.21786 -2.39216 0
M  V30 7112 N 659.233 0.902656 -1.29189 0
M  V30 7113 C 660.196 1.98797 -1.14071 0
M  V30 7114 C 661.196 1.60615 -0.0770549 0
M  V30 7115 O 662.386 1.71165 -0.323753 0
M  V30 7116 C 659.518 3.32688 -0.743739 0
M  V30 7117 H 660.711 2.13637 -2.10473 0
M  V30 7118 H 658.264 1.08678 -1.12334 0
M  V30 7119 H 658.999 3.23549 0.220554 0
M  V30 7120 H 658.784 3.61765 -1.51223 0
M  V30 7121 H 660.274 4.12337 -0.660935 0
M  V30 7122 N 660.711 1.11618 1.11262 0
M  V30 7123 C 662.127 0.850468 1.35053 0
M  V30 7124 C 662.327 -0.523868 1.94571 0
M  V30 7125 O 661.383 -1.2743 2.17986 0
M  V30 7126 C 662.696 1.96005 2.28041 0
M  V30 7127 C 664.244 1.98993 2.416 0
M  V30 7128 C 664.719 3.0916 3.37911 0
M  V30 7129 N 666.21 3.08547 3.45475 0
M  V30 7130 C 666.945 3.9043 4.19943 0
M  V30 7131 N 666.441 4.8228 4.97371 0
M  V30 7132 N 668.234 3.786 4.15474 0
M  V30 7133 H 660.385 2.00184 0.709932 0
M  V30 7134 H 662.648 0.870635 0.375099 0
M  V30 7135 H 662.354 2.9499 1.91503 0
M  V30 7136 H 662.228 1.85782 3.28275 0
M  V30 7137 H 664.615 1.00633 2.77411 0
M  V30 7138 H 664.696 2.13292 1.4121 0
M  V30 7139 H 664.34 4.07748 3.02827 0
M  V30 7140 H 664.27 2.92102 4.3816 0
M  V30 7141 H 666.761 2.42 2.90249 0
M  V30 7142 H 667.074 5.41289 5.51567 0
M  V30 7143 H 665.419 4.863 4.96525 0
M  V30 7144 H 668.61 3.06185 3.54074 0
M  V30 7145 H 668.783 4.42647 4.73253 0
M  V30 7146 N 662.189 -1.289 0.906776 0
M  V30 7147 C 663.419 -1.99112 0.551168 0
M  V30 7148 C 663.827 -1.67998 -0.870243 0
M  V30 7149 O 663.17 -0.92525 -1.58697 0
M  V30 7150 C 663.232 -3.53162 0.672065 0
M  V30 7151 C 662.896 -4.07849 2.06174 0
M  V30 7152 C 663.893 -4.22212 3.0337 0
M  V30 7153 C 661.578 -4.4271 2.37304 0
M  V30 7154 C 663.572 -4.70678 4.29815 0
M  V30 7155 C 661.259 -4.90871 3.6399 0
M  V30 7156 C 662.257 -5.04811 4.6006 0
M  V30 7157 O 661.945 -5.51925 5.84495 0
M  V30 7158 H 661.677 -0.642728 0.209469 0
M  V30 7159 H 664.231 -1.65234 1.22012 0
M  V30 7160 H 662.461 -3.86662 -0.05394 0
M  V30 7161 H 664.15 -4.046 0.324579 0
M  V30 7162 H 664.916 -3.9556 2.80637 0
M  V30 7163 H 660.795 -4.31114 1.63283 0
M  V30 7164 H 664.339 -4.81474 5.04806 0
M  V30 7165 H 660.236 -5.16961 3.86551 0
M  V30 7166 H 661.004 -5.70225 5.87185 0
M  V30 7167 N 663.667 -0.670007 -1.42649 0
M  V30 7168 C 664.63 0.00204659 -2.292 0
M  V30 7169 C 665.63 0.733817 -1.4308 0
M  V30 7170 O 666.82 0.57254 -1.64522 0
M  V30 7171 C 663.952 1.01359 -3.25483 0
M  V30 7172 H 665.145 -0.759696 -2.90118 0
M  V30 7173 H 662.698 -0.432105 -1.50208 0
M  V30 7174 H 663.433 1.80399 -2.69493 0
M  V30 7175 H 663.218 0.492323 -3.88997 0
M  V30 7176 H 664.708 1.4824 -3.90403 0
M  V30 7177 N 665.145 1.52092 -0.413018 0
M  V30 7178 C 666.392 2.01855 0.161497 0
M  V30 7179 C 666.72 1.29845 1.44812 0
M  V30 7180 O 665.975 0.394471 1.91683 0
M  V30 7181 C 666.274 3.54529 0.4521 0
M  V30 7182 C 665.94 4.4469 -0.745788 0
M  V30 7183 C 664.602 4.69053 -1.07435 0
M  V30 7184 C 666.954 4.97742 -1.54604 0
M  V30 7185 C 664.282 5.43717 -2.20429 0
M  V30 7186 C 666.634 5.73642 -2.66678 0
M  V30 7187 C 665.298 5.96277 -3.00016 0
M  V30 7188 H 664.568 0.73864 0.0590961 0
M  V30 7189 H 667.215 1.83274 -0.555234 0
M  V30 7190 H 665.52 3.7131 1.25045 0
M  V30 7191 H 667.217 3.90546 0.909647 0
M  V30 7192 H 663.807 4.25907 -0.479725 0
M  V30 7193 H 667.991 4.78824 -1.30543 0
M  V30 7194 H 663.247 5.59462 -2.46602 0
M  V30 7195 H 667.421 6.13746 -3.29072 0
M  V30 7196 H 665.048 6.53913 -3.87688 0
M  V30 7197 N 666.623 0.143563 1.56945 0
M  V30 7198 C 667.571 -0.814556 2.17871 0
M  V30 7199 C 668.565 -1.25778 1.13474 0
M  V30 7200 O 669.771 -1.22666 1.31731 0
M  V30 7201 H 666.146 -0.280873 0.697578 0
M  V30 7202 H 668.117 -0.276459 2.97117 0
M  V30 7203 C 666.866 -2.04503 2.81201 0
M  V30 7204 H 666.189 -1.71296 3.61245 0
M  V30 7205 H 667.629 -2.69493 3.27337 0
M  V30 7206 C 666.088 -2.85079 1.79532 0
M  V30 7207 O 666.618 -3.81306 1.26368 0
M  V30 7208 N 664.824 -2.49546 1.48913 0
M  V30 7209 H 664.371 -1.71359 1.92338 0
M  V30 7210 H 664.329 -3.03751 0.811348 0
M  V30 7211 N 668.101 -1.57061 -0.130224 0
M  V30 7212 C 669.049 -2.00486 -1.17933 0
M  V30 7213 C 670.043 -0.899933 -1.43519 0
M  V30 7214 O 671.249 -1.08514 -1.43613 0
M  V30 7215 H 667.624 -0.638441 -0.397363 0
M  V30 7216 H 669.595 -2.87848 -0.786501 0
M  V30 7217 C 668.344 -2.41565 -2.50084 0
M  V30 7218 H 667.667 -3.26148 -2.31231 0
M  V30 7219 H 669.107 -2.75757 -3.22078 0
M  V30 7220 C 667.566 -1.27485 -3.11848 0
M  V30 7221 O 668.096 -0.584688 -3.97422 0
M  V30 7222 N 666.302 -1.03478 -2.71552 0
M  V30 7223 H 665.849 -1.59779 -2.02061 0
M  V30 7224 H 665.807 -0.27341 -3.13209 0
M  V30 7225 N 669.579 0.400081 -1.52437 0
M  V30 7226 C 670.511 1.50729 -1.72666 0
M  V30 7227 C 671.524 1.51058 -0.607075 0
M  V30 7228 O 672.713 1.5516 -0.88248 0
M  V30 7229 C 669.813 2.89604 -1.76019 0
M  V30 7230 C 668.986 3.13365 -3.05157 0
M  V30 7231 C 668.045 4.32163 -3.00203 0
M  V30 7232 O 667.071 4.29004 -3.74092 0
M  V30 7233 N 668.273 5.3776 -2.18619 0
M  V30 7234 H 671.038 1.33767 -2.68191 0
M  V30 7235 H 668.599 0.58948 -1.50787 0
M  V30 7236 H 670.591 3.67159 -1.70225 0
M  V30 7237 H 669.161 2.99979 -0.879284 0
M  V30 7238 H 668.381 2.23774 -3.24529 0
M  V30 7239 H 669.669 3.26089 -3.90568 0
M  V30 7240 H 669.067 5.43177 -1.58035 0
M  V30 7241 H 667.624 6.14023 -2.18674 0
M  V30 7242 N 671.057 1.43213 0.657864 0
M  V30 7243 C 672.303 1.45795 1.41829 0
M  V30 7244 C 672.658 0.0792176 1.92237 0
M  V30 7245 O 671.951 -0.901406 1.69072 0
M  V30 7246 C 672.145 2.43143 2.61947 0
M  V30 7247 C 671.974 3.90345 2.23295 0
M  V30 7248 C 670.744 4.58749 2.11843 0
M  V30 7249 C 672.942 4.80308 1.83873 0
M  V30 7250 N 670.924 5.90898 1.66473 0
M  V30 7251 C 672.295 6.01693 1.49549 0
M  V30 7252 C 674.35 4.67609 1.71015 0
M  V30 7253 C 673.053 7.11792 1.03657 0
M  V30 7254 C 675.079 5.77707 1.26527 0
M  V30 7255 C 674.441 6.98215 0.931379 0
M  V30 7256 H 670.54 0.588628 0.514822 0
M  V30 7257 H 673.124 1.7936 0.7575 0
M  V30 7258 H 671.295 2.11612 3.25692 0
M  V30 7259 H 673.027 2.36193 3.28626 0
M  V30 7260 H 669.782 4.1319 2.31453 0
M  V30 7261 H 670.206 6.61034 1.46163 0
M  V30 7262 H 674.848 3.74902 1.95469 0
M  V30 7263 H 672.566 8.04332 0.779502 0
M  V30 7264 H 676.152 5.69899 1.17074 0
M  V30 7265 H 675.032 7.81959 0.592379 0
M  V30 7266 N 672.536 -0.895792 1.29666 0
M  V30 7267 C 673.782 -1.64921 1.19049 0
M  V30 7268 C 674.137 -1.90707 -0.254678 0
M  V30 7269 O 673.43 -1.5092 -1.18041 0
M  V30 7270 C 673.624 -3.00075 1.94139 0
M  V30 7271 C 673.453 -2.87482 3.4581 0
M  V30 7272 C 672.223 -2.88041 4.15163 0
M  V30 7273 C 674.421 -2.64224 4.41237 0
M  V30 7274 N 672.403 -2.66226 5.5317 0
M  V30 7275 C 673.774 -2.51427 5.66732 0
M  V30 7276 C 675.829 -2.49362 4.30956 0
M  V30 7277 C 674.532 -2.25281 6.83111 0
M  V30 7278 C 676.558 -2.246 5.47091 0
M  V30 7279 C 675.92 -2.12571 6.7156 0
M  V30 7280 H 672.019 -0.608926 0.490646 0
M  V30 7281 H 674.603 -1.05648 1.63544 0
M  V30 7282 H 672.774 -3.574 1.52052 0
M  V30 7283 H 674.506 -3.64544 1.75754 0
M  V30 7284 H 671.261 -2.99471 3.66898 0
M  V30 7285 H 671.685 -2.58361 6.25762 0
M  V30 7286 H 676.327 -2.57403 3.35415 0
M  V30 7287 H 674.045 -2.15978 7.78704 0
M  V30 7288 H 677.631 -2.13939 5.41037 0
M  V30 7289 H 676.511 -1.93676 7.59907 0
M  V30 7290 N 674.014 -1.12206 -1.10668 0
M  V30 7291 C 675.291 -0.787382 -1.79052 0
M  V30 7292 C 675.671 0.723267 -1.98323 0
M  V30 7293 O 675.019 1.6561 -1.57434 0
M  V30 7294 C 675.229 -1.55968 -3.1221 0
M  V30 7295 C 676.577 -1.74413 -3.87125 0
M  V30 7296 O 677.601 -1.5246 -3.21923 0
M  V30 7297 O 676.46 -2.10952 -5.04144 0
M  V30 7298 H 673.554 -0.286137 -0.775922 0
M  V30 7299 H 676.1 -1.22595 -1.1734 0
M  V30 7300 H 674.872 -2.58692 -2.93588 0
M  V30 7301 H 674.495 -1.1152 -3.8164 0
M  V30 7302 N 675.492 1.28418 -0.913599 0
M  V30 7303 C 676.422 2.29713 -0.418847 0
M  V30 7304 C 677.403 1.62165 0.513469 0
M  V30 7305 O 678.588 1.89576 0.421235 0
M  V30 7306 C 675.718 3.45612 0.342042 0
M  V30 7307 C 674.672 4.25056 -0.501123 0
M  V30 7308 C 673.998 5.3329 0.388097 0
M  V30 7309 C 675.298 4.91814 -1.75831 0
M  V30 7310 H 676.992 2.71346 -1.26538 0
M  V30 7311 H 674.538 1.30446 -0.609903 0
M  V30 7312 H 676.491 4.15562 0.699 0
M  V30 7313 H 675.215 3.02858 1.22248 0
M  V30 7314 H 673.874 3.56833 -0.840598 0
M  V30 7315 H 673.522 4.8678 1.26707 0
M  V30 7316 H 673.222 5.87347 -0.172459 0
M  V30 7317 H 674.746 6.06088 0.74094 0
M  V30 7318 H 676.16 5.54126 -1.47026 0
M  V30 7319 H 674.557 5.55866 -2.26126 0
M  V30 7320 H 675.627 4.16313 -2.4862 0
M  V30 7321 N 676.97 0.677563 1.42291 0
M  V30 7322 C 678.195 0.207901 2.06355 0
M  V30 7323 C 678.62 -1.12723 1.50583 0
M  V30 7324 O 677.978 -1.70171 0.62543 0
M  V30 7325 C 678.026 0.156489 3.6026 0
M  V30 7326 O 677.13 -0.874162 4.03029 0
M  V30 7327 H 676.471 0.106056 0.655475 0
M  V30 7328 H 679.001 0.927354 1.82377 0
M  V30 7329 H 679.011 -0.0187258 4.07996 0
M  V30 7330 H 677.686 1.13101 4.00226 0
M  V30 7331 H 676.263 -0.669764 3.66836 0
M  V30 7332 N 678.448 -1.51871 0.421078 0
M  V30 7333 C 679.694 -2.02237 -0.151014 0
M  V30 7334 C 680.027 -1.30554 -1.43768 0
M  V30 7335 O 679.302 -0.41546 -1.90011 0
M  V30 7336 C 679.585 -3.5802 -0.386482 0
M  V30 7337 C 679.438 -4.40339 0.9177 0
M  V30 7338 C 680.757 -4.24444 -1.16342 0
M  V30 7339 H 677.876 -0.735062 -0.0534102 0
M  V30 7340 H 680.518 -1.81656 0.556888 0
M  V30 7341 H 678.668 -3.75688 -0.989494 0
M  V30 7342 H 680.34 -4.34357 1.55344 0
M  V30 7343 H 678.583 -4.06073 1.526 0
M  V30 7344 H 679.254 -5.47451 0.707187 0
M  V30 7345 H 681.73 -4.10948 -0.652788 0
M  V30 7346 H 680.606 -5.33358 -1.29693 0
M  V30 7347 H 680.867 -3.84204 -2.18724 0
M  V30 7348 N 679.926 -0.151884 -1.56866 0
M  V30 7349 C 680.858 0.817008 -2.14144 0
M  V30 7350 C 681.871 1.20735 -1.0921 0
M  V30 7351 O 683.06 1.15058 -1.36469 0
M  V30 7352 C 680.16 2.10844 -2.65326 0
M  V30 7353 C 679.333 1.88471 -3.94712 0
M  V30 7354 C 678.392 3.01649 -4.31155 0
M  V30 7355 O 677.418 2.73127 -4.9939 0
M  V30 7356 N 678.62 4.28947 -3.91132 0
M  V30 7357 H 681.385 0.327448 -2.97906 0
M  V30 7358 H 678.946 0.0315313 -1.61869 0
M  V30 7359 H 680.938 2.85616 -2.86715 0
M  V30 7360 H 679.508 2.51049 -1.86262 0
M  V30 7361 H 678.728 0.977088 -3.81899 0
M  V30 7362 H 680.016 1.70866 -4.79252 0
M  V30 7363 H 679.414 4.54986 -3.36161 0
M  V30 7364 H 677.971 5.00484 -4.17563 0
M  V30 7365 N 681.404 1.57128 0.121893 0
M  V30 7366 C 682.367 1.99197 1.13372 0
M  V30 7367 C 683.367 0.881728 1.3447 0
M  V30 7368 O 684.557 1.14783 1.31036 0
M  V30 7369 C 681.689 2.32963 2.4888 0
M  V30 7370 H 682.882 2.89788 0.772204 0
M  V30 7371 H 680.435 1.51952 0.366093 0
M  V30 7372 H 681.17 1.45243 2.89957 0
M  V30 7373 H 680.955 3.13934 2.34921 0
M  V30 7374 H 682.445 2.66261 3.21706 0
M  V30 7375 N 682.882 -0.391992 1.52647 0
M  V30 7376 C 684.11 -1.1586 1.71418 0
M  V30 7377 C 684.525 -1.8381 0.431216 0
M  V30 7378 O 683.882 -1.7256 -0.594085 0
M  V30 7379 C 683.933 -2.20888 2.86165 0
M  V30 7380 O 683.654 -1.5571 4.09495 0
M  V30 7381 C 685.155 -3.103 3.1659 0
M  V30 7382 H 682.375 -0.347494 0.574011 0
M  V30 7383 H 684.919 -0.458972 1.99283 0
M  V30 7384 H 683.074 -2.86492 2.6077 0
M  V30 7385 H 683.488 -2.25474 4.73563 0
M  V30 7386 H 684.962 -3.8003 4.00351 0
M  V30 7387 H 685.439 -3.73639 2.30848 0
M  V30 7388 H 686.045 -2.50345 3.43813 0
M  V30 7389 N 684.36 -1.4356 -0.65026 0
M  V30 7390 C 685.609 -1.44619 -1.406 0
M  V30 7391 C 685.922 -0.0752645 -1.95455 0
M  V30 7392 O 687.128 0.0366832 -2.71475 0
M  V30 7393 C 685.584 -2.54511 -2.54465 0
M  V30 7394 C 685.192 -3.97723 -2.06204 0
M  V30 7395 C 686.936 -2.64768 -3.31811 0
M  V30 7396 C 684.843 -4.99075 -3.17298 0
M  V30 7397 H 683.773 -0.537983 -0.52829 0
M  V30 7398 H 686.424 -1.69559 -0.701561 0
M  V30 7399 H 684.806 -2.22777 -3.27393 0
M  V30 7400 H 685.98 -4.38932 -1.40267 0
M  V30 7401 H 684.295 -3.91538 -1.41729 0
M  V30 7402 H 686.892 -3.37664 -4.14593 0
M  V30 7403 H 687.235 -1.69936 -3.80036 0
M  V30 7404 H 687.768 -2.95817 -2.65964 0
M  V30 7405 H 684.507 -5.95469 -2.74038 0
M  V30 7406 H 684.027 -4.62476 -3.81937 0
M  V30 7407 H 685.706 -5.21913 -3.82382 0
M  V30 7408 N 685.838 0.888903 -1.30139 0
M  V30 7409 C 686.801 1.97576 -1.16174 0
M  V30 7410 C 687.801 1.60525 -0.094086 0
M  V30 7411 O 688.991 1.70812 -0.341889 0
M  V30 7412 C 686.123 3.3188 -0.778983 0
M  V30 7413 H 687.316 2.11393 -2.12728 0
M  V30 7414 H 684.869 1.0748 -1.1348 0
M  V30 7415 H 685.604 3.23765 0.186225 0
M  V30 7416 H 685.389 3.60141 -1.55051 0
M  V30 7417 H 686.879 4.11612 -0.704631 0
M  V30 7418 N 687.317 1.12792 1.10072 0
M  V30 7419 C 688.565 0.883796 1.81751 0
M  V30 7420 C 688.886 -0.591891 1.858 0
M  V30 7421 O 688.156 -1.43017 1.33876 0
M  V30 7422 H 686.736 0.323978 0.673088 0
M  V30 7423 H 689.398 1.42314 1.33164 0
M  V30 7424 H 688.494 1.26863 2.85153 0
M  V30 7425 N 688.795 -1.27931 0.920396 0
M  V30 7426 C 689.742 -2.27085 0.412422 0
M  V30 7427 C 690.712 -1.57858 -0.516725 0
M  V30 7428 O 691.897 -1.85717 -0.437475 0
M  V30 7429 C 689.037 -3.43466 -0.335399 0
M  V30 7430 C 688.15 -4.27425 0.627017 0
M  V30 7431 C 687.285 -5.31016 -0.139916 0
M  V30 7432 C 686.324 -6.06641 0.815683 0
M  V30 7433 N 685.461 -7.02052 0.0818439 0
M  V30 7434 H 690.301 -2.69913 1.26298 0
M  V30 7435 H 687.838 -1.32732 0.634076 0
M  V30 7436 H 689.796 -4.09744 -0.785226 0
M  V30 7437 H 688.426 -3.01611 -1.15025 0
M  V30 7438 H 687.478 -3.6113 1.19537 0
M  V30 7439 H 688.79 -4.79969 1.35763 0
M  V30 7440 H 687.944 -6.03208 -0.649998 0
M  V30 7441 H 686.683 -4.79257 -0.903543 0
M  V30 7442 H 685.688 -5.33294 1.33708 0
M  V30 7443 H 686.913 -6.60489 1.57897 0
M  V30 7444 H 684.859 -6.52634 -0.663671 0
M  V30 7445 H 684.776 -7.52249 0.752163 0
M  V30 7446 H 686.044 -7.78432 -0.407825 0
M  V30 7447 N 690.273 -0.685099 -1.4193 0
M  V30 7448 C 691.203 -0.0273506 -2.33484 0
M  V30 7449 C 692.184 0.778366 -1.51246 0
M  V30 7450 O 693.369 0.733449 -1.79817 0
M  V30 7451 C 690.499 0.917272 -3.34968 0
M  V30 7452 C 689.453 0.21941 -4.27437 0
M  V30 7453 C 688.779 1.27768 -5.1921 0
M  V30 7454 C 690.079 -0.907894 -5.14349 0
M  V30 7455 H 691.773 -0.791994 -2.88735 0
M  V30 7456 H 689.319 -0.382308 -1.38832 0
M  V30 7457 H 691.272 1.38657 -3.97935 0
M  V30 7458 H 689.996 1.71346 -2.78043 0
M  V30 7459 H 688.655 -0.229757 -3.65879 0
M  V30 7460 H 688.303 2.06612 -4.58607 0
M  V30 7461 H 688.003 0.815803 -5.81909 0
M  V30 7462 H 689.527 1.7477 -5.85054 0
M  V30 7463 H 690.941 -0.519348 -5.70943 0
M  V30 7464 H 689.338 -1.2962 -5.85934 0
M  V30 7465 H 690.408 -1.75218 -4.52136 0
M  V30 7466 N 691.751 1.51645 -0.429126 0
M  V30 7467 C 692.997 2.02967 0.132584 0
M  V30 7468 C 693.352 1.30804 1.41096 0
M  V30 7469 O 692.645 0.411705 1.87124 0
M  V30 7470 C 692.839 3.54989 0.414472 0
M  V30 7471 C 692.668 4.41879 -0.83503 0
M  V30 7472 C 691.438 4.86482 -1.36614 0
M  V30 7473 C 693.636 4.84727 -1.71886 0
M  V30 7474 N 691.618 5.5756 -2.56904 0
M  V30 7475 C 692.989 5.54788 -2.76786 0
M  V30 7476 C 695.044 4.66721 -1.73425 0
M  V30 7477 C 693.747 6.08753 -3.8316 0
M  V30 7478 C 695.773 5.21597 -2.7873 0
M  V30 7479 C 695.135 5.91598 -3.8235 0
M  V30 7480 H 691.234 0.781942 0.00956367 0
M  V30 7481 H 693.818 1.8561 -0.587957 0
M  V30 7482 H 691.989 3.72378 1.10405 0
M  V30 7483 H 693.721 3.92982 0.966817 0
M  V30 7484 H 690.476 4.64553 -0.921255 0
M  V30 7485 H 690.9 5.97731 -3.17879 0
M  V30 7486 H 695.542 4.1207 -0.946467 0
M  V30 7487 H 693.26 6.62464 -4.62782 0
M  V30 7488 H 696.846 5.09522 -2.80853 0
M  V30 7489 H 695.726 6.33299 -4.62495 0
M  V30 7490 N 693.229 0.160201 1.56784 0
M  V30 7491 C 694.506 -0.533355 1.88188 0
M  V30 7492 C 694.886 -1.82072 1.06831 0
M  V30 7493 O 694.234 -2.27946 0.158959 0
M  V30 7494 C 694.444 -0.786034 3.40033 0
M  V30 7495 C 695.792 -1.12097 4.09536 0
M  V30 7496 O 696.816 -0.874949 3.45287 0
M  V30 7497 O 695.675 -1.58457 5.23023 0
M  V30 7498 H 692.769 -0.273589 0.780434 0
M  V30 7499 H 695.315 0.197803 1.68543 0
M  V30 7500 H 694.087 0.124515 3.91102 0
M  V30 7501 H 693.71 -1.57091 3.65251 0
M  V30 7502 N 694.707 -1.5719 -0.113559 0
M  V30 7503 C 695.657 -1.97166 -1.14497 0
M  V30 7504 C 696.641 -0.847413 -1.36776 0
M  V30 7505 O 697.833 -1.11114 -1.37777 0
M  V30 7506 C 694.962 -2.38411 -2.47013 0
M  V30 7507 C 694.048 -3.5748 -2.28185 0
M  V30 7508 N 694.439 -4.72998 -1.79182 0
M  V30 7509 C 692.737 -3.63218 -2.58821 0
M  V30 7510 C 693.438 -5.55007 -1.74191 0
M  V30 7511 N 692.414 -4.9765 -2.18735 0
M  V30 7512 H 696.216 -2.83937 -0.758733 0
M  V30 7513 H 693.73 -1.59191 -0.321234 0
M  V30 7514 H 695.727 -2.65269 -3.21618 0
M  V30 7515 H 694.387 -1.53007 -2.8639 0
M  V30 7516 H 695.398 -4.96109 -1.48649 0
M  V30 7517 H 692.075 -2.88434 -3.01847 0
M  V30 7518 H 693.465 -6.57678 -1.37512 0
M  V30 7519 N 696.185 0.383891 -1.52853 0
M  V30 7520 C 697.115 1.47559 -1.80965 0
M  V30 7521 C 698.096 1.5669 -0.661986 0
M  V30 7522 O 699.281 1.71556 -0.910072 0
M  V30 7523 C 696.411 2.85114 -1.98312 0
M  V30 7524 C 695.365 2.9082 -3.14019 0
M  V30 7525 C 694.691 4.30873 -3.16627 0
M  V30 7526 C 695.991 2.60001 -4.52986 0
M  V30 7527 H 697.685 1.24283 -2.72386 0
M  V30 7528 H 695.231 0.596445 -1.31067 0
M  V30 7529 H 697.184 3.61496 -2.16561 0
M  V30 7530 H 695.908 3.09738 -1.03585 0
M  V30 7531 H 694.567 2.16886 -2.9556 0
M  V30 7532 H 694.215 4.52545 -2.19573 0
M  V30 7533 H 693.915 4.3561 -3.94357 0
M  V30 7534 H 695.439 5.09154 -3.37038 0
M  V30 7535 H 696.853 3.261 -4.71521 0
M  V30 7536 H 695.25 2.76081 -5.32822 0
M  V30 7537 H 696.32 1.5532 -4.59351 0
M  V30 7538 N 697.663 1.43903 0.642637 0
M  V30 7539 C 698.573 1.52349 1.78401 0
M  V30 7540 C 699.589 0.409869 1.69104 0
M  V30 7541 O 700.765 0.665548 1.90085 0
M  V30 7542 C 697.83 1.45408 3.14734 0
M  V30 7543 C 696.891 2.67528 3.35749 0
M  V30 7544 C 696.124 2.60909 4.65577 0
M  V30 7545 O 696.347 1.6627 5.45628 0
M  V30 7546 O 695.281 3.5158 4.88544 0
M  V30 7547 H 699.107 2.48752 1.7423 0
M  V30 7548 H 696.692 1.26021 0.802439 0
M  V30 7549 H 698.574 1.44019 3.96026 0
M  V30 7550 H 697.249 0.521437 3.19473 0
M  V30 7551 H 696.156 2.74487 2.5418 0
M  V30 7552 H 697.489 3.598 3.35864 0
M  V30 7553 N 699.141 -0.881989 1.30609 0
M  V30 7554 C 700.051 -2.02076 1.19174 0
M  V30 7555 C 701.067 -1.73645 0.11102 0
M  V30 7556 O 702.243 -1.98735 0.326528 0
M  V30 7557 C 699.308 -3.3515 0.887438 0
M  V30 7558 C 698.369 -3.76983 2.05383 0
M  V30 7559 C 697.602 -5.03707 1.76395 0
M  V30 7560 O 697.825 -5.66171 0.693302 0
M  V30 7561 O 696.759 -5.42019 2.61723 0
M  V30 7562 H 700.585 -2.14652 2.14845 0
M  V30 7563 H 698.17 -1.00843 1.10232 0
M  V30 7564 H 700.052 -4.14975 0.73306 0
M  V30 7565 H 698.727 -3.23676 -0.0393354 0
M  V30 7566 H 697.634 -2.97849 2.26355 0
M  V30 7567 H 698.967 -3.93066 2.96243 0
M  V30 7568 N 700.619 -1.13374 -1.09472 0
M  V30 7569 C 702.035 -0.871846 -1.33682 0
M  V30 7570 C 702.235 0.492847 -1.9538 0
M  V30 7571 O 701.291 1.23946 -2.19985 0
M  V30 7572 C 702.604 -1.99608 -2.24893 0
M  V30 7573 C 704.152 -2.02812 -2.38404 0
M  V30 7574 C 704.627 -3.14497 -3.3295 0
M  V30 7575 N 706.118 -3.14004 -3.40523 0
M  V30 7576 C 706.853 -3.97061 -4.13679 0
M  V30 7577 N 706.349 -4.90131 -4.89636 0
M  V30 7578 N 708.142 -3.85162 -4.09398 0
M  V30 7579 H 700.293 -2.01288 -0.677995 0
M  V30 7580 H 702.556 -0.876492 -0.361201 0
M  V30 7581 H 702.262 -2.98 -1.86786 0
M  V30 7582 H 702.136 -1.90981 -3.25278 0
M  V30 7583 H 704.523 -1.05034 -2.75775 0
M  V30 7584 H 704.604 -2.15511 -1.37799 0
M  V30 7585 H 704.248 -4.12514 -2.96302 0
M  V30 7586 H 704.178 -2.99035 -4.33458 0
M  V30 7587 H 706.669 -2.46587 -2.86362 0
M  V30 7588 H 706.982 -5.49996 -5.42885 0
M  V30 7589 H 705.327 -4.94138 -4.88726 0
M  V30 7590 H 708.518 -3.11779 -3.49158 0
M  V30 7591 H 708.691 -4.5012 -4.6615 0
M  V30 7592 N 702.098 1.27442 -0.927168 0
M  V30 7593 C 703.345 1.94391 -0.567324 0
M  V30 7594 C 703.673 1.72875 0.891321 0
M  V30 7595 O 702.928 1.05071 1.65102 0
M  V30 7596 C 703.227 3.47413 -0.838994 0
M  V30 7597 C 702.893 3.89049 -2.2793 0
M  V30 7598 C 701.555 4.00127 -2.67305 0
M  V30 7599 C 703.907 4.10154 -3.21595 0
M  V30 7600 C 701.235 4.29697 -3.99471 0
M  V30 7601 C 703.587 4.41208 -4.53341 0
M  V30 7602 C 702.251 4.50499 -4.92551 0
M  V30 7603 H 701.521 0.711325 -0.207598 0
M  V30 7604 H 704.168 1.51523 -1.17103 0
M  V30 7605 H 702.473 3.91503 -0.152609 0
M  V30 7606 H 704.17 3.97354 -0.53955 0
M  V30 7607 H 700.76 3.80962 -1.96381 0
M  V30 7608 H 704.944 4.01036 -2.92377 0
M  V30 7609 H 700.2 4.35099 -4.29533 0
M  V30 7610 H 704.374 4.56486 -5.25922 0
M  V30 7611 H 702.001 4.73167 -5.94994 0
M  V30 7612 N 703.576 0.692616 1.41565 0
M  V30 7613 C 704.987 0.297478 1.84315 0
M  V30 7614 C 705.338 -1.16379 1.57957 0
M  V30 7615 O 704.463 -1.89303 1.0485 0
M  V30 7616 C 705.058 0.533136 3.34579 0
M  V30 7617 C 703.617 0.191944 3.7591 0
M  V30 7618 C 702.764 0.816873 2.64995 0
M  V30 7619 H 705.715 0.893488 1.31158 0
M  V30 7620 H 705.736 -0.209105 3.79925 0
M  V30 7621 H 705.248 1.59674 3.53731 0
M  V30 7622 H 703.349 -0.867512 3.6236 0
M  V30 7623 H 703.462 0.644902 4.7474 0
M  V30 7624 H 701.826 0.246715 2.53502 0
M  V30 7625 H 702.609 1.88429 2.86966 0
M  V30 7626 N 705.054 -1.51416 0.437162 0
M  V30 7627 C 705.984 -2.30631 -0.364922 0
M  V30 7628 C 706.965 -1.36037 -1.02118 0
M  V30 7629 O 708.15 -1.64956 -1.02485 0
M  V30 7630 C 705.28 -3.1482 -1.46648 0
M  V30 7631 C 704.234 -4.17691 -0.933717 0
M  V30 7632 C 703.56 -4.904 -2.13101 0
M  V30 7633 C 704.86 -5.2229 0.0317201 0
M  V30 7634 H 706.554 -2.97932 0.29614 0
M  V30 7635 H 704.1 -1.4328 0.143865 0
M  V30 7636 H 706.053 -3.69017 -2.03481 0
M  V30 7637 H 704.777 -2.4534 -2.15583 0
M  V30 7638 H 703.436 -3.64545 -0.387602 0
M  V30 7639 H 703.084 -4.17423 -2.80654 0
M  V30 7640 H 702.784 -5.59962 -1.78092 0
M  V30 7641 H 704.308 -5.4742 -2.70487 0
M  V30 7642 H 705.722 -5.7156 -0.446302 0
M  V30 7643 H 704.119 -5.99378 0.29437 0
M  V30 7644 H 705.189 -4.75131 0.968447 0
M  V30 7645 N 706.532 -0.168513 -1.56696 0
M  V30 7646 C 707.495 0.748928 -2.16619 0
M  V30 7647 C 708.495 1.16007 -1.11351 0
M  V30 7648 O 709.685 1.07748 -1.3688 0
M  V30 7649 C 706.817 2.01904 -2.74677 0
M  V30 7650 H 708.01 0.227317 -2.99037 0
M  V30 7651 H 705.563 0.0810372 -1.5609 0
M  V30 7652 H 706.298 2.58381 -1.95985 0
M  V30 7653 H 706.083 1.73323 -3.51712 0
M  V30 7654 H 707.573 2.67383 -3.20774 0
M  V30 7655 N 708.01 1.57248 0.105221 0
M  V30 7656 C 709.24 1.89492 0.823175 0
M  V30 7657 C 709.648 0.75934 1.73294 0
M  V30 7658 O 708.991 -0.278182 1.81581 0
M  V30 7659 C 709.053 3.16891 1.69765 0
M  V30 7660 C 708.717 4.46787 0.960769 0
M  V30 7661 C 709.714 5.19061 0.295218 0
M  V30 7662 C 707.399 4.93467 0.937854 0
M  V30 7663 C 709.393 6.36246 -0.383393 0
M  V30 7664 C 707.08 6.10566 0.255452 0
M  V30 7665 C 708.078 6.81804 -0.404003 0
M  V30 7666 O 707.766 7.96673 -1.07549 0
M  V30 7667 H 707.498 0.631512 0.24118 0
M  V30 7668 H 710.052 2.05203 0.0899655 0
M  V30 7669 H 708.282 2.973 2.47285 0
M  V30 7670 H 709.971 3.35046 2.29126 0
M  V30 7671 H 710.737 4.84044 0.304448 0
M  V30 7672 H 706.616 4.37913 1.44058 0
M  V30 7673 H 710.16 6.91787 -0.898696 0
M  V30 7674 H 706.057 6.45039 0.244032 0
M  V30 7675 H 706.825 8.12596 -0.981355 0
M  V30 7676 N 709.488 -0.375779 1.53054 0
M  V30 7677 C 710.436 -1.48015 1.79428 0
M  V30 7678 C 711.43 -1.55893 0.662854 0
M  V30 7679 O 712.636 -1.58901 0.845599 0
M  V30 7680 H 709.011 -0.492887 0.56795 0
M  V30 7681 H 710.982 -1.22971 2.71884 0
M  V30 7682 C 709.731 -2.84984 1.99197 0
M  V30 7683 H 709.054 -2.79677 2.85693 0
M  V30 7684 H 710.494 -3.61462 2.21633 0
M  V30 7685 C 708.953 -3.28025 0.768183 0
M  V30 7686 O 709.483 -4.01671 -0.0480482 0
M  V30 7687 N 707.689 -2.84454 0.594521 0
M  V30 7688 H 707.236 -2.24688 1.25988 0
M  V30 7689 H 707.194 -3.13609 -0.222916 0
M  V30 7690 N 710.966 -1.44241 -0.634997 0
M  V30 7691 C 712.243 -1.37296 -1.39317 0
M  V30 7692 C 712.623 -0.0297532 -2.11079 0
M  V30 7693 O 711.971 0.987524 -2.06059 0
M  V30 7694 C 712.181 -2.56853 -2.36279 0
M  V30 7695 C 713.529 -3.00747 -2.99728 0
M  V30 7696 O 714.553 -2.5703 -2.46605 0
M  V30 7697 O 713.412 -3.76533 -3.96087 0
M  V30 7698 H 710.506 -0.543503 -0.623325 0
M  V30 7699 H 713.052 -1.56324 -0.660376 0
M  V30 7700 H 711.824 -3.46228 -1.82324 0
M  V30 7701 H 711.447 -2.40019 -3.16981 0
M  V30 7702 N 712.444 0.87505 -1.31075 0
M  V30 7703 C 713.374 1.99775 -1.20881 0
M  V30 7704 C 714.355 1.69822 -0.0971612 0
M  V30 7705 O 715.54 1.92158 -0.280895 0
M  V30 7706 C 712.67 3.35163 -0.910118 0
M  V30 7707 C 711.624 3.79406 -1.98078 0
M  V30 7708 C 710.95 5.12197 -1.53488 0
M  V30 7709 C 712.25 3.97061 -3.39323 0
M  V30 7710 H 713.944 2.08562 -2.14808 0
M  V30 7711 H 711.49 1.00207 -1.03415 0
M  V30 7712 H 713.443 4.13237 -0.825423 0
M  V30 7713 H 712.167 3.26536 0.064822 0
M  V30 7714 H 710.826 3.03568 -2.05528 0
M  V30 7715 H 710.474 5.00007 -0.547941 0
M  V30 7716 H 710.174 5.4277 -2.2511 0
M  V30 7717 H 711.698 5.92785 -1.46417 0
M  V30 7718 H 713.112 4.65545 -3.34576 0
M  V30 7719 H 711.509 4.39025 -4.09118 0
M  V30 7720 H 712.579 3.00601 -3.80483 0
M  V30 7721 N 713.922 1.13953 1.08869 0
M  V30 7722 C 715.169 0.90481 1.81161 0
M  V30 7723 C 715.497 -0.568824 1.85996 0
M  V30 7724 O 714.752 -1.43723 1.32823 0
M  V30 7725 C 715.051 1.44495 3.26888 0
M  V30 7726 C 714.717 2.93641 3.42178 0
M  V30 7727 C 713.379 3.34361 3.46059 0
M  V30 7728 C 715.731 3.89568 3.46246 0
M  V30 7729 C 713.059 4.69681 3.51592 0
M  V30 7730 C 715.411 5.2474 3.53314 0
M  V30 7731 C 714.075 5.64979 3.55465 0
M  V30 7732 H 713.345 0.331094 0.662916 0
M  V30 7733 H 715.992 1.42242 1.28217 0
M  V30 7734 H 714.297 0.848169 3.82509 0
M  V30 7735 H 715.994 1.23934 3.81368 0
M  V30 7736 H 712.584 2.61156 3.39846 0
M  V30 7737 H 716.768 3.59192 3.42483 0
M  V30 7738 H 712.024 5.00224 3.51547 0
M  V30 7739 H 716.198 5.98882 3.55406 0
M  V30 7740 H 713.825 6.69821 3.59505 0
M  V30 7741 N 715.4 -1.26948 0.933913 0
M  V30 7742 C 716.347 -2.26635 0.436484 0
M  V30 7743 C 717.317 -1.58397 -0.499953 0
M  V30 7744 O 718.502 -1.86171 -0.417753 0
M  V30 7745 C 715.642 -3.43803 -0.298951 0
M  V30 7746 C 714.755 -4.26736 0.672316 0
M  V30 7747 C 713.89 -5.31134 -0.0835872 0
M  V30 7748 C 712.929 -6.05742 0.879979 0
M  V30 7749 N 712.066 -7.01926 0.156301 0
M  V30 7750 H 716.906 -2.68558 1.29154 0
M  V30 7751 H 714.443 -1.32052 0.648118 0
M  V30 7752 H 716.401 -4.10554 -0.741723 0
M  V30 7753 H 715.031 -3.02814 -1.1182 0
M  V30 7754 H 714.083 -3.59842 1.23361 0
M  V30 7755 H 715.395 -4.78502 1.40846 0
M  V30 7756 H 714.549 -6.03863 -0.585984 0
M  V30 7757 H 713.288 -4.80188 -0.852661 0
M  V30 7758 H 712.293 -5.31846 1.39357 0
M  V30 7759 H 713.518 -6.58777 1.64894 0
M  V30 7760 H 711.464 -6.53301 -0.594413 0
M  V30 7761 H 711.381 -7.51409 0.831906 0
M  V30 7762 H 712.649 -7.78821 -0.325239 0
M  V30 7763 N 716.879 -0.700114 -1.41195 0
M  V30 7764 C 718.295 -0.372114 -1.55201 0
M  V30 7765 C 718.495 1.12053 -1.6747 0
M  V30 7766 O 717.551 1.90642 -1.65566 0
M  V30 7767 C 718.864 -1.12462 -2.78878 0
M  V30 7768 C 720.412 -1.10941 -2.92679 0
M  V30 7769 C 720.887 -1.84376 -4.19249 0
M  V30 7770 N 722.378 -1.81368 -4.26216 0
M  V30 7771 C 723.113 -2.35024 -5.23021 0
M  V30 7772 N 722.609 -2.9717 -6.25829 0
M  V30 7773 N 724.402 -2.25254 -5.14992 0
M  V30 7774 H 716.553 -1.66816 -1.31477 0
M  V30 7775 H 718.816 -0.704223 -0.634644 0
M  V30 7776 H 718.522 -2.17937 -2.76037 0
M  V30 7777 H 718.396 -0.706152 -3.70531 0
M  V30 7778 H 720.783 -0.062911 -2.95033 0
M  V30 7779 H 720.864 -1.56698 -2.02187 0
M  V30 7780 H 720.508 -2.89008 -4.17656 0
M  V30 7781 H 720.438 -1.3605 -5.08722 0
M  V30 7782 H 722.929 -1.36062 -3.52556 0
M  V30 7783 H 723.242 -3.35668 -6.96094 0
M  V30 7784 H 721.587 -3.01249 -6.26318 0
M  V30 7785 H 724.778 -1.76372 -4.33602 0
M  V30 7786 H 724.951 -2.67373 -5.90268 0
M  V30 7787 N 718.357 1.51182 -0.445186 0
M  V30 7788 C 719.587 2.06269 0.116922 0
M  V30 7789 C 719.995 1.31188 1.36332 0
M  V30 7790 O 719.338 0.367067 1.79995 0
M  V30 7791 C 719.4 3.56051 0.496757 0
M  V30 7792 C 719.064 4.52441 -0.64394 0
M  V30 7793 C 720.061 4.97233 -1.5184 0
M  V30 7794 C 717.746 4.95447 -0.826905 0
M  V30 7795 C 719.74 5.83712 -2.56046 0
M  V30 7796 C 717.427 5.81714 -1.87222 0
M  V30 7797 C 718.425 6.25745 -2.73738 0
M  V30 7798 O 718.113 7.10298 -3.76474 0
M  V30 7799 H 717.845 0.675954 0.00785733 0
M  V30 7800 H 720.399 1.95648 -0.625371 0
M  V30 7801 H 718.629 3.64483 1.29187 0
M  V30 7802 H 720.318 3.93618 0.990928 0
M  V30 7803 H 721.084 4.64696 -1.38862 0
M  V30 7804 H 716.963 4.60712 -0.163052 0
M  V30 7805 H 720.507 6.18 -3.23607 0
M  V30 7806 H 716.404 6.13664 -2.00218 0
M  V30 7807 H 717.172 7.28493 -3.73149 0
M  V30 7808 N 719.835 0.176821 1.56605 0
M  V30 7809 C 721.063 -0.472828 2.01425 0
M  V30 7810 C 721.478 -1.56436 1.05703 0
M  V30 7811 O 720.835 -1.82405 0.058808 0
M  V30 7812 C 720.886 -1.04607 3.46034 0
M  V30 7813 O 720.607 0.00189608 4.381 0
M  V30 7814 C 722.108 -1.7734 4.06282 0
M  V30 7815 H 719.328 -0.120503 0.660091 0
M  V30 7816 H 721.872 0.280166 2.02572 0
M  V30 7817 H 720.027 -1.74953 3.45645 0
M  V30 7818 H 720.441 -0.422118 5.22799 0
M  V30 7819 H 721.915 -2.12703 5.09374 0
M  V30 7820 H 722.392 -2.67043 3.4869 0
M  V30 7821 H 722.998 -1.11623 4.10391 0
M  V30 7822 N 721.313 -1.57302 -0.09688 0
M  V30 7823 C 722.538 -1.9058 -0.818169 0
M  V30 7824 C 722.963 -0.770921 -1.71576 0
M  V30 7825 O 722.321 0.277588 -1.79162 0
M  V30 7826 C 722.369 -3.22714 -1.60898 0
M  V30 7827 O 721.473 -3.10178 -2.71779 0
M  V30 7828 H 720.814 -0.624759 -0.224882 0
M  V30 7829 H 723.344 -2.04471 -0.07264 0
M  V30 7830 H 723.354 -3.55978 -1.99358 0
M  V30 7831 H 722.029 -4.04899 -0.950227 0
M  V30 7832 H 720.606 -2.88424 -2.3636 0
M  V30 7833 N 722.791 0.367657 -1.53252 0
M  V30 7834 C 724.039 1.10832 -1.68999 0
M  V30 7835 C 724.36 1.89894 -0.443306 0
M  V30 7836 O 723.63 1.88235 0.54262 0
M  V30 7837 H 722.21 0.412153 -0.623008 0
M  V30 7838 H 724.872 0.414775 -1.90435 0
M  V30 7839 H 723.968 1.7993 -2.55013 0
M  V30 7840 N 724.269 1.44576 0.627338 0
M  V30 7841 C 725.216 1.51734 1.73912 0
M  V30 7842 C 726.186 0.364745 1.62046 0
M  V30 7843 O 727.371 0.575503 1.81914 0
M  V30 7844 C 724.511 1.47116 3.12171 0
M  V30 7845 C 723.624 2.72778 3.34986 0
M  V30 7846 C 722.759 2.59968 4.63239 0
M  V30 7847 C 721.798 3.80776 4.79245 0
M  V30 7848 N 720.935 3.66618 5.98778 0
M  V30 7849 H 725.775 2.46722 1.6713 0
M  V30 7850 H 723.312 1.22444 0.815224 0
M  V30 7851 H 725.27 1.42429 3.92135 0
M  V30 7852 H 723.9 0.556928 3.17959 0
M  V30 7853 H 722.952 2.87637 2.48936 0
M  V30 7854 H 724.264 3.62441 3.42692 0
M  V30 7855 H 723.418 2.53135 5.51369 0
M  V30 7856 H 722.157 1.67872 4.57898 0
M  V30 7857 H 721.162 3.87989 3.89544 0
M  V30 7858 H 722.387 4.73913 4.86398 0
M  V30 7859 H 720.333 2.77277 5.9452 0
M  V30 7860 H 720.25 4.499 6.07557 0
M  V30 7861 H 721.518 3.63684 6.89459 0
M  V30 7862 N 725.747 -0.868086 1.31537 0
M  V30 7863 C 726.657 -2.00801 1.21311 0
M  V30 7864 C 727.673 -1.73518 0.129431 0
M  V30 7865 O 728.849 -1.98378 0.347588 0
M  V30 7866 C 725.914 -3.3419 0.922935 0
M  V30 7867 C 724.975 -3.74783 2.0937 0
M  V30 7868 C 724.208 -5.01807 1.81728 0
M  V30 7869 O 724.431 -5.65404 0.753313 0
M  V30 7870 O 723.365 -5.39213 2.67457 0
M  V30 7871 H 727.191 -2.12361 2.17109 0
M  V30 7872 H 724.776 -0.996684 1.11295 0
M  V30 7873 H 726.658 -4.14174 0.777033 0
M  V30 7874 H 725.333 -3.237 -0.00500301 0
M  V30 7875 H 724.24 -2.95432 2.29501 0
M  V30 7876 H 725.573 -3.89902 3.00396 0
M  V30 7877 N 727.225 -1.14528 -1.08264 0
M  V30 7878 C 728.474 -0.908992 -1.80056 0
M  V30 7879 C 728.787 0.565859 -1.87236 0
M  V30 7880 O 729.993 0.919454 -2.55457 0
M  V30 7881 C 728.449 -1.57681 -3.23519 0
M  V30 7882 C 728.057 -3.08803 -3.24569 0
M  V30 7883 C 729.801 -1.4217 -3.99985 0
M  V30 7884 C 727.708 -3.68414 -4.62629 0
M  V30 7885 H 726.638 -0.336432 -0.674781 0
M  V30 7886 H 729.289 -1.37437 -1.21587 0
M  V30 7887 H 727.671 -1.03911 -3.82124 0
M  V30 7888 H 728.845 -3.69252 -2.75663 0
M  V30 7889 H 727.16 -3.23968 -2.61598 0
M  V30 7890 H 729.757 -1.84106 -5.02005 0
M  V30 7891 H 730.1 -0.367989 -4.1467 0
M  V30 7892 H 730.633 -1.92984 -3.47853 0
M  V30 7893 H 727.372 -4.73644 -4.53147 0
M  V30 7894 H 726.892 -3.12746 -5.11811 0
M  V30 7895 H 728.571 -3.68793 -5.31602 0
M  V30 7896 N 728.703 1.26451 -0.940633 0
M  V30 7897 C 730.114 1.75726 -0.630653 0
M  V30 7898 C 730.465 1.76631 0.854167 0
M  V30 7899 O 729.59 1.37807 1.66848 0
M  V30 7900 C 730.185 3.19114 -1.13805 0
M  V30 7901 C 728.744 3.66005 -0.878497 0
M  V30 7902 C 727.891 2.45505 -1.28928 0
M  V30 7903 H 730.842 1.12535 -1.119 0
M  V30 7904 H 730.863 3.77311 -0.491625 0
M  V30 7905 H 730.375 3.18424 -2.21874 0
M  V30 7906 H 728.476 3.72126 0.187833 0
M  V30 7907 H 728.589 4.54844 -1.50512 0
M  V30 7908 H 726.953 2.4467 -0.707713 0
M  V30 7909 H 727.736 2.47516 -2.37888 0
M  V30 7910 N 730.181 0.707592 1.40822 0
M  V30 7911 C 731.113 0.0105968 2.29198 0
M  V30 7912 C 732.126 -0.732035 1.45414 0
M  V30 7913 O 733.315 -0.580741 1.68789 0
M  V30 7914 C 730.415 -1.00921 3.23525 0
M  V30 7915 C 729.588 -0.333747 4.36125 0
M  V30 7916 C 728.647 -1.25783 5.10945 0
M  V30 7917 O 727.673 -0.745646 5.64295 0
M  V30 7918 N 728.875 -2.58947 5.19545 0
M  V30 7919 H 731.64 0.76938 2.89656 0
M  V30 7920 H 729.201 0.554579 1.52105 0
M  V30 7921 H 731.193 -1.6294 3.70449 0
M  V30 7922 H 729.763 -1.66942 2.6429 0
M  V30 7923 H 728.983 0.466518 3.9143 0
M  V30 7924 H 730.271 0.135444 5.0862 0
M  V30 7925 H 729.669 -3.03065 4.7767 0
M  V30 7926 H 728.226 -3.16131 5.70004 0
M  V30 7927 N 731.66 -1.50943 0.453197 0
M  V30 7928 C 732.885 -2.07116 -0.108463 0
M  V30 7929 C 733.31 -1.31681 -1.3432 0
M  V30 7930 O 732.668 -0.359256 -1.77705 0
M  V30 7931 C 732.716 -3.58447 -0.393424 0
M  V30 7932 O 731.82 -3.85038 -1.47714 0
M  V30 7933 H 731.161 -0.66398 0.0050993 0
M  V30 7934 H 733.691 -1.94362 0.639095 0
M  V30 7935 H 733.701 -4.02961 -0.639222 0
M  V30 7936 H 732.376 -4.12774 0.508946 0
M  V30 7937 H 730.953 -3.52376 -1.22006 0
M  V30 7938 N 733.138 -0.185124 -1.56509 0
M  V30 7939 C 734.368 0.461469 -2.0138 0
M  V30 7940 C 734.776 1.56417 -1.06445 0
M  V30 7941 O 734.119 1.83603 -0.0597515 0
M  V30 7942 C 734.181 1.08731 -3.42663 0
M  V30 7943 C 733.845 0.124581 -4.5683 0
M  V30 7944 C 734.842 -0.662295 -5.15664 0
M  V30 7945 C 732.527 0.0163947 -5.02297 0
M  V30 7946 C 734.521 -1.54442 -6.18406 0
M  V30 7947 C 732.208 -0.869301 -6.04885 0
M  V30 7948 C 733.206 -1.64828 -6.62813 0
M  V30 7949 O 732.894 -2.51915 -7.63409 0
M  V30 7950 H 732.626 0.1212 -0.665046 0
M  V30 7951 H 735.18 -0.288119 -2.03369 0
M  V30 7952 H 733.41 1.8853 -3.37629 0
M  V30 7953 H 735.099 1.63753 -3.71403 0
M  V30 7954 H 735.865 -0.588963 -4.81411 0
M  V30 7955 H 731.744 0.61253 -4.56913 0
M  V30 7956 H 735.288 -2.15289 -6.63548 0
M  V30 7957 H 731.185 -0.943786 -6.38563 0
M  V30 7958 H 731.953 -2.45584 -7.80789 0
M  V30 7959 N 734.616 1.57351 0.0885366 0
M  V30 7960 C 735.579 2.01557 1.09121 0
M  V30 7961 C 736.579 0.910052 1.3257 0
M  V30 7962 O 737.769 1.17537 1.28572 0
M  V30 7963 C 734.901 2.38189 2.43883 0
M  V30 7964 H 736.094 2.91361 0.710562 0
M  V30 7965 H 733.647 1.52694 0.333779 0
M  V30 7966 H 734.382 1.5136 2.86811 0
M  V30 7967 H 734.167 3.18846 2.28209 0
M  V30 7968 H 735.657 2.73025 3.15986 0
M  V30 7969 N 736.094 -0.359525 1.53444 0
M  V30 7970 C 737.027 -1.46338 1.75101 0
M  V30 7971 C 738.005 -1.51142 0.599559 0
M  V30 7972 O 739.189 -1.69102 0.832862 0
M  V30 7973 C 736.316 -2.84667 1.83527 0
M  V30 7974 C 735.362 -2.9756 3.05549 0
M  V30 7975 S 736.195 -2.65685 4.64943 0
M  V30 7976 C 737.351 -4.06153 4.76225 0
M  V30 7977 H 737.584 -1.27747 2.68455 0
M  V30 7978 H 735.117 -0.554231 1.4411 0
M  V30 7979 H 737.075 -3.64368 1.89067 0
M  V30 7980 H 735.736 -3.00564 0.912147 0
M  V30 7981 H 734.929 -3.98883 3.08072 0
M  V30 7982 H 734.531 -2.25789 2.98153 0
M  V30 7983 H 736.823 -5.00475 4.56652 0
M  V30 7984 H 737.766 -4.08632 5.78295 0
M  V30 7985 H 738.174 -3.93435 4.04808 0
M  V30 7986 N 737.572 -1.44907 -0.619662 0
M  V30 7987 C 738.535 -1.52282 -1.71297 0
M  V30 7988 C 739.535 -0.40359 -1.55653 0
M  V30 7989 O 740.725 -0.666638 -1.6094 0
M  V30 7990 C 737.857 -1.40778 -3.10474 0
M  V30 7991 H 739.05 -2.49683 -1.66128 0
M  V30 7992 H 736.603 -1.32168 -0.834339 0
M  V30 7993 H 737.338 -0.445156 -3.2123 0
M  V30 7994 H 737.123 -2.21947 -3.23237 0
M  V30 7995 H 738.613 -1.48946 -3.90135 0
M  V30 7996 N 739.05 0.861098 -1.31996 0
M  V30 7997 C 740.299 1.60965 -1.21545 0
M  V30 7998 C 740.612 1.94325 0.222972 0
M  V30 7999 O 741.818 2.67757 0.449272 0
M  V30 8000 C 740.274 2.90223 -2.12834 0
M  V30 8001 C 739.882 2.64313 -3.61722 0
M  V30 8002 C 741.626 3.68229 -2.11205 0
M  V30 8003 C 739.533 3.89532 -4.44993 0
M  V30 8004 H 738.463 0.603988 -0.451348 0
M  V30 8005 H 741.114 0.951358 -1.56912 0
M  V30 8006 H 739.496 3.57475 -1.70375 0
M  V30 8007 H 740.67 2.05413 -4.12483 0
M  V30 8008 H 738.985 1.99647 -3.65418 0
M  V30 8009 H 741.582 4.61138 -2.70658 0
M  V30 8010 H 741.925 4.01466 -1.1014 0
M  V30 8011 H 742.458 3.07873 -2.51911 0
M  V30 8012 H 739.197 3.61441 -5.46846 0
M  V30 8013 H 738.717 4.47851 -3.98985 0
M  V30 8014 H 740.396 4.57334 -4.57663 0
M  V30 8015 N 740.528 1.15101 1.07655 0
M  V30 8016 C 741.491 0.847625 2.12951 0
M  V30 8017 C 742.491 -0.151227 1.60087 0
M  V30 8018 O 743.681 0.0780399 1.74025 0
M  V30 8019 C 740.813 0.265 3.39868 0
M  V30 8020 H 742.006 1.7809 2.41296 0
M  V30 8021 H 739.559 0.958072 1.23494 0
M  V30 8022 H 740.294 -0.676625 3.17163 0
M  V30 8023 H 740.079 0.984554 3.79538 0
M  V30 8024 H 741.569 0.0702121 4.17541 0
M  V30 8025 N 742.006 -1.2595 0.947325 0
M  V30 8026 C 743.422 -1.45737 0.650597 0
M  V30 8027 C 743.622 -1.85189 -0.794188 0
M  V30 8028 O 742.678 -1.97738 -1.57022 0
M  V30 8029 C 743.991 -2.53505 1.61728 0
M  V30 8030 C 745.539 -2.67351 1.62765 0
M  V30 8031 C 746.014 -3.78296 2.58179 0
M  V30 8032 N 747.505 -3.85696 2.56501 0
M  V30 8033 C 748.24 -4.71012 3.2701 0
M  V30 8034 N 747.736 -5.60669 4.06966 0
M  V30 8035 N 749.529 -4.64912 3.15932 0
M  V30 8036 H 741.68 -0.986327 1.8811 0
M  V30 8037 H 743.943 -0.494639 0.808725 0
M  V30 8038 H 743.649 -2.31357 2.6489 0
M  V30 8039 H 743.523 -3.51281 1.3741 0
M  V30 8040 H 745.91 -2.88869 0.603241 0
M  V30 8041 H 745.991 -1.69998 1.91139 0
M  V30 8042 H 745.635 -3.5753 3.60742 0
M  V30 8043 H 745.565 -4.75117 2.27093 0
M  V30 8044 H 748.056 -3.21601 1.98447 0
M  V30 8045 H 748.369 -6.22677 4.57704 0
M  V30 8046 H 746.714 -5.60402 4.11066 0
M  V30 8047 H 749.905 -3.93874 2.52945 0
M  V30 8048 H 750.078 -5.3118 3.71149 0
M  V30 8049 N 743.484 -0.715051 -1.40445 0
M  V30 8050 C 744.416 -0.0227516 -2.29189 0
M  V30 8051 C 745.429 0.724313 -1.458 0
M  V30 8052 O 746.618 0.571781 -1.69094 0
M  V30 8053 C 743.718 0.992038 -3.24055 0
M  V30 8054 C 742.891 0.310613 -4.36296 0
M  V30 8055 C 741.95 1.23071 -5.11605 0
M  V30 8056 O 740.976 0.71571 -5.64682 0
M  V30 8057 N 742.178 2.56188 -5.2091 0
M  V30 8058 H 744.943 -0.78473 -2.89244 0
M  V30 8059 H 742.504 -0.562637 -1.51809 0
M  V30 8060 H 744.496 1.60973 -3.71308 0
M  V30 8061 H 743.066 1.65538 -2.65171 0
M  V30 8062 H 742.286 -0.487269 -3.91177 0
M  V30 8063 H 743.574 -0.162415 -5.08541 0
M  V30 8064 H 742.972 3.00527 -4.7927 0
M  V30 8065 H 741.529 3.13103 -5.71673 0
M  V30 8066 N 744.962 1.50701 -0.461195 0
M  V30 8067 C 745.872 2.32069 0.343661 0
M  V30 8068 C 746.888 1.42016 1.00535 0
M  V30 8069 O 748.064 1.75077 0.995498 0
M  V30 8070 C 745.129 3.16424 1.41692 0
M  V30 8071 C 744.19 4.22286 0.772869 0
M  V30 8072 C 743.423 5.02609 1.79499 0
M  V30 8073 O 743.646 4.83874 3.0203 0
M  V30 8074 O 742.58 5.86047 1.3723 0
M  V30 8075 H 746.406 3.01996 -0.321268 0
M  V30 8076 H 743.991 1.47723 -0.223235 0
M  V30 8077 H 745.873 3.68795 2.03883 0
M  V30 8078 H 744.548 2.49236 2.0655 0
M  V30 8079 H 743.455 3.73931 0.112277 0
M  V30 8080 H 744.788 4.91915 0.167399 0
M  V30 8081 N 746.441 0.193421 1.56409 0
M  V30 8082 C 747.666 -0.454552 2.02358 0
M  V30 8083 C 748.091 -1.54516 1.07268 0
M  V30 8084 O 747.449 -1.81214 0.0558962 0
M  V30 8085 C 747.497 -0.989469 3.46759 0
M  V30 8086 O 746.601 -2.10244 3.54783 0
M  V30 8087 H 745.942 -0.106417 0.655417 0
M  V30 8088 H 748.472 0.303807 2.02332 0
M  V30 8089 H 748.482 -1.30649 3.86516 0
M  V30 8090 H 747.157 -0.191083 4.15461 0
M  V30 8091 H 745.734 -1.79419 3.26899 0
M  V30 8092 N 747.919 -1.57396 -0.0801906 0
M  V30 8093 C 748.882 -2.02133 -1.0805 0
M  V30 8094 C 749.882 -0.91707 -1.32085 0
M  V30 8095 O 751.072 -1.18217 -1.27947 0
M  V30 8096 C 748.204 -2.39479 -2.42616 0
M  V30 8097 H 749.397 -2.91733 -0.6951 0
M  V30 8098 H 746.95 -1.52869 -0.325677 0
M  V30 8099 H 747.685 -1.52879 -2.86004 0
M  V30 8100 H 747.47 -3.20052 -2.26515 0
M  V30 8101 H 748.96 -2.74697 -3.14534 0
M  V30 8102 N 749.397 0.351382 -1.53633 0
M  V30 8103 C 750.643 1.09049 -1.71697 0
M  V30 8104 C 750.998 1.86563 -0.470314 0
M  V30 8105 O 750.291 1.83922 0.536954 0
M  V30 8106 C 750.485 2.06744 -2.91533 0
M  V30 8107 C 750.314 1.38832 -4.27733 0
M  V30 8108 C 749.084 1.13646 -4.92354 0
M  V30 8109 C 751.282 0.818602 -5.07743 0
M  V30 8110 N 749.264 0.422324 -6.12446 0
M  V30 8111 C 750.635 0.234602 -6.19556 0
M  V30 8112 C 752.69 0.718679 -4.92686 0
M  V30 8113 C 751.393 -0.439592 -7.17955 0
M  V30 8114 C 753.419 0.0582402 -5.91371 0
M  V30 8115 C 752.781 -0.514823 -7.02516 0
M  V30 8116 H 748.88 0.383697 -0.681396 0
M  V30 8117 H 751.464 0.375063 -1.91053 0
M  V30 8118 H 749.635 2.75586 -2.73691 0
M  V30 8119 H 751.367 2.73436 -2.98353 0
M  V30 8120 H 748.122 1.4215 -4.51764 0
M  V30 8121 H 748.546 0.0802092 -6.76952 0
M  V30 8122 H 753.188 1.14748 -4.06931 0
M  V30 8123 H 750.906 -0.880307 -8.03291 0
M  V30 8124 H 754.492 -0.0183382 -5.81797 0
M  V30 8125 H 753.372 -1.01777 -7.77567 0
M  V30 8126 N 750.875 1.45233 0.611969 0
M  V30 8127 C 751.823 1.53898 1.74408 0
M  V30 8128 C 752.817 0.409254 1.64382 0
M  V30 8129 O 754.023 0.584988 1.70229 0
M  V30 8130 H 750.398 0.483303 0.576127 0
M  V30 8131 H 752.369 2.49143 1.64227 0
M  V30 8132 C 751.118 1.51865 3.12782 0
M  V30 8133 H 750.441 2.38118 3.21154 0
M  V30 8134 H 751.881 1.61986 3.91838 0
M  V30 8135 C 750.34 0.242374 3.36027 0
M  V30 8136 O 750.87 -0.679587 3.9591 0
M  V30 8137 N 749.076 0.139448 2.90265 0
M  V30 8138 H 748.623 0.890571 2.41716 0
M  V30 8139 H 748.581 -0.713686 3.06193 0
M  V30 8140 N 752.353 -0.854086 1.3245 0
M  V30 8141 C 753.764 -1.42427 1.20712 0
M  V30 8142 C 754.115 -1.95371 -0.18013 0
M  V30 8143 O 753.24 -1.87587 -1.07889 0
M  V30 8144 C 753.835 -2.58897 2.18536 0
M  V30 8145 C 752.394 -3.11913 2.10683 0
M  V30 8146 C 751.541 -1.84661 2.06871 0
M  V30 8147 H 754.492 -0.661192 1.4427 0
M  V30 8148 H 754.513 -3.36074 1.78422 0
M  V30 8149 H 754.025 -2.20333 3.19492 0
M  V30 8150 H 752.126 -3.55059 1.12977 0
M  V30 8151 H 752.239 -3.73119 3.00532 0
M  V30 8152 H 750.603 -2.04285 1.52118 0
M  V30 8153 H 751.386 -1.48314 3.09609 0
M  V30 8154 N 753.831 -1.1567 -1.07043 0
M  V30 8155 C 754.778 -0.856336 -2.14326 0
M  V30 8156 C 755.748 0.192051 -1.64986 0
M  V30 8157 O 756.933 0.0589148 -1.90709 0
M  V30 8158 C 754.073 -0.355227 -3.43267 0
M  V30 8159 C 753.186 -1.46555 -4.06381 0
M  V30 8160 C 752.321 -0.920245 -5.23168 0
M  V30 8161 C 751.36 -2.00729 -5.78251 0
M  V30 8162 N 750.497 -1.47813 -6.86364 0
M  V30 8163 H 755.337 -1.77514 -2.39359 0
M  V30 8164 H 752.874 -0.885676 -1.17449 0
M  V30 8165 H 754.832 -0.0463804 -4.17174 0
M  V30 8166 H 753.462 0.526649 -3.18475 0
M  V30 8167 H 752.514 -1.89052 -3.30096 0
M  V30 8168 H 753.826 -2.28616 -4.43324 0
M  V30 8169 H 752.98 -0.564127 -6.04072 0
M  V30 8170 H 751.719 -0.0688477 -4.87651 0
M  V30 8171 H 750.724 -2.3722 -4.95991 0
M  V30 8172 H 751.949 -2.86252 -6.15822 0
M  V30 8173 H 749.895 -0.649145 -6.5278 0
M  V30 8174 H 749.812 -2.23498 -7.22208 0
M  V30 8175 H 751.08 -1.15036 -7.70965 0
M  V30 8176 N 755.309 1.25446 -0.953992 0
M  V30 8177 C 756.555 1.9343 -0.60933 0
M  V30 8178 C 756.888 1.74542 0.851388 0
M  V30 8179 O 756.163 1.09014 1.61078 0
M  V30 8180 C 756.446 3.46844 -0.968041 0
M  V30 8181 C 756.299 3.74961 -2.48444 0
M  V30 8182 C 757.618 4.37334 -0.492641 0
M  V30 8183 H 754.737 0.702502 -0.222844 0
M  V30 8184 H 757.379 1.48076 -1.19053 0
M  V30 8185 H 755.529 3.85604 -0.473465 0
M  V30 8186 H 757.201 3.45841 -3.05273 0
M  V30 8187 H 755.444 3.20589 -2.92241 0
M  V30 8188 H 756.115 4.82246 -2.68594 0
M  V30 8189 H 758.591 4.05873 -0.916878 0
M  V30 8190 H 757.467 5.43439 -0.772331 0
M  V30 8191 H 757.728 4.37908 0.607403 0
M  V30 8192 N 756.787 0.722489 1.40064 0
M  V30 8193 C 757.734 0.0743738 2.3068 0
M  V30 8194 C 758.704 -0.743004 1.48555 0
M  V30 8195 O 759.889 -0.705536 1.77276 0
M  V30 8196 C 757.029 -0.836292 3.34814 0
M  V30 8197 C 756.142 -0.00764663 4.31999 0
M  V30 8198 C 755.277 -0.918428 5.232 0
M  V30 8199 C 754.316 -0.0842838 6.12042 0
M  V30 8200 N 753.453 -0.950316 6.95639 0
M  V30 8201 H 758.293 0.852794 2.85537 0
M  V30 8202 H 755.83 0.432222 1.40607 0
M  V30 8203 H 757.788 -1.3786 3.93765 0
M  V30 8204 H 756.418 -1.58082 2.81443 0
M  V30 8205 H 755.47 0.651928 3.74772 0
M  V30 8206 H 756.782 0.63786 4.94705 0
M  V30 8207 H 755.936 -1.52902 5.87116 0
M  V30 8208 H 754.675 -1.59774 4.60786 0
M  V30 8209 H 753.68 0.5392 5.4715 0
M  V30 8210 H 754.905 0.591628 6.76518 0
M  V30 8211 H 752.851 -1.61515 6.35806 0
M  V30 8212 H 752.768 -0.361004 7.55138 0
M  V30 8213 H 754.036 -1.54687 7.63997 0
M  V30 8214 N 758.265 -1.50454 0.469181 0
M  V30 8215 C 759.49 -2.0722 -0.0864892 0
M  V30 8216 C 759.915 -1.33098 -1.32916 0
M  V30 8217 O 759.273 -0.378084 -1.77314 0
M  V30 8218 C 759.321 -3.58845 -0.355384 0
M  V30 8219 O 758.425 -3.86583 -1.43622 0
M  V30 8220 H 757.766 -0.663889 0.0121414 0
M  V30 8221 H 760.296 -1.93674 0.659674 0
M  V30 8222 H 760.306 -4.03617 -0.596447 0
M  V30 8223 H 758.981 -4.12211 0.552698 0
M  V30 8224 H 757.558 -3.5365 -1.18262 0
M  V30 8225 N 759.743 -0.201713 -1.56304 0
M  V30 8226 C 761.154 0.309711 -1.84113 0
M  V30 8227 C 761.505 1.60912 -1.12258 0
M  V30 8228 O 760.63 2.12937 -0.385587 0
M  V30 8229 C 761.225 0.568706 -3.33993 0
M  V30 8230 C 759.784 1.02448 -3.6219 0
M  V30 8231 C 758.931 0.0766842 -2.77194 0
M  V30 8232 H 761.882 -0.425356 -1.52893 0
M  V30 8233 H 761.903 1.41721 -3.53122 0
M  V30 8234 H 761.415 -0.37719 -3.86263 0
M  V30 8235 H 759.516 1.98443 -3.15359 0
M  V30 8236 H 759.629 0.912619 -4.70328 0
M  V30 8237 H 757.993 0.579809 -2.48013 0
M  V30 8238 H 758.776 -0.863774 -3.32256 0
M  V30 8239 N 761.222 1.57436 0.0718424 0
M  V30 8240 C 762.468 1.87525 0.772149 0
M  V30 8241 C 762.801 0.79399 1.77227 0
M  V30 8242 O 762.076 -0.195733 1.93513 0
M  V30 8243 C 762.359 3.28272 1.48018 0
M  V30 8244 C 762.212 4.47052 0.49647 0
M  V30 8245 C 763.531 3.67256 2.42509 0
M  V30 8246 H 760.65 0.682049 0.279245 0
M  V30 8247 H 763.292 1.89967 0.03534 0
M  V30 8248 H 761.442 3.26321 2.10824 0
M  V30 8249 H 763.114 4.61127 -0.126375 0
M  V30 8250 H 761.357 4.33392 -0.188205 0
M  V30 8251 H 762.028 5.42315 1.02949 0
M  V30 8252 H 764.504 3.70301 1.89781 0
M  V30 8253 H 763.38 4.66626 2.89053 0
M  V30 8254 H 763.641 2.97186 3.27312 0
M  V30 8255 N 762.7 -0.34323 1.53817 0
M  V30 8256 C 763.948 -1.0813 1.70741 0
M  V30 8257 C 764.269 -1.89165 0.473461 0
M  V30 8258 O 763.539 -1.89075 -0.512605 0
M  V30 8259 H 762.119 -0.40219 0.629486 0
M  V30 8260 H 764.781 -0.384426 1.91071 0
M  V30 8261 H 763.877 -1.7585 2.57843 0
M  V30 8262 N 764.178 -1.45556 -0.604258 0
M  V30 8263 C 765.141 -1.54091 -1.69672 0
M  V30 8264 C 766.141 -0.420076 -1.55216 0
M  V30 8265 O 767.331 -0.683671 -1.60224 0
M  V30 8266 C 764.463 -1.44063 -3.08964 0
M  V30 8267 H 765.656 -2.51431 -1.6347 0
M  V30 8268 H 763.209 -1.33046 -0.820273 0
M  V30 8269 H 763.944 -0.479201 -3.2074 0
M  V30 8270 H 763.729 -2.25362 -3.20865 0
M  V30 8271 H 765.219 -1.53075 -3.88533 0
M  V30 8272 N 765.656 0.84705 -1.32902 0
M  V30 8273 C 766.881 1.63925 -1.27056 0
M  V30 8274 C 767.306 1.87443 0.157136 0
M  V30 8275 O 766.664 1.43266 1.11106 0
M  V30 8276 C 766.712 2.97134 -2.04313 0
M  V30 8277 O 765.816 3.88049 -1.39614 0
M  V30 8278 H 765.157 0.499477 -0.437514 0
M  V30 8279 H 767.687 1.05443 -1.75336 0
M  V30 8280 H 767.697 3.46896 -2.14772 0
M  V30 8281 H 766.372 2.79339 -3.08128 0
M  V30 8282 H 764.949 3.46525 -1.3775 0
M  V30 8283 N 767.134 1.16236 1.06428 0
M  V30 8284 C 768.382 0.941171 1.78847 0
M  V30 8285 C 768.703 -0.53248 1.87589 0
M  V30 8286 O 767.973 -1.38686 1.38358 0
M  V30 8287 H 766.553 0.345228 0.66244 0
M  V30 8288 H 769.215 1.46479 1.28569 0
M  V30 8289 H 768.311 1.35871 2.80972 0
M  V30 8290 N 768.612 -1.24939 0.960631 0
M  V30 8291 C 769.542 -2.28 0.503815 0
M  V30 8292 C 770.523 -1.63959 -0.452928 0
M  V30 8293 O 771.708 -1.91009 -0.350585 0
M  V30 8294 C 768.838 -3.46643 -0.213535 0
M  V30 8295 C 767.792 -4.22903 0.658535 0
M  V30 8296 C 767.118 -5.34363 -0.189902 0
M  V30 8297 C 768.418 -4.84949 1.93963 0
M  V30 8298 H 770.112 -2.66462 1.36521 0
M  V30 8299 H 767.658 -1.28093 0.657897 0
M  V30 8300 H 769.611 -4.1787 -0.544286 0
M  V30 8301 H 768.335 -3.07187 -1.10923 0
M  V30 8302 H 766.994 -3.53467 0.972455 0
M  V30 8303 H 766.642 -4.91147 -1.08553 0
M  V30 8304 H 766.342 -5.86302 0.390331 0
M  V30 8305 H 767.866 -6.0842 -0.515484 0
M  V30 8306 H 769.28 -5.48288 1.67491 0
M  V30 8307 H 767.677 -5.47091 2.46601 0
M  V30 8308 H 768.747 -4.06799 2.639 0
M  V30 8309 N 770.09 -0.729906 -1.39679 0
M  V30 8310 C 771.023 -0.0354454 -2.28172 0
M  V30 8311 C 772.001 0.752968 -1.44115 0
M  V30 8312 O 773.185 0.736599 -1.73512 0
M  V30 8313 C 770.312 0.957047 -3.24897 0
M  V30 8314 C 769.358 0.257734 -4.25721 0
M  V30 8315 S 770.191 -1.02466 -5.25605 0
M  V30 8316 C 771.347 -0.0346322 -6.2589 0
M  V30 8317 H 771.58 -0.785922 -2.86724 0
M  V30 8318 H 769.113 -0.521497 -1.45326 0
M  V30 8319 H 771.071 1.52441 -3.81146 0
M  V30 8320 H 769.732 1.68033 -2.65375 0
M  V30 8321 H 768.925 1.00854 -4.93806 0
M  V30 8322 H 768.527 -0.237454 -3.73245 0
M  V30 8323 H 770.819 0.807464 -6.72671 0
M  V30 8324 H 771.762 -0.682491 -7.04803 0
M  V30 8325 H 772.17 0.335492 -5.63502 0
M  V30 8326 N 771.568 1.50203 -0.477153 0
M  V30 8327 C 772.5 2.26508 0.350239 0
M  V30 8328 C 773.513 1.32081 0.95176 0
M  V30 8329 O 774.702 1.57546 0.839139 0
M  V30 8330 C 771.802 3.0361 1.50579 0
M  V30 8331 C 770.975 4.25438 1.01595 0
M  V30 8332 C 770.034 4.84783 2.04626 0
M  V30 8333 O 769.06 5.45528 1.62442 0
M  V30 8334 N 770.262 4.72318 3.37485 0
M  V30 8335 H 773.027 2.98155 -0.30394 0
M  V30 8336 H 770.588 1.58938 -0.308289 0
M  V30 8337 H 772.58 3.4019 2.1921 0
M  V30 8338 H 771.15 2.34724 2.06455 0
M  V30 8339 H 770.37 3.93894 0.155316 0
M  V30 8340 H 771.658 5.04413 0.666694 0
M  V30 8341 H 771.056 4.24022 3.74462 0
M  V30 8342 H 769.613 5.13149 4.01897 0
M  V30 8343 N 773.046 0.209999 1.56195 0
M  V30 8344 C 774.295 -0.425106 1.97169 0
M  V30 8345 C 774.608 -1.61718 1.10031 0
M  V30 8346 O 775.814 -2.32105 1.40853 0
M  V30 8347 C 774.27 -0.80771 3.50719 0
M  V30 8348 C 773.878 0.360902 4.46544 0
M  V30 8349 C 775.622 -1.40906 4.00432 0
M  V30 8350 C 773.529 -0.0434919 5.91384 0
M  V30 8351 H 772.459 -0.162598 0.736259 0
M  V30 8352 H 775.11 0.304382 1.80958 0
M  V30 8353 H 773.492 -1.59429 3.62489 0
M  V30 8354 H 774.666 1.13846 4.46515 0
M  V30 8355 H 772.981 0.874729 4.07109 0
M  V30 8356 H 775.578 -1.72433 5.06133 0
M  V30 8357 H 775.921 -2.32081 3.45607 0
M  V30 8358 H 776.454 -0.686154 3.91838 0
M  V30 8359 H 773.193 0.834448 6.50167 0
M  V30 8360 H 772.713 -0.785598 5.94633 0
M  V30 8361 H 774.392 -0.474176 6.4526 0
M  V30 8362 N 774.524 -1.57472 -0.0634922 0
M  V30 8363 C 775.457 -1.99571 -1.10664 0
M  V30 8364 C 776.435 -0.874015 -1.37112 0
M  V30 8365 O 777.619 -1.13702 -1.50347 0
M  V30 8366 C 774.746 -2.3395 -2.44918 0
M  V30 8367 C 773.792 -3.56213 -2.34551 0
M  V30 8368 S 774.625 -5.06727 -1.73169 0
M  V30 8369 C 775.781 -5.44316 -3.08984 0
M  V30 8370 H 776.014 -2.87739 -0.747905 0
M  V30 8371 H 773.547 -1.5198 -0.272316 0
M  V30 8372 H 775.505 -2.54431 -3.22141 0
M  V30 8373 H 774.166 -1.46297 -2.7795 0
M  V30 8374 H 773.359 -3.77812 -3.33578 0
M  V30 8375 H 772.961 -3.35406 -1.65466 0
M  V30 8376 H 775.253 -5.42894 -4.05305 0
M  V30 8377 H 776.196 -6.4502 -2.92156 0
M  V30 8378 H 776.604 -4.71781 -3.09972 0
M  V30 8379 N 776.003 0.335068 -1.53997 0
M  V30 8380 C 777.414 0.910191 -1.6301 0
M  V30 8381 C 777.765 1.89271 -0.516809 0
M  V30 8382 O 776.89 2.13516 0.352123 0
M  V30 8383 C 777.485 1.65761 -2.9548 0
M  V30 8384 C 776.044 2.18163 -3.06728 0
M  V30 8385 C 775.191 1.00338 -2.5851 0
M  V30 8386 H 778.142 0.112965 -1.58297 0
M  V30 8387 H 778.163 2.52107 -2.84995 0
M  V30 8388 H 777.675 0.94227 -3.76488 0
M  V30 8389 H 775.776 2.92847 -2.30372 0
M  V30 8390 H 775.889 2.43952 -4.1234 0
M  V30 8391 H 774.253 1.37925 -2.14124 0
M  V30 8392 H 775.036 0.30254 -3.41964 0
M  V30 8393 N 777.481 1.45874 0.596531 0
M  V30 8394 C 778.729 1.5017 1.35253 0
M  V30 8395 C 779.05 0.149246 1.94428 0
M  V30 8396 O 778.32 -0.82268 1.77789 0
M  V30 8397 H 776.9 0.553052 0.502138 0
M  V30 8398 H 779.562 1.81908 0.699671 0
M  V30 8399 H 778.658 2.24671 2.16632 0
M  V30 8400 N 778.959 -0.83999 1.33349 0
M  V30 8401 C 780.187 -1.62728 1.27778 0
M  V30 8402 C 780.602 -1.88191 -0.151505 0
M  V30 8403 O 779.959 -1.46128 -1.09329 0
M  V30 8404 C 780.01 -2.97813 2.04913 0
M  V30 8405 O 779.731 -2.73469 3.42266 0
M  V30 8406 C 781.232 -3.92245 2.0654 0
M  V30 8407 H 778.452 -0.506374 0.440257 0
M  V30 8408 H 780.996 -1.04637 1.75703 0
M  V30 8409 H 779.151 -3.52509 1.60674 0
M  V30 8410 H 779.565 -3.59483 3.81932 0
M  V30 8411 H 781.039 -4.84249 2.64966 0
M  V30 8412 H 781.516 -4.26332 1.05537 0
M  V30 8413 H 782.122 -3.43487 2.50793 0
M  V30 8414 N 780.437 -1.16799 -1.0581 0
M  V30 8415 C 781.4 -0.881396 -2.11575 0
M  V30 8416 C 782.4 0.12574 -1.60308 0
M  V30 8417 O 783.59 -0.105716 -1.73879 0
M  V30 8418 C 780.722 -0.319037 -3.39404 0
M  V30 8419 H 781.915 -1.81907 -2.38432 0
M  V30 8420 H 779.468 -0.977597 -1.21954 0
M  V30 8421 H 780.203 0.626082 -3.18199 0
M  V30 8422 H 779.988 -1.04481 -3.77923 0
M  V30 8423 H 781.478 -0.13663 -4.17376 0
M  V30 8424 N 781.915 1.24427 -0.967243 0
M  V30 8425 C 783.143 1.96541 -0.646477 0
M  V30 8426 C 783.558 1.71753 0.783996 0
M  V30 8427 O 782.915 1.00102 1.52597 0
M  V30 8428 C 782.966 3.4983 -0.911098 0
M  V30 8429 O 782.687 3.7377 -2.28534 0
M  V30 8430 C 784.188 4.3916 -0.604458 0
M  V30 8431 H 781.408 0.626129 -0.241255 0
M  V30 8432 H 783.952 1.58268 -1.29505 0
M  V30 8433 H 782.107 3.86168 -0.308741 0
M  V30 8434 H 782.521 4.68154 -2.365 0
M  V30 8435 H 783.995 5.4557 -0.840069 0
M  V30 8436 H 784.472 4.36771 0.461273 0
M  V30 8437 H 785.078 4.08409 -1.1867 0
M  V30 8438 N 783.393 0.737304 1.3929 0
M  V30 8439 C 784.343 0.0748537 2.27877 0
M  V30 8440 C 785.327 -0.71022 1.44377 0
M  V30 8441 O 786.519 -0.578851 1.67267 0
M  V30 8442 C 783.648 -0.82991 3.33118 0
M  V30 8443 C 782.734 -0.0388619 4.24082 0
M  V30 8444 N 783.125 0.989182 4.96033 0
M  V30 8445 C 781.423 -0.268167 4.45193 0
M  V30 8446 C 782.124 1.46639 5.62914 0
M  V30 8447 N 781.1 0.784581 5.37908 0
M  V30 8448 H 784.902 0.862457 2.80961 0
M  V30 8449 H 782.416 0.571845 1.51999 0
M  V30 8450 H 784.413 -1.31999 3.95452 0
M  V30 8451 H 783.073 -1.61665 2.81593 0
M  V30 8452 H 784.084 1.3706 4.99435 0
M  V30 8453 H 780.761 -1.02953 4.04607 0
M  V30 8454 H 782.151 2.32182 6.30508 0
M  V30 8455 N 784.871 -1.49948 0.485112 0
M  V30 8456 C 786.099 -2.06806 -0.0622824 0
M  V30 8457 C 786.514 -1.34736 -1.32256 0
M  V30 8458 O 785.871 -0.420836 -1.77582 0
M  V30 8459 C 785.922 -3.59934 -0.336096 0
M  V30 8460 O 785.643 -4.29289 0.874203 0
M  V30 8461 C 787.144 -4.33459 -0.928903 0
M  V30 8462 H 784.364 -0.670867 0.0133472 0
M  V30 8463 H 786.908 -1.92937 0.677917 0
M  V30 8464 H 785.063 -3.7356 -1.02625 0
M  V30 8465 H 785.477 -5.20735 0.627332 0
M  V30 8466 H 786.951 -5.41527 -1.07017 0
M  V30 8467 H 787.428 -3.94881 -1.92265 0
M  V30 8468 H 788.034 -4.24399 -0.276705 0
M  V30 8469 N 786.349 -0.21828 -1.56081 0
M  V30 8470 C 787.595 0.414921 -1.9851 0
M  V30 8471 C 787.928 1.59648 -1.10573 0
M  V30 8472 O 787.203 1.93818 -0.162695 0
M  V30 8473 C 787.486 0.852647 -3.4986 0
M  V30 8474 C 787.339 -0.33232 -4.48571 0
M  V30 8475 C 788.658 1.70998 -4.05521 0
M  V30 8476 H 785.777 0.149344 -0.72171 0
M  V30 8477 H 788.419 -0.313858 -1.8739 0
M  V30 8478 H 786.569 1.47362 -3.59467 0
M  V30 8479 H 788.241 -0.970418 -4.50977 0
M  V30 8480 H 786.484 -0.980302 -4.22578 0
M  V30 8481 H 787.155 0.0168407 -5.51997 0
M  V30 8482 H 789.631 1.18606 -3.98838 0
M  V30 8483 H 788.507 1.98517 -5.11744 0
M  V30 8484 H 788.768 2.67219 -3.52202 0
M  V30 8485 N 787.827 1.57504 0.0551401 0
M  V30 8486 C 788.774 2.04825 1.06373 0
M  V30 8487 C 789.744 0.932108 1.37481 0
M  V30 8488 O 790.929 1.20093 1.48265 0
M  V30 8489 C 788.069 2.51091 2.36743 0
M  V30 8490 C 787.182 3.76392 2.12021 0
M  V30 8491 C 786.317 4.11373 3.36074 0
M  V30 8492 C 785.356 5.29666 3.0679 0
M  V30 8493 N 784.493 5.60205 4.2322 0
M  V30 8494 H 789.333 2.90753 0.653216 0
M  V30 8495 H 786.87 1.43776 0.310951 0
M  V30 8496 H 788.828 2.75973 3.12881 0
M  V30 8497 H 787.458 1.68118 2.75565 0
M  V30 8498 H 786.51 3.58751 1.26498 0
M  V30 8499 H 787.822 4.62662 1.86401 0
M  V30 8500 H 786.976 4.37245 4.20597 0
M  V30 8501 H 785.715 3.23704 3.64784 0
M  V30 8502 H 784.72 5.03574 2.20664 0
M  V30 8503 H 785.945 6.18968 2.79385 0
M  V30 8504 H 783.891 4.75495 4.5193 0
M  V30 8505 H 783.808 6.40928 4.00933 0
M  V30 8506 H 785.076 5.90637 5.08692 0
M  V30 8507 N 789.305 -0.326896 1.54172 0
M  V30 8508 C 790.238 -1.42591 1.78166 0
M  V30 8509 C 791.216 -1.49837 0.631484 0
M  V30 8510 O 792.4 -1.67298 0.868544 0
M  V30 8511 C 789.527 -2.8071 1.89524 0
M  V30 8512 C 788.573 -2.91012 3.11792 0
M  V30 8513 S 789.406 -2.55763 4.70474 0
M  V30 8514 C 790.562 -3.9596 4.84733 0
M  V30 8515 H 790.795 -1.22024 2.71104 0
M  V30 8516 H 788.328 -0.523539 1.45253 0
M  V30 8517 H 790.286 -3.60276 1.96753 0
M  V30 8518 H 788.947 -2.98562 0.975696 0
M  V30 8519 H 788.14 -3.92258 3.16464 0
M  V30 8520 H 787.742 -2.19414 3.02876 0
M  V30 8521 H 790.034 -4.90676 4.67166 0
M  V30 8522 H 790.977 -3.96273 5.86833 0
M  V30 8523 H 791.385 -3.8476 4.13062 0
M  V30 8524 N 790.784 -1.46188 -0.588786 0
M  V30 8525 C 792.031 -1.51184 -1.34721 0
M  V30 8526 C 792.359 -0.161084 -1.93832 0
M  V30 8527 O 791.614 0.842557 -1.76634 0
M  V30 8528 C 791.913 -2.55364 -2.50048 0
M  V30 8529 C 791.579 -3.99553 -2.08969 0
M  V30 8530 C 790.241 -4.38811 -1.9748 0
M  V30 8531 C 792.593 -4.90156 -1.77191 0
M  V30 8532 C 789.921 -5.66544 -1.52463 0
M  V30 8533 C 792.273 -6.1832 -1.33654 0
M  V30 8534 C 790.937 -6.5649 -1.20738 0
M  V30 8535 H 790.207 -0.55322 -0.49298 0
M  V30 8536 H 792.854 -1.79634 -0.663627 0
M  V30 8537 H 791.159 -2.20552 -3.23827 0
M  V30 8538 H 792.856 -2.5646 -3.08268 0
M  V30 8539 H 789.446 -3.68518 -2.18843 0
M  V30 8540 H 793.63 -4.60549 -1.84955 0
M  V30 8541 H 788.886 -5.94895 -1.411 0
M  V30 8542 H 793.06 -6.87956 -1.08117 0
M  V30 8543 H 790.687 -7.55362 -0.856307 0
M  V30 8544 N 792.262 0.832906 -1.33792 0
M  V30 8545 C 793.487 1.62568 -1.28788 0
M  V30 8546 C 793.912 1.87599 0.137246 0
M  V30 8547 O 793.27 1.44436 1.0958 0
M  V30 8548 C 793.318 2.9495 -2.07453 0
M  V30 8549 O 792.422 3.86546 -1.43722 0
M  V30 8550 H 791.763 0.494809 -0.442787 0
M  V30 8551 H 794.293 1.03578 -1.76445 0
M  V30 8552 H 794.303 3.44599 -2.1844 0
M  V30 8553 H 792.978 2.76055 -3.11073 0
M  V30 8554 H 791.555 3.45044 -1.41417 0
M  V30 8555 N 793.74 1.17359 1.05189 0
M  V30 8556 C 794.989 0.956412 1.77583 0
M  V30 8557 C 795.302 -0.516018 1.88671 0
M  V30 8558 O 796.508 -0.851401 2.57805 0
M  V30 8559 C 794.964 1.66203 3.19225 0
M  V30 8560 C 794.572 3.17299 3.16267 0
M  V30 8561 C 796.316 1.52725 3.96075 0
M  V30 8562 C 794.223 3.8055 4.52698 0
M  V30 8563 H 793.153 0.354204 0.665624 0
M  V30 8564 H 795.804 1.40612 1.17901 0
M  V30 8565 H 794.186 1.14006 3.79234 0
M  V30 8566 H 795.36 3.76431 2.65776 0
M  V30 8567 H 793.675 3.3079 2.52917 0
M  V30 8568 H 796.272 1.97351 4.96947 0
M  V30 8569 H 796.615 0.477803 4.13549 0
M  V30 8570 H 797.148 2.02139 3.42614 0
M  V30 8571 H 793.887 4.85492 4.4043 0
M  V30 8572 H 793.407 3.26206 5.03339 0
M  V30 8573 H 795.086 3.82757 5.21638 0
M  V30 8574 N 795.218 -1.23913 0.973828 0
M  V30 8575 C 796.629 -1.73992 0.677021 0
M  V30 8576 C 796.98 -1.78833 -0.807036 0
M  V30 8577 O 796.105 -1.42183 -1.63135 0
M  V30 8578 C 796.7 -3.15985 1.22226 0
M  V30 8579 C 795.259 -3.63547 0.975228 0
M  V30 8580 C 794.406 -2.42001 1.35392 0
M  V30 8581 H 797.357 -1.09529 1.14844 0
M  V30 8582 H 797.378 -3.75875 0.591489 0
M  V30 8583 H 796.89 -3.12429 2.30238 0
M  V30 8584 H 794.991 -3.72493 -0.0891047 0
M  V30 8585 H 795.104 -4.50693 1.62518 0
M  V30 8586 H 793.468 -2.42708 0.772334 0
M  V30 8587 H 794.251 -2.41122 2.44367 0
M  V30 8588 N 796.696 -0.74468 -1.38897 0
M  V30 8589 C 797.944 -0.296298 -1.99916 0
M  V30 8590 C 798.265 1.12325 -1.59399 0
M  V30 8591 O 797.535 1.76658 -0.846689 0
M  V30 8592 H 796.115 -0.106561 -0.73936 0
M  V30 8593 H 798.777 -0.956793 -1.69798 0
M  V30 8594 H 797.873 -0.352356 -3.10105 0
M  V30 8595 N 798.174 1.49689 -0.493057 0
M  V30 8596 C 799.404 2.06536 0.0512397 0
M  V30 8597 C 799.812 1.35459 1.32089 0
M  V30 8598 O 799.155 0.424145 1.78736 0
M  V30 8599 C 799.217 3.57452 0.383231 0
M  V30 8600 C 798.881 4.50163 -0.787555 0
M  V30 8601 C 799.878 4.92151 -1.67582 0
M  V30 8602 C 797.563 4.92565 -0.984109 0
M  V30 8603 C 799.557 5.7527 -2.74487 0
M  V30 8604 C 797.244 5.75463 -2.05634 0
M  V30 8605 C 798.242 6.16719 -2.93507 0
M  V30 8606 O 797.93 6.97961 -3.98881 0
M  V30 8607 H 797.662 0.675862 -0.0136516 0
M  V30 8608 H 800.216 1.9356 -0.687298 0
M  V30 8609 H 798.446 3.68408 1.17526 0
M  V30 8610 H 800.135 3.96572 0.8652 0
M  V30 8611 H 800.901 4.60043 -1.53575 0
M  V30 8612 H 796.78 4.5996 -0.309541 0
M  V30 8613 H 800.324 6.07392 -3.43104 0
M  V30 8614 H 796.221 6.06983 -2.19639 0
M  V30 8615 H 796.989 7.16253 -3.96137 0
M  V30 8616 N 799.652 0.226554 1.55963 0
M  V30 8617 C 800.877 -0.411527 2.03276 0
M  V30 8618 C 801.302 -1.52206 1.10521 0
M  V30 8619 O 800.66 -1.81054 0.0943217 0
M  V30 8620 C 800.708 -0.915694 3.4878 0
M  V30 8621 O 799.812 -2.02672 3.59163 0
M  V30 8622 H 799.153 -0.0924907 0.657527 0
M  V30 8623 H 801.683 0.346656 2.01642 0
M  V30 8624 H 801.693 -1.22421 3.892 0
M  V30 8625 H 800.368 -0.102915 4.15773 0
M  V30 8626 H 798.945 -1.72445 3.30632 0
M  V30 8627 N 801.13 -1.57531 -0.0467866 0
M  V30 8628 C 802.355 -1.93087 -0.757123 0
M  V30 8629 C 802.78 -0.825116 -1.69037 0
M  V30 8630 O 802.138 0.220449 -1.79955 0
M  V30 8631 C 802.186 -3.27669 -1.5055 0
M  V30 8632 O 801.29 -3.18667 -2.61773 0
M  V30 8633 H 800.631 -0.631597 -0.204892 0
M  V30 8634 H 803.161 -2.04599 -0.00755232 0
M  V30 8635 H 803.171 -3.6214 -1.87932 0
M  V30 8636 H 801.846 -4.07717 -0.820931 0
M  V30 8637 H 800.423 -2.95798 -2.27064 0
M  V30 8638 N 802.608 0.318715 -1.54344 0
M  V30 8639 C 804.019 0.89285 -1.63967 0
M  V30 8640 C 804.37 1.88712 -0.536855 0
M  V30 8641 O 803.495 2.13877 0.329457 0
M  V30 8642 C 804.09 1.62618 -2.97222 0
M  V30 8643 C 802.649 2.14897 -3.09025 0
M  V30 8644 C 801.796 0.975909 -2.5956 0
M  V30 8645 H 804.747 0.0961687 -1.58408 0
M  V30 8646 H 804.768 2.4907 -2.87653 0
M  V30 8647 H 804.28 0.902286 -3.77466 0
M  V30 8648 H 802.381 2.90387 -2.33465 0
M  V30 8649 H 802.494 2.39565 -4.14904 0
M  V30 8650 H 800.858 1.35646 -2.15574 0
M  V30 8651 H 801.641 0.266253 -3.42266 0
M  V30 8652 N 804.086 1.46499 0.581025 0
M  V30 8653 C 805.334 1.51596 1.33653 0
M  V30 8654 C 805.655 0.169859 1.94259 0
M  V30 8655 O 804.925 -0.803776 1.78651 0
M  V30 8656 H 803.505 0.558346 0.496244 0
M  V30 8657 H 806.167 1.8264 0.680338 0
M  V30 8658 H 805.263 2.26956 2.14237 0
M  V30 8659 N 805.565 -0.825799 1.34232 0
M  V30 8660 C 806.497 -1.94401 1.21413 0
M  V30 8661 C 807.51 -1.6218 0.141902 0
M  V30 8662 O 808.699 -1.74109 0.3935 0
M  V30 8663 C 805.799 -3.28257 0.842635 0
M  V30 8664 C 804.972 -3.88521 2.00924 0
M  V30 8665 C 804.031 -5.00752 1.61661 0
M  V30 8666 O 803.057 -5.19201 2.33279 0
M  V30 8667 N 804.259 -5.78084 0.52911 0
M  V30 8668 H 807.024 -2.05931 2.17744 0
M  V30 8669 H 804.585 -1.00223 1.27149 0
M  V30 8670 H 806.577 -4.00781 0.561822 0
M  V30 8671 H 805.147 -3.12585 -0.0304029 0
M  V30 8672 H 804.367 -3.08425 2.45495 0
M  V30 8673 H 805.655 -4.25516 2.78951 0
M  V30 8674 H 805.053 -5.65661 -0.0663322 0
M  V30 8675 H 803.61 -6.51072 0.308017 0
M  V30 8676 N 807.043 -1.17915 -1.04565 0
M  V30 8677 C 807.973 -0.925033 -2.14395 0
M  V30 8678 C 808.954 0.135375 -1.6956 0
M  V30 8679 O 810.139 -0.0161774 -1.94193 0
M  V30 8680 C 807.269 -0.444469 -3.44444 0
M  V30 8681 C 806.223 -1.44478 -4.02877 0
M  V30 8682 C 805.549 -0.821933 -5.28345 0
M  V30 8683 C 806.849 -2.81995 -4.39632 0
M  V30 8684 H 808.543 -1.84354 -2.35911 0
M  V30 8685 H 806.089 -0.887806 -1.13375 0
M  V30 8686 H 808.042 -0.254078 -4.20633 0
M  V30 8687 H 806.766 0.509592 -3.226 0
M  V30 8688 H 805.425 -1.62203 -3.28764 0
M  V30 8689 H 805.073 0.139161 -5.02807 0
M  V30 8690 H 804.773 -1.48976 -5.68401 0
M  V30 8691 H 806.297 -0.641959 -6.07216 0
M  V30 8692 H 807.711 -2.67952 -5.06828 0
M  V30 8693 H 806.108 -3.45414 -4.90723 0
M  V30 8694 H 807.178 -3.35927 -3.49687 0
M  V30 8695 N 808.521 1.23394 -0.980386 0
M  V30 8696 C 809.451 2.2717 -0.540024 0
M  V30 8697 C 810.432 1.64659 0.426787 0
M  V30 8698 O 811.617 1.91543 0.320153 0
M  V30 8699 C 808.747 3.46939 0.15836 0
M  V30 8700 C 807.701 4.21802 -0.725732 0
M  V30 8701 C 807.027 5.34597 0.104866 0
M  V30 8702 C 808.327 4.81802 -2.01654 0
M  V30 8703 H 810.021 2.64257 -1.40743 0
M  V30 8704 H 807.567 1.2703 -0.678193 0
M  V30 8705 H 809.52 4.18683 0.477737 0
M  V30 8706 H 808.244 3.08912 1.06022 0
M  V30 8707 H 806.903 3.51875 -1.02857 0
M  V30 8708 H 806.551 4.92812 1.00726 0
M  V30 8709 H 806.251 5.85607 -0.483557 0
M  V30 8710 H 807.775 6.09163 0.418624 0
M  V30 8711 H 809.189 5.45554 -1.76193 0
M  V30 8712 H 807.586 5.43098 -2.55273 0
M  V30 8713 H 808.656 4.02549 -2.70338 0
M  V30 8714 N 809.999 0.752036 1.385 0
M  V30 8715 C 811.276 0.233075 1.94206 0
M  V30 8716 C 811.656 -1.26838 1.68746 0
M  V30 8717 O 811.004 -2.04214 1.02513 0
M  V30 8718 C 811.214 0.58509 3.44061 0
M  V30 8719 C 812.562 0.543871 4.21102 0
M  V30 8720 O 813.586 0.523291 3.52335 0
M  V30 8721 O 812.445 0.553436 5.4369 0
M  V30 8722 H 809.539 0.0483049 0.825588 0
M  V30 8723 H 812.085 0.832053 1.47902 0
M  V30 8724 H 810.857 1.62212 3.56094 0
M  V30 8725 H 810.48 -0.0419738 3.97578 0
M  V30 8726 N 811.477 -1.49425 0.500989 0
M  V30 8727 C 812.888 -1.86624 0.0532011 0
M  V30 8728 C 813.239 -1.41331 -1.36088 0
M  V30 8729 O 812.364 -0.791195 -2.01418 0
M  V30 8730 C 812.959 -3.38681 0.0897693 0
M  V30 8731 C 811.518 -3.75181 -0.302677 0
M  V30 8732 C 810.665 -2.73419 0.462307 0
M  V30 8733 H 813.616 -1.41743 0.713773 0
M  V30 8734 H 813.637 -3.73902 -0.705528 0
M  V30 8735 H 813.149 -3.71616 1.11907 0
M  V30 8736 H 811.25 -3.47855 -1.33521 0
M  V30 8737 H 811.363 -4.79097 0.0167653 0
M  V30 8738 H 809.727 -2.54548 -0.0878557 0
M  V30 8739 H 810.51 -3.09198 1.49169 0
M  V30 8740 N 812.955 -0.234822 -1.55841 0
M  V30 8741 C 813.865 0.680828 -2.24504 0
M  V30 8742 C 814.881 1.20306 -1.25708 0
M  V30 8743 O 816.057 1.24188 -1.58554 0
M  V30 8744 C 813.122 1.86636 -2.92178 0
M  V30 8745 C 812.183 1.3848 -4.06352 0
M  V30 8746 C 811.416 2.51382 -4.70789 0
M  V30 8747 O 811.639 3.69831 -4.34259 0
M  V30 8748 O 810.573 2.21828 -5.59532 0
M  V30 8749 H 814.399 0.12583 -3.03439 0
M  V30 8750 H 811.984 -0.00381817 -1.494 0
M  V30 8751 H 813.866 2.55845 -3.34845 0
M  V30 8752 H 812.541 2.40921 -2.16192 0
M  V30 8753 H 811.448 0.660341 -3.68226 0
M  V30 8754 H 812.781 0.888177 -4.8412 0
M  V30 8755 N 814.433 1.57553 0.0384317 0
M  V30 8756 C 815.661 1.93093 0.743141 0
M  V30 8757 C 816.076 0.833787 1.69391 0
M  V30 8758 O 815.433 -0.190532 1.81503 0
M  V30 8759 C 815.484 3.28533 1.50826 0
M  V30 8760 O 815.205 4.34032 0.595665 0
M  V30 8761 C 816.706 3.78297 2.31098 0
M  V30 8762 H 813.926 0.637486 0.20941 0
M  V30 8763 H 816.47 2.045 -0.00125154 0
M  V30 8764 H 814.625 3.18552 2.20462 0
M  V30 8765 H 815.039 5.12155 1.13124 0
M  V30 8766 H 816.513 4.75602 2.80191 0
M  V30 8767 H 816.99 3.09008 3.12107 0
M  V30 8768 H 817.596 3.91331 1.66555 0
M  V30 8769 N 815.911 -0.310526 1.54511 0
M  V30 8770 C 816.859 -1.40272 1.85544 0
M  V30 8771 C 817.853 -1.52941 0.728377 0
M  V30 8772 O 819.059 -1.55172 0.912234 0
M  V30 8773 H 815.434 -0.468355 0.588343 0
M  V30 8774 H 817.405 -1.11329 2.76855 0
M  V30 8775 C 816.154 -2.76279 2.11105 0
M  V30 8776 H 815.477 -2.67308 2.97298 0
M  V30 8777 H 816.917 -3.51736 2.36765 0
M  V30 8778 C 815.376 -3.24472 0.906618 0
M  V30 8779 O 815.906 -4.01514 0.122358 0
M  V30 8780 N 814.112 -2.81676 0.714632 0
M  V30 8781 H 813.659 -2.19143 1.35404 0
M  V30 8782 H 813.617 -3.14272 -0.089703 0
M  V30 8783 N 817.389 -1.46805 -0.573248 0
M  V30 8784 C 818.638 -1.51868 -1.32736 0
M  V30 8785 C 818.951 -0.178765 -1.94781 0
M  V30 8786 O 820.157 -0.107272 -2.71288 0
M  V30 8787 C 818.613 -2.67641 -2.40616 0
M  V30 8788 C 818.221 -4.08094 -1.84832 0
M  V30 8789 C 819.965 -2.81984 -3.17309 0
M  V30 8790 C 817.872 -5.15193 -2.90397 0
M  V30 8791 H 816.802 -0.56523 -0.49903 0
M  V30 8792 H 819.453 -1.7304 -0.610695 0
M  V30 8793 H 817.835 -2.39818 -3.15124 0
M  V30 8794 H 819.009 -4.45751 -1.16803 0
M  V30 8795 H 817.324 -3.985 -1.20775 0
M  V30 8796 H 819.921 -3.59166 -3.96111 0
M  V30 8797 H 820.264 -1.89842 -3.70494 0
M  V30 8798 H 820.797 -3.095 -2.4991 0
M  V30 8799 H 817.536 -6.09158 -2.42088 0
M  V30 8800 H 817.056 -4.82071 -3.56886 0
M  V30 8801 H 818.735 -5.41448 -3.54179 0
M  V30 8802 N 818.867 0.818669 -1.34668 0
M  V30 8803 C 819.815 1.95123 -1.26609 0
M  V30 8804 C 820.809 1.68611 -0.163348 0
M  V30 8805 O 822.015 1.76975 -0.328586 0
M  V30 8806 H 818.39 0.640871 -0.393431 0
M  V30 8807 H 820.361 1.99043 -2.22316 0
M  V30 8808 C 819.11 3.31697 -1.04272 0
M  V30 8809 H 818.433 3.52648 -1.8836 0
M  V30 8810 H 819.873 4.11382 -1.0267 0
M  V30 8811 C 818.332 3.35942 0.253858 0
M  V30 8812 O 818.862 3.81632 1.25378 0
M  V30 8813 N 817.068 2.89165 0.288447 0
M  V30 8814 H 816.615 2.52176 -0.525845 0
M  V30 8815 H 816.573 2.92387 1.15572 0
M  V30 8816 N 820.346 1.18468 1.03938 0
M  V30 8817 C 821.595 0.975193 1.76558 0
M  V30 8818 C 821.908 -0.495978 1.89207 0
M  V30 8819 O 823.114 -0.824009 2.58694 0
M  V30 8820 C 821.57 1.69579 3.17444 0
M  V30 8821 C 821.178 3.20636 3.12884 0
M  V30 8822 C 822.922 1.56917 3.94433 0
M  V30 8823 C 820.829 3.8533 4.48636 0
M  V30 8824 H 819.759 0.361244 0.66183 0
M  V30 8825 H 822.41 1.41854 1.16403 0
M  V30 8826 H 820.792 1.18022 3.78004 0
M  V30 8827 H 821.966 3.79228 2.61768 0
M  V30 8828 H 820.281 3.33454 2.49394 0
M  V30 8829 H 822.878 2.02611 4.94826 0
M  V30 8830 H 823.221 0.521638 4.13019 0
M  V30 8831 H 823.754 2.05762 3.40451 0
M  V30 8832 H 820.493 4.90136 4.35255 0
M  V30 8833 H 820.013 3.31526 4.99851 0
M  V30 8834 H 821.692 3.88269 5.17549 0
M  V30 8835 N 821.824 -1.22873 0.986916 0
M  V30 8836 C 823.072 -1.91084 0.658121 0
M  V30 8837 C 823.393 -1.77304 -0.811675 0
M  V30 8838 O 822.663 -1.15649 -1.58121 0
M  V30 8839 H 821.243 -0.707251 0.240427 0
M  V30 8840 H 823.905 -1.49357 1.25213 0
M  V30 8841 H 823.001 -2.98373 0.915428 0
M  V30 8842 N 823.302 -0.75937 -1.38099 0
M  V30 8843 C 824.53 -0.329111 -2.04266 0
M  V30 8844 C 824.945 1.04453 -1.57274 0
M  V30 8845 O 824.302 1.66449 -0.748397 0
M  V30 8846 C 824.353 -0.349192 -3.5981 0
M  V30 8847 O 824.074 -1.66863 -4.05078 0
M  V30 8848 C 825.575 0.0942106 -4.432 0
M  V30 8849 H 822.795 -0.13971 -0.656294 0
M  V30 8850 H 825.339 -1.02984 -1.76677 0
M  V30 8851 H 823.494 0.302846 -3.86214 0
M  V30 8852 H 823.908 -1.59877 -4.9954 0
M  V30 8853 H 825.382 0.0290004 -5.51992 0
M  V30 8854 H 825.859 1.1429 -4.24069 0
M  V30 8855 H 826.465 -0.529171 -4.21995 0
M  V30 8856 N 824.78 1.49157 -0.508906 0
M  V30 8857 C 826.005 2.07376 0.0315182 0
M  V30 8858 C 826.43 1.36575 1.2934 0
M  V30 8859 O 825.788 0.424963 1.76249 0
M  V30 8860 C 825.836 3.59661 0.260118 0
M  V30 8861 O 824.94 3.90255 1.33322 0
M  V30 8862 H 824.281 0.663334 -0.029739 0
M  V30 8863 H 826.811 1.91857 -0.710791 0
M  V30 8864 H 826.821 4.05056 0.489225 0
M  V30 8865 H 825.496 4.10601 -0.661794 0
M  V30 8866 H 824.073 3.56661 1.08844 0
M  V30 8867 N 826.258 0.243083 1.55714 0
M  V30 8868 C 827.488 -0.38641 2.02954 0
M  V30 8869 C 827.896 -1.52358 1.12177 0
M  V30 8870 O 827.239 -1.83255 0.127853 0
M  V30 8871 C 827.301 -0.959388 3.46462 0
M  V30 8872 C 826.965 0.0450546 4.56978 0
M  V30 8873 C 827.962 0.853224 5.12851 0
M  V30 8874 C 825.647 0.170041 5.02012 0
M  V30 8875 C 827.641 1.77288 6.12248 0
M  V30 8876 C 825.328 1.0932 6.01242 0
M  V30 8877 C 826.326 1.89315 6.56238 0
M  V30 8878 O 826.014 2.80075 7.53534 0
M  V30 8879 H 825.746 -0.0964333 0.669086 0
M  V30 8880 H 828.3 0.363399 2.0216 0
M  V30 8881 H 826.53 -1.75869 3.44394 0
M  V30 8882 H 828.219 -1.49856 3.77224 0
M  V30 8883 H 828.985 0.767229 4.78893 0
M  V30 8884 H 824.864 -0.442528 4.58871 0
M  V30 8885 H 828.408 2.39768 6.55101 0
M  V30 8886 H 824.305 1.18013 6.3462 0
M  V30 8887 H 825.073 2.74393 7.71136 0
M  V30 8888 N 827.736 -1.57571 -0.0300757 0
M  V30 8889 C 828.666 -2.0953 -1.03051 0
M  V30 8890 C 829.647 -0.99761 -1.37774 0
M  V30 8891 O 830.832 -1.27279 -1.46676 0
M  V30 8892 C 827.962 -2.57385 -2.33174 0
M  V30 8893 C 826.916 -3.71409 -2.12696 0
M  V30 8894 C 826.242 -4.05467 -3.4857 0
M  V30 8895 C 827.542 -4.99877 -1.51396 0
M  V30 8896 H 829.236 -2.93367 -0.597999 0
M  V30 8897 H 826.782 -1.41127 -0.286203 0
M  V30 8898 H 828.735 -2.92355 -3.03491 0
M  V30 8899 H 827.459 -1.70629 -2.78484 0
M  V30 8900 H 826.118 -3.36786 -1.44813 0
M  V30 8901 H 825.766 -3.15779 -3.91526 0
M  V30 8902 H 825.466 -4.82269 -3.35694 0
M  V30 8903 H 826.99 -4.4297 -4.2025 0
M  V30 8904 H 828.404 -5.3281 -2.11629 0
M  V30 8905 H 826.801 -5.81283 -1.49098 0
M  V30 8906 H 827.871 -4.82522 -0.479676 0
M  V30 8907 N 829.214 0.302327 -1.54673 0
M  V30 8908 C 830.146 1.39443 -1.81902 0
M  V30 8909 C 831.159 1.46891 -0.701914 0
M  V30 8910 O 832.348 1.49233 -0.979369 0
M  V30 8911 C 829.448 2.77824 -1.9408 0
M  V30 8912 C 828.621 2.93324 -3.24468 0
M  V30 8913 C 827.68 4.12196 -3.27079 0
M  V30 8914 O 826.706 4.04344 -4.00617 0
M  V30 8915 N 827.908 5.22768 -2.52376 0
M  V30 8916 H 830.673 1.1644 -2.76155 0
M  V30 8917 H 828.234 0.492392 -1.54231 0
M  V30 8918 H 830.226 3.5559 -1.9323 0
M  V30 8919 H 828.796 2.9378 -1.06828 0
M  V30 8920 H 828.016 2.02682 -3.38103 0
M  V30 8921 H 829.304 3.0059 -4.10516 0
M  V30 8922 H 828.702 5.32027 -1.92259 0
M  V30 8923 H 827.259 5.98874 -2.57281 0
M  V30 8924 N 830.692 1.47107 0.565454 0
M  V30 8925 C 831.922 1.56681 1.34664 0
M  V30 8926 C 832.33 0.213011 1.87997 0
M  V30 8927 O 831.673 -0.802629 1.65238 0
M  V30 8928 C 831.735 2.52528 2.55871 0
M  V30 8929 C 831.399 3.98403 2.23883 0
M  V30 8930 C 832.396 4.87125 1.81673 0
M  V30 8931 C 830.081 4.43674 2.35496 0
M  V30 8932 C 832.075 6.19135 1.51494 0
M  V30 8933 C 829.762 5.75714 2.0493 0
M  V30 8934 C 830.76 6.63266 1.62996 0
M  V30 8935 O 830.448 7.92853 1.32813 0
M  V30 8936 H 830.18 0.531967 0.417117 0
M  V30 8937 H 832.734 1.93368 0.692669 0
M  V30 8938 H 830.964 2.10893 3.24131 0
M  V30 8939 H 832.653 2.5232 3.17945 0
M  V30 8940 H 833.419 4.534 1.72201 0
M  V30 8941 H 829.298 3.7574 2.67096 0
M  V30 8942 H 832.842 6.87429 1.1869 0
M  V30 8943 H 828.739 6.08983 2.14031 0
M  V30 8944 H 829.507 8.0528 1.46513 0
M  V30 8945 N 832.17 -0.811516 1.35101 0
M  V30 8946 C 833.416 -1.57068 1.28287 0
M  V30 8947 C 833.749 -1.93667 -0.143808 0
M  V30 8948 O 833.024 -1.60953 -1.09199 0
M  V30 8949 C 833.307 -2.86259 2.18466 0
M  V30 8950 C 833.16 -2.56168 3.69727 0
M  V30 8951 C 834.479 -3.87924 2.07852 0
M  V30 8952 H 831.598 -0.569869 0.467353 0
M  V30 8953 H 834.24 -0.934023 1.65457 0
M  V30 8954 H 832.39 -3.4059 1.86898 0
M  V30 8955 H 834.062 -2.08059 4.11715 0
M  V30 8956 H 832.305 -1.89436 3.90252 0
M  V30 8957 H 832.976 -3.48344 4.28206 0
M  V30 8958 H 835.452 -3.4298 2.35593 0
M  V30 8959 H 834.328 -4.76106 2.73157 0
M  V30 8960 H 834.589 -4.2923 1.05896 0
M  V30 8961 N 833.648 -1.19017 -1.03309 0
M  V30 8962 C 834.878 -1.01387 -1.80012 0
M  V30 8963 C 835.286 0.440655 -1.83997 0
M  V30 8964 O 834.629 1.31786 -1.27977 0
M  V30 8965 C 834.691 -1.50171 -3.26633 0
M  V30 8966 C 834.355 -2.98213 -3.46292 0
M  V30 8967 C 835.352 -3.96009 -3.36857 0
M  V30 8968 C 833.037 -3.36812 -3.72643 0
M  V30 8969 C 835.031 -5.30399 -3.5349 0
M  V30 8970 C 832.718 -4.71363 -3.88922 0
M  V30 8971 C 833.716 -5.67966 -3.79347 0
M  V30 8972 O 833.404 -7.00079 -3.95151 0
M  V30 8973 H 833.136 -0.357899 -0.573484 0
M  V30 8974 H 835.69 -1.58171 -1.31039 0
M  V30 8975 H 833.92 -0.877586 -3.7661 0
M  V30 8976 H 835.609 -1.28814 -3.84918 0
M  V30 8977 H 836.375 -3.67534 -3.16455 0
M  V30 8978 H 832.254 -2.62175 -3.7919 0
M  V30 8979 H 835.798 -6.05786 -3.45933 0
M  V30 8980 H 831.695 -4.99536 -4.0882 0
M  V30 8981 H 832.463 -7.07092 -4.12266 0
M  V30 8982 N 835.127 1.22348 -0.993418 0
M  V30 8983 C 836.059 2.23626 -0.502404 0
M  V30 8984 C 837.072 1.57739 0.402784 0
M  V30 8985 O 838.261 1.77321 0.204835 0
M  V30 8986 C 835.361 3.37647 0.291118 0
M  V30 8987 C 834.534 4.33121 -0.610332 0
M  V30 8988 C 833.593 5.26035 0.131572 0
M  V30 8989 O 832.619 5.67145 -0.483199 0
M  V30 8990 N 833.821 5.63023 1.41371 0
M  V30 8991 H 836.586 2.66385 -1.37329 0
M  V30 8992 H 834.147 1.36653 -0.868196 0
M  V30 8993 H 836.139 3.96792 0.796107 0
M  V30 8994 H 834.709 2.93967 1.0631 0
M  V30 8995 H 833.929 3.72287 -1.29598 0
M  V30 8996 H 835.217 4.93853 -1.22422 0
M  V30 8997 H 834.615 5.31596 1.93449 0
M  V30 8998 H 833.172 6.24582 1.86388 0
M  V30 8999 N 836.605 0.766683 1.37694 0
M  V30 9000 C 837.537 0.107798 2.28946 0
M  V30 9001 C 838.55 -0.669701 1.48387 0
M  V30 9002 O 839.739 -0.508629 1.711 0
M  V30 9003 C 836.839 -0.871084 3.27514 0
M  V30 9004 C 836.012 -0.148471 4.37148 0
M  V30 9005 C 835.071 -1.03998 5.1582 0
M  V30 9006 O 834.097 -0.505639 5.6695 0
M  V30 9007 N 835.299 -2.36679 5.3006 0
M  V30 9008 H 838.064 0.89154 2.86132 0
M  V30 9009 H 835.625 0.618593 1.49616 0
M  V30 9010 H 837.617 -1.47081 3.77027 0
M  V30 9011 H 836.187 -1.55582 2.71133 0
M  V30 9012 H 835.407 0.632117 3.89099 0
M  V30 9013 H 836.695 0.351045 5.07588 0
M  V30 9014 H 836.093 -2.82532 4.90094 0
M  V30 9015 H 834.65 -2.9167 5.82899 0
M  V30 9016 N 838.083 -1.48885 0.516809 0
M  V30 9017 C 839.33 -2.02488 -0.0220602 0
M  V30 9018 C 839.658 -1.39513 -1.35523 0
M  V30 9019 O 838.913 -0.52558 -1.8851 0
M  V30 9020 C 839.212 -3.56801 -0.206798 0
M  V30 9021 C 838.878 -4.38496 1.05035 0
M  V30 9022 C 837.54 -4.60538 1.39492 0
M  V30 9023 C 839.892 -4.85909 1.88525 0
M  V30 9024 C 837.22 -5.2724 2.57361 0
M  V30 9025 C 839.572 -5.53909 3.05561 0
M  V30 9026 C 838.236 -5.74193 3.4038 0
M  V30 9027 H 837.506 -0.740956 -0.00807238 0
M  V30 9028 H 840.153 -1.79014 0.680168 0
M  V30 9029 H 838.458 -3.79042 -0.991687 0
M  V30 9030 H 840.155 -3.95885 -0.638447 0
M  V30 9031 H 836.745 -4.2159 0.771984 0
M  V30 9032 H 840.929 -4.68694 1.63218 0
M  V30 9033 H 836.185 -5.41145 2.84556 0
M  V30 9034 H 840.359 -5.89619 3.7057 0
M  V30 9035 H 837.986 -6.25652 4.31814 0
M  V30 9036 N 839.561 -0.251338 -1.55583 0
M  V30 9037 C 840.809 0.371434 -1.98657 0
M  V30 9038 C 841.13 1.58143 -1.14087 0
M  V30 9039 O 840.4 1.94607 -0.224708 0
M  V30 9040 H 838.98 0.140225 -0.733721 0
M  V30 9041 H 841.642 -0.351157 -1.9171 0
M  V30 9042 H 840.738 0.677554 -3.04657 0
M  V30 9043 N 841.039 1.57585 0.0217189 0
M  V30 9044 C 841.987 2.08134 1.03842 0
M  V30 9045 C 842.981 0.996662 1.36978 0
M  V30 9046 O 844.187 1.18149 1.35797 0
M  V30 9047 H 840.562 0.664298 0.352438 0
M  V30 9048 H 842.533 2.92583 0.58634 0
M  V30 9049 C 841.282 2.58218 2.32849 0
M  V30 9050 H 840.605 3.41302 2.08214 0
M  V30 9051 H 842.045 2.97289 3.02316 0
M  V30 9052 C 840.504 1.48664 3.02325 0
M  V30 9053 O 841.034 0.857075 3.9245 0
M  V30 9054 N 839.24 1.21938 2.63779 0
M  V30 9055 H 838.787 1.73319 1.90574 0
M  V30 9056 H 838.745 0.488523 3.10581 0
M  V30 9057 N 842.517 -0.29412 1.54831 0
M  V30 9058 C 843.465 -1.38296 1.87021 0
M  V30 9059 C 844.459 -1.5216 0.744557 0
M  V30 9060 O 845.665 -1.54196 0.92864 0
M  V30 9061 H 842.04 -0.462088 0.593278 0
M  V30 9062 H 844.011 -1.08386 2.7802 0
M  V30 9063 C 842.76 -2.74024 2.14023 0
M  V30 9064 H 842.083 -2.6414 3.00117 0
M  V30 9065 H 843.523 -3.49205 2.40482 0
M  V30 9066 C 841.982 -3.23492 0.940982 0
M  V30 9067 O 842.512 -4.01361 0.164937 0
M  V30 9068 N 840.718 -2.80902 0.744467 0
M  V30 9069 H 840.265 -2.17694 1.37721 0
M  V30 9070 H 840.223 -3.14349 -0.0563652 0
M  V30 9071 N 843.995 -1.47404 -0.557645 0
M  V30 9072 C 845.411 -1.32913 -0.88353 0
M  V30 9073 C 845.611 -0.31929 -1.98954 0
M  V30 9074 O 844.667 0.26934 -2.51059 0
M  V30 9075 C 845.98 -2.72229 -1.27718 0
M  V30 9076 C 847.528 -2.8051 -1.38863 0
M  V30 9077 C 848.003 -4.20466 -1.81583 0
M  V30 9078 N 849.494 -4.23005 -1.88735 0
M  V30 9079 C 850.229 -5.2821 -2.23118 0
M  V30 9080 N 849.725 -6.4372 -2.56117 0
M  V30 9081 N 851.518 -5.15588 -2.23888 0
M  V30 9082 H 843.669 -2.11698 0.172557 0
M  V30 9083 H 845.932 -0.947889 0.0145334 0
M  V30 9084 H 845.638 -3.47556 -0.538329 0
M  V30 9085 H 845.512 -3.03971 -2.23342 0
M  V30 9086 H 847.899 -2.05457 -2.11829 0
M  V30 9087 H 847.98 -2.52423 -0.414274 0
M  V30 9088 H 847.624 -4.96025 -1.09187 0
M  V30 9089 H 847.554 -4.45977 -2.80021 0
M  V30 9090 H 850.045 -3.39674 -1.65621 0
M  V30 9091 H 850.358 -7.19754 -2.81378 0
M  V30 9092 H 848.703 -6.47041 -2.53698 0
M  V30 9093 H 851.894 -4.24374 -1.97546 0
M  V30 9094 H 852.067 -5.97685 -2.50353 0
M  V30 9095 N 845.473 0.80434 -1.35529 0
M  V30 9096 C 846.722 1.55665 -1.28263 0
M  V30 9097 C 847.035 1.95096 0.140352 0
M  V30 9098 O 848.241 2.69422 0.335303 0
M  V30 9099 C 846.697 2.80935 -2.24952 0
M  V30 9100 C 846.305 2.48733 -3.72607 0
M  V30 9101 C 848.049 3.5894 -2.26632 0
M  V30 9102 C 845.956 3.70308 -4.61114 0
M  V30 9103 H 844.886 0.584301 -0.476559 0
M  V30 9104 H 847.537 0.88395 -1.60806 0
M  V30 9105 H 845.919 3.49927 -1.85383 0
M  V30 9106 H 847.093 1.87733 -4.20824 0
M  V30 9107 H 845.408 1.83969 -3.73557 0
M  V30 9108 H 848.005 4.49244 -2.89973 0
M  V30 9109 H 848.348 3.96433 -1.27069 0
M  V30 9110 H 848.881 2.96912 -2.64742 0
M  V30 9111 H 845.62 3.37922 -5.61684 0
M  V30 9112 H 845.14 4.30526 -4.17621 0
M  V30 9113 H 846.819 4.37511 -4.76648 0
M  V30 9114 N 846.951 1.19563 1.02676 0
M  V30 9115 C 848.198 0.999568 1.7611 0
M  V30 9116 C 848.526 -0.469432 1.8875 0
M  V30 9117 O 847.781 -1.36481 1.40255 0
M  V30 9118 C 848.08 1.61619 3.18769 0
M  V30 9119 C 847.746 3.11366 3.26132 0
M  V30 9120 C 846.408 3.52234 3.27848 0
M  V30 9121 C 848.76 4.07374 3.25109 0
M  V30 9122 C 846.088 4.87658 3.26201 0
M  V30 9123 C 848.44 5.42731 3.25002 0
M  V30 9124 C 847.104 5.83027 3.25017 0
M  V30 9125 H 846.374 0.365768 0.644434 0
M  V30 9126 H 849.021 1.48838 1.20497 0
M  V30 9127 H 847.326 1.04974 3.77476 0
M  V30 9128 H 849.023 1.43975 3.74262 0
M  V30 9129 H 845.613 2.78804 3.25525 0
M  V30 9130 H 849.797 3.76842 3.22961 0
M  V30 9131 H 845.053 5.18156 3.24537 0
M  V30 9132 H 849.227 6.16879 3.23161 0
M  V30 9133 H 846.854 6.87936 3.23494 0
M  V30 9134 N 848.429 -1.21819 0.999893 0
M  V30 9135 C 849.654 -1.95298 0.698094 0
M  V30 9136 C 850.079 -1.73273 -0.731982 0
M  V30 9137 O 849.437 -1.01634 -1.50134 0
M  V30 9138 C 849.485 -3.45922 1.01834 0
M  V30 9139 O 848.589 -4.12223 0.120801 0
M  V30 9140 H 847.93 -0.610729 0.260588 0
M  V30 9141 H 850.46 -1.5472 1.33876 0
M  V30 9142 H 850.47 -3.96471 0.963074 0
M  V30 9143 H 849.145 -3.61278 2.06037 0
M  V30 9144 H 847.722 -3.72177 0.232153 0
M  V30 9145 N 849.908 -0.773975 -1.37286 0
M  V30 9146 C 851.133 -0.349561 -2.04433 0
M  V30 9147 C 851.558 1.02082 -1.5799 0
M  V30 9148 O 850.916 1.65458 -0.741172 0
M  V30 9149 C 850.964 -0.404292 -3.58326 0
M  V30 9150 O 850.068 0.594447 -4.08093 0
M  V30 9151 H 849.409 -0.150959 -0.646612 0
M  V30 9152 H 851.939 -1.05079 -1.75555 0
M  V30 9153 H 851.949 -0.262378 -4.07155 0
M  V30 9154 H 850.624 -1.40403 -3.91484 0
M  V30 9155 H 849.201 0.415468 -3.70578 0
M  V30 9156 N 851.386 1.48609 -0.524698 0
M  V30 9157 C 852.349 2.28041 0.230166 0
M  V30 9158 C 853.349 1.35065 0.872584 0
M  V30 9159 O 854.539 1.58007 0.73345 0
M  V30 9160 C 851.671 3.13778 1.33252 0
M  V30 9161 H 852.864 2.96239 -0.467161 0
M  V30 9162 H 850.417 1.53763 -0.280452 0
M  V30 9163 H 851.152 2.502 2.06327 0
M  V30 9164 H 850.937 3.82165 0.877058 0
M  V30 9165 H 852.427 3.7371 1.86362 0
M  V30 9166 N 852.864 0.259585 1.55447 0
M  V30 9167 C 853.827 -0.621359 2.20617 0
M  V30 9168 C 854.827 -1.09317 1.17925 0
M  V30 9169 O 856.017 -0.995842 1.42929 0
M  V30 9170 C 853.149 -1.85546 2.85982 0
M  V30 9171 H 854.342 -0.0525833 2.99854 0
M  V30 9172 H 851.895 0.0101055 1.56297 0
M  V30 9173 H 852.63 -2.46515 2.10715 0
M  V30 9174 H 852.415 -1.52523 3.61219 0
M  V30 9175 H 853.905 -2.48227 3.35817 0
M  V30 9176 N 854.342 -1.57594 -0.0133615 0
M  V30 9177 C 855.572 -1.93969 -0.711295 0
M  V30 9178 C 855.98 -0.859084 -1.68572 0
M  V30 9179 O 855.323 0.171842 -1.82894 0
M  V30 9180 C 855.385 -3.2625 -1.51001 0
M  V30 9181 C 855.049 -4.51628 -0.698645 0
M  V30 9182 C 856.046 -5.19899 0.00791185 0
M  V30 9183 C 853.731 -4.98095 -0.648553 0
M  V30 9184 C 855.725 -6.32928 0.753691 0
M  V30 9185 C 853.412 -6.11017 0.10096 0
M  V30 9186 C 854.41 -6.78289 0.800828 0
M  V30 9187 O 854.098 -7.89048 1.53814 0
M  V30 9188 H 853.83 -0.6445 -0.203951 0
M  V30 9189 H 856.384 -2.05378 0.0298267 0
M  V30 9190 H 854.614 -3.11211 -2.29531 0
M  V30 9191 H 856.303 -3.47835 -2.09202 0
M  V30 9192 H 857.069 -4.84995 -0.0217192 0
M  V30 9193 H 852.948 -4.45568 -1.18282 0
M  V30 9194 H 856.492 -6.85371 1.3005 0
M  V30 9195 H 852.389 -6.45364 0.132459 0
M  V30 9196 H 853.157 -8.05492 1.45345 0
M  V30 9197 N 855.82 0.285905 -1.54985 0
M  V30 9198 C 856.768 1.37302 -1.87752 0
M  V30 9199 C 857.762 1.51763 -0.752616 0
M  V30 9200 O 858.968 1.53701 -0.936805 0
M  V30 9201 H 855.343 0.458935 -0.59572 0
M  V30 9202 H 857.314 1.0691 -2.78591 0
M  V30 9203 C 856.063 2.72885 -2.15474 0
M  V30 9204 H 855.386 2.62545 -3.01513 0
M  V30 9205 H 856.826 3.47925 -2.42331 0
M  V30 9206 C 855.285 3.22989 -0.958124 0
M  V30 9207 O 855.815 4.01268 -0.186219 0
M  V30 9208 N 854.021 2.80503 -0.759354 0
M  V30 9209 H 853.568 2.16961 -1.38874 0
M  V30 9210 H 853.526 3.14375 0.0396937 0
M  V30 9211 N 857.298 1.47698 0.54982 0
M  V30 9212 C 858.261 1.60282 1.63837 0
M  V30 9213 C 859.261 0.477394 1.5355 0
M  V30 9214 O 860.451 0.742665 1.57576 0
M  V30 9215 C 857.583 1.55431 3.03404 0
M  V30 9216 H 858.776 2.57325 1.54026 0
M  V30 9217 H 856.329 1.35999 0.770329 0
M  V30 9218 H 857.064 0.597912 3.1874 0
M  V30 9219 H 856.849 2.37116 3.12279 0
M  V30 9220 H 858.339 1.6739 3.82584 0
M  V30 9221 N 858.776 -0.797141 1.35954 0
M  V30 9222 C 860.024 -1.55161 1.29497 0
M  V30 9223 C 860.345 -1.94582 -0.127659 0
M  V30 9224 O 859.615 -1.64343 -1.06622 0
M  V30 9225 H 858.195 -0.575413 0.47635 0
M  V30 9226 H 860.857 -0.950282 1.70164 0
M  V30 9227 H 859.953 -2.46272 1.9172 0
M  V30 9228 N 860.254 -1.20106 -1.0204 0
M  V30 9229 C 861.665 -1.00992 -1.57027 0
M  V30 9230 C 862.016 0.434782 -1.91322 0
M  V30 9231 O 861.141 1.31557 -1.71819 0
M  V30 9232 C 861.736 -1.82697 -2.85319 0
M  V30 9233 C 860.295 -1.67959 -3.36848 0
M  V30 9234 C 859.442 -1.80868 -2.10195 0
M  V30 9235 H 862.393 -1.34354 -0.844676 0
M  V30 9236 H 862.414 -1.32809 -3.5657 0
M  V30 9237 H 861.926 -2.87839 -2.60328 0
M  V30 9238 H 860.027 -0.654389 -3.66809 0
M  V30 9239 H 860.14 -2.49006 -4.09308 0
M  V30 9240 H 858.504 -1.24015 -2.22469 0
M  V30 9241 H 859.287 -2.87486 -1.87635 0
M  V30 9242 N 861.732 1.21287 -1.00634 0
M  V30 9243 C 862.98 1.90013 -0.688438 0
M  V30 9244 C 863.301 1.78573 0.783365 0
M  V30 9245 O 862.571 1.1815 1.56261 0
M  V30 9246 H 861.151 0.703336 -0.251648 0
M  V30 9247 H 863.813 1.47346 -1.27574 0
M  V30 9248 H 862.909 2.96879 -0.962781 0
M  V30 9249 N 863.21 0.781244 1.36873 0
M  V30 9250 C 864.626 0.461968 1.52768 0
M  V30 9251 C 864.826 -1.02099 1.73719 0
M  V30 9252 O 863.882 -1.80665 1.76399 0
M  V30 9253 C 865.195 1.2853 2.71846 0
M  V30 9254 C 866.743 1.27817 2.85713 0
M  V30 9255 C 867.218 2.08506 4.07786 0
M  V30 9256 N 868.709 2.05909 4.14917 0
M  V30 9257 C 869.444 2.65118 5.08429 0
M  V30 9258 N 868.94 3.33152 6.07438 0
M  V30 9259 N 870.733 2.54896 5.00983 0
M  V30 9260 H 862.884 1.74198 1.21527 0
M  V30 9261 H 865.147 0.740027 0.592506 0
M  V30 9262 H 864.853 2.3366 2.62861 0
M  V30 9263 H 864.727 0.920981 3.65784 0
M  V30 9264 H 867.114 0.234817 2.94164 0
M  V30 9265 H 867.195 1.68219 1.92707 0
M  V30 9266 H 866.839 3.12867 4.00096 0
M  V30 9267 H 866.769 1.65479 4.99924 0
M  V30 9268 H 869.26 1.56386 3.44023 0
M  V30 9269 H 869.573 3.75681 6.75339 0
M  V30 9270 H 867.918 3.37253 6.07689 0
M  V30 9271 H 871.109 2.01352 4.22581 0
M  V30 9272 H 871.282 3.01332 5.73675 0
M  V30 9273 N 864.689 -1.48329 0.532571 0
M  V30 9274 C 865.935 -2.028 -0.000583219 0
M  V30 9275 C 866.268 -1.40858 -1.33688 0
M  V30 9276 O 865.543 -0.555261 -1.86406 0
M  V30 9277 C 865.826 -3.59901 -0.119846 0
M  V30 9278 C 865.679 -4.32318 1.2418 0
M  V30 9279 C 866.998 -4.31904 -0.845372 0
M  V30 9280 H 864.117 -0.736999 0.00126205 0
M  V30 9281 H 866.759 -1.77024 0.690102 0
M  V30 9282 H 864.909 -3.81993 -0.708092 0
M  V30 9283 H 866.581 -4.21637 1.87136 0
M  V30 9284 H 864.824 -3.93635 1.82301 0
M  V30 9285 H 865.495 -5.40697 1.11132 0
M  V30 9286 H 867.971 -4.14658 -0.346159 0
M  V30 9287 H 866.847 -5.41509 -0.897723 0
M  V30 9288 H 867.108 -3.99369 -1.89622 0
M  V30 9289 N 866.167 -0.267825 -1.55308 0
M  V30 9290 C 867.583 0.0865107 -1.59365 0
M  V30 9291 C 867.783 1.55205 -1.28505 0
M  V30 9292 O 866.839 2.29978 -1.04241 0
M  V30 9293 C 868.152 -0.28155 -2.99379 0
M  V30 9294 C 869.7 -0.227565 -3.12172 0
M  V30 9295 C 870.175 -0.569959 -4.5444 0
M  V30 9296 N 871.666 -0.521238 -4.60258 0
M  V30 9297 C 872.401 -0.759061 -5.68354 0
M  V30 9298 N 871.897 -1.06112 -6.84626 0
M  V30 9299 N 873.69 -0.688351 -5.57869 0
M  V30 9300 H 865.841 -1.22332 -1.73633 0
M  V30 9301 H 868.104 -0.493703 -0.809297 0
M  V30 9302 H 867.81 -1.3005 -3.26772 0
M  V30 9303 H 867.684 0.381192 -3.75269 0
M  V30 9304 H 870.071 0.782093 -2.84548 0
M  V30 9305 H 870.152 -0.924461 -2.38511 0
M  V30 9306 H 869.796 -1.57727 -4.82788 0
M  V30 9307 H 869.726 0.148646 -5.2639 0
M  V30 9308 H 872.217 -0.297359 -3.76728 0
M  V30 9309 H 872.53 -1.22945 -7.62958 0
M  V30 9310 H 870.875 -1.09881 -6.86259 0
M  V30 9311 H 874.066 -0.452268 -4.6591 0
M  V30 9312 H 874.239 -0.877081 -6.42037 0
M  V30 9313 N 867.645 1.57599 0.00500368 0
M  V30 9314 C 868.873 1.94626 0.702016 0
M  V30 9315 C 869.288 0.86953 1.67585 0
M  V30 9316 O 868.645 -0.15199 1.81866 0
M  V30 9317 C 868.696 3.31658 1.43824 0
M  V30 9318 O 868.417 4.35197 0.503467 0
M  V30 9319 C 869.918 3.83114 2.23021 0
M  V30 9320 H 867.138 0.641785 0.195841 0
M  V30 9321 H 869.682 2.04451 -0.0446287 0
M  V30 9322 H 867.837 3.23156 2.13655 0
M  V30 9323 H 868.251 5.1444 1.02235 0
M  V30 9324 H 869.725 4.81438 2.7004 0
M  V30 9325 H 870.202 3.15559 3.05482 0
M  V30 9326 H 870.808 3.94775 1.58216 0
M  V30 9327 N 869.123 -0.277682 1.55134 0
M  V30 9328 C 870.369 -1.00733 1.76704 0
M  V30 9329 C 870.724 -1.84107 0.55879 0
M  V30 9330 O 870.017 -1.86275 -0.448591 0
M  V30 9331 C 870.211 -1.92599 3.01065 0
M  V30 9332 C 870.04 -1.18266 4.3387 0
M  V30 9333 C 868.81 -0.900254 4.97216 0
M  V30 9334 C 871.008 -0.575419 5.11071 0
M  V30 9335 N 868.99 -0.129637 6.13763 0
M  V30 9336 C 870.361 0.0612637 6.1997 0
M  V30 9337 C 872.416 -0.482794 4.95554 0
M  V30 9338 C 871.119 0.781637 7.15041 0
M  V30 9339 C 873.145 0.223977 5.90976 0
M  V30 9340 C 872.507 0.849416 6.9926 0
M  V30 9341 H 868.606 -0.35075 0.698927 0
M  V30 9342 H 871.19 -0.283482 1.92625 0
M  V30 9343 H 869.361 -2.62214 2.86528 0
M  V30 9344 H 871.093 -2.5889 3.1106 0
M  V30 9345 H 867.848 -1.20434 4.58031 0
M  V30 9346 H 868.272 0.242865 6.76564 0
M  V30 9347 H 872.914 -0.952023 4.11942 0
M  V30 9348 H 870.632 1.26256 7.98176 0
M  V30 9349 H 874.218 0.2959 5.81047 0
M  V30 9350 H 873.098 1.3876 7.71826 0
M  V30 9351 N 870.601 -1.47988 -0.541979 0
M  V30 9352 C 871.531 -1.64503 -1.65713 0
M  V30 9353 C 872.512 -0.494116 -1.62765 0
M  V30 9354 O 873.697 -0.725256 -1.80149 0
M  V30 9355 C 870.827 -1.67337 -3.04328 0
M  V30 9356 C 869.781 -2.81809 -3.2213 0
M  V30 9357 C 869.107 -2.69724 -4.61685 0
M  V30 9358 C 870.407 -4.23241 -3.06046 0
M  V30 9359 H 872.101 -2.5786 -1.52147 0
M  V30 9360 H 869.647 -1.24094 -0.730529 0
M  V30 9361 H 871.6 -1.77481 -3.82202 0
M  V30 9362 H 870.324 -0.705514 -3.18889 0
M  V30 9363 H 868.983 -2.71201 -2.46669 0
M  V30 9364 H 868.631 -1.70934 -4.73065 0
M  V30 9365 H 868.331 -3.4653 -4.74543 0
M  V30 9366 H 869.855 -2.81818 -5.41674 0
M  V30 9367 H 871.269 -4.34746 -3.73723 0
M  V30 9368 H 869.666 -5.00952 -3.30405 0
M  V30 9369 H 870.736 -4.40543 -2.02609 0
M  V30 9370 N 872.079 0.78992 -1.36375 0
M  V30 9371 C 873.327 1.54472 -1.30319 0
M  V30 9372 C 873.648 1.94647 0.117338 0
M  V30 9373 O 872.918 1.64906 1.05748 0
M  V30 9374 H 871.498 0.572879 -0.479394 0
M  V30 9375 H 874.16 0.941245 -1.70665 0
M  V30 9376 H 873.256 2.45252 -1.93024 0
M  V30 9377 N 873.557 1.20646 1.01402 0
M  V30 9378 C 874.505 0.954493 2.12114 0
M  V30 9379 C 875.499 -0.0950737 1.69133 0
M  V30 9380 O 876.705 0.0555153 1.79914 0
M  V30 9381 H 873.08 0.29135 0.693267 0
M  V30 9382 H 875.051 1.89447 2.30548 0
M  V30 9383 C 873.8 0.525944 3.43699 0
M  V30 9384 H 873.123 1.32516 3.772 0
M  V30 9385 H 874.563 0.388883 4.22213 0
M  V30 9386 C 873.022 -0.761997 3.28169 0
M  V30 9387 O 873.552 -1.81979 3.58115 0
M  V30 9388 N 871.758 -0.725017 2.8141 0
M  V30 9389 H 871.305 0.13607 2.5724 0
M  V30 9390 H 871.263 -1.5871 2.71401 0
M  V30 9391 N 875.035 -1.20752 1.01276 0
M  V30 9392 C 876.26 -1.94547 0.718769 0
M  V30 9393 C 876.685 -1.7404 -0.713563 0
M  V30 9394 O 876.043 -1.03221 -1.49047 0
M  V30 9395 C 876.091 -3.44823 1.05497 0
M  V30 9396 O 875.195 -4.12072 0.164516 0
M  V30 9397 H 874.536 -0.607931 0.267051 0
M  V30 9398 H 877.066 -1.53292 1.35509 0
M  V30 9399 H 877.076 -3.95427 1.00507 0
M  V30 9400 H 875.751 -3.59072 2.09858 0
M  V30 9401 H 874.328 -3.71909 0.271615 0
M  V30 9402 N 876.513 -0.788492 -1.36457 0
M  V30 9403 C 877.476 -0.192209 -2.28393 0
M  V30 9404 C 878.476 0.609916 -1.48784 0
M  V30 9405 O 879.666 0.431046 -1.68783 0
M  V30 9406 C 876.798 0.734096 -3.32902 0
M  V30 9407 H 877.991 -1.00284 -2.82636 0
M  V30 9408 H 875.544 -0.557852 -1.46006 0
M  V30 9409 H 876.279 1.5691 -2.83813 0
M  V30 9410 H 876.064 0.160875 -3.9177 0
M  V30 9411 H 877.554 1.1462 -4.01562 0
M  V30 9412 N 877.991 1.48044 -0.54043 0
M  V30 9413 C 879.239 2.02097 -0.0101367 0
M  V30 9414 C 879.56 1.41881 1.33771 0
M  V30 9415 O 878.83 0.587923 1.8687 0
M  V30 9416 H 877.41 0.747 -0.000758716 0
M  V30 9417 H 880.072 1.81639 -0.706634 0
M  V30 9418 H 879.168 3.11969 0.0904474 0
M  V30 9419 N 879.47 0.276058 1.55163 0
M  V30 9420 C 880.886 -0.0780579 1.59409 0
M  V30 9421 C 881.086 -1.54521 1.29327 0
M  V30 9422 O 880.142 -2.29422 1.05459 0
M  V30 9423 C 881.455 0.297422 2.99225 0
M  V30 9424 C 883.003 0.244117 3.12047 0
M  V30 9425 C 883.478 0.594051 4.54131 0
M  V30 9426 N 884.969 0.54564 4.59975 0
M  V30 9427 C 885.704 0.789192 5.67943 0
M  V30 9428 N 885.2 1.09741 6.84053 0
M  V30 9429 N 886.993 0.717926 5.57496 0
M  V30 9430 H 879.144 1.23251 1.72982 0
M  V30 9431 H 881.407 0.497988 0.806667 0
M  V30 9432 H 881.113 1.31782 3.26077 0
M  V30 9433 H 880.987 -0.361286 3.75466 0
M  V30 9434 H 883.374 -0.766992 2.84958 0
M  V30 9435 H 883.455 0.937097 2.38017 0
M  V30 9436 H 883.099 1.60285 4.81945 0
M  V30 9437 H 883.029 -0.120728 5.26462 0
M  V30 9438 H 885.52 0.317334 3.76565 0
M  V30 9439 H 885.833 1.26989 7.62295 0
M  V30 9440 H 884.178 1.13519 6.85666 0
M  V30 9441 H 887.369 0.47697 4.65664 0
M  V30 9442 H 887.542 0.911118 6.41563 0
M  V30 9443 N 880.948 -1.576 0.00335426 0
M  V30 9444 C 882.197 -1.89892 -0.680001 0
M  V30 9445 C 882.51 -0.878731 -1.7475 0
M  V30 9446 O 883.716 -1.09199 -2.48572 0
M  V30 9447 C 882.172 -3.37098 -1.26066 0
M  V30 9448 C 881.78 -4.4742 -0.227807 0
M  V30 9449 C 883.524 -3.78495 -1.92202 0
M  V30 9450 C 881.431 -5.85706 -0.81865 0
M  V30 9451 H 880.361 -0.708578 -0.257746 0
M  V30 9452 H 883.012 -1.83387 0.0644472 0
M  V30 9453 H 881.394 -3.38451 -2.05589 0
M  V30 9454 H 882.568 -4.57589 0.54307 0
M  V30 9455 H 880.883 -4.15064 0.333297 0
M  V30 9456 H 883.48 -4.7915 -2.37318 0
M  V30 9457 H 883.823 -3.12187 -2.75399 0
M  V30 9458 H 884.356 -3.79456 -1.19408 0
M  V30 9459 H 881.095 -6.55495 -0.0253787 0
M  V30 9460 H 880.615 -5.79196 -1.55861 0
M  V30 9461 H 882.294 -6.33469 -1.31627 0
M  V30 9462 N 882.426 0.269451 -1.5528 0
M  V30 9463 C 883.703 1.02207 -1.66773 0
M  V30 9464 C 884.083 2.04168 -0.536536 0
M  V30 9465 O 883.431 2.23761 0.462956 0
M  V30 9466 C 883.641 1.67569 -3.0614 0
M  V30 9467 C 884.989 2.18599 -3.64005 0
M  V30 9468 O 886.013 1.7755 -3.08795 0
M  V30 9469 O 884.872 2.93903 -4.60742 0
M  V30 9470 H 881.966 0.474314 -0.677462 0
M  V30 9471 H 884.512 0.265026 -1.67618 0
M  V30 9472 H 883.284 0.937029 -3.79915 0
M  V30 9473 H 882.907 2.49951 -3.09209 0
M  V30 9474 N 883.904 1.48273 0.534124 0
M  V30 9475 C 884.867 1.6201 1.62127 0
M  V30 9476 C 885.867 0.493653 1.53035 0
M  V30 9477 O 887.057 0.759337 1.56779 0
M  V30 9478 C 884.189 1.5864 3.01739 0
M  V30 9479 H 885.382 2.58944 1.51288 0
M  V30 9480 H 882.935 1.36808 0.755861 0
M  V30 9481 H 883.67 0.631685 3.18088 0
M  V30 9482 H 883.455 2.40415 3.09747 0
M  V30 9483 H 884.945 1.71438 3.80787 0
M  V30 9484 N 885.382 -0.782676 1.36792 0
M  V30 9485 C 886.628 -1.54311 1.3159 0
M  V30 9486 C 886.961 -1.93928 -0.102696 0
M  V30 9487 O 886.236 -1.63233 -1.05761 0
M  V30 9488 C 886.519 -2.81561 2.24489 0
M  V30 9489 C 886.372 -2.48268 3.75078 0
M  V30 9490 C 887.691 -3.83428 2.16034 0
M  V30 9491 H 884.81 -0.559828 0.479335 0
M  V30 9492 H 887.452 -0.898717 1.67401 0
M  V30 9493 H 885.602 -3.36549 1.9408 0
M  V30 9494 H 887.274 -1.99279 4.16036 0
M  V30 9495 H 885.517 -1.81116 3.94182 0
M  V30 9496 H 886.188 -3.39183 4.35499 0
M  V30 9497 H 888.664 -3.37905 2.42815 0
M  V30 9498 H 887.54 -4.70204 2.83194 0
M  V30 9499 H 887.801 -4.26887 1.14976 0
M  V30 9500 N 886.86 -1.21182 -1.00761 0
M  V30 9501 C 887.823 -0.970339 -2.07646 0
M  V30 9502 C 888.823 0.0576345 -1.60697 0
M  V30 9503 O 890.013 -0.179369 -1.73274 0
M  V30 9504 C 887.145 -0.462703 -3.37745 0
M  V30 9505 H 888.338 -1.91856 -2.30502 0
M  V30 9506 H 885.891 -1.02844 -1.17698 0
M  V30 9507 H 886.626 0.490559 -3.20568 0
M  V30 9508 H 886.411 -1.20416 -3.73152 0
M  V30 9509 H 887.901 -0.313531 -4.16421 0
M  V30 9510 N 888.338 1.20213 -1.01915 0
M  V30 9511 C 889.585 1.89647 -0.709955 0
M  V30 9512 C 889.913 1.7901 0.760631 0
M  V30 9513 O 889.168 1.17028 1.56853 0
M  V30 9514 C 889.467 3.40232 -1.09438 0
M  V30 9515 C 889.133 3.7107 -2.5616 0
M  V30 9516 C 887.795 3.79196 -2.96249 0
M  V30 9517 C 890.147 3.85169 -3.51133 0
M  V30 9518 C 887.475 3.98882 -4.30244 0
M  V30 9519 C 889.827 4.06365 -4.8482 0
M  V30 9520 C 888.491 4.12722 -5.24611 0
M  V30 9521 H 887.761 0.693967 -0.259791 0
M  V30 9522 H 890.408 1.42419 -1.2802 0
M  V30 9523 H 888.713 3.89292 -0.442596 0
M  V30 9524 H 890.41 3.92257 -0.832811 0
M  V30 9525 H 887 3.65346 -2.24099 0
M  V30 9526 H 891.184 3.78243 -3.21319 0
M  V30 9527 H 886.44 4.02039 -4.60624 0
M  V30 9528 H 890.614 4.16216 -5.58334 0
M  V30 9529 H 888.241 4.27728 -6.28453 0
M  V30 9530 N 889.816 0.795718 1.36037 0
M  V30 9531 C 891.062 0.371574 1.99367 0
M  V30 9532 C 891.395 -1.0557 1.62999 0
M  V30 9533 O 890.67 -1.73051 0.887895 0
M  V30 9534 C 890.953 0.542622 3.55988 0
M  V30 9535 C 890.806 2.01404 4.0219 0
M  V30 9536 C 892.125 -0.0384527 4.40083 0
M  V30 9537 H 889.244 0.136483 0.724252 0
M  V30 9538 H 891.886 1.00323 1.61355 0
M  V30 9539 H 890.036 0.0049053 3.885 0
M  V30 9540 H 891.708 2.6133 3.80137 0
M  V30 9541 H 889.951 2.51439 3.53498 0
M  V30 9542 H 890.622 2.08466 5.11122 0
M  V30 9543 H 893.098 0.420634 4.13968 0
M  V30 9544 H 891.974 0.111214 5.48787 0
M  V30 9545 H 892.235 -1.13116 4.27384 0
M  V30 9546 N 891.294 -1.47756 0.548274 0
M  V30 9547 C 892.204 -2.33678 -0.207773 0
M  V30 9548 C 893.22 -1.47636 -0.920843 0
M  V30 9549 O 894.396 -1.80583 -0.89173 0
M  V30 9550 C 891.461 -3.24147 -1.23003 0
M  V30 9551 C 890.522 -4.26073 -0.52535 0
M  V30 9552 C 889.755 -5.12219 -1.4989 0
M  V30 9553 O 889.978 -5.0066 -2.73305 0
M  V30 9554 O 888.912 -5.93051 -1.02828 0
M  V30 9555 H 892.738 -2.99609 0.496794 0
M  V30 9556 H 890.323 -1.4617 0.308982 0
M  V30 9557 H 892.205 -3.80055 -1.82034 0
M  V30 9558 H 890.88 -2.60855 -1.91668 0
M  V30 9559 H 889.787 -3.7395 0.105927 0
M  V30 9560 H 891.12 -4.92054 0.119686 0
M  V30 9561 N 892.772 -0.284283 -1.55015 0
M  V30 9562 C 893.997 0.335799 -2.04664 0
M  V30 9563 C 894.422 1.47999 -1.16094 0
M  V30 9564 O 893.78 1.8058 -0.161454 0
M  V30 9565 C 893.828 0.785615 -3.51938 0
M  V30 9566 O 892.932 1.89202 -3.66437 0
M  V30 9567 H 892.273 0.0680233 -0.660506 0
M  V30 9568 H 894.803 -0.421255 -2.00216 0
M  V30 9569 H 894.813 1.07892 -3.93476 0
M  V30 9570 H 893.488 -0.0514675 -4.15868 0
M  V30 9571 H 892.065 1.60055 -3.36804 0
M  V30 9572 N 894.251 1.57596 -0.0117121 0
M  V30 9573 C 895.5 1.9025 0.669921 0
M  V30 9574 C 895.813 0.887986 1.74282 0
M  V30 9575 O 897.019 1.10516 2.47989 0
M  V30 9576 C 895.475 3.37762 1.24277 0
M  V30 9577 C 895.083 4.47535 0.204076 0
M  V30 9578 C 896.827 3.79509 1.90192 0
M  V30 9579 C 894.734 5.86132 0.787577 0
M  V30 9580 H 893.664 0.709935 0.253984 0
M  V30 9581 H 896.315 1.8335 -0.0741718 0
M  V30 9582 H 894.697 3.39537 2.03791 0
M  V30 9583 H 895.871 4.57294 -0.56733 0
M  V30 9584 H 894.186 4.14881 -0.355305 0
M  V30 9585 H 896.783 4.80402 2.34773 0
M  V30 9586 H 897.126 3.13643 2.7374 0
M  V30 9587 H 897.659 3.80084 1.17394 0
M  V30 9588 H 894.398 6.55499 -0.00938418 0
M  V30 9589 H 893.918 5.80014 1.52787 0
M  V30 9590 H 895.597 6.34158 1.28265 0
M  V30 9591 N 895.729 -0.261212 1.5542 0
M  V30 9592 C 897.14 -0.83138 1.67167 0
M  V30 9593 C 897.491 -1.8659 0.606525 0
M  V30 9594 O 896.616 -2.14953 -0.24985 0
M  V30 9595 C 897.211 -1.51475 3.03052 0
M  V30 9596 C 895.77 -2.0328 3.16787 0
M  V30 9597 C 894.917 -0.878903 2.63003 0
M  V30 9598 H 897.868 -0.0373102 1.58656 0
M  V30 9599 H 897.889 -2.38222 2.96699 0
M  V30 9600 H 897.401 -0.76157 3.80554 0
M  V30 9601 H 895.502 -2.81523 2.44082 0
M  V30 9602 H 895.615 -2.24001 4.2351 0
M  V30 9603 H 893.979 -1.27551 2.2046 0
M  V30 9604 H 894.762 -0.13904 3.43018 0
M  V30 9605 N 897.207 -1.48554 -0.526253 0
M  V30 9606 C 898.454 -1.56761 -1.28188 0
M  V30 9607 C 898.782 -0.24315 -1.92974 0
M  V30 9608 O 898.037 0.766883 -1.80048 0
M  V30 9609 C 898.336 -2.65739 -2.38993 0
M  V30 9610 C 898.002 -4.08057 -1.91834 0
M  V30 9611 C 896.664 -4.46792 -1.78691 0
M  V30 9612 C 899.016 -4.9723 -1.56242 0
M  V30 9613 C 896.344 -5.72501 -1.28296 0
M  V30 9614 C 898.696 -6.23432 -1.07309 0
M  V30 9615 C 897.36 -6.6102 -0.927853 0
M  V30 9616 H 896.63 -0.573631 -0.469072 0
M  V30 9617 H 899.277 -1.82287 -0.586842 0
M  V30 9618 H 897.582 -2.34088 -3.14181 0
M  V30 9619 H 899.279 -2.69304 -2.97113 0
M  V30 9620 H 895.869 -3.77469 -2.03016 0
M  V30 9621 H 900.053 -4.67979 -1.65255 0
M  V30 9622 H 895.309 -6.00345 -1.15742 0
M  V30 9623 H 899.483 -6.91923 -0.788412 0
M  V30 9624 H 897.11 -7.58314 -0.535162 0
M  V30 9625 N 898.685 0.775411 -1.37205 0
M  V30 9626 C 899.91 1.5696 -1.35567 0
M  V30 9627 C 900.335 1.88012 0.0575554 0
M  V30 9628 O 899.693 1.48954 1.03355 0
M  V30 9629 C 899.741 2.85886 -2.19776 0
M  V30 9630 O 898.845 3.80103 -1.59987 0
M  V30 9631 H 898.186 0.475583 -0.463375 0
M  V30 9632 H 900.716 0.96001 -1.80679 0
M  V30 9633 H 900.726 3.35024 -2.32859 0
M  V30 9634 H 899.401 2.62613 -3.22502 0
M  V30 9635 H 897.978 3.38736 -1.55924 0
M  V30 9636 N 900.163 1.21714 1.00117 0
M  V30 9637 C 901.073 0.99597 2.12409 0
M  V30 9638 C 902.089 -0.0531431 1.73919 0
M  V30 9639 O 903.265 0.137757 2.00928 0
M  V30 9640 C 900.33 0.567593 3.42022 0
M  V30 9641 C 899.391 1.68936 3.94663 0
M  V30 9642 C 898.624 1.28133 5.1809 0
M  V30 9643 O 898.847 0.156574 5.70185 0
M  V30 9644 O 897.781 2.0947 5.64275 0
M  V30 9645 H 901.607 1.93657 2.33946 0
M  V30 9646 H 899.192 1.00236 1.10784 0
M  V30 9647 H 901.074 0.338664 4.20037 0
M  V30 9648 H 899.749 -0.34424 3.21864 0
M  V30 9649 H 898.656 1.97274 3.17858 0
M  V30 9650 H 899.989 2.57876 4.19238 0
M  V30 9651 N 901.641 -1.19671 1.02551 0
M  V30 9652 C 902.869 -1.93233 0.739513 0
M  V30 9653 C 903.284 -1.75298 -0.701158 0
M  V30 9654 O 902.641 -1.07269 -1.47647 0
M  V30 9655 C 902.692 -3.45085 1.07697 0
M  V30 9656 O 902.413 -3.62441 2.46106 0
M  V30 9657 C 903.914 -4.35776 0.813298 0
M  V30 9658 H 901.134 -0.613905 0.270853 0
M  V30 9659 H 903.678 -1.51909 1.36909 0
M  V30 9660 H 901.833 -3.84255 0.492635 0
M  V30 9661 H 902.247 -4.56337 2.58567 0
M  V30 9662 H 903.721 -5.40941 1.09941 0
M  V30 9663 H 904.198 -4.38474 -0.252359 0
M  V30 9664 H 904.804 -4.02282 1.38021 0
M  V30 9665 N 903.119 -0.802921 -1.35613 0
M  V30 9666 C 904.535 -0.486214 -1.52014 0
M  V30 9667 C 904.735 0.993219 -1.75321 0
M  V30 9668 O 903.791 1.77835 -1.79251 0
M  V30 9669 C 905.104 -1.32839 -2.69767 0
M  V30 9670 C 906.652 -1.32346 -2.83643 0
M  V30 9671 C 907.127 -2.14967 -4.04417 0
M  V30 9672 N 908.618 -2.12484 -4.11588 0
M  V30 9673 C 909.353 -2.73173 -5.04147 0
M  V30 9674 N 908.849 -3.42774 -6.02061 0
M  V30 9675 N 910.642 -2.62834 -4.96865 0
M  V30 9676 H 902.793 -1.76109 -1.18741 0
M  V30 9677 H 905.056 -0.74936 -0.580658 0
M  V30 9678 H 904.762 -2.37813 -2.5911 0
M  V30 9679 H 904.636 -0.979058 -3.64272 0
M  V30 9680 H 907.023 -0.281586 -2.93753 0
M  V30 9681 H 907.104 -1.71264 -1.90006 0
M  V30 9682 H 906.748 -3.19193 -3.95068 0
M  V30 9683 H 906.678 -1.73411 -4.97228 0
M  V30 9684 H 909.169 -1.61839 -3.41492 0
M  V30 9685 H 909.482 -3.86378 -6.69277 0
M  V30 9686 H 907.827 -3.46878 -6.02246 0
M  V30 9687 H 911.018 -2.08049 -4.19325 0
M  V30 9688 H 911.191 -3.10421 -5.68808 0
M  V30 9689 N 904.597 1.47463 -0.556102 0
M  V30 9690 C 905.845 2.02075 -0.0315712 0
M  V30 9691 C 906.166 1.43292 1.32259 0
M  V30 9692 O 905.436 0.60771 1.86236 0
M  V30 9693 H 904.016 0.74695 -0.0086816 0
M  V30 9694 H 906.678 1.80879 -0.725859 0
M  V30 9695 H 905.774 3.12047 0.0573538 0
M  V30 9696 N 906.075 0.2925 1.54862 0
M  V30 9697 C 907.305 -0.321646 2.04081 0
M  V30 9698 C 907.713 -1.48712 1.16967 0
M  V30 9699 O 907.056 -1.82755 0.18609 0
M  V30 9700 C 907.118 -0.848678 3.49339 0
M  V30 9701 C 906.782 0.190416 4.56603 0
M  V30 9702 C 907.779 1.01595 5.09877 0
M  V30 9703 C 905.464 0.329666 5.01217 0
M  V30 9704 C 907.458 1.96676 6.06298 0
M  V30 9705 C 905.145 1.28393 5.9746 0
M  V30 9706 C 906.143 2.10097 6.49883 0
M  V30 9707 O 905.831 3.03907 7.44242 0
M  V30 9708 H 905.563 -0.075098 0.671816 0
M  V30 9709 H 908.117 0.427531 2.00901 0
M  V30 9710 H 906.347 -1.64823 3.49815 0
M  V30 9711 H 908.036 -1.37779 3.81801 0
M  V30 9712 H 908.802 0.919197 4.7621 0
M  V30 9713 H 904.681 -0.296317 4.60047 0
M  V30 9714 H 908.225 2.60488 6.47141 0
M  V30 9715 H 904.122 1.38144 6.30545 0
M  V30 9716 H 904.89 2.98787 7.62016 0
M  V30 9717 N 907.553 -1.57587 0.0200696 0
M  V30 9718 C 908.799 -1.91708 -0.661503 0
M  V30 9719 C 909.132 -0.895968 -1.72296 0
M  V30 9720 O 908.407 0.082577 -1.94325 0
M  V30 9721 C 908.69 -3.36344 -1.28627 0
M  V30 9722 C 908.543 -4.49186 -0.234982 0
M  V30 9723 C 909.862 -3.80771 -2.20685 0
M  V30 9724 H 906.981 -0.69717 -0.239005 0
M  V30 9725 H 909.623 -1.8985 0.0754764 0
M  V30 9726 H 907.773 -3.38058 -1.91439 0
M  V30 9727 H 909.445 -4.59606 0.395011 0
M  V30 9728 H 907.688 -4.31557 0.440565 0
M  V30 9729 H 908.359 -5.47395 -0.711558 0
M  V30 9730 H 910.835 -3.80735 -1.67868 0
M  V30 9731 H 909.711 -4.82685 -2.61356 0
M  V30 9732 H 909.972 -3.15764 -3.09428 0
M  V30 9733 N 909.032 0.252966 -1.55557 0
M  V30 9734 C 909.979 1.3131 -1.89806 0
M  V30 9735 C 910.949 1.48121 -0.751633 0
M  V30 9736 O 912.134 1.62202 -1.00474 0
M  V30 9737 C 909.274 2.66467 -2.19293 0
M  V30 9738 C 908.387 2.57714 -3.46709 0
M  V30 9739 C 907.522 3.85184 -3.65796 0
M  V30 9740 C 906.561 3.71023 -4.86835 0
M  V30 9741 N 905.698 4.90371 -5.02474 0
M  V30 9742 H 910.538 1.01402 -2.80217 0
M  V30 9743 H 908.075 0.489462 -1.38718 0
M  V30 9744 H 910.033 3.45132 -2.34392 0
M  V30 9745 H 908.663 2.94536 -1.32093 0
M  V30 9746 H 907.715 1.70651 -3.39974 0
M  V30 9747 H 909.027 2.43158 -4.35517 0
M  V30 9748 H 908.181 4.72292 -3.80822 0
M  V30 9749 H 906.92 4.0263 -2.7521 0
M  V30 9750 H 905.925 2.82299 -4.71792 0
M  V30 9751 H 907.15 3.55078 -5.78875 0
M  V30 9752 H 905.096 5.0819 -4.14824 0
M  V30 9753 H 905.013 4.78423 -5.85361 0
M  V30 9754 H 906.281 5.78995 -5.21905 0
M  V30 9755 N 910.51 1.48831 0.518367 0
M  V30 9756 C 911.458 1.64678 1.64268 0
M  V30 9757 C 912.452 0.512967 1.61447 0
M  V30 9758 O 913.658 0.692063 1.66164 0
M  V30 9759 H 910.033 0.518964 0.544224 0
M  V30 9760 H 912.004 2.59083 1.4805 0
M  V30 9761 C 910.753 1.71449 3.0249 0
M  V30 9762 H 910.076 2.58061 3.0536 0
M  V30 9763 H 911.516 1.86577 3.80743 0
M  V30 9764 C 909.975 0.455584 3.33805 0
M  V30 9765 O 910.505 -0.426428 3.9943 0
M  V30 9766 N 908.711 0.323763 2.88791 0
M  V30 9767 H 908.258 1.04249 2.35563 0
M  V30 9768 H 908.216 -0.517514 3.10112 0
M  V30 9769 N 911.988 -0.768124 1.37614 0
M  V30 9770 C 913.234 -1.52907 1.33219 0
M  V30 9771 C 913.567 -1.94026 -0.0821218 0
M  V30 9772 O 912.842 -1.64345 -1.04023 0
M  V30 9773 C 913.125 -2.79164 2.27463 0
M  V30 9774 C 912.978 -2.44276 3.7769 0
M  V30 9775 C 914.297 -3.81115 2.20089 0
M  V30 9776 H 911.416 -0.554712 0.485246 0
M  V30 9777 H 914.058 -0.880911 1.68345 0
M  V30 9778 H 912.208 -3.34472 1.97639 0
M  V30 9779 H 913.88 -1.94855 4.18126 0
M  V30 9780 H 912.123 -1.76925 3.96081 0
M  V30 9781 H 912.794 -3.34544 4.39072 0
M  V30 9782 H 915.27 -3.35311 2.46386 0
M  V30 9783 H 914.146 -4.67174 2.88166 0
M  V30 9784 H 914.407 -4.25644 1.19498 0
M  V30 9785 N 913.466 -1.22244 -0.994698 0
M  V30 9786 C 914.396 -1.01513 -2.10279 0
M  V30 9787 C 915.377 0.0633365 -1.69982 0
M  V30 9788 O 916.562 -0.0985268 -1.9395 0
M  V30 9789 C 913.692 -0.59016 -3.42249 0
M  V30 9790 C 912.646 -1.61436 -3.96387 0
M  V30 9791 C 911.972 -1.04528 -5.24383 0
M  V30 9792 C 913.272 -3.00388 -4.27276 0
M  V30 9793 H 914.966 -1.94194 -2.2788 0
M  V30 9794 H 912.512 -0.935094 -1.09508 0
M  V30 9795 H 914.465 -0.432254 -4.19177 0
M  V30 9796 H 913.189 0.372308 -3.24471 0
M  V30 9797 H 911.848 -1.76001 -3.21589 0
M  V30 9798 H 911.496 -0.0742225 -5.02945 0
M  V30 9799 H 911.196 -1.72949 -5.61571 0
M  V30 9800 H 912.72 -0.898922 -6.03947 0
M  V30 9801 H 914.134 -2.89207 -4.95007 0
M  V30 9802 H 912.531 -3.65916 -4.75631 0
M  V30 9803 H 913.601 -3.50456 -3.35125 0
M  V30 9804 N 914.944 1.19125 -1.03184 0
M  V30 9805 C 915.907 2.20662 -0.619766 0
M  V30 9806 C 916.907 1.57621 0.318179 0
M  V30 9807 O 918.097 1.73885 0.104783 0
M  V30 9808 C 915.229 3.40774 0.0926696 0
M  V30 9809 H 916.422 2.58633 -1.5182 0
M  V30 9810 H 913.975 1.32855 -0.823364 0
M  V30 9811 H 914.71 3.08324 1.00531 0
M  V30 9812 H 914.495 3.87766 -0.581344 0
M  V30 9813 H 915.985 4.15977 0.367792 0
M  V30 9814 N 916.422 0.810101 1.35185 0
M  V30 9815 C 917.652 0.404109 2.02609 0
M  V30 9816 C 918.06 -0.990748 1.61186 0
M  V30 9817 O 917.403 -1.65038 0.80674 0
M  V30 9818 C 917.465 0.412047 3.57131 0
M  V30 9819 C 917.129 1.75802 4.21832 0
M  V30 9820 C 918.126 2.71687 4.43263 0
M  V30 9821 C 915.811 2.04299 4.58876 0
M  V30 9822 C 917.805 3.9425 5.00845 0
M  V30 9823 C 915.492 3.27125 5.16171 0
M  V30 9824 C 916.49 4.21918 5.37098 0
M  V30 9825 O 916.178 5.42576 5.93184 0
M  V30 9826 H 915.91 0.161914 0.656323 0
M  V30 9827 H 918.464 1.09605 1.73712 0
M  V30 9828 H 916.694 -0.336509 3.85233 0
M  V30 9829 H 918.383 0.0278817 4.0589 0
M  V30 9830 H 919.149 2.50964 4.15021 0
M  V30 9831 H 915.028 1.31324 4.41899 0
M  V30 9832 H 918.572 4.68251 5.17094 0
M  V30 9833 H 914.469 3.47718 5.43841 0
M  V30 9834 H 915.237 5.43921 6.11631 0
M  V30 9835 N 917.9 -1.47166 0.563914 0
M  V30 9836 C 919.177 -1.95586 -0.0236172 0
M  V30 9837 C 919.557 -1.50655 -1.47872 0
M  V30 9838 O 918.905 -0.748479 -2.15894 0
M  V30 9839 C 919.115 -3.48762 0.128841 0
M  V30 9840 C 920.463 -4.24598 -0.0130544 0
M  V30 9841 O 921.487 -3.56155 0.0567242 0
M  V30 9842 O 920.346 -5.46253 -0.164332 0
M  V30 9843 H 917.44 -0.824793 -0.0603789 0
M  V30 9844 H 919.986 -1.57536 0.63091 0
M  V30 9845 H 918.758 -3.74291 1.14113 0
M  V30 9846 H 918.381 -3.93594 -0.56299 0
M  V30 9847 N 919.378 -0.300708 -1.54705 0
M  V30 9848 C 920.341 0.562648 -2.22187 0
M  V30 9849 C 921.341 1.06152 -1.20782 0
M  V30 9850 O 922.531 0.957596 -1.45519 0
M  V30 9851 C 919.663 1.77899 -2.908 0
M  V30 9852 H 920.856 -0.0269361 -2.99888 0
M  V30 9853 H 918.409 -0.0515412 -1.56215 0
M  V30 9854 H 919.144 2.40841 -2.17177 0
M  V30 9855 H 918.929 1.42892 -3.65136 0
M  V30 9856 H 920.419 2.39236 -3.42281 0
M  V30 9857 N 920.856 1.57574 -0.0284266 0
M  V30 9858 C 922.086 1.95787 0.659617 0
M  V30 9859 C 922.494 0.903475 1.66235 0
M  V30 9860 O 921.837 -0.12329 1.83286 0
M  V30 9861 C 921.899 3.30139 1.42298 0
M  V30 9862 C 921.563 4.53322 0.578658 0
M  V30 9863 C 922.56 5.19696 -0.145751 0
M  V30 9864 C 920.245 4.9964 0.516264 0
M  V30 9865 C 922.239 6.30708 -0.921235 0
M  V30 9866 C 919.926 6.10534 -0.262925 0
M  V30 9867 C 920.924 6.75927 -0.980382 0
M  V30 9868 O 920.612 7.84692 -1.7468 0
M  V30 9869 H 920.344 0.649681 0.186792 0
M  V30 9870 H 922.898 2.05227 -0.0842687 0
M  V30 9871 H 921.128 3.17188 2.21199 0
M  V30 9872 H 922.817 3.53259 1.99906 0
M  V30 9873 H 923.583 4.84882 -0.106876 0
M  V30 9874 H 919.462 4.48547 1.06427 0
M  V30 9875 H 923.006 6.81682 -1.48176 0
M  V30 9876 H 918.903 6.44786 -0.303519 0
M  V30 9877 H 919.671 8.01355 -1.6665 0
M  V30 9878 N 922.334 -0.244713 1.55689 0
M  V30 9879 C 923.564 -0.988508 1.81417 0
M  V30 9880 C 923.972 -1.79362 0.602143 0
M  V30 9881 O 923.315 -1.78386 -0.438639 0
M  V30 9882 C 923.377 -1.97287 3.0053 0
M  V30 9883 C 923.041 -1.35448 4.36466 0
M  V30 9884 C 924.038 -0.755874 5.14376 0
M  V30 9885 C 921.723 -1.37319 4.83165 0
M  V30 9886 C 923.717 -0.184218 6.37134 0
M  V30 9887 C 921.404 -0.797681 6.05871 0
M  V30 9888 C 922.402 -0.204224 6.82695 0
M  V30 9889 O 922.09 0.362392 8.03083 0
M  V30 9890 H 921.822 -0.296412 0.607549 0
M  V30 9891 H 924.376 -0.272185 2.03589 0
M  V30 9892 H 922.606 -2.72756 2.74119 0
M  V30 9893 H 924.295 -2.58028 3.13331 0
M  V30 9894 H 925.061 -0.733912 4.79415 0
M  V30 9895 H 920.94 -1.8245 4.23359 0
M  V30 9896 H 924.484 0.279624 6.97039 0
M  V30 9897 H 920.381 -0.816978 6.40309 0
M  V30 9898 H 921.149 0.254467 8.18104 0
M  V30 9899 N 923.813 -1.49104 -0.510467 0
M  V30 9900 C 925.229 -1.35657 -0.840797 0
M  V30 9901 C 925.429 -0.382425 -1.97838 0
M  V30 9902 O 924.485 0.189331 -2.51789 0
M  V30 9903 C 925.798 -2.76155 -1.18992 0
M  V30 9904 C 927.346 -2.84786 -1.29868 0
M  V30 9905 C 927.821 -4.2603 -1.68115 0
M  V30 9906 N 929.312 -4.28796 -1.75181 0
M  V30 9907 C 930.047 -5.35041 -2.062 0
M  V30 9908 N 929.543 -6.51543 -2.35508 0
M  V30 9909 N 931.336 -5.2245 -2.07371 0
M  V30 9910 H 923.487 -2.11042 0.23982 0
M  V30 9911 H 925.75 -0.946946 0.0446824 0
M  V30 9912 H 925.456 -3.49092 -0.427484 0
M  V30 9913 H 925.33 -3.10922 -2.13558 0
M  V30 9914 H 927.717 -2.12092 -2.05186 0
M  V30 9915 H 927.798 -2.53613 -0.333758 0
M  V30 9916 H 927.442 -4.99247 -0.933512 0
M  V30 9917 H 927.372 -4.5466 -2.65691 0
M  V30 9918 H 929.863 -3.44771 -1.5473 0
M  V30 9919 H 930.176 -7.28342 -2.58337 0
M  V30 9920 H 928.521 -6.54785 -2.32985 0
M  V30 9921 H 931.712 -4.30444 -1.83945 0
M  V30 9922 H 931.885 -6.05347 -2.31212 0
M  V30 9923 N 925.291 0.760815 -1.38019 0
M  V30 9924 C 926.521 1.54776 -1.3685 0
M  V30 9925 C 926.929 1.89146 0.0453971 0
M  V30 9926 O 926.272 1.52746 1.0205 0
M  V30 9927 C 926.334 2.87923 -2.15269 0
M  V30 9928 C 925.998 2.76131 -3.64144 0
M  V30 9929 C 926.995 2.46417 -4.57794 0
M  V30 9930 C 924.68 2.9381 -4.07408 0
M  V30 9931 C 926.674 2.34525 -5.92686 0
M  V30 9932 C 924.361 2.81539 -5.42383 0
M  V30 9933 C 925.359 2.51938 -6.34836 0
M  V30 9934 O 925.047 2.39713 -7.67329 0
M  V30 9935 H 924.779 0.485776 -0.470104 0
M  V30 9936 H 927.333 0.949939 -1.82113 0
M  V30 9937 H 925.563 3.49867 -1.64712 0
M  V30 9938 H 927.252 3.49389 -2.06596 0
M  V30 9939 H 928.018 2.32433 -4.25676 0
M  V30 9940 H 923.897 3.15849 -3.35799 0
M  V30 9941 H 927.441 2.11342 -6.64816 0
M  V30 9942 H 923.338 2.95093 -5.741 0
M  V30 9943 H 924.106 2.5498 -7.77771 0
M  V30 9944 N 926.769 1.22769 0.988202 0
M  V30 9945 C 928.016 1.05509 1.72841 0
M  V30 9946 C 928.344 -0.409145 1.90148 0
M  V30 9947 O 927.599 -1.3195 1.44526 0
M  V30 9948 C 927.898 1.71679 3.13466 0
M  V30 9949 C 927.564 3.21584 3.16061 0
M  V30 9950 C 926.226 3.62486 3.16476 0
M  V30 9951 C 928.578 4.17511 3.11984 0
M  V30 9952 C 925.906 4.97789 3.10521 0
M  V30 9953 C 928.258 5.52796 3.0757 0
M  V30 9954 C 926.922 5.93072 3.06304 0
M  V30 9955 H 926.192 0.386085 0.632471 0
M  V30 9956 H 928.839 1.52596 1.157 0
M  V30 9957 H 927.144 1.1693 3.73945 0
M  V30 9958 H 928.841 1.55809 3.69492 0
M  V30 9959 H 925.431 2.89019 3.1649 0
M  V30 9960 H 929.615 3.86926 3.10809 0
M  V30 9961 H 924.871 5.28218 3.07888 0
M  V30 9962 H 929.045 6.26848 3.03372 0
M  V30 9963 H 926.672 6.97879 3.01444 0
M  V30 9964 N 928.247 -1.18576 1.03814 0
M  V30 9965 C 929.18 -2.20929 0.571463 0
M  V30 9966 C 930.158 -1.57788 -0.392636 0
M  V30 9967 O 931.342 -1.85974 -0.30754 0
M  V30 9968 C 928.469 -3.38295 -0.165504 0
M  V30 9969 C 927.515 -4.19828 0.751457 0
M  V30 9970 S 928.348 -4.86725 2.23291 0
M  V30 9971 C 929.504 -6.07494 1.50672 0
M  V30 9972 H 929.737 -2.60173 1.43866 0
M  V30 9973 H 927.27 -1.2897 0.84888 0
M  V30 9974 H 929.228 -4.06317 -0.584545 0
M  V30 9975 H 927.889 -2.97468 -1.00855 0
M  V30 9976 H 927.082 -5.03671 0.181986 0
M  V30 9977 H 926.684 -3.57172 1.10923 0
M  V30 9978 H 928.976 -6.72779 0.798377 0
M  V30 9979 H 929.919 -6.68942 2.3221 0
M  V30 9980 H 930.327 -5.55569 1.00016 0
M  V30 9981 N 929.725 -0.817259 -1.34754 0
M  V30 9982 C 930.973 -0.401852 -1.98065 0
M  V30 9983 C 931.294 1.03718 -1.65129 0
M  V30 9984 O 930.564 1.71921 -0.939141 0
M  V30 9985 H 929.144 -0.145603 -0.732672 0
M  V30 9986 H 931.806 -1.04545 -1.64488 0
M  V30 9987 H 930.902 -0.516241 -3.07801 0
M  V30 9988 N 931.203 1.46865 -0.571711 0
M  V30 9989 C 932.48 1.95596 0.0132445 0
M  V30 9990 C 932.86 1.51438 1.47071 0
M  V30 9991 O 932.208 0.759917 2.15494 0
M  V30 9992 C 932.418 3.48689 -0.147335 0
M  V30 9993 C 933.766 4.24599 -0.00946329 0
M  V30 9994 O 934.79 3.5612 -0.0756112 0
M  V30 9995 O 933.649 5.46332 0.135361 0
M  V30 9996 H 930.743 0.825102 0.0560039 0
M  V30 9997 H 933.289 1.57199 -0.639256 0
M  V30 9998 H 932.061 3.73681 -1.16096 0
M  V30 9999 H 931.684 3.93887 0.542109 0
M  V30 10000 N 932.681 0.308908 1.54543 0
M  V30 10001 C 933.628 -0.563659 2.23811 0
M  V30 10002 C 934.598 -1.12332 1.22355 0
M  V30 10003 O 935.783 -1.16638 1.50997 0
M  V30 10004 C 932.923 -1.72585 2.98845 0
M  V30 10005 C 932.036 -1.19682 4.1509 0
M  V30 10006 C 931.171 -2.32351 4.77688 0
M  V30 10007 C 930.21 -1.76623 5.86064 0
M  V30 10008 N 929.347 -2.82896 6.42584 0
M  V30 10009 H 934.187 0.0336288 2.97981 0
M  V30 10010 H 931.724 0.0283666 1.47073 0
M  V30 10011 H 933.682 -2.40951 3.40586 0
M  V30 10012 H 932.312 -2.29464 2.27037 0
M  V30 10013 H 931.364 -0.405173 3.78236 0
M  V30 10014 H 932.676 -0.748923 4.93146 0
M  V30 10015 H 931.83 -3.0865 5.22322 0
M  V30 10016 H 930.569 -2.80472 3.98982 0
M  V30 10017 H 929.574 -0.988171 5.40847 0
M  V30 10018 H 930.799 -1.29398 6.66658 0
M  V30 10019 H 928.745 -3.30336 5.66758 0
M  V30 10020 H 928.662 -2.42626 7.16009 0
M  V30 10021 H 929.93 -3.59068 6.91875 0
M  V30 10022 N 934.159 -1.57557 0.0367827 0
M  V30 10023 C 935.57 -1.79853 -0.500971 0
M  V30 10024 C 935.921 -0.947749 -1.71791 0
M  V30 10025 O 935.046 -0.160287 -2.15806 0
M  V30 10026 C 935.641 -3.26193 -0.915626 0
M  V30 10027 C 934.2 -3.49457 -1.39845 0
M  V30 10028 C 933.347 -2.74864 -0.366784 0
M  V30 10029 H 936.298 -1.56509 0.262768 0
M  V30 10030 H 936.319 -3.36324 -1.7795 0
M  V30 10031 H 935.831 -3.88089 -0.0297227 0
M  V30 10032 H 933.932 -2.92823 -2.30402 0
M  V30 10033 H 934.045 -4.58172 -1.40054 0
M  V30 10034 H 932.409 -2.4057 -0.836554 0
M  V30 10035 H 933.192 -3.39479 0.510785 0
M  V30 10036 N 935.637 0.236453 -1.55816 0
M  V30 10037 C 936.865 0.980295 -1.82203 0
M  V30 10038 C 937.28 1.7854 -0.613926 0
M  V30 10039 O 936.637 1.77661 0.417491 0
M  V30 10040 C 936.688 1.90982 -3.06933 0
M  V30 10041 O 936.409 1.13728 -4.23081 0
M  V30 10042 C 937.91 2.76879 -3.46198 0
M  V30 10043 H 935.13 0.28799 -0.606055 0
M  V30 10044 H 937.674 0.256182 -2.02889 0
M  V30 10045 H 935.829 2.58808 -2.88266 0
M  V30 10046 H 936.243 1.76694 -4.93842 0
M  V30 10047 H 937.717 3.37831 -4.36548 0
M  V30 10048 H 938.194 3.48522 -2.67262 0
M  V30 10049 H 938.8 2.1449 -3.67252 0
M  V30 10050 N 937.115 1.49373 0.502552 0
M  V30 10051 C 938.045 1.68839 1.61294 0
M  V30 10052 C 939.026 0.537096 1.61398 0
M  V30 10053 O 940.211 0.772764 1.78163 0
M  V30 10054 C 937.341 1.75347 2.99784 0
M  V30 10055 C 936.295 2.90251 3.14545 0
M  V30 10056 C 935.621 2.8187 4.54371 0
M  V30 10057 C 936.921 4.31207 2.94717 0
M  V30 10058 H 938.615 2.61803 1.45257 0
M  V30 10059 H 936.161 1.25987 0.697371 0
M  V30 10060 H 938.114 1.87552 3.77362 0
M  V30 10061 H 936.838 0.789814 3.16906 0
M  V30 10062 H 935.497 2.77646 2.39392 0
M  V30 10063 H 935.145 1.83416 4.68367 0
M  V30 10064 H 934.845 3.5899 4.65188 0
M  V30 10065 H 936.369 2.96081 5.34012 0
M  V30 10066 H 937.783 4.44501 3.62065 0
M  V30 10067 H 936.18 5.09536 3.17007 0
M  V30 10068 H 937.25 4.45759 1.90857 0
M  V30 10069 N 938.594 -0.753485 1.38421 0
M  V30 10070 C 939.527 -1.87525 1.30037 0
M  V30 10071 C 940.505 -1.6163 0.177379 0
M  V30 10072 O 941.689 -1.85132 0.354716 0
M  V30 10073 C 938.816 -3.23138 1.01485 0
M  V30 10074 C 937.862 -3.67921 2.15723 0
M  V30 10075 S 938.695 -3.79447 3.77863 0
M  V30 10076 C 939.851 -5.17879 3.51499 0
M  V30 10077 H 940.084 -1.94351 2.24978 0
M  V30 10078 H 937.617 -0.916475 1.24258 0
M  V30 10079 H 939.575 -4.01455 0.856959 0
M  V30 10080 H 938.236 -3.13991 0.0826199 0
M  V30 10081 H 937.429 -4.66287 1.91292 0
M  V30 10082 H 937.031 -2.96758 2.2762 0
M  V30 10083 H 939.323 -6.03636 3.0762 0
M  V30 10084 H 940.266 -5.47331 4.49259 0
M  V30 10085 H 940.674 -4.86681 2.8601 0
M  V30 10086 N 940.072 -1.23292 -0.981677 0
M  V30 10087 C 941.297 -1.09176 -1.76339 0
M  V30 10088 C 941.722 0.352726 -1.84763 0
M  V30 10089 O 941.08 1.25509 -1.30832 0
M  V30 10090 C 941.128 -1.72046 -3.16911 0
M  V30 10091 O 940.232 -0.98174 -4.00544 0
M  V30 10092 H 939.573 -0.382755 -0.542581 0
M  V30 10093 H 942.103 -1.63319 -1.23239 0
M  V30 10094 H 942.113 -1.77232 -3.67495 0
M  V30 10095 H 940.788 -2.77154 -3.10095 0
M  V30 10096 H 939.365 -1.00672 -3.59054 0
M  V30 10097 N 941.55 1.18024 -1.04442 0
M  V30 10098 C 942.513 2.19992 -0.643136 0
M  V30 10099 C 943.513 1.57949 0.301444 0
M  V30 10100 O 944.703 1.73986 0.0863341 0
M  V30 10101 C 941.835 3.40853 0.0565208 0
M  V30 10102 H 943.028 2.57008 -1.54554 0
M  V30 10103 H 940.581 1.31974 -0.837408 0
M  V30 10104 H 941.316 3.09373 0.972553 0
M  V30 10105 H 941.101 3.87128 -0.622439 0
M  V30 10106 H 942.591 4.16344 0.323652 0
M  V30 10107 N 943.028 0.824394 1.34319 0
M  V30 10108 C 944.256 0.426194 2.02463 0
M  V30 10109 C 944.671 -0.968298 1.62078 0
M  V30 10110 O 944.028 -1.62689 0.82696 0
M  V30 10111 C 944.079 0.520465 3.57734 0
M  V30 10112 O 943.8 1.86 3.96656 0
M  V30 10113 C 945.301 0.117353 4.43145 0
M  V30 10114 H 942.521 0.170864 0.648881 0
M  V30 10115 H 945.065 1.11296 1.71562 0
M  V30 10116 H 943.22 -0.118233 3.8722 0
M  V30 10117 H 943.634 1.83528 4.91343 0
M  V30 10118 H 945.108 0.234395 5.51502 0
M  V30 10119 H 945.585 -0.939271 4.29039 0
M  V30 10120 H 946.191 0.729908 4.1899 0
M  V30 10121 N 944.506 -1.46559 0.579492 0
M  V30 10122 C 945.416 -2.34066 -0.15816 0
M  V30 10123 C 946.432 -1.49556 -0.88932 0
M  V30 10124 O 947.608 -1.82434 -0.853226 0
M  V30 10125 C 944.673 -3.26683 -1.161 0
M  V30 10126 C 943.734 -4.27092 -0.434855 0
M  V30 10127 C 942.967 -5.15283 -1.38992 0
M  V30 10128 O 943.19 -5.06345 -2.62623 0
M  V30 10129 O 942.124 -5.95099 -0.902253 0
M  V30 10130 H 945.95 -2.98488 0.560234 0
M  V30 10131 H 943.535 -1.45482 0.339918 0
M  V30 10132 H 945.417 -3.8383 -1.73932 0
M  V30 10133 H 944.092 -2.64862 -1.86091 0
M  V30 10134 H 942.999 -3.73641 0.185224 0
M  V30 10135 H 944.332 -4.9169 0.224031 0
M  V30 10136 N 945.984 -0.3171 -1.54377 0
M  V30 10137 C 947.23 0.280631 -2.01455 0
M  V30 10138 C 947.585 1.50282 -1.20138 0
M  V30 10139 O 946.878 1.89634 -0.273785 0
M  V30 10140 C 947.072 0.672917 -3.51008 0
M  V30 10141 C 946.901 -0.509709 -4.46802 0
M  V30 10142 C 945.671 -1.00679 -4.95168 0
M  V30 10143 C 947.869 -1.35984 -4.95997 0
M  V30 10144 N 945.851 -2.1545 -5.74852 0
M  V30 10145 C 947.222 -2.35481 -5.73541 0
M  V30 10146 C 949.277 -1.38836 -4.78152 0
M  V30 10147 C 947.98 -3.37625 -6.35139 0
M  V30 10148 C 950.006 -2.39847 -5.40581 0
M  V30 10149 C 949.368 -3.38071 -6.1797 0
M  V30 10150 H 945.467 0.0667107 -0.779149 0
M  V30 10151 H 948.051 -0.450672 -1.89412 0
M  V30 10152 H 946.222 1.37336 -3.63309 0
M  V30 10153 H 947.954 1.25156 -3.84861 0
M  V30 10154 H 944.709 -0.579125 -4.70046 0
M  V30 10155 H 945.133 -2.73324 -6.19373 0
M  V30 10156 H 949.775 -0.642643 -4.17887 0
M  V30 10157 H 947.493 -4.13106 -6.94528 0
M  V30 10158 H 951.079 -2.42847 -5.28693 0
M  V30 10159 H 949.959 -4.14953 -6.6542 0
M  V30 10160 N 947.462 1.57535 -0.0451378 0
M  V30 10161 C 948.71 1.92071 0.628743 0
M  V30 10162 C 949.031 0.923635 1.71738 0
M  V30 10163 O 948.301 -0.0324376 1.95873 0
M  V30 10164 H 946.881 0.708995 0.235233 0
M  V30 10165 H 949.543 1.9466 -0.0967177 0
M  V30 10166 H 948.639 2.9314 1.07123 0
M  V30 10167 N 948.94 -0.228186 1.55939 0
M  V30 10168 C 950.356 -0.577583 1.48782 0
M  V30 10169 C 950.556 -1.87461 0.738972 0
M  V30 10170 O 949.612 -2.50988 0.275929 0
M  V30 10171 C 950.925 -0.662961 2.93301 0
M  V30 10172 C 952.473 -0.754035 3.03782 0
M  V30 10173 C 952.948 -0.870815 4.49645 0
M  V30 10174 N 954.439 -0.935208 4.53661 0
M  V30 10175 C 955.174 -1.04516 5.63794 0
M  V30 10176 N 954.67 -1.11948 6.83696 0
M  V30 10177 N 956.463 -1.07978 5.51631 0
M  V30 10178 H 948.614 0.623018 2.03057 0
M  V30 10179 H 950.877 0.217692 0.922667 0
M  V30 10180 H 950.583 0.220375 3.51009 0
M  V30 10181 H 950.457 -1.52876 3.44831 0
M  V30 10182 H 952.844 -1.62782 2.46143 0
M  V30 10183 H 952.925 0.137301 2.55431 0
M  V30 10184 H 952.569 -0.0015186 5.079 0
M  V30 10185 H 952.499 -1.77747 4.95695 0
M  V30 10186 H 954.99 -0.88836 3.6731 0
M  V30 10187 H 955.303 -1.20297 7.6338 0
M  V30 10188 H 953.648 -1.08873 6.8642 0
M  V30 10189 H 956.839 -1.01833 4.56889 0
M  V30 10190 H 957.012 -1.16202 6.37496 0
M  V30 10191 N 950.418 -1.49637 -0.494624 0
M  V30 10192 C 951.834 -1.36541 -0.826361 0
M  V30 10193 C 952.034 -0.403386 -1.97421 0
M  V30 10194 O 951.09 0.162614 -2.51976 0
M  V30 10195 C 952.403 -2.77401 -1.16057 0
M  V30 10196 C 953.951 -2.86148 -1.26841 0
M  V30 10197 C 954.426 -4.27789 -1.63587 0
M  V30 10198 N 955.917 -4.3063 -1.70624 0
M  V30 10199 C 956.652 -5.37198 -2.00514 0
M  V30 10200 N 956.148 -6.54004 -2.28584 0
M  V30 10201 N 957.941 -5.2462 -2.01818 0
M  V30 10202 H 950.092 -2.10776 0.26219 0
M  V30 10203 H 952.355 -0.946419 0.0547235 0
M  V30 10204 H 952.061 -3.49526 -0.390434 0
M  V30 10205 H 951.935 -3.1317 -2.10249 0
M  V30 10206 H 954.322 -2.14256 -2.02925 0
M  V30 10207 H 954.403 -2.53953 -0.30684 0
M  V30 10208 H 954.047 -5.00209 -0.880507 0
M  V30 10209 H 953.977 -4.57453 -2.60854 0
M  V30 10210 H 956.468 -3.46393 -1.51065 0
M  V30 10211 H 956.781 -7.31041 -2.50598 0
M  V30 10212 H 955.126 -6.57219 -2.26027 0
M  V30 10213 H 958.317 -4.32371 -1.79369 0
M  V30 10214 H 958.49 -6.07765 -2.24778 0
M  V30 10215 N 951.896 0.746133 -1.38819 0
M  V30 10216 C 953.126 1.53316 -1.38484 0
M  V30 10217 C 953.534 1.89183 0.0253332 0
M  V30 10218 O 952.877 1.5382 1.00424 0
M  V30 10219 C 952.939 2.85623 -2.18311 0
M  V30 10220 C 952.603 2.72253 -3.67052 0
M  V30 10221 C 953.6 2.41547 -4.60381 0
M  V30 10222 C 951.285 2.89472 -4.10501 0
M  V30 10223 C 953.279 2.28226 -5.9514 0
M  V30 10224 C 950.966 2.7577 -5.45338 0
M  V30 10225 C 951.964 2.45191 -6.37472 0
M  V30 10226 O 951.652 2.31561 -7.69828 0
M  V30 10227 H 951.384 0.480763 -0.475229 0
M  V30 10228 H 953.938 0.93057 -1.83111 0
M  V30 10229 H 952.168 3.481 -1.68414 0
M  V30 10230 H 953.857 3.47178 -2.10291 0
M  V30 10231 H 954.623 2.27905 -4.28117 0
M  V30 10232 H 950.502 3.12269 -3.3913 0
M  V30 10233 H 954.046 2.04279 -6.6702 0
M  V30 10234 H 949.943 2.88987 -5.77197 0
M  V30 10235 H 950.711 2.46716 -7.80432 0
M  V30 10236 O 953.413 1.34966 0.886936 0
M  V30 10237 H 954.104 1.19586 1.52377 0
M  V30 END ATOM
M  V30 BEGIN BOND
M  V30 END BOND
M  V30 END CTAB
M  END
$$$$
