drugbank_target|Q60053 Neopullulanase 1 (DB01841; DB02120; DB02379)
 OpenBabel12092119533D

  0  0  0     0  0            999 V3000
M  V30 BEGIN CTAB
M  V30 COUNTS 10173 10337 0 0 0
M  V30 BEGIN ATOM
M  V30 1 H -0.908 1.98254 -0.117106 0
M  V30 2 N 0 1.576 0 0
M  V30 3 C 0.933 2.03868 1.02534 0
M  V30 4 C 1.911 0.928543 1.3348 0
M  V30 5 O 3.095 1.19667 1.45644 0
M  V30 6 C 0.222 2.43627 2.35294 0
M  V30 7 C -0.732 3.65373 2.2001 0
M  V30 8 S 0.101 5.13292 1.52614 0
M  V30 9 C 1.257 5.56322 2.86805 0
M  V30 10 H 1.49 2.90518 0.631377 0
M  V30 11 H -0.977 1.52953 0.210867 0
M  V30 12 H 0.981 2.67203 3.11629 0
M  V30 13 H -0.358 1.57376 2.7183 0
M  V30 14 H -1.165 3.90944 3.18086 0
M  V30 15 H -1.563 3.418 1.51819 0
M  V30 16 H 0.729 5.58782 3.83104 0
M  V30 17 H 1.672 6.56266 2.65933 0
M  V30 18 H 2.08 4.83886 2.90714 0
M  V30 19 N 1.4781 -0.272755 1.55222 0
M  V30 20 C 2.7271 -1.00211 1.75045 0
M  V30 21 C 3.0401 -1.87441 0.559046 0
M  V30 22 O 4.2461 -2.63856 0.639698 0
M  V30 23 C 2.7021 -1.83165 3.09804 0
M  V30 24 C 2.3101 -1.008 4.36513 0
M  V30 25 C 4.0541 -2.55529 3.38977 0
M  V30 26 C 1.9611 -1.83194 5.62311 0
M  V30 27 H 0.8911 -0.377878 0.652476 0
M  V30 28 H 3.5421 -0.257776 1.8168 0
M  V30 29 H 1.9241 -2.61694 2.97207 0
M  V30 30 H 3.0981 -0.266855 4.60027 0
M  V30 31 H 1.4131 -0.398897 4.14485 0
M  V30 32 H 4.0101 -3.17578 4.30172 0
M  V30 33 H 4.3531 -3.25825 2.59121 0
M  V30 34 H 4.8861 -1.84029 3.52673 0
M  V30 35 H 1.6251 -1.17318 6.44916 0
M  V30 36 H 1.1451 -2.54905 5.4294 0
M  V30 37 H 2.8241 -2.40552 6.00619 0
M  V30 38 N 2.9562 -1.48159 -0.537278 0
M  V30 39 C 3.9032 -1.62138 -1.64256 0
M  V30 40 C 4.8732 -0.463668 -1.59497 0
M  V30 41 O 6.0582 -0.686241 -1.78032 0
M  V30 42 C 3.1982 -1.66028 -3.02537 0
M  V30 43 C 2.3112 -2.92855 -3.17585 0
M  V30 44 C 1.4462 -2.87952 -4.46382 0
M  V30 45 C 0.4852 -4.09516 -4.54932 0
M  V30 46 N -0.3778 -4.02733 -5.75109 0
M  V30 47 H 4.4622 -2.56529 -1.51647 0
M  V30 48 H 1.9992 -1.27224 -0.738414 0
M  V30 49 H 3.9572 -1.66265 -3.82638 0
M  V30 50 H 2.5872 -0.751331 -3.13934 0
M  V30 51 H 1.6392 -3.02395 -2.30784 0
M  V30 52 H 2.9512 -3.82822 -3.19764 0
M  V30 53 H 2.1052 -2.8655 -5.34765 0
M  V30 54 H 0.8442 -1.95702 -4.46712 0
M  V30 55 H -0.1508 -4.11201 -3.64957 0
M  V30 56 H 1.0742 -5.02917 -4.56346 0
M  V30 57 H -0.9798 -3.13299 -5.76351 0
M  V30 58 H -1.0628 -4.86397 -5.78752 0
M  V30 59 H 0.2052 -4.05379 -6.65799 0
M  V30 60 N 4.4343 0.785586 -1.36625 0
M  V30 61 C 5.3643 1.91259 -1.33949 0
M  V30 62 C 6.3453 1.68795 -0.210325 0
M  V30 63 O 7.5303 1.89854 -0.408561 0
M  V30 64 C 4.6603 3.28339 -1.13186 0
M  V30 65 C 3.6143 3.65335 -2.22967 0
M  V30 66 C 2.9403 5.00806 -1.87342 0
M  V30 67 C 4.2403 3.7352 -3.65075 0
M  V30 68 H 5.9343 1.93755 -2.28253 0
M  V30 69 H 3.4803 0.930788 -1.09874 0
M  V30 70 H 5.4333 4.06804 -1.09948 0
M  V30 71 H 4.1573 3.2624 -0.153332 0
M  V30 72 H 2.8163 2.89169 -2.25337 0
M  V30 73 H 2.4643 4.95233 -0.880545 0
M  V30 74 H 2.1643 5.26529 -2.60846 0
M  V30 75 H 3.6883 5.81687 -1.85667 0
M  V30 76 H 5.1023 4.42168 -3.64911 0
M  V30 77 H 3.4993 4.10731 -4.37516 0
M  V30 78 H 4.5693 2.74527 -3.99703 0
M  V30 79 N 5.9124 1.20967 1.01018 0
M  V30 80 C 6.8424 0.988272 2.11555 0
M  V30 81 C 7.8234 -0.0849778 1.69888 0
M  V30 82 O 9.0084 0.0738202 1.9406 0
M  V30 83 C 6.1384 0.546528 3.42973 0
M  V30 84 C 5.0924 1.56375 3.9841 0
M  V30 85 C 4.4184 0.97842 5.25672 0
M  V30 86 C 5.7184 2.94922 4.31066 0
M  V30 87 H 7.4124 1.91276 2.30334 0
M  V30 88 H 4.9584 0.921073 1.1069 0
M  V30 89 H 6.9114 0.378839 4.19694 0
M  V30 90 H 5.6354 -0.413598 3.23971 0
M  V30 91 H 4.2944 1.71891 3.23804 0
M  V30 92 H 3.9424 0.0101688 5.02999 0
M  V30 93 H 3.6424 1.65784 5.63728 0
M  V30 94 H 5.1664 0.821939 6.05043 0
M  V30 95 H 6.5804 2.8288 4.9865 0
M  V30 96 H 4.9774 3.5983 4.80253 0
M  V30 97 H 6.0474 3.4616 3.39561 0
M  V30 98 N 7.3905 -1.2043 1.01659 0
M  V30 99 C 8.3375 -2.23215 0.586822 0
M  V30 100 C 9.3075 -1.61382 -0.393085 0
M  V30 101 O 10.4925 -1.88544 -0.292525 0
M  V30 102 C 7.6325 -3.45032 -0.0687464 0
M  V30 103 C 6.7455 -4.21296 0.955724 0
M  V30 104 C 5.8805 -5.30507 0.271208 0
M  V30 105 C 4.9195 -5.98515 1.28244 0
M  V30 106 N 4.0565 -6.99316 0.62459 0
M  V30 107 H 8.8965 -2.59336 1.46796 0
M  V30 108 H 6.4335 -1.27431 0.734836 0
M  V30 109 H 8.3915 -4.1459 -0.465965 0
M  V30 110 H 7.0215 -3.09604 -0.913529 0
M  V30 111 H 6.0735 -3.50803 1.4711 0
M  V30 112 H 7.3855 -4.6803 1.72479 0
M  V30 113 H 6.5395 -6.06428 -0.18151 0
M  V30 114 H 5.2785 -4.8481 -0.530163 0
M  V30 115 H 4.2835 -5.21355 1.74554 0
M  V30 116 H 5.5085 -6.46298 2.08509 0
M  V30 117 H 3.4545 -6.55812 -0.156914 0
M  V30 118 H 3.3715 -7.44178 1.33172 0
M  V30 119 H 4.6395 -7.79255 0.195462 0
M  V30 120 N 8.8686 -0.792821 -1.36206 0
M  V30 121 C 10.2796 -0.429513 -1.81692 0
M  V30 122 C 10.6306 1.04695 -1.65932 0
M  V30 123 O 9.7556 1.81256 -1.18218 0
M  V30 124 C 10.3506 -0.772831 -3.29868 0
M  V30 125 C 8.9096 -0.462307 -3.7355 0
M  V30 126 C 8.0566 -1.00569 -2.5842 0
M  V30 127 H 11.0076 -0.985672 -1.24379 0
M  V30 128 H 11.0286 -0.0651928 -3.80444 0
M  V30 129 H 10.5406 -1.84747 -3.41307 0
M  V30 130 H 8.6416 0.604158 -3.67669 0
M  V30 131 H 8.7546 -0.985299 -4.68859 0
M  V30 132 H 7.1186 -0.428734 -2.51066 0
M  V30 133 H 7.9016 -2.08616 -2.72643 0
M  V30 134 N 10.3467 1.47872 -0.545128 0
M  V30 135 C 11.2797 2.2675 0.256885 0
M  V30 136 C 12.2577 1.33293 0.931228 0
M  V30 137 O 13.4417 1.62657 0.95262 0
M  V30 138 C 10.5687 3.09976 1.36501 0
M  V30 139 C 9.6147 4.1892 0.800496 0
M  V30 140 S 10.4477 5.34397 -0.343505 0
M  V30 141 C 11.6037 6.21186 0.766733 0
M  V30 142 H 11.8367 2.94425 -0.412479 0
M  V30 143 H 9.3697 1.50806 -0.331204 0
M  V30 144 H 11.3277 3.585 1.9997 0
M  V30 145 H 9.9887 2.41686 2.00616 0
M  V30 146 H 9.1817 4.76836 1.63227 0
M  V30 147 H 8.7837 3.73215 0.242217 0
M  V30 148 H 11.0757 6.56804 1.66178 0
M  V30 149 H 12.0187 7.07742 0.225204 0
M  V30 150 H 12.4267 5.54574 1.05396 0
M  V30 151 N 11.8248 0.280983 1.55075 0
M  V30 152 C 13.0498 -0.340154 2.04592 0
M  V30 153 C 13.4748 -1.48246 1.15779 0
M  V30 154 O 12.8328 -1.80614 0.15761 0
M  V30 155 C 12.8808 -0.793104 3.5177 0
M  V30 156 O 11.9848 -1.89981 3.66034 0
M  V30 157 H 11.3258 -0.0694289 0.66036 0
M  V30 158 H 13.8558 0.416993 2.00306 0
M  V30 159 H 13.8658 -1.08729 3.93245 0
M  V30 160 H 12.5408 0.0426163 4.15878 0
M  V30 161 H 11.1178 -1.60771 3.36463 0
M  V30 162 N 13.3029 -1.57598 0.00835791 0
M  V30 163 C 14.2329 -2.1198 -0.979113 0
M  V30 164 C 15.2139 -1.03091 -1.35301 0
M  V30 165 O 16.3989 -1.30818 -1.43528 0
M  V30 166 C 13.5289 -2.62995 -2.26828 0
M  V30 167 C 12.4829 -3.76485 -2.03576 0
M  V30 168 C 11.8089 -4.13846 -3.38579 0
M  V30 169 C 13.1089 -5.0342 -1.39161 0
M  V30 170 H 14.8029 -2.94738 -0.526281 0
M  V30 171 H 12.3489 -1.41783 -0.251704 0
M  V30 172 H 14.3019 -2.99669 -2.96271 0
M  V30 173 H 13.0259 -1.7737 -2.7424 0
M  V30 174 H 11.6849 -3.40217 -1.36557 0
M  V30 175 H 11.3329 -3.25232 -3.83709 0
M  V30 176 H 11.0329 -4.90312 -3.23834 0
M  V30 177 H 12.5569 -4.53086 -4.09323 0
M  V30 178 H 13.9709 -5.37812 -1.98573 0
M  V30 179 H 12.3679 -5.84746 -1.34878 0
M  V30 180 H 13.4379 -4.83548 -0.361868 0
M  V30 181 N 14.781 0.264519 -1.55364 0
M  V30 182 C 16.006 1.01726 -1.80739 0
M  V30 183 C 16.431 1.78836 -0.583044 0
M  V30 184 O 15.789 1.75167 0.467566 0
M  V30 185 C 15.837 1.94482 -3.03659 0
M  V30 186 O 14.941 3.03386 -2.7934 0
M  V30 187 H 14.282 0.290395 -0.597132 0
M  V30 188 H 16.812 0.290854 -2.02522 0
M  V30 189 H 16.822 2.36278 -3.32621 0
M  V30 190 H 15.497 1.37772 -3.92418 0
M  V30 191 H 14.074 2.65844 -2.61498 0
M  V30 192 N 16.2591 1.48442 0.529413 0
M  V30 193 C 17.5081 1.55742 1.28169 0
M  V30 194 C 17.8211 0.236511 1.94165 0
M  V30 195 O 19.0271 0.187761 2.7085 0
M  V30 196 C 17.4831 2.74667 2.32564 0
M  V30 197 C 17.0911 4.13402 1.72636 0
M  V30 198 C 18.8351 2.9128 3.08798 0
M  V30 199 C 16.7421 5.23587 2.74975 0
M  V30 200 H 15.6721 0.579796 0.48203 0
M  V30 201 H 18.3231 1.74776 0.559056 0
M  V30 202 H 16.7051 2.49067 3.07866 0
M  V30 203 H 17.8791 4.49022 1.03519 0
M  V30 204 H 16.1941 4.0191 1.08892 0
M  V30 205 H 18.7911 3.70767 3.85274 0
M  V30 206 H 19.1341 2.00757 3.64695 0
M  V30 207 H 19.6671 3.16782 2.40611 0
M  V30 208 H 16.4061 6.16076 2.23897 0
M  V30 209 H 15.9261 4.92454 3.42417 0
M  V30 210 H 17.6051 5.51724 3.37949 0
M  V30 211 N 17.7372 -0.778329 1.37039 0
M  V30 212 C 18.6672 -1.90546 1.34962 0
M  V30 213 C 19.6482 -1.68681 0.219274 0
M  V30 214 O 20.8332 -1.89634 0.418624 0
M  V30 215 C 17.9632 -3.27734 1.14925 0
M  V30 216 C 16.9172 -3.64147 2.24902 0
M  V30 217 C 16.2432 -4.99806 1.89996 0
M  V30 218 C 17.5432 -3.71579 3.67051 0
M  V30 219 H 19.2372 -1.92541 2.29277 0
M  V30 220 H 16.7832 -0.924948 1.10366 0
M  V30 221 H 18.7362 -4.06215 1.12104 0
M  V30 222 H 17.4602 -3.26154 0.170631 0
M  V30 223 H 16.1192 -2.8797 2.26868 0
M  V30 224 H 15.7672 -4.94759 0.906796 0
M  V30 225 H 15.4672 -5.25139 2.63634 0
M  V30 226 H 16.9912 -5.80694 1.88749 0
M  V30 227 H 18.4052 -4.40227 3.67251 0
M  V30 228 H 16.8022 -4.08405 4.39688 0
M  V30 229 H 17.8722 -2.72404 4.01154 0
M  V30 230 N 19.2153 -1.21501 -1.00376 0
M  V30 231 C 20.1453 -0.999478 -2.11028 0
M  V30 232 C 21.1263 0.0759671 -1.6993 0
M  V30 233 O 22.3113 -0.0841106 -1.94018 0
M  V30 234 C 19.4413 -0.564709 -3.42678 0
M  V30 235 C 18.3953 -1.58486 -3.97576 0
M  V30 236 C 17.7213 -1.00628 -5.25146 0
M  V30 237 C 19.0213 -2.97204 -4.29496 0
M  V30 238 H 20.7153 -1.92495 -2.29317 0
M  V30 239 H 18.2613 -0.92693 -1.102 0
M  V30 240 H 20.2143 -0.401091 -4.19487 0
M  V30 241 H 18.9383 0.396411 -3.24185 0
M  V30 242 H 17.5973 -1.73606 -3.22888 0
M  V30 243 H 17.2453 -0.0368439 -5.02987 0
M  V30 244 H 16.9453 -1.68771 -5.62841 0
M  V30 245 H 18.4693 -0.854015 -6.04598 0
M  V30 246 H 19.8833 -2.8552 -4.97143 0
M  V30 247 H 18.2803 -3.62372 -4.78338 0
M  V30 248 H 19.3503 -3.47956 -3.3772 0
M  V30 249 N 20.6934 1.19889 -1.02296 0
M  V30 250 C 21.9394 1.89701 -0.717033 0
M  V30 251 C 22.2724 1.7905 0.751989 0
M  V30 252 O 21.5474 1.17891 1.547 0
M  V30 253 C 21.8304 3.40858 -1.16136 0
M  V30 254 C 21.6834 3.60411 -2.69117 0
M  V30 255 C 23.0024 4.33876 -0.737549 0
M  V30 256 H 20.1214 0.688874 -0.261957 0
M  V30 257 H 22.7634 1.41154 -1.27183 0
M  V30 258 H 20.9134 3.82335 -0.689342 0
M  V30 259 H 22.5854 3.28145 -3.2422 0
M  V30 260 H 20.8284 3.03665 -3.0979 0
M  V30 261 H 21.4994 4.66396 -2.95261 0
M  V30 262 H 23.9754 4.00081 -1.14344 0
M  V30 263 H 22.8514 5.38242 -1.0764 0
M  V30 264 H 23.1124 4.40628 0.360436 0
M  V30 265 N 22.1715 0.800033 1.35784 0
M  V30 266 C 23.4185 0.377342 1.98953 0
M  V30 267 C 23.7465 -1.05378 1.6348 0
M  V30 268 O 23.0015 -1.74459 0.886707 0
M  V30 269 C 23.3005 0.500276 3.53881 0
M  V30 270 C 22.9665 1.89375 4.09204 0
M  V30 271 C 21.6285 2.27499 4.24025 0
M  V30 272 C 23.9805 2.8057 4.39238 0
M  V30 273 C 21.3085 3.562 4.66195 0
M  V30 274 C 23.6605 4.0871 4.82844 0
M  V30 275 C 22.3245 4.46843 4.95871 0
M  V30 276 H 21.5945 0.138079 0.728021 0
M  V30 277 H 24.2415 1.01955 1.62103 0
M  V30 278 H 22.5465 -0.225405 3.91151 0
M  V30 279 H 24.2435 0.154097 4.00704 0
M  V30 280 H 20.8335 1.58753 3.98115 0
M  V30 281 H 25.0175 2.52367 4.27346 0
M  V30 282 H 20.2735 3.85602 4.74469 0
M  V30 283 H 24.4475 4.79481 5.05046 0
M  V30 284 H 22.0745 5.46623 5.28306 0
M  V30 285 N 23.6496 -1.47581 0.552962 0
M  V30 286 C 24.8986 -2.01684 0.0251995 0
M  V30 287 C 25.2116 -1.43317 -1.33115 0
M  V30 288 O 26.4176 -1.89057 -1.94858 0
M  V30 289 C 24.8736 -3.599 -0.00542052 0
M  V30 290 C 24.4816 -4.27257 1.34742 0
M  V30 291 C 26.2256 -4.21768 -0.4808 0
M  V30 292 C 24.1326 -5.77467 1.27614 0
M  V30 293 H 23.0626 -0.753979 0.00565033 0
M  V30 294 H 25.7136 -1.69616 0.70018 0
M  V30 295 H 24.0956 -3.88911 -0.745961 0
M  V30 296 H 25.2696 -4.09893 2.10534 0
M  V30 297 H 23.5846 -3.77358 1.76039 0
M  V30 298 H 26.1816 -5.31838 -0.55246 0
M  V30 299 H 26.5246 -3.88651 -1.49184 0
M  V30 300 H 27.0576 -3.97273 0.204752 0
M  V30 301 H 23.7966 -6.15196 2.26304 0
M  V30 302 H 23.3166 -5.9718 0.55996 0
M  V30 303 H 24.9956 -6.3959 0.976421 0
M  V30 304 N 25.1277 -0.289203 -1.54924 0
M  V30 305 C 26.0577 0.58549 -2.2604 0
M  V30 306 C 27.0387 1.14753 -1.25562 0
M  V30 307 O 28.2237 1.17906 -1.54311 0
M  V30 308 C 25.3537 1.76305 -2.99222 0
M  V30 309 C 24.3077 1.33191 -4.06748 0
M  V30 310 C 23.6337 2.5937 -4.6758 0
M  V30 311 C 24.9337 0.471775 -5.20165 0
M  V30 312 H 26.6277 -0.00763532 -2.99399 0
M  V30 313 H 24.1737 -0.00511229 -1.43999 0
M  V30 314 H 26.1267 2.38097 -3.47689 0
M  V30 315 H 24.8507 2.38223 -2.23422 0
M  V30 316 H 23.5097 0.737121 -3.59113 0
M  V30 317 H 23.1577 3.19576 -3.88433 0
M  V30 318 H 22.8577 2.31228 -5.40192 0
M  V30 319 H 24.3817 3.21985 -5.18804 0
M  V30 320 H 25.7957 0.995056 -5.64599 0
M  V30 321 H 24.1927 0.284639 -5.99425 0
M  V30 322 H 25.2627 -0.506041 -4.82252 0
M  V30 323 N 26.6058 1.57591 -0.0167156 0
M  V30 324 C 27.8308 1.9598 0.67872 0
M  V30 325 C 28.2558 0.892546 1.65575 0
M  V30 326 O 27.6138 -0.147772 1.80697 0
M  V30 327 C 27.6618 3.33468 1.37227 0
M  V30 328 O 26.7658 3.28954 2.48722 0
M  V30 329 H 26.1068 0.639339 0.17928 0
M  V30 330 H 28.6368 2.04463 -0.0748802 0
M  V30 331 H 28.6468 3.69417 1.7319 0
M  V30 332 H 27.3218 4.10694 0.656007 0
M  V30 333 H 25.8988 3.04705 2.14963 0
M  V30 334 N 28.0839 -0.256276 1.55502 0
M  V30 335 C 29.3309 -0.985619 1.76895 0
M  V30 336 C 29.6589 -1.85671 0.579355 0
M  V30 337 O 28.9139 -1.90744 -0.437651 0
M  V30 338 C 29.2129 -1.88432 3.03691 0
M  V30 339 C 28.8789 -1.16936 4.35473 0
M  V30 340 C 27.5409 -0.97173 4.71286 0
M  V30 341 C 29.8929 -0.661889 5.1698 0
M  V30 342 C 27.2209 -0.254179 5.86149 0
M  V30 343 C 29.5729 0.042149 6.32586 0
M  V30 344 C 28.2369 0.25134 6.67027 0
M  V30 345 H 27.5069 -0.360663 0.647304 0
M  V30 346 H 30.1539 -0.256483 1.89775 0
M  V30 347 H 28.4589 -2.68021 2.85783 0
M  V30 348 H 30.1559 -2.45015 3.1744 0
M  V30 349 H 26.7459 -1.33332 4.07333 0
M  V30 350 H 30.9299 -0.802145 4.89775 0
M  V30 351 H 26.1859 -0.0815408 6.11346 0
M  V30 352 H 30.3599 0.443049 6.94989 0
M  V30 353 H 27.9869 0.809314 7.5588 0
M  V30 354 N 29.562 -1.4872 -0.521534 0
M  V30 355 C 30.787 -1.61101 -1.30618 0
M  V30 356 C 31.212 -0.274611 -1.86085 0
M  V30 357 O 30.57 0.754937 -1.64834 0
M  V30 358 C 30.618 -2.66709 -2.4269 0
M  V30 359 O 29.722 -2.24456 -3.45967 0
M  V30 360 H 29.063 -0.539921 -0.386499 0
M  V30 361 H 31.593 -1.94767 -0.626645 0
M  V30 362 H 31.603 -2.88245 -2.88754 0
M  V30 363 H 30.278 -3.63727 -2.01682 0
M  V30 364 H 28.855 -2.13168 -3.05964 0
M  V30 365 N 31.0401 0.771051 -1.3745 0
M  V30 366 C 32.2871 1.52963 -1.32697 0
M  V30 367 C 32.6151 1.94299 0.0883274 0
M  V30 368 O 31.8701 1.64397 1.0617 0
M  V30 369 C 32.1691 2.80676 -2.2126 0
M  V30 370 C 31.8351 2.58389 -3.69521 0
M  V30 371 C 30.4971 2.52019 -4.09927 0
M  V30 372 C 32.8491 2.38469 -4.63446 0
M  V30 373 C 30.1771 2.23721 -5.42371 0
M  V30 374 C 32.5291 2.11694 -5.96128 0
M  V30 375 C 31.1931 2.03769 -6.35637 0
M  V30 376 H 30.4631 0.559732 -0.485573 0
M  V30 377 H 33.1101 0.888083 -1.69662 0
M  V30 378 H 31.4151 3.49392 -1.77291 0
M  V30 379 H 33.1121 3.38557 -2.14895 0
M  V30 380 H 29.7021 2.6421 -3.37478 0
M  V30 381 H 33.8861 2.4238 -4.33089 0
M  V30 382 H 29.1421 2.16081 -5.71943 0
M  V30 383 H 33.3161 1.9528 -6.6846 0
M  V30 384 H 30.9431 1.81606 -7.38189 0
M  V30 385 N 32.5182 1.22032 0.997298 0
M  V30 386 C 33.9292 1.0397 1.55071 0
M  V30 387 C 34.2802 -0.398192 1.92117 0
M  V30 388 O 33.4052 -1.28254 1.74298 0
M  V30 389 C 34.0002 1.88109 2.81781 0
M  V30 390 C 32.5592 1.74357 3.33581 0
M  V30 391 C 31.7062 1.84846 2.06706 0
M  V30 392 H 34.6572 1.35941 0.818883 0
M  V30 393 H 34.6782 1.39589 3.53971 0
M  V30 394 H 34.1902 2.92754 2.54787 0
M  V30 395 H 32.2912 0.72427 3.65493 0
M  V30 396 H 32.4042 2.56772 4.04481 0
M  V30 397 H 30.7682 1.28238 2.20062 0
M  V30 398 H 31.5512 2.91014 1.82114 0
M  V30 399 N 33.9963 -1.19345 1.0293 0
M  V30 400 C 35.2433 -1.89038 0.726008 0
M  V30 401 C 35.5713 -1.79649 -0.745427 0
M  V30 402 O 34.8263 -1.18354 -1.55855 0
M  V30 403 C 35.1253 -3.39292 1.12319 0
M  V30 404 C 34.7913 -3.68885 2.59297 0
M  V30 405 C 33.4533 -3.76671 2.99453 0
M  V30 406 C 35.8053 -3.82178 3.54386 0
M  V30 407 C 33.1333 -3.9522 4.33611 0
M  V30 408 C 35.4853 -4.0224 4.88248 0
M  V30 409 C 34.1493 -4.08259 5.28092 0
M  V30 410 H 33.4193 -0.691739 0.265665 0
M  V30 411 H 36.0663 -1.41328 1.29223 0
M  V30 412 H 34.3713 -3.88903 0.475584 0
M  V30 413 H 36.0683 -3.91536 0.866037 0
M  V30 414 H 32.6583 -3.63433 2.27189 0
M  V30 415 H 36.8423 -3.75505 3.24514 0
M  V30 416 H 32.0983 -3.98119 4.64016 0
M  V30 417 H 36.2723 -4.11468 5.61843 0
M  V30 418 H 33.8993 -4.22384 6.32057 0
M  V30 419 N 35.4744 -0.807222 -1.35358 0
M  V30 420 C 36.8854 -0.44876 -1.81226 0
M  V30 421 C 37.2364 1.02929 -1.67033 0
M  V30 422 O 36.3614 1.79991 -1.20133 0
M  V30 423 C 36.9564 -0.807774 -3.2903 0
M  V30 424 C 35.5154 -0.501901 -3.73039 0
M  V30 425 C 34.6624 -1.03304 -2.57339 0
M  V30 426 H 37.6134 -0.998808 -1.23327 0
M  V30 427 H 37.6344 -0.10554 -3.80354 0
M  V30 428 H 37.1464 -1.88357 -3.39328 0
M  V30 429 H 35.2474 0.565128 -3.68289 0
M  V30 430 H 35.3604 -1.03497 -4.67787 0
M  V30 431 H 33.7244 -0.455339 -2.50597 0
M  V30 432 H 34.5074 -2.11496 -2.70415 0
M  V30 433 N 36.9525 1.47285 -0.560781 0
M  V30 434 C 38.1805 2.06855 -0.0430262 0
M  V30 435 C 38.5955 1.41291 1.25229 0
M  V30 436 O 37.9525 0.510648 1.7521 0
M  V30 437 C 38.0035 3.61178 0.152518 0
M  V30 438 O 37.7245 4.24285 -1.0915 0
M  V30 439 C 39.2255 4.37624 0.707145 0
M  V30 440 H 36.4455 0.669319 -0.0474652 0
M  V30 441 H 38.9895 1.89237 -0.77521 0
M  V30 442 H 37.1445 3.78298 0.834843 0
M  V30 443 H 37.5585 5.16868 -0.891482 0
M  V30 444 H 39.0325 5.46271 0.793244 0
M  V30 445 H 39.5095 4.04152 1.71923 0
M  V30 446 H 40.1155 4.25257 0.0604027 0
M  V30 447 N 38.4306 0.297415 1.54768 0
M  V30 448 C 39.3936 -0.567375 2.22066 0
M  V30 449 C 40.3936 -1.06409 1.20556 0
M  V30 450 O 41.5836 -0.960691 1.45315 0
M  V30 451 C 38.7156 -1.78517 2.90421 0
M  V30 452 H 39.9086 0.0205534 2.99893 0
M  V30 453 H 37.4616 0.0482163 1.56226 0
M  V30 454 H 38.1966 -2.41303 2.16664 0
M  V30 455 H 37.9816 -1.43669 3.64831 0
M  V30 456 H 39.4716 -2.39964 3.41771 0
M  V30 457 N 39.9087 -1.5758 0.0250728 0
M  V30 458 C 40.8557 -2.09973 -0.958129 0
M  V30 459 C 41.8257 -1.00085 -1.3256 0
M  V30 460 O 43.0107 -1.27481 -1.41962 0
M  V30 461 C 40.1507 -2.62812 -2.2366 0
M  V30 462 C 39.2637 -3.86693 -1.92594 0
M  V30 463 C 38.3987 -4.27941 -3.14707 0
M  V30 464 C 37.4377 -5.44591 -2.79442 0
M  V30 465 N 36.5747 -5.81014 -3.94167 0
M  V30 466 H 41.4147 -2.937 -0.504428 0
M  V30 467 H 38.9517 -1.45172 -0.237392 0
M  V30 468 H 40.9097 -2.91536 -2.98434 0
M  V30 469 H 39.5397 -1.81922 -2.66654 0
M  V30 470 H 38.5917 -3.64723 -1.0808 0
M  V30 471 H 39.9037 -4.71547 -1.62619 0
M  V30 472 H 39.0577 -4.58079 -3.97804 0
M  V30 473 H 37.7967 -3.41845 -3.4784 0
M  V30 474 H 36.8017 -5.1415 -1.94755 0
M  V30 475 H 38.0267 -6.32382 -2.47528 0
M  V30 476 H 35.9727 -4.97874 -4.2715 0
M  V30 477 H 35.8897 -6.60498 -3.67801 0
M  V30 478 H 37.1577 -6.15756 -4.7798 0
M  V30 479 N 41.3868 0.248026 -1.55636 0
M  V30 480 C 42.3498 1.29044 -1.89421 0
M  V30 481 C 43.3498 1.41134 -0.770581 0
M  V30 482 O 44.5398 1.39854 -1.03858 0
M  V30 483 C 41.6718 2.66831 -2.12165 0
M  V30 484 H 42.8648 1.00305 -2.82629 0
M  V30 485 H 40.4178 0.487265 -1.48511 0
M  V30 486 H 41.1528 3.00711 -1.21422 0
M  V30 487 H 40.9378 2.59438 -2.93997 0
M  V30 488 H 42.4278 3.42103 -2.3949 0
M  V30 489 N 42.8649 1.48995 0.513639 0
M  V30 490 C 43.8279 1.64229 1.59879 0
M  V30 491 C 44.8279 0.514696 1.5234 0
M  V30 492 O 46.0179 0.78087 1.55718 0
M  V30 493 C 43.1499 1.62783 2.99524 0
M  V30 494 H 44.3429 2.61004 1.47705 0
M  V30 495 H 41.8959 1.37837 0.736936 0
M  V30 496 H 42.6309 0.675461 3.17188 0
M  V30 497 H 42.4159 2.4466 3.06404 0
M  V30 498 H 43.9059 1.76669 3.78388 0
M  V30 499 N 44.343 -0.763751 1.37857 0
M  V30 500 C 45.306 -1.85889 1.34081 0
M  V30 501 C 46.306 -1.58949 0.243277 0
M  V30 502 O 47.496 -1.66882 0.499589 0
M  V30 503 C 44.628 -3.23176 1.08489 0
M  V30 504 H 45.821 -1.90648 2.31502 0
M  V30 505 H 43.374 -0.964367 1.23003 0
M  V30 506 H 44.109 -3.24091 0.116318 0
M  V30 507 H 43.894 -3.44124 1.8794 0
M  V30 508 H 45.384 -4.03254 1.08517 0
M  V30 509 N 45.8211 -1.22559 -0.990812 0
M  V30 510 C 46.7691 -0.994798 -2.10253 0
M  V30 511 C 47.7631 0.0627798 -1.69284 0
M  V30 512 O 48.9691 -0.0898392 -1.79776 0
M  V30 513 H 45.3441 -0.304527 -0.687581 0
M  V30 514 H 47.3151 -1.93812 -2.26891 0
M  V30 515 C 46.0641 -0.591439 -3.42633 0
M  V30 516 H 45.3871 -1.3969 -3.74602 0
M  V30 517 H 46.8271 -0.469385 -4.21394 0
M  V30 518 C 45.2861 0.699232 -3.29564 0
M  V30 519 O 45.8161 1.75112 -3.61523 0
M  V30 520 N 44.0221 0.671182 -2.82743 0
M  V30 521 H 43.5691 -0.185136 -2.56934 0
M  V30 522 H 43.5271 1.53502 -2.7438 0
M  V30 523 N 47.2992 1.18797 -1.03562 0
M  V30 524 C 48.5762 1.84469 -0.650434 0
M  V30 525 C 48.9562 1.92319 0.870433 0
M  V30 526 O 48.3042 1.44528 1.76986 0
M  V30 527 C 48.5142 3.2306 -1.32036 0
M  V30 528 C 49.8622 3.9915 -1.44792 0
M  V30 529 O 50.8862 3.32481 -1.27806 0
M  V30 530 O 49.7452 5.18587 -1.72423 0
M  V30 531 H 46.8392 0.795251 -0.226946 0
M  V30 532 H 49.3852 1.26231 -1.13419 0
M  V30 533 H 48.1572 3.1222 -2.3587 0
M  V30 534 H 47.7802 3.88949 -0.8249 0
M  V30 535 N 48.7773 0.814389 1.34928 0
M  V30 536 C 49.7253 0.218424 2.31572 0
M  V30 537 C 50.7193 -0.636128 1.57002 0
M  V30 538 O 51.9253 -0.52842 1.72069 0
M  V30 539 H 48.3003 0.0518799 0.750208 0
M  V30 540 H 50.2713 1.04852 2.79372 0
M  V30 541 C 49.0203 -0.61207 3.4227 0
M  V30 542 H 48.3433 0.0361578 3.99784 0
M  V30 543 H 49.7833 -0.995317 4.12152 0
M  V30 544 C 48.2423 -1.78087 2.85984 0
M  V30 545 O 48.7723 -2.8787 2.80168 0
M  V30 546 N 46.9783 -1.59488 2.42924 0
M  V30 547 H 46.5253 -0.701874 2.47854 0
M  V30 548 H 46.4833 -2.37846 2.05613 0
M  V30 549 N 50.2554 -1.46986 0.568584 0
M  V30 550 C 51.2034 -2.31858 -0.185649 0
M  V30 551 C 52.1974 -1.43624 -0.898249 0
M  V30 552 O 53.4034 -1.60327 -0.818242 0
M  V30 553 H 49.7784 -0.747866 -0.0787399 0
M  V30 554 H 51.7494 -2.93303 0.549191 0
M  V30 555 C 50.4984 -3.26513 -1.19519 0
M  V30 556 H 49.8214 -3.94377 -0.656285 0
M  V30 557 H 51.2614 -3.88707 -1.6936 0
M  V30 558 C 49.7204 -2.50847 -2.24894 0
M  V30 559 O 50.2504 -2.26119 -3.32014 0
M  V30 560 N 48.4564 -2.11656 -1.99124 0
M  V30 561 H 48.0034 -2.31966 -1.12024 0
M  V30 562 H 47.9614 -1.61347 -2.69842 0
M  V30 563 N 51.7335 -0.305618 -1.54608 0
M  V30 564 C 52.9795 0.302746 -2.00528 0
M  V30 565 C 53.3125 1.53184 -1.19367 0
M  V30 566 O 52.5875 1.92598 -0.271321 0
M  V30 567 C 52.8705 0.654756 -3.54097 0
M  V30 568 C 52.7235 -0.583793 -4.45995 0
M  V30 569 C 54.0425 1.47947 -4.14487 0
M  V30 570 H 51.1615 0.108564 -0.72896 0
M  V30 571 H 53.8035 -0.418634 -1.85331 0
M  V30 572 H 51.9535 1.26935 -3.67178 0
M  V30 573 H 53.6255 -1.22224 -4.44814 0
M  V30 574 H 51.8685 -1.21615 -4.16404 0
M  V30 575 H 52.5395 -0.293287 -5.5122 0
M  V30 576 H 55.0155 0.96013 -4.04871 0
M  V30 577 H 53.8915 1.69454 -5.22088 0
M  V30 578 H 54.1525 2.47011 -3.66658 0
M  V30 579 N 53.2116 1.57565 -0.0334293 0
M  V30 580 C 54.1216 2.13943 0.962572 0
M  V30 581 C 55.1376 1.09276 1.35406 0
M  V30 582 O 56.3136 1.41355 1.4346 0
M  V30 583 C 53.3786 2.65887 2.22497 0
M  V30 584 C 52.4396 3.85286 1.8935 0
M  V30 585 C 51.6726 4.34743 3.09571 0
M  V30 586 O 51.8956 3.83352 4.22371 0
M  V30 587 O 50.8296 5.26538 2.91618 0
M  V30 588 H 54.6556 2.99333 0.513169 0
M  V30 589 H 52.2406 1.4822 0.18743 0
M  V30 590 H 54.1226 2.99346 2.96598 0
M  V30 591 H 52.7976 1.83578 2.6661 0
M  V30 592 H 51.7046 3.56746 1.1262 0
M  V30 593 H 53.0376 4.68771 1.5005 0
M  V30 594 N 54.6897 -0.239769 1.55765 0
M  V30 595 C 55.9357 -0.963942 1.79108 0
M  V30 596 C 56.2907 -1.82689 0.60352 0
M  V30 597 O 55.5837 -1.87313 -0.403033 0
M  V30 598 C 55.7777 -1.852 3.05672 0
M  V30 599 C 55.6067 -1.07651 4.36625 0
M  V30 600 C 54.3767 -0.778738 4.99263 0
M  V30 601 C 56.5747 -0.45062 5.12322 0
M  V30 602 N 54.5567 0.0200708 6.13897 0
M  V30 603 C 55.9277 0.212429 6.19636 0
M  V30 604 C 57.9827 -0.361806 4.96584 0
M  V30 605 C 56.6857 0.955772 7.12922 0
M  V30 606 C 58.7117 0.368023 5.90254 0
M  V30 607 C 58.0737 1.01968 6.96981 0
M  V30 608 H 54.1727 -0.333601 0.707272 0
M  V30 609 H 56.7567 -0.236425 1.93259 0
M  V30 610 H 54.9277 -2.55149 2.92837 0
M  V30 611 H 56.6597 -2.51228 3.1728 0
M  V30 612 H 53.4147 -1.09229 4.60832 0
M  V30 613 H 53.8387 0.407777 6.75771 0
M  V30 614 H 58.4807 -0.851286 4.14141 0
M  V30 615 H 56.1987 1.45683 7.9486 0
M  V30 616 H 59.7847 0.437504 5.80153 0
M  V30 617 H 58.6647 1.5754 7.68213 0
M  V30 618 N 56.1678 -1.49265 -0.50573 0
M  V30 619 C 57.1158 -1.66065 -1.62866 0
M  V30 620 C 58.1098 -0.526636 -1.61006 0
M  V30 621 O 59.3158 -0.706126 -1.65571 0
M  V30 622 H 55.6908 -0.52356 -0.539805 0
M  V30 623 H 57.6618 -2.60329 -1.45848 0
M  V30 624 C 56.4108 -1.74008 -3.01026 0
M  V30 625 H 55.7338 -2.6064 -3.03161 0
M  V30 626 H 57.1738 -1.89798 -3.79147 0
M  V30 627 C 55.6328 -0.483868 -3.33407 0
M  V30 628 O 56.1628 0.392548 -3.99777 0
M  V30 629 N 54.3688 -0.348236 -2.88506 0
M  V30 630 H 53.9158 -1.06242 -2.34671 0
M  V30 631 H 53.8738 0.491204 -3.10539 0
M  V30 632 N 57.6459 0.756429 -1.3826 0
M  V30 633 C 58.8939 1.51248 -1.34047 0
M  V30 634 C 59.2149 1.94875 0.0698372 0
M  V30 635 O 58.4849 1.67436 1.01696 0
M  V30 636 H 57.0649 0.561018 -0.493222 0
M  V30 637 H 59.7269 0.899347 -1.7291 0
M  V30 638 H 58.8229 2.40472 -1.98947 0
M  V30 639 N 59.124 1.23083 0.984299 0
M  V30 640 C 60.054 1.03292 2.09411 0
M  V30 641 C 61.035 -0.048923 1.7003 0
M  V30 642 O 62.22 0.114967 1.93859 0
M  V30 643 C 59.35 0.619155 3.41736 0
M  V30 644 C 58.304 1.64791 3.95004 0
M  V30 645 C 57.63 1.0897 5.23478 0
M  V30 646 C 58.93 3.03999 4.24714 0
M  V30 647 H 60.624 1.96119 2.26225 0
M  V30 648 H 58.17 0.944344 1.08711 0
M  V30 649 H 60.123 0.467777 4.18796 0
M  V30 650 H 58.847 -0.344786 3.24775 0
M  V30 651 H 57.506 1.78721 3.20085 0
M  V30 652 H 57.154 0.11686 5.02864 0
M  V30 653 H 56.854 1.77704 5.60085 0
M  V30 654 H 58.378 0.950093 6.03163 0
M  V30 655 H 59.792 2.93393 4.92538 0
M  V30 656 H 58.189 3.69936 4.72512 0
M  V30 657 H 59.259 3.53285 3.32142 0
M  V30 658 N 60.6021 -1.18246 1.0419 0
M  V30 659 C 61.8491 -1.88257 0.746017 0
M  V30 660 C 62.1771 -1.80429 -0.726331 0
M  V30 661 O 61.4321 -1.2 -1.54591 0
M  V30 662 C 61.7311 -3.38082 1.15911 0
M  V30 663 C 61.3971 -3.66114 2.63195 0
M  V30 664 C 60.0591 -3.73474 3.03432 0
M  V30 665 C 62.4111 -3.78398 3.5842 0
M  V30 666 C 59.7391 -3.90599 4.37778 0
M  V30 667 C 62.0911 -3.97039 4.92487 0
M  V30 668 C 60.7551 -4.02635 5.32392 0
M  V30 669 H 60.0251 -0.688883 0.272987 0
M  V30 670 H 62.6721 -1.3995 1.30715 0
M  V30 671 H 60.9771 -3.88377 0.516806 0
M  V30 672 H 62.6741 -3.90596 0.907516 0
M  V30 673 H 59.2641 -3.61003 2.3103 0
M  V30 674 H 63.4481 -3.72042 3.28479 0
M  V30 675 H 58.7041 -3.93175 4.68213 0
M  V30 676 H 62.8781 -4.05486 5.66175 0
M  V30 677 H 60.5051 -4.15657 6.36501 0
M  V30 678 N 62.0802 -0.821533 -1.34494 0
M  V30 679 C 63.0302 -0.214793 -2.26986 0
M  V30 680 C 64.0142 0.620125 -1.4847 0
M  V30 681 O 65.2062 0.474933 -1.70509 0
M  V30 682 C 62.3352 0.623566 -3.37589 0
M  V30 683 C 61.4212 -0.221904 -4.23519 0
M  V30 684 N 61.8122 -1.29223 -4.89014 0
M  V30 685 C 60.1102 -0.00600922 -4.46 0
M  V30 686 C 60.8112 -1.80965 -5.52835 0
M  V30 687 N 59.7872 -1.11376 -5.32068 0
M  V30 688 H 63.5892 -1.03354 -2.75128 0
M  V30 689 H 61.1032 -0.6642 -1.48196 0
M  V30 690 H 63.1002 1.0744 -4.02818 0
M  V30 691 H 61.7602 1.44049 -2.90998 0
M  V30 692 H 62.7712 -1.67502 -4.90065 0
M  V30 693 H 59.4482 0.77886 -4.10171 0
M  V30 694 H 60.8382 -2.70502 -6.15043 0
M  V30 695 N 63.5583 1.46682 -0.576371 0
M  V30 696 C 64.8353 1.95599 0.00703437 0
M  V30 697 C 65.2153 1.51904 1.46589 0
M  V30 698 O 64.5633 0.766755 2.15251 0
M  V30 699 C 64.7733 3.4864 -0.158404 0
M  V30 700 C 66.1213 4.24594 -0.0229439 0
M  V30 701 O 67.1453 3.56094 -0.0869173 0
M  V30 702 O 66.0043 5.46373 0.118015 0
M  V30 703 H 63.0983 0.825275 0.053384 0
M  V30 704 H 65.6443 1.56996 -0.644244 0
M  V30 705 H 64.4163 3.7331 -1.17282 0
M  V30 706 H 64.0393 3.94057 0.5296 0
M  V30 707 N 65.0364 0.313813 1.54444 0
M  V30 708 C 65.9684 -0.590425 2.21465 0
M  V30 709 C 66.9814 -1.08753 1.21147 0
M  V30 710 O 68.1704 -1.00278 1.4767 0
M  V30 711 C 65.2704 -1.82179 2.85769 0
M  V30 712 C 64.4434 -1.46502 4.12136 0
M  V30 713 C 63.5024 -2.55288 4.60124 0
M  V30 714 O 62.5284 -2.19842 5.25032 0
M  V30 715 N 63.7304 -3.86053 4.33525 0
M  V30 716 H 66.4954 -0.0166033 2.99695 0
M  V30 717 H 64.0564 0.136578 1.61323 0
M  V30 718 H 66.0484 -2.54328 3.14801 0
M  V30 719 H 64.6184 -2.30369 2.11303 0
M  V30 720 H 63.8384 -0.575595 3.89975 0
M  V30 721 H 65.1264 -1.20221 4.94393 0
M  V30 722 H 64.5244 -4.17654 3.81552 0
M  V30 723 H 63.0814 -4.54461 4.67235 0
M  V30 724 N 66.5145 -1.57545 0.0417849 0
M  V30 725 C 67.7625 -1.91937 -0.632829 0
M  V30 726 C 68.0835 -0.919978 -1.71934 0
M  V30 727 O 67.3535 0.0366064 -1.95866 0
M  V30 728 H 65.9335 -0.708493 -0.236742 0
M  V30 729 H 68.5955 -1.9468 0.0925745 0
M  V30 730 H 67.6915 -2.92912 -1.07746 0
M  V30 731 N 67.9926 0.231505 -1.5589 0
M  V30 732 C 69.4036 0.799327 -1.68724 0
M  V30 733 C 69.7546 1.85398 -0.642022 0
M  V30 734 O 68.8796 2.1539 0.208784 0
M  V30 735 C 69.4746 1.45664 -3.05888 0
M  V30 736 C 68.0336 1.97197 -3.20609 0
M  V30 737 C 67.1806 0.828552 -2.64632 0
M  V30 738 H 70.1316 0.00702616 -1.58698 0
M  V30 739 H 70.1526 2.32517 -3.01191 0
M  V30 740 H 69.6646 0.688808 -3.81939 0
M  V30 741 H 67.7656 2.76813 -2.4941 0
M  V30 742 H 67.8786 2.15878 -4.27707 0
M  V30 743 H 66.2426 1.23321 -2.22854 0
M  V30 744 H 67.0256 0.0735544 -3.43221 0
M  V30 745 N 69.4707 1.49531 0.497807 0
M  V30 746 C 70.4007 1.6935 1.60757 0
M  V30 747 C 71.3817 0.542218 1.61227 0
M  V30 748 O 72.5667 0.778417 1.77917 0
M  V30 749 C 69.6967 1.76298 2.99226 0
M  V30 750 C 68.6507 2.91248 3.13622 0
M  V30 751 C 67.9767 2.83312 4.53474 0
M  V30 752 C 69.2767 4.3214 2.93346 0
M  V30 753 H 70.9707 2.62263 1.44425 0
M  V30 754 H 68.5167 1.26208 0.693367 0
M  V30 755 H 70.4697 1.88749 3.76765 0
M  V30 756 H 69.1937 0.799871 3.16654 0
M  V30 757 H 67.8527 2.78404 2.38509 0
M  V30 758 H 67.5007 1.84902 4.67782 0
M  V30 759 H 67.2007 3.60465 4.64046 0
M  V30 760 H 68.7247 2.97775 5.33069 0
M  V30 761 H 70.1387 4.45649 3.60652 0
M  V30 762 H 68.5357 5.1054 3.15387 0
M  V30 763 H 69.6057 4.46363 1.89441 0
M  V30 764 N 70.9488 -0.749086 1.3866 0
M  V30 765 C 72.1958 -1.50833 1.35114 0
M  V30 766 C 72.5238 -1.94415 -0.0574049 0
M  V30 767 O 71.7788 -1.66065 -1.03541 0
M  V30 768 C 72.0778 -2.7712 2.25697 0
M  V30 769 C 71.7438 -2.52477 3.73585 0
M  V30 770 C 70.4058 -2.45466 4.13884 0
M  V30 771 C 72.7578 -2.31066 4.67181 0
M  V30 772 C 70.0858 -2.15064 5.45861 0
M  V30 773 C 72.4378 -2.02183 5.9942 0
M  V30 774 C 71.1018 -1.93631 6.38798 0
M  V30 775 H 70.3718 -0.551936 0.494416 0
M  V30 776 H 73.0188 -0.860979 1.71054 0
M  V30 777 H 71.3238 -3.46528 1.82827 0
M  V30 778 H 73.0208 -3.35096 2.20254 0
M  V30 779 H 69.6108 -2.58807 3.41638 0
M  V30 780 H 73.7948 -2.35459 4.3689 0
M  V30 781 H 69.0508 -2.06954 5.75308 0
M  V30 782 H 73.2248 -1.8462 6.71482 0
M  V30 783 H 70.8518 -1.69839 7.40985 0
M  V30 784 N 72.4269 -1.23603 -0.977757 0
M  V30 785 C 73.7039 -0.977897 -1.69401 0
M  V30 786 C 74.0839 0.502738 -2.05026 0
M  V30 787 O 73.4319 1.47459 -1.74551 0
M  V30 788 C 73.6419 -1.89077 -2.93345 0
M  V30 789 C 74.9899 -2.15579 -3.65802 0
M  V30 790 O 76.0139 -1.86648 -3.03383 0
M  V30 791 O 74.8729 -2.64658 -4.78141 0
M  V30 792 H 71.9669 -0.369025 -0.740101 0
M  V30 793 H 74.5129 -1.34657 -1.03274 0
M  V30 794 H 73.2849 -2.89158 -2.63634 0
M  V30 795 H 72.9079 -1.52463 -3.67207 0
M  V30 796 N 73.905 1.17692 -1.04816 0
M  V30 797 C 74.853 2.23632 -0.63966 0
M  V30 798 C 75.847 1.6601 0.337219 0
M  V30 799 O 77.053 1.78844 0.203693 0
M  V30 800 H 73.428 0.727949 -0.188665 0
M  V30 801 H 75.399 2.55387 -1.54337 0
M  V30 802 C 74.148 3.4769 -0.0264051 0
M  V30 803 H 73.471 3.92331 -0.769164 0
M  V30 804 H 74.911 4.23418 0.222098 0
M  V30 805 C 73.37 3.13807 1.22584 0
M  V30 806 O 73.9 3.28236 2.31569 0
M  V30 807 N 72.106 2.68065 1.12202 0
M  V30 808 H 71.653 2.56525 0.235133 0
M  V30 809 H 71.611 2.45767 1.96076 0
M  V30 810 N 75.3831 0.828654 1.34056 0
M  V30 811 C 76.3461 0.259927 2.27721 0
M  V30 812 C 77.3461 -0.565478 1.50529 0
M  V30 813 O 78.5361 -0.38075 1.69988 0
M  V30 814 C 75.6681 -0.634944 3.34935 0
M  V30 815 H 76.8611 1.0863 2.79534 0
M  V30 816 H 74.4141 0.600951 1.44285 0
M  V30 817 H 75.1491 -1.48416 2.88346 0
M  V30 818 H 74.9341 -0.0444999 3.92075 0
M  V30 819 H 76.4241 -1.02648 4.04788 0
M  V30 820 N 76.8612 -1.46375 0.584142 0
M  V30 821 C 78.2722 -1.86031 0.157959 0
M  V30 822 C 78.6232 -1.48753 -1.27933 0
M  V30 823 O 77.7482 -0.903098 -1.96655 0
M  V30 824 C 78.3432 -3.37642 0.279892 0
M  V30 825 C 76.9022 -3.76289 -0.09143 0
M  V30 826 C 76.0492 -2.7039 0.615178 0
M  V30 827 H 79.0002 -1.37509 0.792274 0
M  V30 828 H 79.0212 -3.77275 -0.494364 0
M  V30 829 H 78.5332 -3.64742 1.32607 0
M  V30 830 H 76.6342 -3.54806 -1.13769 0
M  V30 831 H 76.7472 -4.78246 0.285886 0
M  V30 832 H 75.1112 -2.5464 0.0552833 0
M  V30 833 H 75.8942 -3.0033 1.66303 0
M  V30 834 N 78.3393 -0.321999 -1.54275 0
M  V30 835 C 79.2493 0.553631 -2.27974 0
M  V30 836 C 80.2653 1.13054 -1.32268 0
M  V30 837 O 81.4413 1.15084 -1.6528 0
M  V30 838 C 78.5063 1.69927 -3.02201 0
M  V30 839 C 77.5673 1.15433 -4.1349 0
M  V30 840 C 76.8003 2.24537 -4.84168 0
M  V30 841 O 77.0233 3.44852 -4.5435 0
M  V30 842 O 75.9573 1.90044 -5.7111 0
M  V30 843 H 79.7833 -0.0448345 -3.03667 0
M  V30 844 H 77.3683 -0.0877418 -1.49142 0
M  V30 845 H 79.2503 2.3663 -3.48689 0
M  V30 846 H 77.9253 2.28395 -2.29385 0
M  V30 847 H 76.8323 0.452436 -3.71354 0
M  V30 848 H 78.1653 0.614805 -4.88345 0
M  V30 849 N 79.8174 1.5752 -0.0501392 0
M  V30 850 C 81.2284 1.80271 0.485705 0
M  V30 851 C 81.5794 0.96228 1.70981 0
M  V30 852 O 80.7044 0.178578 2.15662 0
M  V30 853 C 81.2994 3.26957 0.887938 0
M  V30 854 C 79.8584 3.5063 1.36877 0
M  V30 855 C 79.0054 2.75165 0.343468 0
M  V30 856 H 81.9564 1.56281 -0.276028 0
M  V30 857 H 81.9774 3.37821 1.75093 0
M  V30 858 H 81.4894 3.881 -0.0031809 0
M  V30 859 H 79.5904 2.94766 2.27911 0
M  V30 860 H 79.7034 4.59343 1.36164 0
M  V30 861 H 78.0674 2.4127 0.816128 0
M  V30 862 H 78.8504 3.39034 -0.539548 0
M  V30 863 N 81.2955 -0.223234 1.56011 0
M  V30 864 C 82.5235 -0.964812 1.83027 0
M  V30 865 C 82.9385 -1.78013 0.62904 0
M  V30 866 O 82.2955 -1.78008 -0.402414 0
M  V30 867 C 82.3465 -1.88373 3.08542 0
M  V30 868 O 82.0675 -1.10137 4.2403 0
M  V30 869 C 83.5685 -2.73934 3.48533 0
M  V30 870 H 80.7885 -0.282842 0.608475 0
M  V30 871 H 83.3325 -0.238971 2.03099 0
M  V30 872 H 81.4875 -2.56354 2.9045 0
M  V30 873 H 81.9015 -1.72501 4.95322 0
M  V30 874 H 83.3755 -3.34117 4.39397 0
M  V30 875 H 83.8525 -3.46244 2.70207 0
M  V30 876 H 84.4585 -2.11369 3.69057 0
M  V30 877 N 82.7736 -1.49793 -0.48987 0
M  V30 878 C 83.9986 -1.63836 -1.27172 0
M  V30 879 C 84.4236 -0.31402 -1.8546 0
M  V30 880 O 83.7816 0.719803 -1.66399 0
M  V30 881 C 83.8296 -2.71797 -2.36978 0
M  V30 882 O 82.9336 -2.31744 -3.41128 0
M  V30 883 H 82.2746 -0.547997 -0.37496 0
M  V30 884 H 84.8046 -1.96053 -0.585191 0
M  V30 885 H 84.8146 -2.94305 -2.82575 0
M  V30 886 H 83.4896 -3.67923 -1.93921 0
M  V30 887 H 82.0666 -2.1961 -3.01373 0
M  V30 888 N 84.2517 0.741722 -1.39055 0
M  V30 889 C 85.4797 1.53098 -1.39171 0
M  V30 890 C 85.8947 1.88794 0.0155099 0
M  V30 891 O 85.2517 1.53626 0.985159 0
M  V30 892 C 85.3027 2.82274 -2.2584 0
M  V30 893 O 85.0237 2.48097 -3.61081 0
M  V30 894 C 86.5247 3.76343 -2.34266 0
M  V30 895 H 83.7447 0.473335 -0.4756 0
M  V30 896 H 86.2887 0.917045 -1.82785 0
M  V30 897 H 84.4437 3.40015 -1.85656 0
M  V30 898 H 84.8577 3.31029 -4.06842 0
M  V30 899 H 86.3317 4.63898 -2.9917 0
M  V30 900 H 86.8087 4.17619 -1.35982 0
M  V30 901 H 87.4147 3.24523 -2.74891 0
M  V30 902 N 85.7298 1.2412 0.971189 0
M  V30 903 C 86.6618 0.988349 2.06795 0
M  V30 904 C 87.6748 -0.0409541 1.62748 0
M  V30 905 O 88.8638 0.195673 1.77424 0
M  V30 906 C 85.9638 0.469023 3.35639 0
M  V30 907 C 85.1368 1.56065 4.08611 0
M  V30 908 C 84.1958 1.04458 5.15728 0
M  V30 909 O 83.2218 1.73553 5.42096 0
M  V30 910 N 84.4238 -0.122817 5.8037 0
M  V30 911 H 87.1888 1.93265 2.29061 0
M  V30 912 H 84.7498 1.15102 1.13856 0
M  V30 913 H 86.7418 0.108613 4.04554 0
M  V30 914 H 85.3118 -0.380919 3.1027 0
M  V30 915 H 84.5318 2.09341 3.34021 0
M  V30 916 H 85.8198 2.29449 4.54126 0
M  V30 917 H 85.2178 -0.700563 5.61345 0
M  V30 918 H 83.7748 -0.424404 6.50417 0
M  V30 919 N 87.2079 -1.17134 1.05439 0
M  V30 920 C 88.4329 -1.91913 0.786396 0
M  V30 921 C 88.8579 -1.7643 -0.652234 0
M  V30 922 O 88.2159 -1.08372 -1.45345 0
M  V30 923 C 88.2639 -3.40921 1.17497 0
M  V30 924 O 87.3679 -4.11244 0.308589 0
M  V30 925 H 86.7089 -0.598215 0.288158 0
M  V30 926 H 89.2389 -1.48457 1.4079 0
M  V30 927 H 89.2489 -3.91668 1.14281 0
M  V30 928 H 87.9239 -3.5151 2.22292 0
M  V30 929 H 86.5009 -3.70731 0.40157 0
M  V30 930 N 88.686 -0.835752 -1.33615 0
M  V30 931 C 89.932 -0.430596 -1.98176 0
M  V30 932 C 90.265 1.00684 -1.66061 0
M  V30 933 O 89.54 1.70339 -0.938877 0
M  V30 934 C 89.823 -0.648065 -3.5422 0
M  V30 935 C 89.676 -2.13255 -3.96033 0
M  V30 936 C 90.995 -0.0922113 -4.40003 0
M  V30 937 H 88.114 -0.157924 -0.719881 0
M  V30 938 H 90.756 -1.05069 -1.58305 0
M  V30 939 H 88.906 -0.120237 -3.88314 0
M  V30 940 H 90.578 -2.725 -3.72211 0
M  V30 941 H 88.821 -2.61823 -3.45878 0
M  V30 942 H 89.492 -2.23547 -5.04708 0
M  V30 943 H 91.968 -0.543343 -4.12537 0
M  V30 944 H 90.844 -0.274083 -5.48215 0
M  V30 945 H 91.105 1.00378 -4.30554 0
M  V30 946 N 90.1641 1.46063 -0.591896 0
M  V30 947 C 91.3921 2.06717 -0.0868936 0
M  V30 948 C 91.8071 1.43916 1.22203 0
M  V30 949 O 91.1641 0.547698 1.74088 0
M  V30 950 C 91.2151 3.6142 0.0758725 0
M  V30 951 O 90.9361 4.21874 -1.18126 0
M  V30 952 C 92.4371 4.39025 0.61416 0
M  V30 953 H 89.6571 0.668162 -0.0616518 0
M  V30 954 H 92.2011 1.8755 -0.815175 0
M  V30 955 H 90.3561 3.79983 0.754413 0
M  V30 956 H 90.7701 5.14861 -1.00092 0
M  V30 957 H 92.2441 5.4783 0.677193 0
M  V30 958 H 92.7211 4.07708 1.63312 0
M  V30 959 H 93.3271 4.2529 -0.0298142 0
M  V30 960 N 91.6422 0.330177 1.54103 0
M  V30 961 C 92.5722 -0.525353 2.27513 0
M  V30 962 C 93.5532 -1.11383 1.2856 0
M  V30 963 O 94.7382 -1.13773 1.57383 0
M  V30 964 C 91.8682 -1.6831 3.03791 0
M  V30 965 C 90.8222 -1.2236 4.10137 0
M  V30 966 C 90.1482 -2.46882 4.74293 0
M  V30 967 C 91.4482 -0.333697 5.21233 0
M  V30 968 H 93.1422 0.087013 2.99274 0
M  V30 969 H 90.6882 0.0432893 1.43935 0
M  V30 970 H 92.6412 -2.28795 3.5388 0
M  V30 971 H 91.3652 -2.32216 2.29659 0
M  V30 972 H 90.0242 -0.64165 3.60941 0
M  V30 973 H 89.6722 -3.09165 3.96769 0
M  V30 974 H 89.3722 -2.16825 5.46133 0
M  V30 975 H 90.8962 -3.08117 5.27159 0
M  V30 976 H 92.3102 -0.845013 5.67038 0
M  V30 977 H 90.7072 -0.125612 5.99969 0
M  V30 978 H 91.7772 0.633724 4.80741 0
M  V30 979 N 93.1203 -1.57491 0.0584922 0
M  V30 980 C 94.0673 -2.11958 -0.913376 0
M  V30 981 C 95.0373 -1.02875 -1.30407 0
M  V30 982 O 96.2223 -1.30464 -1.39226 0
M  V30 983 C 93.3623 -2.67497 -2.18035 0
M  V30 984 C 92.4753 -3.90691 -1.84349 0
M  V30 985 C 91.6103 -4.3452 -3.05559 0
M  V30 986 C 90.6493 -5.50395 -2.67827 0
M  V30 987 N 89.7863 -5.89244 -3.81754 0
M  V30 988 H 94.6263 -2.94704 -0.442017 0
M  V30 989 H 92.1633 -1.45643 -0.206545 0
M  V30 990 H 94.1213 -2.978 -2.92183 0
M  V30 991 H 92.7513 -1.87537 -2.62735 0
M  V30 992 H 91.8033 -3.66934 -1.00319 0
M  V30 993 H 93.1153 -4.7489 -1.5258 0
M  V30 994 H 92.2693 -4.66414 -3.87998 0
M  V30 995 H 91.0083 -3.49147 -3.40511 0
M  V30 996 H 90.0133 -5.18165 -1.83806 0
M  V30 997 H 91.2383 -6.3749 -2.34059 0
M  V30 998 H 89.1843 -5.06823 -4.16493 0
M  V30 999 H 89.1013 -6.68151 -3.53708 0
M  V30 1000 H 90.3693 -6.25756 -4.64811 0
M  V30 1001 N 94.5984 0.214957 -1.56127 0
M  V30 1002 C 95.5284 1.2695 -1.95974 0
M  V30 1003 C 96.5094 1.48539 -0.828868 0
M  V30 1004 O 97.6944 1.60611 -1.09168 0
M  V30 1005 C 94.8244 2.61794 -2.28214 0
M  V30 1006 C 93.7784 2.54851 -3.43853 0
M  V30 1007 C 93.1044 3.93785 -3.61715 0
M  V30 1008 C 94.4044 2.09065 -4.78632 0
M  V30 1009 H 96.0984 0.93846 -2.84312 0
M  V30 1010 H 93.6444 0.449996 -1.36788 0
M  V30 1011 H 95.5974 3.35731 -2.54682 0
M  V30 1012 H 94.3214 2.96599 -1.36736 0
M  V30 1013 H 92.9804 1.8337 -3.17444 0
M  V30 1014 H 92.6284 4.25908 -2.67602 0
M  V30 1015 H 92.3284 3.90019 -4.39498 0
M  V30 1016 H 93.8524 4.69374 -3.90539 0
M  V30 1017 H 95.2664 2.7275 -5.04262 0
M  V30 1018 H 93.6634 2.16346 -5.59745 0
M  V30 1019 H 94.7334 1.04315 -4.73547 0
M  V30 1020 N 96.0765 1.50051 0.48192 0
M  V30 1021 C 97.4925 1.37237 0.814756 0
M  V30 1022 C 97.6925 0.420109 1.97072 0
M  V30 1023 O 96.7485 -0.141246 2.52105 0
M  V30 1024 C 98.0615 2.78375 1.13701 0
M  V30 1025 C 99.6095 2.87213 1.2441 0
M  V30 1026 C 100.084 4.29161 1.59954 0
M  V30 1027 N 101.575 4.32061 1.66967 0
M  V30 1028 C 102.31 5.38879 1.95952 0
M  V30 1029 N 101.806 6.55918 2.23031 0
M  V30 1030 N 103.599 5.26312 1.97363 0
M  V30 1031 H 95.7505 2.10546 -0.28005 0
M  V30 1032 H 98.0135 0.945921 -0.0627454 0
M  V30 1033 H 97.7195 3.49845 0.360787 0
M  V30 1034 H 97.5935 3.14941 2.07586 0
M  V30 1035 H 99.9805 2.15969 2.01101 0
M  V30 1036 H 100.061 2.54204 0.285299 0
M  V30 1037 H 99.7055 5.00938 0.838067 0
M  V30 1038 H 99.6355 4.59648 2.56966 0
M  V30 1039 H 102.126 3.47661 1.48123 0
M  V30 1040 H 102.439 7.33139 2.44391 0
M  V30 1041 H 100.784 6.59112 2.20447 0
M  V30 1042 H 103.975 4.33876 1.75697 0
M  V30 1043 H 104.148 6.09649 2.19618 0
M  V30 1044 N 97.5546 -0.734337 1.39446 0
M  V30 1045 C 98.7826 -1.52358 1.39981 0
M  V30 1046 C 99.1976 -1.88799 -0.0054975 0
M  V30 1047 O 98.5546 -1.54146 -0.976998 0
M  V30 1048 C 98.6056 -2.81072 2.27333 0
M  V30 1049 O 98.3266 -2.46178 3.62392 0
M  V30 1050 C 99.8276 -3.75096 2.36259 0
M  V30 1051 H 97.0476 -0.470806 0.478103 0
M  V30 1052 H 99.5916 -0.907339 1.83269 0
M  V30 1053 H 97.7466 -3.39026 1.87457 0
M  V30 1054 H 98.1606 -3.28866 4.08592 0
M  V30 1055 H 99.6346 -4.62305 3.01626 0
M  V30 1056 H 100.112 -4.16892 1.38194 0
M  V30 1057 H 100.718 -3.23061 2.76608 0
M  V30 1058 N 99.0327 -1.24633 -0.964593 0
M  V30 1059 C 100.28 -1.08788 -1.70796 0
M  V30 1060 C 100.608 0.372783 -1.90894 0
M  V30 1061 O 99.8627 1.29167 -1.47018 0
M  V30 1062 C 100.162 -1.7763 -3.10133 0
M  V30 1063 C 99.8277 -3.27557 -3.09866 0
M  V30 1064 C 98.4897 -3.6846 -3.09501 0
M  V30 1065 C 100.842 -4.23389 -3.03959 0
M  V30 1066 C 98.1697 -5.03624 -3.00965 0
M  V30 1067 C 100.522 -5.58565 -2.96965 0
M  V30 1068 C 99.1857 -5.98809 -2.9493 0
M  V30 1069 H 98.4557 -0.398084 -0.624988 0
M  V30 1070 H 101.103 -1.54777 -1.12767 0
M  V30 1071 H 99.4077 -1.24044 -3.71645 0
M  V30 1072 H 101.105 -1.62832 -3.66451 0
M  V30 1073 H 97.6947 -2.95006 -3.10917 0
M  V30 1074 H 101.879 -3.92787 -3.03368 0
M  V30 1075 H 97.1347 -5.33998 -2.97752 0
M  V30 1076 H 101.309 -6.32523 -2.91354 0
M  V30 1077 H 98.9357 -7.03505 -2.88071 0
M  V30 1078 N 100.511 1.16574 -1.06058 0
M  V30 1079 C 101.458 2.20883 -0.669263 0
M  V30 1080 C 102.428 1.62729 0.332918 0
M  V30 1081 O 103.613 1.895 0.222346 0
M  V30 1082 C 100.753 3.45049 -0.0593572 0
M  V30 1083 C 99.8658 4.17458 -1.11143 0
M  V30 1084 C 99.0008 5.29135 -0.467916 0
M  V30 1085 C 98.0398 5.93343 -1.50369 0
M  V30 1086 N 97.1768 6.96516 -0.883706 0
M  V30 1087 H 102.017 2.53709 -1.5632 0
M  V30 1088 H 99.5538 1.24616 -0.781625 0
M  V30 1089 H 101.512 4.16033 0.311771 0
M  V30 1090 H 100.142 3.12781 0.797992 0
M  V30 1091 H 99.1938 3.45101 -1.60029 0
M  V30 1092 H 100.506 4.61307 -1.89731 0
M  V30 1093 H 99.6598 6.06684 -0.0436871 0
M  V30 1094 H 98.3988 4.86443 0.349864 0
M  V30 1095 H 97.4038 5.14517 -1.93784 0
M  V30 1096 H 98.6288 6.38114 -2.32352 0
M  V30 1097 H 96.5748 6.55943 -0.086595 0
M  V30 1098 H 96.4918 7.38723 -1.607 0
M  V30 1099 H 97.7598 7.77993 -0.484543 0
M  V30 1100 N 101.989 0.842826 1.3317 0
M  V30 1101 C 103.237 0.439577 1.97262 0
M  V30 1102 C 103.558 -1.00548 1.67078 0
M  V30 1103 O 102.828 -1.70098 0.971779 0
M  V30 1104 H 101.408 0.159558 0.72976 0
M  V30 1105 H 104.07 1.07665 1.62463 0
M  V30 1106 H 103.166 0.574886 3.0676 0
M  V30 1107 N 103.467 -1.45747 0.599634 0
M  V30 1108 C 104.744 -1.95585 0.0240846 0
M  V30 1109 C 105.124 -1.54217 -1.44154 0
M  V30 1110 O 104.472 -0.800903 -2.14004 0
M  V30 1111 C 104.682 -3.48344 0.21385 0
M  V30 1112 C 106.03 -4.24504 0.0904902 0
M  V30 1113 O 107.054 -3.55911 0.143558 0
M  V30 1114 O 105.913 -5.46491 -0.0310766 0
M  V30 1115 H 103.007 -0.82602 -0.0402478 0
M  V30 1116 H 105.553 -1.55951 0.669139 0
M  V30 1117 H 104.325 -3.71397 1.23206 0
M  V30 1118 H 103.948 -3.9485 -0.466842 0
M  V30 1119 N 104.945 -0.338344 -1.53925 0
M  V30 1120 C 106.194 0.260732 -2.00008 0
M  V30 1121 C 106.507 1.52073 -1.23017 0
M  V30 1122 O 107.713 2.19672 -1.5955 0
M  V30 1123 C 106.169 0.51515 -3.56194 0
M  V30 1124 C 105.777 -0.728645 -4.42035 0
M  V30 1125 C 107.521 1.07337 -4.10706 0
M  V30 1126 C 105.428 -0.445315 -5.89721 0
M  V30 1127 H 104.358 0.101205 -0.747177 0
M  V30 1128 H 107.009 -0.452866 -1.77824 0
M  V30 1129 H 105.391 1.28932 -3.74423 0
M  V30 1130 H 106.565 -1.50352 -4.35581 0
M  V30 1131 H 104.88 -1.20813 -3.98489 0
M  V30 1132 H 107.477 1.30022 -5.18651 0
M  V30 1133 H 107.82 2.0273 -3.63602 0
M  V30 1134 H 108.353 0.360034 -3.96167 0
M  V30 1135 H 105.092 -1.36883 -6.41049 0
M  V30 1136 H 104.612 0.291569 -5.99091 0
M  V30 1137 H 106.291 -0.0606218 -6.46972 0
M  V30 1138 N 106.423 1.57458 -0.0668435 0
M  V30 1139 C 107.651 1.97624 0.612565 0
M  V30 1140 C 108.066 0.94502 1.63447 0
M  V30 1141 O 107.423 -0.0689276 1.8237 0
M  V30 1142 C 107.474 3.37869 1.28555 0
M  V30 1143 O 107.195 4.3704 0.304557 0
M  V30 1144 C 108.696 3.92882 2.05325 0
M  V30 1145 H 105.916 0.650045 0.166381 0
M  V30 1146 H 108.46 2.04035 -0.137782 0
M  V30 1147 H 106.615 3.3256 1.98702 0
M  V30 1148 H 107.029 5.18565 0.786779 0
M  V30 1149 H 108.503 4.93247 2.47812 0
M  V30 1150 H 108.98 3.29156 2.9078 0
M  V30 1151 H 109.586 4.01577 1.40056 0
M  V30 1152 N 107.901 -0.206675 1.56239 0
M  V30 1153 C 109.126 -0.949474 1.8439 0
M  V30 1154 C 109.551 -1.76549 0.649016 0
M  V30 1155 O 108.909 -1.76782 -0.402231 0
M  V30 1156 C 108.957 -1.83078 3.10668 0
M  V30 1157 O 108.061 -2.9281 2.90407 0
M  V30 1158 H 107.402 -0.268033 0.607499 0
M  V30 1159 H 109.932 -0.215488 2.03462 0
M  V30 1160 H 109.942 -2.2377 3.41161 0
M  V30 1161 H 108.617 -1.23112 3.97261 0
M  V30 1162 H 107.194 -2.55956 2.71184 0
M  V30 1163 N 109.379 -1.50304 -0.473955 0
M  V30 1164 C 110.342 -1.6841 -1.55469 0
M  V30 1165 C 111.342 -0.554905 -1.50922 0
M  V30 1166 O 112.532 -0.821882 -1.53593 0
M  V30 1167 C 109.664 -1.70667 -2.95102 0
M  V30 1168 H 110.857 -2.64828 -1.40733 0
M  V30 1169 H 108.41 -1.39742 -0.700132 0
M  V30 1170 H 109.145 -0.75932 -3.15285 0
M  V30 1171 H 108.93 -2.52698 -2.9981 0
M  V30 1172 H 110.42 -1.8664 -3.73571 0
M  V30 1173 N 110.857 0.726932 -1.39834 0
M  V30 1174 C 111.805 1.86235 -1.39353 0
M  V30 1175 C 112.799 1.67144 -0.275555 0
M  V30 1176 O 114.005 1.74387 -0.44601 0
M  V30 1177 H 110.38 0.613174 -0.43534 0
M  V30 1178 H 112.351 1.83756 -2.35109 0
M  V30 1179 C 111.1 3.23995 -1.26185 0
M  V30 1180 H 110.423 3.39285 -2.11484 0
M  V30 1181 H 111.863 4.03609 -1.29907 0
M  V30 1182 C 110.322 3.36888 0.0290018 0
M  V30 1183 O 110.852 3.89152 0.99619 0
M  V30 1184 N 109.058 2.90446 0.0947437 0
M  V30 1185 H 108.605 2.48102 -0.693035 0
M  V30 1186 H 108.563 2.99451 0.957932 0
M  V30 1187 N 112.336 1.25143 0.95797 0
M  V30 1188 C 113.585 1.0909 1.69654 0
M  V30 1189 C 113.898 -0.368548 1.92097 0
M  V30 1190 O 115.104 -0.649455 2.63618 0
M  V30 1191 C 113.56 1.90395 3.05414 0
M  V30 1192 C 113.168 3.4081 2.90779 0
M  V30 1193 C 114.912 1.82901 3.83076 0
M  V30 1194 C 112.819 4.14423 4.21909 0
M  V30 1195 H 111.749 0.404625 0.636235 0
M  V30 1196 H 114.4 1.4931 1.06672 0
M  V30 1197 H 112.782 1.42996 3.69281 0
M  V30 1198 H 113.956 3.95859 2.35865 0
M  V30 1199 H 112.271 3.49361 2.26575 0
M  V30 1200 H 114.868 2.35196 4.80195 0
M  V30 1201 H 115.211 0.796224 4.08615 0
M  V30 1202 H 115.744 2.28033 3.25954 0
M  V30 1203 H 112.483 5.18102 4.01561 0
M  V30 1204 H 112.003 3.64159 4.76601 0
M  V30 1205 H 113.682 4.21956 4.90471 0
M  V30 1206 N 113.814 -1.1601 1.06675 0
M  V30 1207 C 114.761 -2.20525 0.680967 0
M  V30 1208 C 115.731 -1.62904 -0.324283 0
M  V30 1209 O 116.916 -1.89615 -0.212294 0
M  V30 1210 C 114.056 -3.45013 0.0776551 0
M  V30 1211 C 113.169 -4.16863 1.13355 0
M  V30 1212 C 112.304 -5.2888 0.49597 0
M  V30 1213 C 111.343 -5.92537 1.53513 0
M  V30 1214 N 110.48 -6.96038 0.920631 0
M  V30 1215 H 115.32 -2.52876 1.57663 0
M  V30 1216 H 112.857 -1.24199 0.788223 0
M  V30 1217 H 114.815 -4.16193 -0.289704 0
M  V30 1218 H 113.445 -3.132 -0.781393 0
M  V30 1219 H 112.497 -3.44248 1.61857 0
M  V30 1220 H 113.809 -4.60294 1.92174 0
M  V30 1221 H 112.963 -6.06653 0.0758604 0
M  V30 1222 H 111.702 -4.86622 -0.324062 0
M  V30 1223 H 110.707 -5.13482 1.9651 0
M  V30 1224 H 111.932 -6.36873 2.35733 0
M  V30 1225 H 109.878 -6.55888 0.12138 0
M  V30 1226 H 109.795 -7.3786 1.64616 0
M  V30 1227 H 111.063 -7.77725 0.525795 0
M  V30 1228 N 115.292 -0.849877 -1.32721 0
M  V30 1229 C 116.522 -0.46408 -2.0132 0
M  V30 1230 C 116.93 0.94246 -1.64056 0
M  V30 1231 O 116.273 1.6257 -0.855379 0
M  V30 1232 C 116.335 -0.517887 -3.5575 0
M  V30 1233 C 115.999 -1.88248 -4.16427 0
M  V30 1234 C 116.996 -2.84726 -4.35002 0
M  V30 1235 C 114.681 -2.17832 -4.52609 0
M  V30 1236 C 116.675 -4.08945 -4.8892 0
M  V30 1237 C 114.362 -3.42304 -5.06232 0
M  V30 1238 C 115.36 -4.37677 -5.24335 0
M  V30 1239 O 115.048 -5.59946 -5.76815 0
M  V30 1240 H 114.78 -0.181327 -0.651227 0
M  V30 1241 H 117.334 -1.14713 -1.70382 0
M  V30 1242 H 115.564 0.221997 -3.86062 0
M  V30 1243 H 117.253 -0.148366 -4.05629 0
M  V30 1244 H 118.019 -2.63174 -4.07388 0
M  V30 1245 H 113.898 -1.44385 -4.37806 0
M  V30 1246 H 117.442 -4.83396 -5.02966 0
M  V30 1247 H 113.339 -3.63709 -5.33278 0
M  V30 1248 H 114.107 -5.61838 -5.95214 0
M  V30 1249 N 116.77 1.45427 -0.607355 0
M  V30 1250 C 118.016 2.03097 -0.111035 0
M  V30 1251 C 118.371 1.46735 1.24445 0
M  V30 1252 O 117.664 0.632478 1.8086 0
M  V30 1253 C 117.858 3.57398 -0.0129263 0
M  V30 1254 C 117.687 4.28726 -1.35735 0
M  V30 1255 C 116.457 4.66659 -1.93798 0
M  V30 1256 C 118.655 4.60699 -2.28607 0
M  V30 1257 N 116.637 5.22845 -3.21723 0
M  V30 1258 C 118.008 5.17716 -3.41131 0
M  V30 1259 C 120.063 4.42638 -2.27982 0
M  V30 1260 C 118.766 5.58576 -4.53194 0
M  V30 1261 C 120.792 4.84531 -3.39093 0
M  V30 1262 C 120.154 5.4164 -4.50339 0
M  V30 1263 H 116.253 0.777476 -0.083994 0
M  V30 1264 H 118.837 1.77249 -0.805655 0
M  V30 1265 H 117.008 3.82907 0.650914 0
M  V30 1266 H 118.74 4.01722 0.490033 0
M  V30 1267 H 115.495 4.50207 -1.47007 0
M  V30 1268 H 115.919 5.55438 -3.87063 0
M  V30 1269 H 120.561 3.97798 -1.43235 0
M  V30 1270 H 118.279 6.02382 -5.38667 0
M  V30 1271 H 121.865 4.72289 -3.39757 0
M  V30 1272 H 120.745 5.73461 -5.34895 0
M  V30 1273 N 118.248 0.346503 1.53744 0
M  V30 1274 C 119.525 -0.304532 1.93215 0
M  V30 1275 C 119.905 -1.67993 1.27834 0
M  V30 1276 O 119.253 -2.24411 0.430352 0
M  V30 1277 C 119.463 -0.373852 3.46992 0
M  V30 1278 C 120.811 -0.62329 4.2 0
M  V30 1279 O 121.835 -0.455847 3.53271 0
M  V30 1280 O 120.694 -0.947879 5.38217 0
M  V30 1281 H 117.788 -0.178318 0.807547 0
M  V30 1282 H 120.334 0.397895 1.64969 0
M  V30 1283 H 119.106 0.591224 3.86808 0
M  V30 1284 H 118.729 -1.12294 3.81413 0
M  V30 1285 N 119.726 -1.57421 0.075193 0
M  V30 1286 C 120.954 -1.97946 -0.602076 0
M  V30 1287 C 121.369 -0.953674 -1.62943 0
M  V30 1288 O 120.726 0.0592551 -1.82404 0
M  V30 1289 C 120.777 -3.38546 -1.26762 0
M  V30 1290 O 120.498 -4.37195 -0.281376 0
M  V30 1291 C 121.999 -3.93966 -2.03239 0
M  V30 1292 H 119.219 -0.650918 -0.162931 0
M  V30 1293 H 121.763 -2.03959 0.148601 0
M  V30 1294 H 119.918 -3.33609 -1.96936 0
M  V30 1295 H 120.332 -5.18975 -0.759267 0
M  V30 1296 H 121.806 -4.94555 -2.45193 0
M  V30 1297 H 122.283 -3.30693 -2.8903 0
M  V30 1298 H 122.889 -4.02315 -1.37924 0
M  V30 1299 N 121.204 0.198386 -1.56346 0
M  V30 1300 C 122.167 1.22952 -1.93431 0
M  V30 1301 C 123.167 1.38611 -0.815092 0
M  V30 1302 O 124.357 1.36479 -1.08255 0
M  V30 1303 C 121.489 2.59946 -2.20546 0
M  V30 1304 H 122.682 0.912626 -2.85677 0
M  V30 1305 H 120.235 0.43977 -1.49986 0
M  V30 1306 H 120.97 2.96696 -1.30927 0
M  V30 1307 H 120.755 2.49953 -3.02102 0
M  V30 1308 H 122.245 3.3431 -2.50253 0
M  V30 1309 N 122.682 1.50554 0.465978 0
M  V30 1310 C 123.959 1.5232 1.22712 0
M  V30 1311 C 124.339 0.270807 2.09356 0
M  V30 1312 O 123.687 -0.745541 2.15995 0
M  V30 1313 C 123.897 2.82175 2.05374 0
M  V30 1314 C 125.245 3.33033 2.6339 0
M  V30 1315 O 126.269 2.83531 2.15612 0
M  V30 1316 O 125.128 4.19336 3.50456 0
M  V30 1317 H 122.222 0.611183 0.557122 0
M  V30 1318 H 124.768 1.62847 0.477381 0
M  V30 1319 H 123.54 3.64797 1.41558 0
M  V30 1320 H 123.163 2.74675 2.87471 0
M  V30 1321 N 124.16 -0.719506 1.40217 0
M  V30 1322 C 125.108 -1.85493 1.40339 0
M  V30 1323 C 126.102 -1.66995 0.284415 0
M  V30 1324 O 127.308 -1.74148 0.455252 0
M  V30 1325 H 123.683 -0.610857 0.438586 0
M  V30 1326 H 125.654 -1.82506 2.36081 0
M  V30 1327 C 124.403 -3.23321 1.27901 0
M  V30 1328 H 123.726 -3.38159 2.1328 0
M  V30 1329 H 125.166 -4.02914 1.32045 0
M  V30 1330 C 123.625 -3.36898 -0.0111355 0
M  V30 1331 O 124.155 -3.89674 -0.975538 0
M  V30 1332 N 122.361 -2.90492 -0.0793393 0
M  V30 1333 H 121.908 -2.47731 0.706183 0
M  V30 1334 H 121.866 -2.99955 -0.942038 0
M  V30 1335 N 125.638 -1.25649 -0.95132 0
M  V30 1336 C 126.601 -1.06399 -2.03007 0
M  V30 1337 C 127.601 -0.0156794 -1.60792 0
M  V30 1338 O 128.791 -0.25817 -1.72276 0
M  V30 1339 C 125.923 -0.616184 -3.35285 0
M  V30 1340 H 127.116 -2.02164 -2.21517 0
M  V30 1341 H 124.669 -1.08103 -1.12887 0
M  V30 1342 H 125.404 0.343917 -3.22471 0
M  V30 1343 H 125.189 -1.37301 -3.67275 0
M  V30 1344 H 126.679 -0.503032 -4.14559 0
M  V30 1345 N 127.117 1.15442 -1.07289 0
M  V30 1346 C 128.364 1.86213 -0.795668 0
M  V30 1347 C 128.692 1.82291 0.678238 0
M  V30 1348 O 127.947 1.24057 1.51355 0
M  V30 1349 C 128.246 3.3489 -1.24834 0
M  V30 1350 C 127.912 3.59007 -2.72809 0
M  V30 1351 C 126.574 3.65298 -3.13227 0
M  V30 1352 C 128.926 3.68762 -3.68326 0
M  V30 1353 C 126.254 3.78854 -4.4798 0
M  V30 1354 C 128.606 3.83842 -5.0284 0
M  V30 1355 C 127.27 3.88378 -5.4288 0
M  V30 1356 H 126.54 0.681403 -0.291155 0
M  V30 1357 H 129.187 1.36435 -1.34379 0
M  V30 1358 H 127.492 3.8687 -0.619595 0
M  V30 1359 H 129.189 3.88052 -1.01076 0
M  V30 1360 H 125.779 3.5475 -2.40521 0
M  V30 1361 H 129.963 3.63202 -3.38227 0
M  V30 1362 H 125.219 3.80623 -4.78472 0
M  V30 1363 H 129.393 3.90332 -5.76727 0
M  V30 1364 H 127.02 3.98635 -6.47298 0
M  V30 1365 N 128.595 0.856903 1.32268 0
M  V30 1366 C 129.545 0.274899 2.26337 0
M  V30 1367 C 130.529 -0.580543 1.50062 0
M  V30 1368 O 131.721 -0.429559 1.71708 0
M  V30 1369 C 128.85 -0.533841 3.39124 0
M  V30 1370 C 127.936 0.334114 4.22782 0
M  V30 1371 N 128.327 1.42143 4.85416 0
M  V30 1372 C 126.625 0.124256 4.45827 0
M  V30 1373 C 127.326 1.95559 5.47843 0
M  V30 1374 N 126.302 1.25444 5.28928 0
M  V30 1375 H 130.104 1.10612 2.72291 0
M  V30 1376 H 127.618 0.703258 1.46383 0
M  V30 1377 H 129.615 -0.96722 4.05525 0
M  V30 1378 H 128.275 -1.36283 2.94715 0
M  V30 1379 H 129.286 1.80436 4.85451 0
M  V30 1380 H 125.963 -0.669837 4.12092 0
M  V30 1381 H 127.353 2.86714 6.07655 0
M  V30 1382 N 130.073 -1.45103 0.615059 0
M  V30 1383 C 131.319 -2.03035 0.121804 0
M  V30 1384 C 131.674 -1.47393 -1.23665 0
M  V30 1385 O 130.967 -0.642061 -1.80522 0
M  V30 1386 C 131.161 -3.57386 0.0318797 0
M  V30 1387 C 130.99 -4.28 1.38007 0
M  V30 1388 C 129.76 -4.65624 1.9627 0
M  V30 1389 C 131.958 -4.5948 2.31047 0
M  V30 1390 N 129.94 -5.21132 3.24492 0
M  V30 1391 C 131.311 -5.159 3.43872 0
M  V30 1392 C 133.366 -4.41423 2.30326 0
M  V30 1393 C 132.069 -5.56165 4.5615 0
M  V30 1394 C 134.095 -4.82726 3.41658 0
M  V30 1395 C 133.457 -5.39245 4.53205 0
M  V30 1396 H 129.556 -0.77702 0.0881159 0
M  V30 1397 H 132.14 -1.76819 0.815044 0
M  V30 1398 H 130.311 -3.83247 -0.630599 0
M  V30 1399 H 132.043 -4.01976 -0.468721 0
M  V30 1400 H 128.798 -4.49421 1.49392 0
M  V30 1401 H 129.222 -5.53377 3.90004 0
M  V30 1402 H 133.864 -3.97033 1.45343 0
M  V30 1403 H 131.582 -5.99517 5.41854 0
M  V30 1404 H 135.168 -4.7048 3.42257 0
M  V30 1405 H 134.048 -5.70616 5.37929 0
M  V30 1406 N 131.551 -0.354651 -1.53558 0
M  V30 1407 C 132.797 0.238797 -2.01389 0
M  V30 1408 C 133.13 1.49309 -1.2418 0
M  V30 1409 O 132.405 1.91638 -0.332457 0
M  V30 1410 C 132.688 0.541771 -3.56001 0
M  V30 1411 C 132.541 -0.725388 -4.43912 0
M  V30 1412 C 133.86 1.34685 -4.18984 0
M  V30 1413 H 130.979 0.0853177 -0.732045 0
M  V30 1414 H 133.621 -0.477384 -1.83905 0
M  V30 1415 H 131.771 1.15189 -3.71031 0
M  V30 1416 H 133.443 -1.36313 -4.407 0
M  V30 1417 H 131.686 -1.34801 -4.12324 0
M  V30 1418 H 132.357 -0.468505 -5.50008 0
M  V30 1419 H 134.833 0.830837 -4.07721 0
M  V30 1420 H 133.709 1.52759 -5.27215 0
M  V30 1421 H 133.97 2.35221 -3.74331 0
M  V30 1422 N 133.029 1.57378 -0.0835403 0
M  V30 1423 C 134.44 1.81261 0.447358 0
M  V30 1424 C 134.791 0.998331 1.68902 0
M  V30 1425 O 133.916 0.224282 2.15235 0
M  V30 1426 C 134.511 3.28767 0.818386 0
M  V30 1427 C 133.07 3.53455 1.29409 0
M  V30 1428 C 132.217 2.75831 0.285024 0
M  V30 1429 H 135.168 1.5566 -0.309115 0
M  V30 1430 H 135.189 3.41459 1.67887 0
M  V30 1431 H 134.701 3.88006 -0.0855019 0
M  V30 1432 H 132.802 2.99534 2.21608 0
M  V30 1433 H 132.915 4.62128 1.2639 0
M  V30 1434 H 131.279 2.42947 0.764767 0
M  V30 1435 H 132.062 3.37813 -0.611341 0
M  V30 1436 N 134.507 -0.190092 1.56449 0
M  V30 1437 C 135.44 -1.26375 1.90012 0
M  V30 1438 C 136.418 -1.43705 0.760765 0
M  V30 1439 O 137.602 -1.59014 1.01226 0
M  V30 1440 C 134.729 -2.62962 2.13468 0
M  V30 1441 C 133.775 -2.62474 3.36169 0
M  V30 1442 S 134.608 -2.13412 4.91137 0
M  V30 1443 C 135.764 -3.51812 5.17667 0
M  V30 1444 H 135.997 -0.977181 2.80782 0
M  V30 1445 H 133.53 -0.393814 1.49293 0
M  V30 1446 H 135.488 -3.41583 2.27664 0
M  V30 1447 H 134.149 -2.88828 1.23439 0
M  V30 1448 H 133.342 -3.62918 3.49723 0
M  V30 1449 H 132.944 -1.91937 3.20992 0
M  V30 1450 H 135.236 -4.47706 5.08494 0
M  V30 1451 H 136.179 -3.43148 6.19399 0
M  V30 1452 H 136.587 -3.46956 4.45288 0
M  V30 1453 N 135.985 -1.50799 -0.457987 0
M  V30 1454 C 137.231 -1.62683 -1.21088 0
M  V30 1455 C 137.564 -0.332268 -1.91336 0
M  V30 1456 O 136.839 0.667043 -1.82704 0
M  V30 1457 C 137.122 -2.81615 -2.24422 0
M  V30 1458 C 136.975 -4.20989 -1.58392 0
M  V30 1459 C 138.294 -2.96085 -3.2561 0
M  V30 1460 H 135.413 -0.592087 -0.438864 0
M  V30 1461 H 138.055 -1.83225 -0.50286 0
M  V30 1462 H 136.205 -2.64231 -2.84806 0
M  V30 1463 H 137.877 -4.49994 -1.01504 0
M  V30 1464 H 136.12 -4.24641 -0.886704 0
M  V30 1465 H 136.791 -5.0016 -2.33547 0
M  V30 1466 H 139.267 -3.12042 -2.75262 0
M  V30 1467 H 138.143 -3.80902 -3.95228 0
M  V30 1468 H 138.404 -2.0726 -3.90507 0
M  V30 1469 N 137.463 0.71206 -1.40597 0
M  V30 1470 C 138.709 1.47292 -1.40274 0
M  V30 1471 C 139.064 1.92399 -0.00576812 0
M  V30 1472 O 138.357 1.65507 0.965297 0
M  V30 1473 C 138.551 2.71039 -2.32965 0
M  V30 1474 C 138.38 2.38035 -3.81536 0
M  V30 1475 C 137.15 2.29203 -4.50327 0
M  V30 1476 C 139.348 2.02076 -4.72938 0
M  V30 1477 N 137.33 1.88911 -5.84111 0
M  V30 1478 C 138.701 1.72412 -5.95545 0
M  V30 1479 C 140.756 1.88742 -4.60739 0
M  V30 1480 C 139.459 1.30756 -7.07316 0
M  V30 1481 C 141.485 1.4849 -5.72455 0
M  V30 1482 C 140.847 1.19726 -6.94151 0
M  V30 1483 H 136.946 0.536919 -0.568544 0
M  V30 1484 H 139.53 0.825424 -1.76337 0
M  V30 1485 H 137.701 3.33533 -1.99023 0
M  V30 1486 H 139.433 3.37404 -2.23474 0
M  V30 1487 H 136.188 2.47059 -4.04053 0
M  V30 1488 H 136.612 1.71293 -6.54972 0
M  V30 1489 H 141.254 2.0964 -3.67166 0
M  V30 1490 H 138.972 1.08601 -8.00769 0
M  V30 1491 H 142.558 1.38747 -5.65014 0
M  V30 1492 H 141.438 0.890482 -7.79128 0
M  V30 1493 N 138.941 1.26152 0.944643 0
M  V30 1494 C 140.218 1.02247 1.66748 0
M  V30 1495 C 140.598 -0.448202 2.06287 0
M  V30 1496 O 139.946 -1.42779 1.78399 0
M  V30 1497 C 140.156 1.96788 2.88228 0
M  V30 1498 C 141.504 2.25201 3.59958 0
M  V30 1499 O 142.528 1.94626 2.98327 0
M  V30 1500 O 141.387 2.77242 4.70956 0
M  V30 1501 H 138.481 0.388517 0.730057 0
M  V30 1502 H 141.027 1.37348 0.99668 0
M  V30 1503 H 139.799 2.96047 2.55875 0
M  V30 1504 H 139.422 1.62145 3.63035 0
M  V30 1505 N 140.419 -1.14872 1.07899 0
M  V30 1506 C 141.644 -1.90202 0.826926 0
M  V30 1507 C 142.069 -1.77774 -0.614664 0
M  V30 1508 O 141.427 -1.11431 -1.43013 0
M  V30 1509 C 141.475 -3.38352 1.24702 0
M  V30 1510 O 140.579 -4.10497 0.39575 0
M  V30 1511 H 139.92 -0.591968 0.300782 0
M  V30 1512 H 142.45 -1.45437 1.43907 0
M  V30 1513 H 142.46 -3.89156 1.22563 0
M  V30 1514 H 141.135 -3.46715 2.29698 0
M  V30 1515 H 139.712 -3.69796 0.480117 0
M  V30 1516 N 141.898 -0.863906 -1.31812 0
M  V30 1517 C 142.846 -0.30422 -2.30602 0
M  V30 1518 C 143.84 0.577419 -1.59255 0
M  V30 1519 O 145.046 0.464194 -1.73912 0
M  V30 1520 H 141.421 -0.0796877 -0.747766 0
M  V30 1521 H 143.392 -1.15148 -2.75288 0
M  V30 1522 C 142.141 0.484617 -3.44306 0
M  V30 1523 H 141.464 -0.18451 -3.99374 0
M  V30 1524 H 142.904 0.841664 -4.15562 0
M  V30 1525 C 141.363 1.6735 -2.92396 0
M  V30 1526 O 141.893 2.77273 -2.90659 0
M  V30 1527 N 140.099 1.50362 -2.48676 0
M  V30 1528 H 139.646 0.609402 -2.50288 0
M  V30 1529 H 139.604 2.30051 -2.14299 0
M  V30 1530 N 143.376 1.44774 -0.622745 0
M  V30 1531 C 144.653 1.95522 -0.0551974 0
M  V30 1532 C 145.033 1.5649 1.41683 0
M  V30 1533 O 144.381 0.834848 2.12703 0
M  V30 1534 C 144.591 3.4796 -0.269242 0
M  V30 1535 C 145.939 4.24306 -0.158014 0
M  V30 1536 O 146.963 3.55637 -0.200162 0
M  V30 1537 O 145.822 5.46471 -0.0558693 0
M  V30 1538 H 142.916 0.826556 0.0271015 0
M  V30 1539 H 145.462 1.54866 -0.693864 0
M  V30 1540 H 144.234 3.6939 -1.29099 0
M  V30 1541 H 143.857 3.95543 0.403966 0
M  V30 1542 N 144.854 0.36279 1.53368 0
M  V30 1543 C 146.265 -0.117022 1.86333 0
M  V30 1544 C 146.616 -1.48397 1.28347 0
M  V30 1545 O 145.741 -2.07787 0.604428 0
M  V30 1546 C 146.336 -0.21912 3.38091 0
M  V30 1547 C 144.895 -0.643184 3.70864 0
M  V30 1548 C 144.042 0.211318 2.76494 0
M  V30 1549 H 146.993 0.581687 1.47655 0
M  V30 1550 H 147.014 -1.04319 3.6592 0
M  V30 1551 H 146.526 0.775902 3.80265 0
M  V30 1552 H 144.627 -1.64654 3.34245 0
M  V30 1553 H 144.74 -0.41973 4.77258 0
M  V30 1554 H 143.104 -0.319367 2.5269 0
M  V30 1555 H 143.887 1.20383 3.21501 0
M  V30 1556 N 146.332 -1.57332 0.0918853 0
M  V30 1557 C 147.56 -1.98574 -0.581048 0
M  V30 1558 C 147.975 -0.970903 -1.61923 0
M  V30 1559 O 147.332 0.0399054 -1.82456 0
M  V30 1560 C 147.383 -3.39872 -1.23164 0
M  V30 1561 O 147.104 -4.37469 -0.234989 0
M  V30 1562 C 148.605 -3.96099 -1.99049 0
M  V30 1563 H 145.825 -0.65261 -0.156018 0
M  V30 1564 H 148.369 -2.0379 0.170225 0
M  V30 1565 H 146.524 -3.35679 -1.93386 0
M  V30 1566 H 146.938 -5.19751 -0.70418 0
M  V30 1567 H 148.412 -4.97127 -2.39934 0
M  V30 1568 H 148.889 -3.3374 -2.85507 0
M  V30 1569 H 149.495 -4.03755 -1.3365 0
M  V30 1570 N 147.81 0.181792 -1.56548 0
M  V30 1571 C 149.058 0.89832 -1.81038 0
M  V30 1572 C 149.379 1.83232 -0.667164 0
M  V30 1573 O 148.649 1.93372 0.313673 0
M  V30 1574 H 147.229 0.33471 -0.667816 0
M  V30 1575 H 149.891 0.184116 -1.94028 0
M  V30 1576 H 148.987 1.4815 -2.74696 0
M  V30 1577 N 149.288 1.51039 0.449983 0
M  V30 1578 C 150.516 1.66869 1.2232 0
M  V30 1579 C 150.931 0.360727 1.85322 0
M  V30 1580 O 150.288 -0.659531 1.70166 0
M  V30 1581 C 150.339 2.77524 2.31652 0
M  V30 1582 O 150.06 4.03252 1.7123 0
M  V30 1583 C 151.561 3.04512 3.2216 0
M  V30 1584 H 148.781 0.560326 0.369155 0
M  V30 1585 H 151.325 1.97385 0.534719 0
M  V30 1586 H 149.48 2.49642 2.96239 0
M  V30 1587 H 149.894 4.64609 2.43389 0
M  V30 1588 H 151.368 3.85551 3.95038 0
M  V30 1589 H 151.845 2.16415 3.8218 0
M  V30 1590 H 152.451 3.34005 2.63288 0
M  V30 1591 N 150.766 -0.704594 1.40972 0
M  V30 1592 C 152.013 -1.46458 1.39844 0
M  V30 1593 C 152.341 -1.94499 0.00447594 0
M  V30 1594 O 151.596 -1.69275 -0.982057 0
M  V30 1595 C 151.895 -2.698 2.34399 0
M  V30 1596 C 151.561 -2.40464 3.81429 0
M  V30 1597 C 150.223 -2.32174 4.21484 0
M  V30 1598 C 152.575 -2.16086 4.74296 0
M  V30 1599 C 149.903 -1.97589 5.52427 0
M  V30 1600 C 152.255 -1.83011 6.05549 0
M  V30 1601 C 150.919 -1.7321 6.44635 0
M  V30 1602 H 150.189 -0.535927 0.511725 0
M  V30 1603 H 152.836 -0.806124 1.73706 0
M  V30 1604 H 151.141 -3.40536 1.93759 0
M  V30 1605 H 152.838 -3.27919 2.30804 0
M  V30 1606 H 149.428 -2.47808 3.49699 0
M  V30 1607 H 153.612 -2.2144 4.4416 0
M  V30 1608 H 148.868 -1.88547 5.81601 0
M  V30 1609 H 153.042 -1.63164 6.77016 0
M  V30 1610 H 150.669 -1.46179 7.46013 0
M  V30 1611 N 152.244 -1.26651 -0.937939 0
M  V30 1612 C 153.521 -1.0313 -1.66204 0
M  V30 1613 C 153.901 0.437256 -2.06522 0
M  V30 1614 O 153.249 1.41831 -1.79154 0
M  V30 1615 C 153.459 -1.98314 -2.87181 0
M  V30 1616 C 154.807 -2.27107 -3.58758 0
M  V30 1617 O 155.831 -1.96205 -2.97291 0
M  V30 1618 O 154.69 -2.79736 -4.69479 0
M  V30 1619 H 151.784 -0.392384 -0.727986 0
M  V30 1620 H 154.33 -1.37874 -0.989382 0
M  V30 1621 H 153.102 -2.97399 -2.54302 0
M  V30 1622 H 152.725 -1.64068 -3.6217 0
M  V30 1623 N 153.722 1.14298 -1.08507 0
M  V30 1624 C 154.952 1.88945 -0.835663 0
M  V30 1625 C 155.36 1.78894 0.615928 0
M  V30 1626 O 154.703 1.1468 1.43506 0
M  V30 1627 C 154.765 3.39585 -1.17994 0
M  V30 1628 C 154.429 3.7342 -2.63451 0
M  V30 1629 C 155.426 3.73454 -3.61702 0
M  V30 1630 C 153.111 4.03368 -2.99332 0
M  V30 1631 C 155.105 4.02961 -4.93864 0
M  V30 1632 C 152.792 4.32538 -4.31687 0
M  V30 1633 C 153.79 4.32318 -5.28763 0
M  V30 1634 O 153.478 4.6078 -6.58739 0
M  V30 1635 H 153.21 0.605307 -0.300965 0
M  V30 1636 H 155.764 1.45673 -1.44806 0
M  V30 1637 H 153.994 3.83315 -0.51055 0
M  V30 1638 H 155.683 3.9554 -0.911182 0
M  V30 1639 H 156.449 3.50403 -3.35325 0
M  V30 1640 H 152.328 4.02692 -2.24411 0
M  V30 1641 H 155.872 4.02704 -5.69627 0
M  V30 1642 H 151.769 4.55059 -4.57812 0
M  V30 1643 H 152.537 4.78492 -6.64069 0
M  V30 1644 N 155.201 0.870884 1.31352 0
M  V30 1645 C 156.447 0.492314 1.97352 0
M  V30 1646 C 156.802 -0.945174 1.67583 0
M  V30 1647 O 156.095 -1.65674 0.962423 0
M  V30 1648 C 156.289 0.687157 3.50732 0
M  V30 1649 C 156.118 2.14203 3.95407 0
M  V30 1650 C 154.888 2.78382 4.21701 0
M  V30 1651 C 157.086 3.1144 4.09279 0
M  V30 1652 N 155.068 4.14611 4.52737 0
M  V30 1653 C 156.439 4.32702 4.44037 0
M  V30 1654 C 158.494 3.07418 3.91661 0
M  V30 1655 C 157.197 5.50463 4.63015 0
M  V30 1656 C 159.223 4.24438 4.11833 0
M  V30 1657 C 158.585 5.44463 4.46923 0
M  V30 1658 H 154.684 0.229206 0.747655 0
M  V30 1659 H 157.268 1.12568 1.5886 0
M  V30 1660 H 155.439 0.083384 3.8831 0
M  V30 1661 H 157.171 0.276883 4.03752 0
M  V30 1662 H 153.926 2.29326 4.14375 0
M  V30 1663 H 154.35 4.84928 4.72413 0
M  V30 1664 H 158.992 2.15732 3.6362 0
M  V30 1665 H 156.71 6.42666 4.89904 0
M  V30 1666 H 160.296 4.2278 3.99685 0
M  V30 1667 H 159.176 6.33504 4.62214 0
M  V30 1668 N 156.679 -1.44442 0.630414 0
M  V30 1669 C 157.626 -2.30678 -0.0749355 0
M  V30 1670 C 158.596 -1.4344 -0.837502 0
M  V30 1671 O 159.781 -1.72343 -0.818684 0
M  V30 1672 C 156.921 -3.28706 -1.05103 0
M  V30 1673 C 156.034 -4.31046 -0.286954 0
M  V30 1674 C 155.169 -5.16167 -1.2548 0
M  V30 1675 C 154.208 -6.10216 -0.479843 0
M  V30 1676 N 153.345 -6.88039 -1.39811 0
M  V30 1677 H 158.185 -2.90454 0.666386 0
M  V30 1678 H 155.722 -1.43107 0.340404 0
M  V30 1679 H 157.68 -3.84027 -1.63031 0
M  V30 1680 H 156.31 -2.70632 -1.75949 0
M  V30 1681 H 155.362 -3.78203 0.408243 0
M  V30 1682 H 156.674 -4.97794 0.316657 0
M  V30 1683 H 155.828 -5.76002 -1.90544 0
M  V30 1684 H 154.567 -4.49491 -1.89233 0
M  V30 1685 H 153.572 -5.49491 0.184295 0
M  V30 1686 H 154.797 -6.78928 0.152965 0
M  V30 1687 H 152.743 -6.24032 -2.02287 0
M  V30 1688 H 152.66 -7.51223 -0.848508 0
M  V30 1689 H 153.928 -7.52397 -2.03762 0
M  V30 1690 N 158.157 -0.370918 -1.53173 0
M  V30 1691 C 159.405 0.216673 -2.00935 0
M  V30 1692 C 159.726 1.48845 -1.25977 0
M  V30 1693 O 158.996 1.92286 -0.374551 0
M  V30 1694 H 157.576 0.0830565 -0.742368 0
M  V30 1695 H 160.238 -0.49838 -1.8842 0
M  V30 1696 H 159.334 0.439893 -3.08984 0
M  V30 1697 N 159.635 1.57281 -0.100228 0
M  V30 1698 C 160.863 1.98879 0.570509 0
M  V30 1699 C 161.278 0.979476 1.61405 0
M  V30 1700 O 160.635 -0.0302288 1.82475 0
M  V30 1701 C 160.686 3.4052 1.2136 0
M  V30 1702 O 160.407 4.37588 0.211786 0
M  V30 1703 C 161.908 3.97149 1.96945 0
M  V30 1704 H 159.128 0.653428 0.152555 0
M  V30 1705 H 161.672 2.03697 -0.18103 0
M  V30 1706 H 159.827 3.367 1.91603 0
M  V30 1707 H 160.241 5.20118 0.676607 0
M  V30 1708 H 161.715 4.98393 2.37294 0
M  V30 1709 H 162.192 3.3525 2.83733 0
M  V30 1710 H 162.798 4.04458 1.31506 0
M  V30 1711 N 161.113 -0.173488 1.56642 0
M  V30 1712 C 162.362 -0.888758 1.81063 0
M  V30 1713 C 162.675 -1.83506 0.67712 0
M  V30 1714 O 163.881 -2.59254 0.806206 0
M  V30 1715 C 162.337 -1.63091 3.20826 0
M  V30 1716 C 161.945 -0.728357 4.4204 0
M  V30 1717 C 163.689 -2.33454 3.54541 0
M  V30 1718 C 161.596 -1.47062 5.72823 0
M  V30 1719 H 160.526 -0.335618 0.675186 0
M  V30 1720 H 163.177 -0.141712 1.82952 0
M  V30 1721 H 161.559 -2.42263 3.13248 0
M  V30 1722 H 162.733 0.0262449 4.60793 0
M  V30 1723 H 161.048 -0.134492 4.16183 0
M  V30 1724 H 163.645 -2.89578 4.49498 0
M  V30 1725 H 163.988 -3.08687 2.79317 0
M  V30 1726 H 164.521 -1.61227 3.63663 0
M  V30 1727 H 161.26 -0.760658 6.51072 0
M  V30 1728 H 160.78 -2.1986 5.58052 0
M  V30 1729 H 162.459 -2.01868 6.14702 0
M  V30 1730 N 162.591 -1.51276 -0.441967 0
M  V30 1731 C 164.002 -1.56244 -1.02199 0
M  V30 1732 C 164.353 -0.383149 -1.92422 0
M  V30 1733 O 163.478 0.500613 -2.1053 0
M  V30 1734 C 164.073 -2.83162 -1.86024 0
M  V30 1735 C 162.632 -2.90716 -2.39084 0
M  V30 1736 C 161.779 -2.50858 -1.18175 0
M  V30 1737 H 164.73 -1.5712 -0.223416 0
M  V30 1738 H 164.751 -2.66663 -2.71425 0
M  V30 1739 H 164.263 -3.68974 -1.20331 0
M  V30 1740 H 162.364 -2.09323 -3.08244 0
M  V30 1741 H 162.477 -3.94266 -2.72198 0
M  V30 1742 H 160.841 -2.03951 -1.52565 0
M  V30 1743 H 161.624 -3.3901 -0.541001 0
M  V30 1744 N 164.069 0.697108 -1.41344 0
M  V30 1745 C 165.032 1.79281 -1.42797 0
M  V30 1746 C 166.032 1.57607 -0.318837 0
M  V30 1747 O 167.222 1.64309 -0.578642 0
M  V30 1748 C 164.354 3.17632 -1.23785 0
M  V30 1749 H 165.547 1.79385 -2.40335 0
M  V30 1750 H 163.1 0.904582 -1.27464 0
M  V30 1751 H 163.835 3.23167 -0.270814 0
M  V30 1752 H 163.62 3.34765 -2.04144 0
M  V30 1753 H 165.11 3.97617 -1.27633 0
M  V30 1754 N 165.547 1.27147 0.931209 0
M  V30 1755 C 166.772 1.16191 1.71797 0
M  V30 1756 C 167.197 -0.278004 1.86034 0
M  V30 1757 O 166.555 -1.20137 1.35782 0
M  V30 1758 C 166.603 1.84673 3.09723 0
M  V30 1759 O 165.707 1.14231 3.96264 0
M  V30 1760 H 165.048 0.404303 0.526721 0
M  V30 1761 H 167.578 1.68152 1.1656 0
M  V30 1762 H 167.588 1.91893 3.60057 0
M  V30 1763 H 166.263 2.89421 2.98677 0
M  V30 1764 H 164.84 1.15056 3.54706 0
M  V30 1765 N 167.025 -1.13721 1.09112 0
M  V30 1766 C 168.436 -1.6648 0.845068 0
M  V30 1767 C 168.787 -1.85911 -0.62701 0
M  V30 1768 O 167.912 -1.57556 -1.48341 0
M  V30 1769 C 168.507 -3.02413 1.52748 0
M  V30 1770 C 167.066 -3.52176 1.32849 0
M  V30 1771 C 166.213 -2.27492 1.58564 0
M  V30 1772 H 169.164 -0.976872 1.25072 0
M  V30 1773 H 169.185 -3.68223 0.958752 0
M  V30 1774 H 168.697 -2.88238 2.59885 0
M  V30 1775 H 166.798 -3.7156 0.278137 0
M  V30 1776 H 166.911 -4.32499 2.0611 0
M  V30 1777 H 165.275 -2.33923 1.00758 0
M  V30 1778 H 166.058 -2.15886 2.66924 0
M  V30 1779 N 168.503 -0.877838 -1.30888 0
M  V30 1780 C 169.728 -0.506629 -2.01117 0
M  V30 1781 C 170.153 0.895564 -1.65412 0
M  V30 1782 O 169.511 1.5923 -0.866922 0
M  V30 1783 C 169.559 -0.680223 -3.54126 0
M  V30 1784 O 168.663 0.277033 -4.11468 0
M  V30 1785 H 168.004 -0.200518 -0.633 0
M  V30 1786 H 170.534 -1.18342 -1.66902 0
M  V30 1787 H 170.544 -0.5765 -4.03907 0
M  V30 1788 H 169.219 -1.70261 -3.79452 0
M  V30 1789 H 167.796 0.127606 -3.72682 0
M  V30 1790 N 169.982 1.44106 -0.638065 0
M  V30 1791 C 171.231 2.01194 -0.142744 0
M  V30 1792 C 171.544 1.50835 1.24532 0
M  V30 1793 O 172.75 2.00096 1.83504 0
M  V30 1794 C 171.206 3.59319 -0.20442 0
M  V30 1795 C 170.814 4.18674 -1.59423 0
M  V30 1796 C 172.558 4.23854 0.234079 0
M  V30 1797 C 170.465 5.69045 -1.61065 0
M  V30 1798 H 169.395 0.752367 -0.0495998 0
M  V30 1799 H 172.046 1.65246 -0.797881 0
M  V30 1800 H 170.428 3.92598 0.517946 0
M  V30 1801 H 171.602 3.96921 -2.34074 0
M  V30 1802 H 169.917 3.66453 -1.97741 0
M  V30 1803 H 172.514 5.34155 0.241443 0
M  V30 1804 H 172.857 3.96688 1.2627 0
M  V30 1805 H 173.39 3.95403 -0.436025 0
M  V30 1806 H 170.129 6.00956 -2.61787 0
M  V30 1807 H 169.649 5.929 -0.90718 0
M  V30 1808 H 171.328 6.32809 -1.34766 0
M  V30 1809 N 171.46 0.379036 1.52974 0
M  V30 1810 C 172.407 -0.461048 2.26148 0
M  V30 1811 C 173.377 -1.06637 1.27349 0
M  V30 1812 O 174.562 -1.09633 1.56157 0
M  V30 1813 C 171.702 -1.58782 3.06402 0
M  V30 1814 C 170.815 -1.00636 4.20115 0
M  V30 1815 C 169.95 -2.10334 4.87784 0
M  V30 1816 C 168.989 -1.49724 5.93506 0
M  V30 1817 N 168.126 -2.5331 6.54812 0
M  V30 1818 H 172.966 0.169429 2.97518 0
M  V30 1819 H 170.503 0.0953806 1.4679 0
M  V30 1820 H 172.461 -2.25174 3.51215 0
M  V30 1821 H 171.091 -2.18876 2.37261 0
M  V30 1822 H 170.143 -0.232332 3.7969 0
M  V30 1823 H 171.455 -0.523343 4.96047 0
M  V30 1824 H 170.609 -2.84519 5.35849 0
M  V30 1825 H 169.348 -2.61992 4.11353 0
M  V30 1826 H 168.353 -0.740598 5.44789 0
M  V30 1827 H 169.578 -0.988732 6.71864 0
M  V30 1828 H 167.524 -3.04156 5.81227 0
M  V30 1829 H 167.441 -2.09734 7.26325 0
M  V30 1830 H 168.709 -3.27155 7.07524 0
M  V30 1831 N 172.938 -1.57226 0.108567 0
M  V30 1832 C 174.168 -1.9889 -0.559142 0
M  V30 1833 C 174.576 -0.986889 -1.61422 0
M  V30 1834 O 173.919 0.0298705 -1.83676 0
M  V30 1835 C 173.981 -3.36952 -1.25315 0
M  V30 1836 C 173.645 -4.55679 -0.347248 0
M  V30 1837 C 174.642 -5.18281 0.409996 0
M  V30 1838 C 172.327 -5.0162 -0.261367 0
M  V30 1839 C 174.321 -6.25203 1.24096 0
M  V30 1840 C 172.008 -6.08405 0.573238 0
M  V30 1841 C 173.006 -6.70063 1.32304 0
M  V30 1842 O 172.694 -7.74788 2.14381 0
M  V30 1843 H 172.426 -0.658343 -0.153492 0
M  V30 1844 H 174.98 -2.04532 0.188584 0
M  V30 1845 H 173.21 -3.28032 -2.04773 0
M  V30 1846 H 174.899 -3.62974 -1.81673 0
M  V30 1847 H 175.665 -4.8371 0.353457 0
M  V30 1848 H 171.544 -4.53381 -0.834656 0
M  V30 1849 H 175.088 -6.73259 1.82669 0
M  V30 1850 H 170.985 -6.42406 0.631208 0
M  V30 1851 H 171.753 -7.91837 2.07209 0
M  V30 1852 N 174.416 0.165178 -1.56732 0
M  V30 1853 C 175.646 0.894919 -1.86212 0
M  V30 1854 C 176.054 1.76066 -0.692627 0
M  V30 1855 O 175.397 1.80387 0.347303 0
M  V30 1856 C 175.459 1.8174 -3.10179 0
M  V30 1857 C 175.123 1.13064 -4.42793 0
M  V30 1858 C 176.12 0.493169 -5.17556 0
M  V30 1859 C 173.805 1.12556 -4.89527 0
M  V30 1860 C 175.799 -0.140209 -6.37246 0
M  V30 1861 C 173.486 0.488366 -6.09145 0
M  V30 1862 C 174.484 -0.143411 -6.82849 0
M  V30 1863 O 174.172 -0.77055 -8.00199 0
M  V30 1864 H 173.904 0.265114 -0.621844 0
M  V30 1865 H 176.458 0.168242 -2.0471 0
M  V30 1866 H 174.688 2.58455 -2.87642 0
M  V30 1867 H 176.377 2.4175 -3.26055 0
M  V30 1868 H 177.143 0.489023 -4.82528 0
M  V30 1869 H 173.022 1.60672 -4.32094 0
M  V30 1870 H 176.566 -0.633932 -6.94714 0
M  V30 1871 H 172.463 0.490116 -6.43637 0
M  V30 1872 H 173.231 -0.670408 -8.1575 0
M  V30 1873 N 175.894 1.51508 0.433938 0
M  V30 1874 C 177.31 1.39759 0.770682 0
M  V30 1875 C 177.51 0.482594 1.95636 0
M  V30 1876 O 176.566 -0.0609691 2.52426 0
M  V30 1877 C 177.879 2.81851 1.04787 0
M  V30 1878 C 179.427 2.91025 1.1521 0
M  V30 1879 C 179.902 4.34032 1.46219 0
M  V30 1880 N 181.393 4.37154 1.53136 0
M  V30 1881 C 182.128 5.4484 1.78709 0
M  V30 1882 N 181.624 6.62682 2.02051 0
M  V30 1883 N 183.417 5.32324 1.80519 0
M  V30 1884 H 175.568 2.09548 -0.346892 0
M  V30 1885 H 177.831 0.943446 -0.0928074 0
M  V30 1886 H 177.537 3.50815 0.249304 0
M  V30 1887 H 177.411 3.21386 1.97461 0
M  V30 1888 H 179.798 2.22257 1.94128 0
M  V30 1889 H 179.879 2.54983 0.204281 0
M  V30 1890 H 179.523 5.03351 0.678274 0
M  V30 1891 H 179.453 4.6759 2.42212 0
M  V30 1892 H 181.944 3.52197 1.36987 0
M  V30 1893 H 182.257 7.40543 2.20943 0
M  V30 1894 H 180.602 6.65791 1.99366 0
M  V30 1895 H 183.793 4.39246 1.61805 0
M  V30 1896 H 183.966 6.16328 2.00111 0
M  V30 1897 N 177.372 -0.689602 1.41712 0
M  V30 1898 C 178.619 -1.44966 1.4139 0
M  V30 1899 C 178.947 -1.94484 0.025105 0
M  V30 1900 O 178.202 -1.70307 -0.964048 0
M  V30 1901 C 178.501 -2.67298 2.37247 0
M  V30 1902 C 178.167 -2.36405 3.83958 0
M  V30 1903 C 176.829 -2.27691 4.23923 0
M  V30 1904 C 179.181 -2.11043 4.76561 0
M  V30 1905 C 176.509 -1.91719 5.54492 0
M  V30 1906 C 178.861 -1.76578 6.07456 0
M  V30 1907 C 177.525 -1.66363 6.46436 0
M  V30 1908 H 176.795 -0.53047 0.517381 0
M  V30 1909 H 179.442 -0.787655 1.74552 0
M  V30 1910 H 177.747 -3.38461 1.9736 0
M  V30 1911 H 179.444 -3.25452 2.34269 0
M  V30 1912 H 176.034 -2.44085 3.52308 0
M  V30 1913 H 180.218 -2.16717 4.46483 0
M  V30 1914 H 175.474 -1.82367 5.83568 0
M  V30 1915 H 179.648 -1.55974 6.78708 0
M  V30 1916 H 177.275 -1.38258 7.47522 0
M  V30 1917 N 178.85 -1.27639 -0.924453 0
M  V30 1918 C 179.782 -1.06442 -2.02985 0
M  V30 1919 C 180.795 -0.0194771 -1.62788 0
M  V30 1920 O 181.984 -0.261388 -1.76576 0
M  V30 1921 C 179.084 -0.59327 -3.33667 0
M  V30 1922 C 178.257 -1.71123 -4.02537 0
M  V30 1923 C 177.316 -1.23527 -5.11495 0
M  V30 1924 O 176.342 -1.93553 -5.35281 0
M  V30 1925 N 177.544 -0.0926678 -5.80426 0
M  V30 1926 H 180.309 -2.01633 -2.2173 0
M  V30 1927 H 177.87 -1.19248 -1.09505 0
M  V30 1928 H 179.862 -0.258686 -4.03872 0
M  V30 1929 H 178.432 0.265502 -3.1147 0
M  V30 1930 H 177.652 -2.21593 -3.26022 0
M  V30 1931 H 178.94 -2.46145 -4.45298 0
M  V30 1932 H 178.338 0.491741 -5.63559 0
M  V30 1933 H 176.895 0.182714 -6.51544 0
M  V30 1934 N 180.328 1.1314 -1.09713 0
M  V30 1935 C 181.577 1.83838 -0.829851 0
M  V30 1936 C 181.89 1.84599 0.646728 0
M  V30 1937 O 183.096 2.51218 1.02965 0
M  V30 1938 C 181.552 3.30069 -1.43466 0
M  V30 1939 C 181.16 3.37688 -2.94399 0
M  V30 1940 C 182.904 4.05788 -1.24645 0
M  V30 1941 C 180.811 4.78209 -3.47952 0
M  V30 1942 H 179.741 0.68877 -0.306777 0
M  V30 1943 H 182.392 1.27448 -1.3202 0
M  V30 1944 H 180.774 3.8628 -0.871996 0
M  V30 1945 H 181.948 2.91456 -3.56918 0
M  V30 1946 H 180.263 2.75436 -3.12289 0
M  V30 1947 H 182.86 5.09535 -1.62107 0
M  V30 1948 H 183.203 4.15878 -0.187357 0
M  V30 1949 H 183.736 3.55915 -1.77678 0
M  V30 1950 H 180.475 4.73311 -4.53495 0
M  V30 1951 H 179.995 5.24924 -2.90198 0
M  V30 1952 H 181.674 5.47133 -3.45332 0
M  V30 1953 N 181.806 0.884767 1.30421 0
M  V30 1954 C 182.754 0.340869 2.30089 0
M  V30 1955 C 183.748 -0.55201 1.60154 0
M  V30 1956 O 184.954 -0.436467 1.74628 0
M  V30 1957 H 181.329 0.0915739 0.746404 0
M  V30 1958 H 183.3 1.19513 2.73421 0
M  V30 1959 C 182.049 -0.429779 3.45034 0
M  V30 1960 H 181.372 0.248024 3.9903 0
M  V30 1961 H 182.812 -0.775445 4.16849 0
M  V30 1962 C 181.271 -1.62677 2.95022 0
M  V30 1963 O 181.801 -2.72614 2.95033 0
M  V30 1964 N 180.007 -1.46387 2.51036 0
M  V30 1965 H 179.554 -0.569506 2.51226 0
M  V30 1966 H 179.512 -2.26612 2.17932 0
M  V30 1967 N 183.284 -1.43765 0.645699 0
M  V30 1968 C 184.561 -1.9541 0.0862963 0
M  V30 1969 C 184.941 -1.58725 -1.39175 0
M  V30 1970 O 184.289 -0.868581 -2.11348 0
M  V30 1971 C 184.499 -3.47488 0.324565 0
M  V30 1972 C 185.847 -4.24001 0.225497 0
M  V30 1973 O 186.871 -3.55274 0.256715 0
M  V30 1974 O 185.73 -5.46313 0.142801 0
M  V30 1975 H 182.824 -0.826882 -0.0139483 0
M  V30 1976 H 185.37 -1.53743 0.718415 0
M  V30 1977 H 184.142 -3.67289 1.3496 0
M  V30 1978 H 183.765 -3.96135 -0.340987 0
M  V30 1979 N 184.763 -0.387143 -1.52771 0
M  V30 1980 C 186.011 0.195349 -2.01154 0
M  V30 1981 C 186.332 1.475 -1.27549 0
M  V30 1982 O 185.602 1.91878 -0.394924 0
M  V30 1983 H 184.182 0.075178 -0.743207 0
M  V30 1984 H 186.844 -0.518337 -1.87881 0
M  V30 1985 H 185.94 0.407096 -3.09434 0
M  V30 1986 N 186.241 1.57166 -0.116904 0
M  V30 1987 C 187.469 1.99473 0.549383 0
M  V30 1988 C 187.884 0.996541 1.60357 0
M  V30 1989 O 187.241 -0.0108731 1.82497 0
M  V30 1990 C 187.292 3.41788 1.17741 0
M  V30 1991 O 187.013 4.37788 0.165362 0
M  V30 1992 C 188.514 3.99216 1.92722 0
M  V30 1993 H 185.734 0.655009 0.145616 0
M  V30 1994 H 188.278 2.03494 -0.202625 0
M  V30 1995 H 186.433 3.38713 1.88021 0
M  V30 1996 H 186.847 5.20806 0.621403 0
M  V30 1997 H 188.321 5.00882 2.31995 0
M  V30 1998 H 188.798 3.3824 2.80161 0
M  V30 1999 H 189.404 4.0583 1.27209 0
M  V30 2000 N 187.719 -0.156864 1.56817 0
M  V30 2001 C 188.944 -0.890331 1.87318 0
M  V30 2002 C 189.369 -1.74394 0.704855 0
M  V30 2003 O 188.727 -1.77972 -0.345786 0
M  V30 2004 C 188.775 -1.73102 3.16336 0
M  V30 2005 O 187.879 -2.83422 2.99576 0
M  V30 2006 H 187.22 -0.24857 0.615718 0
M  V30 2007 H 189.75 -0.150649 2.04045 0
M  V30 2008 H 189.76 -2.12803 3.48107 0
M  V30 2009 H 188.435 -1.10412 4.00976 0
M  V30 2010 H 187.012 -2.47199 2.7919 0
M  V30 2011 N 189.197 -1.51736 -0.425897 0
M  V30 2012 C 190.425 -1.68794 -1.1965 0
M  V30 2013 C 190.84 -0.390164 -1.84725 0
M  V30 2014 O 190.197 0.632376 -1.71194 0
M  V30 2015 C 190.248 -2.81174 -2.27208 0
M  V30 2016 O 189.969 -4.05925 -1.64793 0
M  V30 2017 C 191.47 -3.09599 -3.17275 0
M  V30 2018 H 188.69 -0.566128 -0.360194 0
M  V30 2019 H 191.234 -1.98211 -0.503249 0
M  V30 2020 H 189.389 -2.54324 -2.9223 0
M  V30 2021 H 189.803 -4.68423 -2.35967 0
M  V30 2022 H 191.277 -3.91786 -3.88854 0
M  V30 2023 H 191.754 -2.22468 -3.78688 0
M  V30 2024 H 192.36 -3.38151 -2.57941 0
M  V30 2025 N 190.675 0.682077 -1.42076 0
M  V30 2026 C 191.638 1.77756 -1.44691 0
M  V30 2027 C 192.638 1.5726 -0.335535 0
M  V30 2028 O 193.828 1.63686 -0.596037 0
M  V30 2029 C 190.96 3.16301 -1.27146 0
M  V30 2030 H 192.153 1.76826 -2.42224 0
M  V30 2031 H 189.706 0.891012 -1.28416 0
M  V30 2032 H 190.441 3.22862 -0.305075 0
M  V30 2033 H 190.226 3.32581 -2.07683 0
M  V30 2034 H 191.716 3.96241 -1.31843 0
M  V30 2035 N 192.153 1.28127 0.917671 0
M  V30 2036 C 193.399 1.16232 1.66918 0
M  V30 2037 C 193.754 -0.28701 1.90247 0
M  V30 2038 O 193.047 -1.20586 1.48895 0
M  V30 2039 C 193.241 1.89018 3.03327 0
M  V30 2040 C 193.07 3.4088 2.9331 0
M  V30 2041 C 191.84 4.10214 2.95047 0
M  V30 2042 C 194.038 4.36689 2.71675 0
M  V30 2043 N 192.02 5.48571 2.75577 0
M  V30 2044 C 193.391 5.62382 2.6101 0
M  V30 2045 C 195.446 4.26661 2.56641 0
M  V30 2046 C 194.149 6.79189 2.36843 0
M  V30 2047 C 196.175 5.432 2.33853 0
M  V30 2048 C 195.537 6.67855 2.23939 0
M  V30 2049 H 191.636 0.48024 0.617166 0
M  V30 2050 H 194.22 1.61727 1.08409 0
M  V30 2051 H 192.391 1.45963 3.59929 0
M  V30 2052 H 194.123 1.69541 3.67475 0
M  V30 2053 H 190.878 3.61762 3.05655 0
M  V30 2054 H 191.302 6.21287 2.68945 0
M  V30 2055 H 195.944 3.30998 2.63059 0
M  V30 2056 H 193.662 7.74926 2.29164 0
M  V30 2057 H 197.248 5.37328 2.23091 0
M  V30 2058 H 196.128 7.56511 2.06546 0
M  V30 2059 N 193.631 -1.12557 1.10312 0
M  V30 2060 C 194.861 -1.87592 0.865617 0
M  V30 2061 C 195.269 -1.79851 -0.587389 0
M  V30 2062 O 194.612 -1.16949 -1.41664 0
M  V30 2063 C 194.674 -3.37665 1.23381 0
M  V30 2064 C 194.338 -3.69181 2.69359 0
M  V30 2065 C 195.335 -3.67652 3.67597 0
M  V30 2066 C 193.02 -3.98555 3.05711 0
M  V30 2067 C 195.014 -3.95053 5.00212 0
M  V30 2068 C 192.701 -4.25616 4.38514 0
M  V30 2069 C 193.699 -4.23851 5.35574 0
M  V30 2070 O 193.387 -4.50242 6.65986 0
M  V30 2071 H 193.119 -0.600442 0.310557 0
M  V30 2072 H 195.673 -1.4335 1.47105 0
M  V30 2073 H 193.903 -3.82454 0.571467 0
M  V30 2074 H 195.592 -3.94041 0.973994 0
M  V30 2075 H 196.358 -3.45024 3.40857 0
M  V30 2076 H 192.237 -3.99071 2.30789 0
M  V30 2077 H 195.781 -3.93591 5.75962 0
M  V30 2078 H 191.678 -4.47718 4.64994 0
M  V30 2079 H 192.446 -4.67867 6.71597 0
M  V30 2080 N 195.109 -0.891671 -1.2995 0
M  V30 2081 C 196.057 -0.353066 -2.29905 0
M  V30 2082 C 197.051 0.543509 -1.60444 0
M  V30 2083 O 198.257 0.4272 -1.74857 0
M  V30 2084 H 194.632 -0.095531 -0.745907 0
M  V30 2085 H 196.603 -1.20961 -2.72784 0
M  V30 2086 C 195.352 0.411475 -3.45257 0
M  V30 2087 H 194.675 -0.269182 -3.98893 0
M  V30 2088 H 196.115 0.753328 -4.17254 0
M  V30 2089 C 194.574 1.6111 -2.9588 0
M  V30 2090 O 195.104 2.71045 -2.96475 0
M  V30 2091 N 193.31 1.45054 -2.51809 0
M  V30 2092 H 192.857 0.556175 -2.51524 0
M  V30 2093 H 192.815 2.25453 -2.1913 0
M  V30 2094 N 196.587 1.43421 -0.653314 0
M  V30 2095 C 197.835 2.01414 -0.166415 0
M  V30 2096 C 198.156 1.51803 1.22397 0
M  V30 2097 O 197.426 0.730693 1.81763 0
M  V30 2098 H 196.006 0.744703 -0.0585319 0
M  V30 2099 H 198.668 1.75629 -0.845003 0
M  V30 2100 H 197.764 3.11734 -0.151111 0
M  V30 2101 N 198.065 0.39524 1.52563 0
M  V30 2102 C 199.013 -0.451859 2.28169 0
M  V30 2103 C 200.007 -1.05792 1.32304 0
M  V30 2104 O 201.213 -0.997718 1.49818 0
M  V30 2105 H 197.588 -0.164481 0.733792 0
M  V30 2106 H 199.559 0.207199 2.9768 0
M  V30 2107 C 198.308 -1.56385 3.10546 0
M  V30 2108 H 197.631 -1.10682 3.84174 0
M  V30 2109 H 199.071 -2.13067 3.66577 0
M  V30 2110 C 197.53 -2.52328 2.23231 0
M  V30 2111 O 198.06 -3.5588 1.86312 0
M  V30 2112 N 196.266 -2.22209 1.87274 0
M  V30 2113 H 195.813 -1.38033 2.17496 0
M  V30 2114 H 195.771 -2.86652 1.29143 0
M  V30 2115 N 199.544 -1.57102 0.125237 0
M  V30 2116 C 200.792 -1.95021 -0.530198 0
M  V30 2117 C 201.113 -1.00982 -1.66816 0
M  V30 2118 O 200.383 -0.0672693 -1.95784 0
M  V30 2119 H 198.963 -0.720046 -0.198853 0
M  V30 2120 H 201.625 -1.93916 0.19564 0
M  V30 2121 H 200.721 -2.98211 -0.920681 0
M  V30 2122 N 201.022 0.148545 -1.56898 0
M  V30 2123 C 202.433 0.708766 -1.72723 0
M  V30 2124 C 202.784 1.81734 -0.739395 0
M  V30 2125 O 201.909 2.16194 0.0943169 0
M  V30 2126 C 202.504 1.29245 -3.13179 0
M  V30 2127 C 201.063 1.79925 -3.30611 0
M  V30 2128 C 200.21 0.687111 -2.68652 0
M  V30 2129 H 203.161 -0.0771063 -1.58513 0
M  V30 2130 H 203.182 2.16224 -3.13093 0
M  V30 2131 H 202.694 0.485382 -3.85053 0
M  V30 2132 H 200.795 2.63203 -2.63732 0
M  V30 2133 H 200.908 1.92903 -4.38549 0
M  V30 2134 H 199.272 1.11335 -2.29078 0
M  V30 2135 H 200.055 -0.108483 -3.43129 0
M  V30 2136 N 202.5 1.5196 0.417844 0
M  V30 2137 C 203.725 1.69717 1.1921 0
M  V30 2138 C 204.15 0.402148 1.83751 0
M  V30 2139 O 203.508 -0.639593 1.69643 0
M  V30 2140 C 203.556 2.82794 2.2374 0
M  V30 2141 O 202.66 2.47756 3.29683 0
M  V30 2142 H 202.001 0.565263 0.348387 0
M  V30 2143 H 204.531 1.98621 0.490985 0
M  V30 2144 H 204.541 3.07452 2.68212 0
M  V30 2145 H 203.216 3.76756 1.76146 0
M  V30 2146 H 201.793 2.33739 2.90552 0
M  V30 2147 N 203.978 -0.674533 1.42435 0
M  V30 2148 C 205.203 -1.46784 1.46524 0
M  V30 2149 C 205.628 -1.87938 0.078066 0
M  V30 2150 O 204.986 -1.56014 -0.92354 0
M  V30 2151 C 205.034 -2.69307 2.39805 0
M  V30 2152 O 204.138 -3.67587 1.86959 0
M  V30 2153 H 203.479 -0.440959 0.496439 0
M  V30 2154 H 206.009 -0.827326 1.87127 0
M  V30 2155 H 206.019 -3.17374 2.56393 0
M  V30 2156 H 204.694 -2.38692 3.40586 0
M  V30 2157 H 203.271 -3.2662 1.79927 0
M  V30 2158 N 205.456 -1.28612 -0.910864 0
M  V30 2159 C 206.684 -1.18792 -1.69399 0
M  V30 2160 C 207.099 0.253039 -1.87097 0
M  V30 2161 O 206.456 1.17071 -1.40003 0
M  V30 2162 C 206.507 -1.88511 -3.08457 0
M  V30 2163 O 206.228 -3.26979 -2.91576 0
M  V30 2164 C 207.729 -1.85029 -4.02839 0
M  V30 2165 H 204.949 -0.412233 -0.529438 0
M  V30 2166 H 207.493 -1.69788 -1.13984 0
M  V30 2167 H 205.648 -1.41379 -3.60681 0
M  V30 2168 H 206.062 -3.61936 -3.79608 0
M  V30 2169 H 207.536 -2.38395 -4.97867 0
M  V30 2170 H 208.013 -0.823303 -4.31414 0
M  V30 2171 H 208.619 -2.31853 -3.56545 0
M  V30 2172 N 206.934 1.1197 -1.10907 0
M  V30 2173 C 207.844 2.21433 -0.774896 0
M  V30 2174 C 208.86 1.72478 0.229657 0
M  V30 2175 O 210.036 2.01288 0.0672008 0
M  V30 2176 C 207.101 3.4602 -0.216986 0
M  V30 2177 C 206.162 4.09791 -1.27944 0
M  V30 2178 C 205.395 5.28431 -0.748055 0
M  V30 2179 O 205.618 5.68823 0.423833 0
M  V30 2180 O 204.552 5.82644 -1.51027 0
M  V30 2181 H 208.378 2.5242 -1.68873 0
M  V30 2182 H 205.963 1.20399 -0.884555 0
M  V30 2183 H 207.845 4.21304 0.090059 0
M  V30 2184 H 206.52 3.16698 0.669633 0
M  V30 2185 H 205.427 3.36265 -1.63941 0
M  V30 2186 H 206.76 4.4328 -2.13925 0
M  V30 2187 N 208.412 0.89855 1.29475 0
M  V30 2188 C 209.823 0.572537 1.77705 0
M  V30 2189 C 210.174 -0.911778 1.73727 0
M  V30 2190 O 209.299 -1.71288 1.32247 0
M  V30 2191 C 209.894 1.03252 3.22683 0
M  V30 2192 C 208.453 0.757687 3.68695 0
M  V30 2193 C 207.6 1.20787 2.49612 0
M  V30 2194 H 210.551 1.08139 1.16153 0
M  V30 2195 H 210.572 0.367307 3.78723 0
M  V30 2196 H 210.084 2.11285 3.25546 0
M  V30 2197 H 208.185 -0.310079 3.71308 0
M  V30 2198 H 208.298 1.35476 4.59547 0
M  V30 2199 H 206.662 0.626888 2.46865 0
M  V30 2200 H 207.445 2.29622 2.55203 0
M  V30 2201 N 209.89 -1.43072 0.660911 0
M  V30 2202 C 210.838 -2.32569 -0.0378199 0
M  V30 2203 C 211.832 -1.49046 -0.805092 0
M  V30 2204 O 213.038 -1.65206 -0.714624 0
M  V30 2205 H 209.413 -0.75136 -0.031019 0
M  V30 2206 H 211.384 -2.89216 0.734609 0
M  V30 2207 C 210.133 -3.33453 -0.985124 0
M  V30 2208 H 209.456 -3.97752 -0.404147 0
M  V30 2209 H 210.896 -3.98691 -1.44297 0
M  V30 2210 C 209.355 -2.64642 -2.08486 0
M  V30 2211 O 209.885 -2.46776 -3.16961 0
M  V30 2212 N 208.091 -2.23891 -1.8526 0
M  V30 2213 H 207.638 -2.38621 -0.970449 0
M  V30 2214 H 207.596 -1.78181 -2.59034 0
M  V30 2215 N 211.368 -0.403325 -1.52352 0
M  V30 2216 C 212.331 0.413051 -2.25447 0
M  V30 2217 C 213.331 0.978513 -1.276 0
M  V30 2218 O 214.521 0.858305 -1.51587 0
M  V30 2219 C 211.653 1.58087 -3.02029 0
M  V30 2220 H 212.846 -0.227094 -2.99039 0
M  V30 2221 H 210.399 -0.155722 -1.55522 0
M  V30 2222 H 211.134 2.25804 -2.32772 0
M  V30 2223 H 210.919 1.18195 -3.73861 0
M  V30 2224 H 212.409 2.1585 -3.57489 0
M  V30 2225 N 212.846 1.57033 -0.133567 0
M  V30 2226 C 214.123 1.87256 0.56522 0
M  V30 2227 C 214.503 1.03726 1.83859 0
M  V30 2228 O 213.851 0.120247 2.28183 0
M  V30 2229 C 214.061 3.3865 0.843636 0
M  V30 2230 C 215.409 4.07574 1.19032 0
M  V30 2231 O 216.433 3.43752 0.933429 0
M  V30 2232 O 215.292 5.20259 1.67312 0
M  V30 2233 H 212.386 0.775678 0.286796 0
M  V30 2234 H 214.932 1.68855 -0.169168 0
M  V30 2235 H 213.704 3.91257 -0.0581149 0
M  V30 2236 H 213.327 3.62532 1.63268 0
M  V30 2237 N 214.325 -0.140222 1.56975 0
M  V30 2238 C 215.602 -0.880769 1.74648 0
M  V30 2239 C 215.982 -1.99036 0.703404 0
M  V30 2240 O 215.33 -2.26821 -0.27648 0
M  V30 2241 C 215.54 -1.417 3.18939 0
M  V30 2242 C 216.888 -1.87774 3.80823 0
M  V30 2243 O 217.912 -1.51427 3.2241 0
M  V30 2244 O 216.771 -2.54827 4.83452 0
M  V30 2245 H 213.865 -0.416713 0.714338 0
M  V30 2246 H 216.411 -0.125618 1.69234 0
M  V30 2247 H 215.183 -0.619902 3.86359 0
M  V30 2248 H 214.806 -2.23546 3.28805 0
M  V30 2249 N 215.803 -1.52179 -0.40978 0
M  V30 2250 C 217.05 -1.66206 -1.15679 0
M  V30 2251 C 217.378 -0.391674 -1.90516 0
M  V30 2252 O 216.633 0.62533 -1.8544 0
M  V30 2253 C 216.932 -2.83428 -2.17723 0
M  V30 2254 C 216.598 -4.21672 -1.59699 0
M  V30 2255 C 215.26 -4.59274 -1.43599 0
M  V30 2256 C 217.612 -5.07825 -1.17317 0
M  V30 2257 C 214.94 -5.80709 -0.836328 0
M  V30 2258 C 217.292 -6.29864 -0.587691 0
M  V30 2259 C 215.956 -6.66216 -0.413818 0
M  V30 2260 H 215.226 -0.608192 -0.423301 0
M  V30 2261 H 217.873 -1.86279 -0.444097 0
M  V30 2262 H 216.178 -2.57687 -2.95135 0
M  V30 2263 H 217.875 -2.91477 -2.75394 0
M  V30 2264 H 214.465 -3.9204 -1.73213 0
M  V30 2265 H 218.649 -4.79359 -1.28565 0
M  V30 2266 H 213.905 -6.07498 -0.689626 0
M  V30 2267 H 218.079 -6.95948 -0.250894 0
M  V30 2268 H 215.706 -7.60182 0.0529471 0
M  V30 2269 N 217.281 0.66697 -1.42791 0
M  V30 2270 C 218.511 1.45294 -1.46878 0
M  V30 2271 C 218.919 1.89027 -0.0809861 0
M  V30 2272 O 218.262 1.59219 0.916246 0
M  V30 2273 C 218.324 2.72908 -2.34012 0
M  V30 2274 C 217.988 2.51203 -3.81767 0
M  V30 2275 C 218.985 2.15302 -4.73224 0
M  V30 2276 C 216.67 2.65954 -4.26115 0
M  V30 2277 C 218.664 1.94431 -6.07022 0
M  V30 2278 C 216.351 2.44699 -5.59969 0
M  V30 2279 C 217.349 2.08992 -6.5024 0
M  V30 2280 O 217.037 1.87948 -7.81621 0
M  V30 2281 H 216.769 0.453306 -0.501487 0
M  V30 2282 H 219.323 0.826232 -1.88049 0
M  V30 2283 H 217.553 3.38089 -1.87703 0
M  V30 2284 H 219.242 3.34816 -2.29462 0
M  V30 2285 H 220.008 2.03495 -4.40244 0
M  V30 2286 H 215.887 2.92724 -3.56137 0
M  V30 2287 H 219.431 1.66484 -6.77443 0
M  V30 2288 H 215.328 2.56105 -5.9252 0
M  V30 2289 H 216.096 2.02483 -7.93059 0
M  V30 2290 N 218.759 1.29093 0.90403 0
M  V30 2291 C 220.008 1.16187 1.64874 0
M  V30 2292 C 220.321 -0.286742 1.93487 0
M  V30 2293 O 221.527 -0.537062 2.66135 0
M  V30 2294 C 219.983 2.03177 2.97064 0
M  V30 2295 C 219.591 3.52836 2.76062 0
M  V30 2296 C 221.335 1.98984 3.74974 0
M  V30 2297 C 219.242 4.31945 4.03952 0
M  V30 2298 H 218.172 0.431246 0.618501 0
M  V30 2299 H 220.823 1.53699 1.00243 0
M  V30 2300 H 219.205 1.5853 3.62883 0
M  V30 2301 H 220.379 4.05507 2.18863 0
M  V30 2302 H 218.694 3.58656 2.11553 0
M  V30 2303 H 221.291 2.55351 4.69787 0
M  V30 2304 H 221.634 0.968815 4.0487 0
M  V30 2305 H 222.167 2.41652 3.15989 0
M  V30 2306 H 218.906 5.34667 3.79225 0
M  V30 2307 H 218.426 3.84045 4.60727 0
M  V30 2308 H 220.105 4.42379 4.72133 0
M  V30 2309 N 220.237 -1.11381 1.11499 0
M  V30 2310 C 221.486 -1.82494 0.858993 0
M  V30 2311 C 221.799 -1.85605 -0.617278 0
M  V30 2312 O 223.005 -2.52824 -0.989552 0
M  V30 2313 C 221.461 -3.27745 1.48699 0
M  V30 2314 C 221.069 -3.32961 2.99735 0
M  V30 2315 C 222.813 -4.03754 1.31085 0
M  V30 2316 C 220.72 -4.72612 3.55516 0
M  V30 2317 H 219.65 -0.683802 0.317696 0
M  V30 2318 H 222.301 -1.25331 1.34031 0
M  V30 2319 H 220.683 -3.84844 0.933339 0
M  V30 2320 H 221.857 -2.85741 3.61509 0
M  V30 2321 H 220.172 -2.70433 3.16631 0
M  V30 2322 H 222.769 -5.06891 1.70192 0
M  V30 2323 H 223.112 -4.15527 0.253496 0
M  V30 2324 H 223.645 -3.53043 1.83318 0
M  V30 2325 H 220.384 -4.66036 4.60967 0
M  V30 2326 H 219.904 -5.2024 2.98513 0
M  V30 2327 H 221.583 -5.4157 3.53992 0
M  V30 2328 N 221.715 -0.905404 -1.28997 0
M  V30 2329 C 223.126 -0.581953 -1.77398 0
M  V30 2330 C 223.477 0.902552 -1.74208 0
M  V30 2331 O 222.602 1.70584 -1.33154 0
M  V30 2332 C 223.197 -1.04961 -3.22131 0
M  V30 2333 C 221.756 -0.777229 -3.68288 0
M  V30 2334 C 220.903 -1.22109 -2.48967 0
M  V30 2335 H 223.854 -1.08754 -1.15578 0
M  V30 2336 H 223.875 -0.387387 -3.78523 0
M  V30 2337 H 223.387 -2.13008 -3.24421 0
M  V30 2338 H 221.488 0.290383 -3.71467 0
M  V30 2339 H 221.601 -1.37911 -4.58822 0
M  V30 2340 H 219.965 -0.639971 -2.46529 0
M  V30 2341 H 220.748 -2.30972 -2.53982 0
M  V30 2342 N 223.193 1.4272 -0.668489 0
M  V30 2343 C 224.141 2.32586 0.0254857 0
M  V30 2344 C 225.135 1.49471 0.797176 0
M  V30 2345 O 226.341 1.65583 0.705853 0
M  V30 2346 H 222.716 0.751514 0.0270339 0
M  V30 2347 H 224.687 2.88823 -0.749936 0
M  V30 2348 C 223.436 3.3397 0.967427 0
M  V30 2349 H 222.759 3.97961 0.383048 0
M  V30 2350 H 224.199 3.9945 1.42181 0
M  V30 2351 C 222.658 2.65744 2.0708 0
M  V30 2352 O 223.188 2.48454 3.15648 0
M  V30 2353 N 221.394 2.2487 1.8407 0
M  V30 2354 H 220.941 2.39132 0.95778 0
M  V30 2355 H 220.899 1.79552 2.58086 0
M  V30 2356 N 224.671 0.411399 1.52136 0
M  V30 2357 C 225.918 -0.163645 2.01838 0
M  V30 2358 C 226.246 -1.4495 1.29691 0
M  V30 2359 O 225.501 -1.91725 0.392431 0
M  V30 2360 C 225.8 -0.455872 3.54481 0
M  V30 2361 C 225.466 0.741055 4.44769 0
M  V30 2362 C 224.128 1.06936 4.69167 0
M  V30 2363 C 226.48 1.54075 4.97906 0
M  V30 2364 C 223.808 2.19851 5.43951 0
M  V30 2365 C 226.16 2.66067 5.73926 0
M  V30 2366 C 224.824 2.99381 5.96596 0
M  V30 2367 H 224.094 -0.0598821 0.738576 0
M  V30 2368 H 226.741 0.553283 1.83333 0
M  V30 2369 H 225.046 -1.2544 3.71177 0
M  V30 2370 H 226.743 -0.913802 3.90449 0
M  V30 2371 H 223.333 0.475192 4.25958 0
M  V30 2372 H 227.517 1.30033 4.78963 0
M  V30 2373 H 222.773 2.46006 5.59724 0
M  V30 2374 H 226.947 3.28419 6.14096 0
M  V30 2375 H 224.574 3.86992 6.54325 0
M  V30 2376 N 226.149 -1.5696 0.141893 0
M  V30 2377 C 227.096 -2.16501 -0.799737 0
M  V30 2378 C 228.066 -1.09643 -1.24771 0
M  V30 2379 O 229.251 -1.3766 -1.32115 0
M  V30 2380 C 226.391 -2.78679 -2.03549 0
M  V30 2381 C 225.504 -3.99914 -1.6338 0
M  V30 2382 C 224.639 -4.50106 -2.82096 0
M  V30 2383 C 223.678 -5.63819 -2.38275 0
M  V30 2384 N 222.815 -6.08651 -3.49983 0
M  V30 2385 H 227.655 -2.96632 -0.285179 0
M  V30 2386 H 225.192 -1.46533 -0.129053 0
M  V30 2387 H 227.15 -3.1287 -2.75986 0
M  V30 2388 H 225.78 -2.012 -2.52425 0
M  V30 2389 H 224.832 -3.71735 -0.807279 0
M  V30 2390 H 226.144 -4.82311 -1.27192 0
M  V30 2391 H 225.298 -4.86325 -3.62729 0
M  V30 2392 H 224.037 -3.66706 -3.21525 0
M  V30 2393 H 223.042 -5.2718 -1.56081 0
M  V30 2394 H 224.267 -6.49 -1.99938 0
M  V30 2395 H 222.213 -5.28188 -3.89042 0
M  V30 2396 H 222.13 -6.85961 -3.17794 0
M  V30 2397 H 223.398 -6.49515 -4.30988 0
M  V30 2398 N 227.627 0.131896 -1.57047 0
M  V30 2399 C 228.855 0.856461 -1.88341 0
M  V30 2400 C 229.27 1.74042 -0.731757 0
M  V30 2401 O 228.627 1.80051 0.297945 0
M  V30 2402 C 228.678 1.70064 -3.18999 0
M  V30 2403 O 228.399 0.852278 -4.2973 0
M  V30 2404 C 229.9 2.53148 -3.63911 0
M  V30 2405 H 227.12 0.246885 -0.62393 0
M  V30 2406 H 229.664 0.120152 -2.04147 0
M  V30 2407 H 227.819 2.38984 -3.04902 0
M  V30 2408 H 228.233 1.43329 -5.04537 0
M  V30 2409 H 229.707 3.07931 -4.58129 0
M  V30 2410 H 230.184 3.29901 -2.89935 0
M  V30 2411 H 230.79 1.89492 -3.80753 0
M  V30 2412 N 229.106 1.52395 0.401703 0
M  V30 2413 C 230.517 1.58899 0.980202 0
M  V30 2414 C 230.868 0.434032 1.91339 0
M  V30 2415 O 229.993 -0.444619 2.11783 0
M  V30 2416 C 230.588 2.87994 1.78451 0
M  V30 2417 C 229.147 2.96953 2.31292 0
M  V30 2418 C 228.294 2.53903 1.11483 0
M  V30 2419 H 231.245 1.57657 0.18168 0
M  V30 2420 H 231.266 2.73765 2.64259 0
M  V30 2421 H 230.778 3.72035 1.10506 0
M  V30 2422 H 228.879 2.17422 3.02586 0
M  V30 2423 H 228.992 4.01344 2.61649 0
M  V30 2424 H 227.356 2.07925 1.47104 0
M  V30 2425 H 228.139 3.40326 0.450928 0
M  V30 2426 N 230.584 -0.659388 1.43143 0
M  V30 2427 C 231.861 -1.41627 1.34912 0
M  V30 2428 C 232.241 -2.11099 -0.00607785 0
M  V30 2429 O 231.589 -2.04353 -1.02236 0
M  V30 2430 C 231.799 -2.40604 2.52805 0
M  V30 2431 C 233.147 -3.04789 2.95616 0
M  V30 2432 O 234.171 -2.50932 2.52807 0
M  V30 2433 O 233.03 -4.02421 3.69756 0
M  V30 2434 H 230.124 -0.63246 0.532844 0
M  V30 2435 H 232.67 -0.686814 1.5518 0
M  V30 2436 H 231.442 -1.88174 3.43083 0
M  V30 2437 H 231.065 -3.21009 2.34604 0
M  V30 2438 N 232.062 -1.29571 -0.897171 0
M  V30 2439 C 233.308 -1.18873 -1.65048 0
M  V30 2440 C 233.663 0.256707 -1.9068 0
M  V30 2441 O 232.956 1.18202 -1.50794 0
M  V30 2442 C 233.15 -1.9382 -3.00281 0
M  V30 2443 C 232.979 -3.45503 -2.8785 0
M  V30 2444 C 231.749 -4.14856 -2.88483 0
M  V30 2445 C 233.947 -4.40956 -2.64693 0
M  V30 2446 N 231.929 -5.52886 -2.66815 0
M  V30 2447 C 233.3 -5.66464 -2.5203 0
M  V30 2448 C 235.355 -4.3069 -2.49821 0
M  V30 2449 C 234.058 -6.82871 -2.26008 0
M  V30 2450 C 236.084 -5.46852 -2.25182 0
M  V30 2451 C 235.446 -6.71333 -2.13286 0
M  V30 2452 H 231.545 -0.489998 -0.609447 0
M  V30 2453 H 234.129 -1.63431 -1.05822 0
M  V30 2454 H 232.3 -1.51671 -3.57562 0
M  V30 2455 H 234.032 -1.75366 -3.64731 0
M  V30 2456 H 230.787 -3.66579 -2.99861 0
M  V30 2457 H 231.211 -6.25487 -2.59027 0
M  V30 2458 H 235.853 -3.35141 -2.5776 0
M  V30 2459 H 233.571 -7.78473 -2.16806 0
M  V30 2460 H 237.157 -5.40809 -2.14515 0
M  V30 2461 H 236.037 -7.59701 -1.94485 0
M  V30 2462 N 233.54 1.10788 -1.12088 0
M  V30 2463 C 234.47 2.19083 -0.807755 0
M  V30 2464 C 235.451 1.6858 0.226859 0
M  V30 2465 O 236.636 1.93997 0.0888475 0
M  V30 2466 C 233.766 3.46344 -0.257576 0
M  V30 2467 C 232.72 4.101 -1.22483 0
M  V30 2468 C 232.046 5.32016 -0.535052 0
M  V30 2469 C 233.346 4.54236 -2.57811 0
M  V30 2470 H 235.04 2.45534 -1.71328 0
M  V30 2471 H 232.586 1.1801 -0.825205 0
M  V30 2472 H 234.539 4.21392 -0.0262679 0
M  V30 2473 H 233.263 3.19373 0.683278 0
M  V30 2474 H 231.922 3.37054 -1.44189 0
M  V30 2475 H 231.57 5.01319 0.410827 0
M  V30 2476 H 231.27 5.75625 -1.18024 0
M  V30 2477 H 232.794 6.09799 -0.312695 0
M  V30 2478 H 234.208 5.20575 -2.40155 0
M  V30 2479 H 232.605 5.08682 -3.18375 0
M  V30 2480 H 233.675 3.6734 -3.16528 0
M  V30 2481 N 235.018 0.912232 1.28515 0
M  V30 2482 C 235.965 0.397954 2.27343 0
M  V30 2483 C 236.935 -0.526766 1.57526 0
M  V30 2484 O 238.12 -0.449292 1.85435 0
M  V30 2485 C 235.26 -0.357263 3.43246 0
M  V30 2486 C 234.373 0.599788 4.27816 0
M  V30 2487 C 233.508 -0.173725 5.30916 0
M  V30 2488 C 232.547 0.777039 6.07148 0
M  V30 2489 N 231.684 0.0371398 7.0209 0
M  V30 2490 H 236.524 1.24577 2.70711 0
M  V30 2491 H 234.061 0.625612 1.33133 0
M  V30 2492 H 236.019 -0.8113 4.09236 0
M  V30 2493 H 234.649 -1.16943 3.00872 0
M  V30 2494 H 233.701 1.17235 3.61884 0
M  V30 2495 H 235.013 1.32704 4.80823 0
M  V30 2496 H 234.167 -0.688394 6.02782 0
M  V30 2497 H 232.906 -0.934041 4.78672 0
M  V30 2498 H 231.911 1.3031 5.34134 0
M  V30 2499 H 233.136 1.53689 6.61481 0
M  V30 2500 H 231.082 -0.705213 6.52198 0
M  V30 2501 H 230.999 0.704249 7.52713 0
M  V30 2502 H 232.267 -0.457383 7.78157 0
M  V30 2503 N 236.496 -1.42363 0.676048 0
M  V30 2504 C 237.444 -2.32596 -0.0131507 0
M  V30 2505 C 238.438 -1.49891 -0.789238 0
M  V30 2506 O 239.644 -1.65955 -0.697061 0
M  V30 2507 H 236.019 -0.751647 -0.0230481 0
M  V30 2508 H 237.99 -2.88421 0.765243 0
M  V30 2509 C 236.739 -3.34479 -0.949702 0
M  V30 2510 H 236.062 -3.98158 -0.361938 0
M  V30 2511 H 237.502 -4.00199 -1.4006 0
M  V30 2512 C 235.961 -2.66838 -2.05667 0
M  V30 2513 O 236.491 -2.50124 -3.14326 0
M  V30 2514 N 234.697 -2.25843 -1.82875 0
M  V30 2515 H 234.244 -2.39637 -0.945085 0
M  V30 2516 H 234.202 -1.80918 -2.5713 0
M  V30 2517 N 237.974 -0.419461 -1.51915 0
M  V30 2518 C 239.222 0.152637 -2.01523 0
M  V30 2519 C 239.543 1.44762 -1.30649 0
M  V30 2520 O 238.813 1.90997 -0.435535 0
M  V30 2521 H 237.393 0.0593966 -0.744635 0
M  V30 2522 H 240.055 -0.558073 -1.86739 0
M  V30 2523 H 239.151 0.341369 -3.10227 0
M  V30 2524 N 239.452 1.56882 -0.150215 0
M  V30 2525 C 240.698 1.96518 0.500834 0
M  V30 2526 C 241.031 1.03527 1.64304 0
M  V30 2527 O 240.306 0.0782751 1.94342 0
M  V30 2528 C 240.589 3.45822 1.00395 0
M  V30 2529 C 240.442 4.49591 -0.136983 0
M  V30 2530 C 241.761 3.97704 1.88467 0
M  V30 2531 H 238.88 0.714535 0.18058 0
M  V30 2532 H 241.522 1.88577 -0.232091 0
M  V30 2533 H 239.672 3.5272 1.62851 0
M  V30 2534 H 241.344 4.5477 -0.77343 0
M  V30 2535 H 239.587 4.26441 -0.795652 0
M  V30 2536 H 240.258 5.51402 0.256815 0
M  V30 2537 H 242.734 3.93304 1.35834 0
M  V30 2538 H 241.61 5.0263 2.20578 0
M  V30 2539 H 241.871 3.40252 2.82279 0
M  V30 2540 N 240.93 -0.123565 1.57115 0
M  V30 2541 C 241.863 -1.18202 1.95201 0
M  V30 2542 C 242.841 -1.40349 0.821031 0
M  V30 2543 O 244.025 -1.54578 1.07879 0
M  V30 2544 C 241.152 -2.53671 2.24429 0
M  V30 2545 C 240.198 -2.4798 3.46999 0
M  V30 2546 S 241.031 -1.92389 4.99747 0
M  V30 2547 C 242.187 -3.2954 5.32123 0
M  V30 2548 H 242.42 -0.857212 2.84674 0
M  V30 2549 H 239.953 -0.33014 1.50829 0
M  V30 2550 H 241.911 -3.3162 2.41947 0
M  V30 2551 H 240.572 -2.83332 1.35579 0
M  V30 2552 H 239.765 -3.47758 3.64801 0
M  V30 2553 H 239.367 -1.7815 3.28844 0
M  V30 2554 H 241.659 -4.25736 5.27025 0
M  V30 2555 H 242.602 -3.16569 6.33395 0
M  V30 2556 H 243.01 -3.27758 4.59603 0
M  V30 2557 N 242.408 -1.52605 -0.393616 0
M  V30 2558 C 243.638 -1.71046 -1.15874 0
M  V30 2559 C 244.046 -0.426483 -1.84331 0
M  V30 2560 O 243.389 0.608513 -1.73329 0
M  V30 2561 C 243.451 -2.80118 -2.25332 0
M  V30 2562 C 243.115 -4.21381 -1.76881 0
M  V30 2563 C 244.112 -5.04697 -1.24808 0
M  V30 2564 C 241.797 -4.67683 -1.83244 0
M  V30 2565 C 243.791 -6.32393 -0.797387 0
M  V30 2566 C 241.478 -5.95364 -1.37787 0
M  V30 2567 C 242.476 -6.77549 -0.861208 0
M  V30 2568 O 242.164 -8.02837 -0.413252 0
M  V30 2569 H 241.896 -0.576155 -0.353583 0
M  V30 2570 H 244.45 -2.00018 -0.467123 0
M  V30 2571 H 242.68 -2.46557 -2.97904 0
M  V30 2572 H 244.369 -2.87006 -2.87023 0
M  V30 2573 H 245.135 -4.70111 -1.19252 0
M  V30 2574 H 241.014 -4.03805 -2.22401 0
M  V30 2575 H 244.558 -6.9649 -0.393437 0
M  V30 2576 H 240.455 -6.29455 -1.43026 0
M  V30 2577 H 241.223 -8.16749 -0.53515 0
M  V30 2578 N 243.887 0.651787 -1.4349 0
M  V30 2579 C 244.819 1.77725 -1.44729 0
M  V30 2580 C 245.832 1.59141 -0.343231 0
M  V30 2581 O 247.021 1.67835 -0.607751 0
M  V30 2582 C 244.121 3.15172 -1.24579 0
M  V30 2583 C 243.294 3.60402 -2.47849 0
M  V30 2584 C 242.353 4.76656 -2.22902 0
M  V30 2585 O 241.379 4.86022 -2.96263 0
M  V30 2586 N 242.581 5.66958 -1.24656 0
M  V30 2587 H 245.346 1.77141 -2.41746 0
M  V30 2588 H 242.907 0.835678 -1.38665 0
M  V30 2589 H 244.899 3.90634 -1.0577 0
M  V30 2590 H 243.469 3.1052 -0.360015 0
M  V30 2591 H 242.689 2.75369 -2.82073 0
M  V30 2592 H 243.977 3.87368 -3.29884 0
M  V30 2593 H 243.375 5.62065 -0.640265 0
M  V30 2594 H 241.932 6.42135 -1.1183 0
M  V30 2595 N 245.365 1.30045 0.890287 0
M  V30 2596 C 246.614 1.17929 1.63633 0
M  V30 2597 C 246.927 -0.266204 1.9378 0
M  V30 2598 O 248.133 -0.508804 2.6669 0
M  V30 2599 C 246.589 2.06317 2.94892 0
M  V30 2600 C 246.197 3.55745 2.72305 0
M  V30 2601 C 247.941 2.0295 3.72843 0
M  V30 2602 C 245.848 4.36205 3.99348 0
M  V30 2603 H 244.778 0.437782 0.613892 0
M  V30 2604 H 247.429 1.54754 0.986075 0
M  V30 2605 H 245.811 1.6237 3.61182 0
M  V30 2606 H 246.985 4.07805 2.1455 0
M  V30 2607 H 245.3 3.6088 2.07737 0
M  V30 2608 H 247.897 2.60319 4.67053 0
M  V30 2609 H 248.24 1.0117 4.0382 0
M  V30 2610 H 248.773 2.4499 3.13408 0
M  V30 2611 H 245.512 5.38659 3.73533 0
M  V30 2612 H 245.032 3.8891 4.56628 0
M  V30 2613 H 246.711 4.47362 4.67415 0
M  V30 2614 N 246.843 -1.10192 1.12674 0
M  V30 2615 C 248.09 -1.82205 0.883606 0
M  V30 2616 C 248.418 -1.8532 -0.590492 0
M  V30 2617 O 247.673 -1.31137 -1.45264 0
M  V30 2618 C 247.972 -3.28552 1.4067 0
M  V30 2619 C 247.638 -3.45582 2.89627 0
M  V30 2620 C 246.3 -3.49937 3.30299 0
M  V30 2621 C 248.652 -3.50768 3.85501 0
M  V30 2622 C 245.98 -3.57049 4.65546 0
M  V30 2623 C 248.332 -3.59414 5.20581 0
M  V30 2624 C 246.996 -3.62034 5.60792 0
M  V30 2625 H 246.266 -0.666735 0.323334 0
M  V30 2626 H 248.913 -1.29868 1.40736 0
M  V30 2627 H 247.218 -3.83473 0.80347 0
M  V30 2628 H 248.915 -3.82788 1.19475 0
M  V30 2629 H 245.505 -3.42871 2.57172 0
M  V30 2630 H 249.689 -3.46651 3.55171 0
M  V30 2631 H 244.945 -3.57361 4.96088 0
M  V30 2632 H 249.119 -3.62371 5.94693 0
M  V30 2633 H 246.746 -3.67298 6.6558 0
M  V30 2634 N 248.321 -0.919034 -1.28029 0
M  V30 2635 C 249.732 -0.600735 -1.76771 0
M  V30 2636 C 250.083 0.884024 -1.75156 0
M  V30 2637 O 249.208 1.69163 -1.34956 0
M  V30 2638 C 249.803 -1.08372 -3.21 0
M  V30 2639 C 248.362 -0.816248 -3.67443 0
M  V30 2640 C 247.509 -1.24742 -2.47658 0
M  V30 2641 H 250.46 -1.09974 -1.14418 0
M  V30 2642 H 250.481 -0.427512 -3.78091 0
M  V30 2643 H 249.993 -2.16437 -3.22144 0
M  V30 2644 H 248.094 0.250968 -3.71754 0
M  V30 2645 H 248.207 -1.4277 -4.57333 0
M  V30 2646 H 246.571 -0.666083 -2.45836 0
M  V30 2647 H 247.354 -2.33653 -2.51518 0
M  V30 2648 N 249.799 1.42003 -0.683588 0
M  V30 2649 C 251.076 1.95112 -0.138075 0
M  V30 2650 C 251.456 1.62359 1.34918 0
M  V30 2651 O 250.804 0.924311 2.08971 0
M  V30 2652 C 251.014 3.46505 -0.416581 0
M  V30 2653 C 252.362 4.23254 -0.337834 0
M  V30 2654 O 253.386 3.54468 -0.35082 0
M  V30 2655 O 252.245 5.45743 -0.287596 0
M  V30 2656 H 249.339 0.826961 -0.00797996 0
M  V30 2657 H 251.885 1.51784 -0.758924 0
M  V30 2658 H 250.657 3.63582 -1.4465 0
M  V30 2659 H 250.28 3.969 0.235839 0
M  V30 2660 N 251.277 0.427512 1.51691 0
M  V30 2661 C 252.693 0.0792977 1.59403 0
M  V30 2662 C 252.893 -1.41035 1.43914 0
M  V30 2663 O 251.949 -2.17922 1.27539 0
M  V30 2664 C 253.262 0.590636 2.94842 0
M  V30 2665 C 254.81 0.550215 3.08126 0
M  V30 2666 C 255.285 1.03836 4.46074 0
M  V30 2667 N 256.776 0.995943 4.52366 0
M  V30 2668 C 257.511 1.34463 5.57411 0
M  V30 2669 N 257.007 1.76569 6.69922 0
M  V30 2670 N 258.8 1.26343 5.47717 0
M  V30 2671 H 250.951 1.39687 1.60004 0
M  V30 2672 H 253.214 0.575003 0.753708 0
M  V30 2673 H 252.92 1.63251 3.11516 0
M  V30 2674 H 252.794 0.0102061 3.77199 0
M  V30 2675 H 255.181 -0.482654 2.91126 0
M  V30 2676 H 255.262 1.16693 2.27632 0
M  V30 2677 H 254.906 2.06965 4.63819 0
M  V30 2678 H 254.836 0.398286 5.25092 0
M  V30 2679 H 257.327 0.68661 3.7161 0
M  V30 2680 H 257.64 2.01438 7.46085 0
M  V30 2681 H 255.985 1.80488 6.71155 0
M  V30 2682 H 259.176 0.933209 4.58703 0
M  V30 2683 H 259.349 1.53846 6.29472 0
M  V30 2684 N 252.755 -1.56801 0.158532 0
M  V30 2685 C 254.002 -1.9649 -0.489679 0
M  V30 2686 C 254.33 -1.04394 -1.6411 0
M  V30 2687 O 253.585 -0.0754401 -1.95555 0
M  V30 2688 C 253.884 -3.4235 -1.02623 0
M  V30 2689 C 253.55 -4.50899 0.00794526 0
M  V30 2690 C 252.212 -4.80312 0.292207 0
M  V30 2691 C 254.564 -5.16333 0.710584 0
M  V30 2692 C 251.892 -5.72461 1.28472 0
M  V30 2693 C 254.244 -6.09553 1.69199 0
M  V30 2694 C 252.908 -6.37339 1.98383 0
M  V30 2695 H 252.178 -0.719009 -0.179186 0
M  V30 2696 H 254.825 -1.8989 0.247798 0
M  V30 2697 H 253.13 -3.45838 -1.84128 0
M  V30 2698 H 254.827 -3.70393 -1.53656 0
M  V30 2699 H 251.417 -4.28015 -0.22379 0
M  V30 2700 H 255.601 -4.93732 0.504174 0
M  V30 2701 H 250.857 -5.92278 1.51714 0
M  V30 2702 H 255.031 -6.59327 2.24189 0
M  V30 2703 H 252.658 -7.08546 2.7544 0
M  V30 2704 N 254.233 0.115231 -1.57178 0
M  V30 2705 C 255.463 0.835224 -1.88964 0
M  V30 2706 C 255.871 1.73774 -0.74829 0
M  V30 2707 O 255.214 1.81401 0.289739 0
M  V30 2708 C 255.276 1.7178 -3.15804 0
M  V30 2709 C 254.94 0.989198 -4.46166 0
M  V30 2710 C 255.937 0.328263 -5.18863 0
M  V30 2711 C 253.622 0.969256 -4.9286 0
M  V30 2712 C 255.616 -0.342873 -6.36477 0
M  V30 2713 C 253.303 0.294324 -6.10391 0
M  V30 2714 C 254.301 -0.360582 -6.82048 0
M  V30 2715 O 253.989 -1.02474 -7.97342 0
M  V30 2716 H 253.721 0.245197 -0.629964 0
M  V30 2717 H 256.275 0.10303 -2.05141 0
M  V30 2718 H 254.505 2.49173 -2.95719 0
M  V30 2719 H 256.194 2.31255 -3.33581 0
M  V30 2720 H 256.96 0.335263 -4.8384 0
M  V30 2721 H 252.839 1.46844 -4.36987 0
M  V30 2722 H 256.383 -0.854629 -6.92345 0
M  V30 2723 H 252.28 0.285099 -6.4487 0
M  V30 2724 H 253.048 -0.929594 -8.13204 0
M  V30 2725 N 255.711 1.52812 0.385517 0
M  V30 2726 C 256.659 1.78482 1.49155 0
M  V30 2727 C 257.653 0.652914 1.56312 0
M  V30 2728 O 258.859 0.835464 1.59436 0
M  V30 2729 H 255.234 0.5648 0.496493 0
M  V30 2730 H 257.205 2.71095 1.24699 0
M  V30 2731 C 255.954 1.97378 2.86247 0
M  V30 2732 H 255.277 2.83907 2.81491 0
M  V30 2733 H 256.717 2.19327 3.62866 0
M  V30 2734 C 255.176 0.74728 3.28508 0
M  V30 2735 O 255.706 -0.0736232 4.01633 0
M  V30 2736 N 253.912 0.576396 2.84826 0
M  V30 2737 H 253.459 1.24555 2.25486 0
M  V30 2738 H 253.417 -0.24288 3.1346 0
M  V30 2739 N 257.189 -0.644168 1.43834 0
M  V30 2740 C 258.437 -1.40117 1.45642 0
M  V30 2741 C 258.758 -1.94814 0.0852413 0
M  V30 2742 O 258.028 -1.74988 -0.880688 0
M  V30 2743 H 256.608 -0.52005 0.536243 0
M  V30 2744 H 259.27 -0.7591 1.7951 0
M  V30 2745 H 258.366 -2.23902 2.17427 0
M  V30 2746 N 258.668 -1.30515 -0.883378 0
M  V30 2747 C 259.945 -1.10086 -1.6168 0
M  V30 2748 C 260.325 0.349269 -2.08191 0
M  V30 2749 O 259.673 1.34105 -1.85008 0
M  V30 2750 C 259.883 -2.10315 -2.78511 0
M  V30 2751 C 261.231 -2.42119 -3.48803 0
M  V30 2752 O 262.255 -2.08638 -2.88702 0
M  V30 2753 O 261.114 -2.99396 -4.57192 0
M  V30 2754 H 258.208 -0.422907 -0.710689 0
M  V30 2755 H 260.754 -1.41947 -0.930015 0
M  V30 2756 H 259.526 -3.07917 -2.41459 0
M  V30 2757 H 259.149 -1.79282 -3.54886 0
M  V30 2758 N 260.146 1.09593 -1.13257 0
M  V30 2759 C 261.371 1.8604 -0.916732 0
M  V30 2760 C 261.796 1.80504 0.529146 0
M  V30 2761 O 261.154 1.18127 1.37534 0
M  V30 2762 C 261.202 3.32017 -1.40703 0
M  V30 2763 O 260.306 4.08141 -0.591153 0
M  V30 2764 H 259.647 0.576943 -0.328683 0
M  V30 2765 H 262.177 1.38405 -1.50682 0
M  V30 2766 H 262.187 3.82865 -1.4099 0
M  V30 2767 H 260.862 3.35361 -2.45979 0
M  V30 2768 H 259.439 3.67084 -0.656005 0
M  V30 2769 N 261.624 0.925811 1.2754 0
M  V30 2770 C 262.849 0.580924 1.99098 0
M  V30 2771 C 263.274 -0.833555 1.68622 0
M  V30 2772 O 262.632 -1.55903 0.925422 0
M  V30 2773 C 262.68 0.811186 3.51358 0
M  V30 2774 O 261.784 -0.124129 4.12213 0
M  V30 2775 H 261.125 0.223873 0.625122 0
M  V30 2776 H 263.655 1.24455 1.62395 0
M  V30 2777 H 263.665 0.72601 4.01489 0
M  V30 2778 H 262.34 1.84227 3.72872 0
M  V30 2779 H 260.917 0.0108006 3.72898 0
M  V30 2780 N 263.102 -1.41638 0.69111 0
M  V30 2781 C 264.05 -2.32597 0.0115199 0
M  V30 2782 C 265.044 -1.5072 -0.773296 0
M  V30 2783 O 266.25 -1.66685 -0.67942 0
M  V30 2784 H 262.625 -0.751849 -0.0150746 0
M  V30 2785 H 264.596 -2.87593 0.795791 0
M  V30 2786 C 263.345 -3.35467 -0.914172 0
M  V30 2787 H 262.668 -3.9852 -0.319687 0
M  V30 2788 H 264.108 -4.01662 -1.35808 0
M  V30 2789 C 262.567 -2.69004 -2.02826 0
M  V30 2790 O 263.097 -2.53444 -3.11655 0
M  V30 2791 N 261.303 -2.2777 -1.80469 0
M  V30 2792 H 260.85 -2.40626 -0.919615 0
M  V30 2793 H 260.808 -1.83635 -2.55197 0
M  V30 2794 N 264.58 -0.43555 -1.51462 0
M  V30 2795 C 265.857 0.191364 -1.94662 0
M  V30 2796 C 266.237 1.60254 -1.37411 0
M  V30 2797 O 265.585 2.2152 -0.560458 0
M  V30 2798 C 265.795 0.17091 -3.48581 0
M  V30 2799 C 267.143 0.377357 -4.2292 0
M  V30 2800 O 268.167 0.249104 -3.55328 0
M  V30 2801 O 267.026 0.63247 -5.42828 0
M  V30 2802 H 264.12 0.130932 -0.816569 0
M  V30 2803 H 266.666 -0.4934 -1.62369 0
M  V30 2804 H 265.438 -0.815738 -3.82703 0
M  V30 2805 H 265.061 0.898659 -3.87311 0
M  V30 2806 N 266.058 1.56714 -0.166846 0
M  V30 2807 C 267.304 1.97039 0.479962 0
M  V30 2808 C 267.637 1.05264 1.63197 0
M  V30 2809 O 266.912 0.0988833 1.94248 0
M  V30 2810 C 267.195 3.46867 0.967212 0
M  V30 2811 C 267.048 4.49421 -0.18466 0
M  V30 2812 C 268.367 3.9968 1.84238 0
M  V30 2813 H 265.486 0.71641 0.172992 0
M  V30 2814 H 268.128 1.8832 -0.252079 0
M  V30 2815 H 266.278 3.54428 1.59101 0
M  V30 2816 H 267.95 4.53924 -0.821621 0
M  V30 2817 H 266.193 4.25573 -0.840837 0
M  V30 2818 H 266.864 5.51644 0.198317 0
M  V30 2819 H 269.34 3.94723 1.31655 0
M  V30 2820 H 268.216 5.04941 2.15234 0
M  V30 2821 H 268.477 3.43226 2.78654 0
M  V30 2822 N 267.536 -0.106894 1.57237 0
M  V30 2823 C 268.468 -1.15646 1.97885 0
M  V30 2824 C 269.481 -1.36981 0.879779 0
M  V30 2825 O 270.67 -1.35841 1.15799 0
M  V30 2826 C 267.77 -2.51425 2.27241 0
M  V30 2827 C 266.943 -2.50529 3.58545 0
M  V30 2828 C 266.002 -3.68145 3.75973 0
M  V30 2829 O 265.028 -3.51176 4.47956 0
M  V30 2830 N 266.23 -4.87177 3.15656 0
M  V30 2831 H 268.995 -0.81059 2.8853 0
M  V30 2832 H 266.556 -0.296024 1.59171 0
M  V30 2833 H 268.548 -3.28689 2.36105 0
M  V30 2834 H 267.118 -2.78147 1.42663 0
M  V30 2835 H 266.338 -1.58894 3.60758 0
M  V30 2836 H 267.626 -2.46997 4.44826 0
M  V30 2837 H 267.024 -5.03868 2.57165 0
M  V30 2838 H 265.581 -5.62075 3.30023 0
M  V30 2839 N 269.014 -1.53014 -0.377408 0
M  V30 2840 C 270.242 -1.72515 -1.14219 0
M  V30 2841 C 270.657 -0.448735 -1.8339 0
M  V30 2842 O 270.014 0.577592 -1.73119 0
M  V30 2843 C 270.065 -2.8826 -2.18148 0
M  V30 2844 O 269.786 -4.10962 -1.51795 0
M  V30 2845 C 271.287 -3.19536 -3.07264 0
M  V30 2846 H 268.507 -0.577301 -0.342001 0
M  V30 2847 H 271.051 -1.99712 -0.439935 0
M  V30 2848 H 269.206 -2.63492 -2.83991 0
M  V30 2849 H 269.62 -4.75693 -2.20945 0
M  V30 2850 H 271.094 -4.03959 -3.76193 0
M  V30 2851 H 271.571 -2.34403 -3.71419 0
M  V30 2852 H 272.177 -3.46186 -2.47053 0
M  V30 2853 N 270.492 0.636531 -1.44174 0
M  V30 2854 C 271.74 1.39343 -1.46383 0
M  V30 2855 C 272.061 1.94766 -0.0955715 0
M  V30 2856 O 271.331 1.75452 0.871395 0
M  V30 2857 H 269.911 0.517199 -0.538994 0
M  V30 2858 H 272.573 0.74957 -1.7991 0
M  V30 2859 H 271.669 2.22746 -2.18611 0
M  V30 2860 N 271.97 1.30982 0.876444 0
M  V30 2861 C 273.195 1.23373 1.66715 0
M  V30 2862 C 273.62 -0.19885 1.87046 0
M  V30 2863 O 272.978 -1.1427 1.40756 0
M  V30 2864 C 273.026 1.97644 3.01611 0
M  V30 2865 O 272.13 1.30935 3.91062 0
M  V30 2866 H 271.471 0.426279 0.509099 0
M  V30 2867 H 274.001 1.72944 1.09323 0
M  V30 2868 H 274.011 2.06992 3.51594 0
M  V30 2869 H 272.686 3.01829 2.86133 0
M  V30 2870 H 271.263 1.29996 3.49507 0
M  V30 2871 N 273.449 -1.08991 1.13837 0
M  V30 2872 C 274.679 -1.84743 0.924859 0
M  V30 2873 C 275.087 -1.81629 -0.529874 0
M  V30 2874 O 274.43 -1.21397 -1.37872 0
M  V30 2875 C 274.492 -3.33568 1.34061 0
M  V30 2876 C 274.156 -3.60425 2.80968 0
M  V30 2877 C 275.153 -3.55771 3.79108 0
M  V30 2878 C 272.838 -3.88627 3.18236 0
M  V30 2879 C 274.832 -3.78939 5.12527 0
M  V30 2880 C 272.519 -4.11449 4.51833 0
M  V30 2881 C 273.517 -4.06598 5.48787 0
M  V30 2882 O 273.205 -4.28826 6.79973 0
M  V30 2883 H 272.937 -0.590258 0.329502 0
M  V30 2884 H 275.491 -1.38598 1.51591 0
M  V30 2885 H 273.721 -3.80442 0.692853 0
M  V30 2886 H 275.41 -3.90743 1.09886 0
M  V30 2887 H 276.176 -3.34005 3.51661 0
M  V30 2888 H 272.055 -3.91526 2.43369 0
M  V30 2889 H 275.599 -3.75068 5.88192 0
M  V30 2890 H 271.496 -4.32698 4.79002 0
M  V30 2891 H 272.264 -4.46264 6.86142 0
M  V30 2892 N 274.927 -0.932562 -1.27047 0
M  V30 2893 C 276.155 -0.592031 -1.98249 0
M  V30 2894 C 276.57 0.831062 -1.69525 0
M  V30 2895 O 275.927 1.55299 -0.958561 0
M  V30 2896 C 275.978 -0.814279 -3.5221 0
M  V30 2897 O 275.699 -2.18139 -3.7993 0
M  V30 2898 C 277.2 -0.483121 -4.4066 0
M  V30 2899 H 274.42 -0.223896 -0.632544 0
M  V30 2900 H 276.964 -1.25091 -1.61779 0
M  V30 2901 H 275.119 -0.20213 -3.86872 0
M  V30 2902 H 275.533 -2.235 -4.74498 0
M  V30 2903 H 277.007 -0.689298 -5.47679 0
M  V30 2904 H 277.484 0.581546 -4.35333 0
M  V30 2905 H 278.09 -1.07362 -4.11526 0
M  V30 2906 N 276.405 1.4127 -0.698611 0
M  V30 2907 C 277.635 2.05205 -0.239644 0
M  V30 2908 C 278.043 1.52684 1.11733 0
M  V30 2909 O 277.386 0.671222 1.70998 0
M  V30 2910 C 277.448 3.59289 -0.123126 0
M  V30 2911 C 277.112 4.34619 -1.41263 0
M  V30 2912 C 278.109 4.63701 -2.35111 0
M  V30 2913 C 275.794 4.73837 -1.66684 0
M  V30 2914 C 277.788 5.30966 -3.52639 0
M  V30 2915 C 275.475 5.40837 -2.84498 0
M  V30 2916 C 276.473 5.69329 -3.77298 0
M  V30 2917 O 276.161 6.34949 -4.93047 0
M  V30 2918 H 275.893 0.66723 -0.108537 0
M  V30 2919 H 278.447 1.81974 -0.952602 0
M  V30 2920 H 276.677 3.81272 0.645628 0
M  V30 2921 H 278.366 4.04797 0.299056 0
M  V30 2922 H 279.132 4.33882 -2.16729 0
M  V30 2923 H 275.011 4.51039 -0.953135 0
M  V30 2924 H 278.555 5.53121 -4.25091 0
M  V30 2925 H 274.452 5.70075 -3.02795 0
M  V30 2926 H 275.22 6.53445 -4.92902 0
M  V30 2927 N 277.883 0.443576 1.51229 0
M  V30 2928 C 278.831 -0.37904 2.29491 0
M  V30 2929 C 279.825 -1.0153 1.35603 0
M  V30 2930 O 281.031 -0.94955 1.52917 0
M  V30 2931 H 277.406 -0.141053 0.738653 0
M  V30 2932 H 279.377 0.301799 2.9687 0
M  V30 2933 C 278.126 -1.46426 3.15364 0
M  V30 2934 H 277.449 -0.984037 3.87501 0
M  V30 2935 H 278.889 -2.01297 3.7317 0
M  V30 2936 C 277.348 -2.45099 2.31146 0
M  V30 2937 O 277.878 -3.49773 1.9754 0
M  V30 2938 N 276.084 -2.16139 1.94249 0
M  V30 2939 H 275.631 -1.31044 2.21777 0
M  V30 2940 H 275.589 -2.82398 1.38198 0
M  V30 2941 N 279.361 -1.56624 0.175154 0
M  V30 2942 C 280.609 -1.96609 -0.467885 0
M  V30 2943 C 280.93 -1.06238 -1.63519 0
M  V30 2944 O 280.2 -0.129523 -1.95471 0
M  V30 2945 H 278.78 -0.726008 -0.175845 0
M  V30 2946 H 281.442 -1.93195 0.257234 0
M  V30 2947 H 280.538 -3.00989 -0.825342 0
M  V30 2948 N 280.839 0.0985539 -1.57292 0
M  V30 2949 C 282.067 0.816318 -1.90115 0
M  V30 2950 C 282.482 1.72451 -0.768509 0
M  V30 2951 O 281.839 1.80643 0.259687 0
M  V30 2952 C 281.89 1.63259 -3.22535 0
M  V30 2953 O 281.611 0.760934 -4.31441 0
M  V30 2954 C 283.112 2.45372 -3.69199 0
M  V30 2955 H 280.332 0.233595 -0.629027 0
M  V30 2956 H 282.876 0.0768229 -2.04356 0
M  V30 2957 H 281.031 2.32463 -3.09903 0
M  V30 2958 H 281.445 1.32595 -5.07463 0
M  V30 2959 H 282.919 2.98144 -4.64558 0
M  V30 2960 H 283.396 3.23677 -2.96867 0
M  V30 2961 H 284.002 1.81373 -3.84687 0
M  V30 2962 N 282.317 1.53212 0.369288 0
M  V30 2963 C 283.728 1.60943 0.946276 0
M  V30 2964 C 284.079 0.47452 1.90375 0
M  V30 2965 O 283.204 -0.399597 2.12679 0
M  V30 2966 C 283.799 2.91715 1.72302 0
M  V30 2967 C 282.358 3.01792 2.24941 0
M  V30 2968 C 281.505 2.56211 1.06072 0
M  V30 2969 H 284.456 1.58007 0.148198 0
M  V30 2970 H 284.477 2.79309 2.58393 0
M  V30 2971 H 283.989 3.74295 1.0259 0
M  V30 2972 H 282.09 2.23791 2.97906 0
M  V30 2973 H 282.203 4.06803 2.53077 0
M  V30 2974 H 280.567 2.10998 1.4266 0
M  V30 2975 H 281.35 3.41206 0.378639 0
M  V30 2976 N 283.795 -0.628877 1.44509 0
M  V30 2977 C 285.023 -1.41554 1.50897 0
M  V30 2978 C 285.438 -1.8832 0.134564 0
M  V30 2979 O 284.795 -1.60969 -0.859965 0
M  V30 2980 C 284.846 -2.63435 2.47556 0
M  V30 2981 O 284.567 -2.18619 3.79654 0
M  V30 2982 C 286.068 -3.56537 2.63431 0
M  V30 2983 H 283.288 -0.434044 0.511709 0
M  V30 2984 H 285.832 -0.768895 1.89495 0
M  V30 2985 H 283.987 -3.24187 2.12089 0
M  V30 2986 H 284.401 -2.97652 4.31861 0
M  V30 2987 H 285.875 -4.38657 3.35088 0
M  V30 2988 H 286.352 -4.05493 1.68738 0
M  V30 2989 H 286.958 -3.01653 2.9981 0
M  V30 2990 N 285.273 -1.31445 -0.869486 0
M  V30 2991 C 286.183 -1.21097 -2.0093 0
M  V30 2992 C 287.199 -0.127584 -1.73532 0
M  V30 2993 O 288.375 -0.345477 -1.98415 0
M  V30 2994 C 285.44 -0.919378 -3.34288 0
M  V30 2995 C 284.501 -2.08971 -3.75006 0
M  V30 2996 C 283.734 -1.81194 -5.02001 0
M  V30 2997 O 283.957 -0.747296 -5.65484 0
M  V30 2998 O 282.891 -2.66883 -5.39497 0
M  V30 2999 H 286.717 -2.16883 -2.12592 0
M  V30 3000 H 284.302 -1.11189 -0.997868 0
M  V30 3001 H 286.184 -0.772625 -4.14257 0
M  V30 3002 H 284.859 0.00844772 -3.23699 0
M  V30 3003 H 283.766 -2.29187 -2.95676 0
M  V30 3004 H 285.099 -2.9998 -3.90221 0
M  V30 3005 N 286.751 1.08385 -1.14413 0
M  V30 3006 C 287.698 2.15311 -0.831265 0
M  V30 3007 C 288.668 1.64751 0.211292 0
M  V30 3008 O 289.853 1.90627 0.0811674 0
M  V30 3009 C 286.993 3.43658 -0.315143 0
M  V30 3010 C 286.106 4.08064 -1.41802 0
M  V30 3011 C 285.241 5.24207 -0.859126 0
M  V30 3012 C 284.28 5.80554 -1.93967 0
M  V30 3013 N 283.417 6.88042 -1.39793 0
M  V30 3014 H 288.257 2.41415 -1.74708 0
M  V30 3015 H 285.794 1.18474 -0.871909 0
M  V30 3016 H 287.752 4.172 0.00230884 0
M  V30 3017 H 286.382 3.17839 0.56378 0
M  V30 3018 H 285.434 3.3228 -1.85187 0
M  V30 3019 H 286.746 4.45962 -2.23427 0
M  V30 3020 H 285.9 6.04689 -0.49359 0
M  V30 3021 H 284.639 4.87699 -0.011932 0
M  V30 3022 H 283.644 4.98725 -2.31415 0
M  V30 3023 H 284.869 6.19121 -2.79046 0
M  V30 3024 H 282.815 6.53493 -0.572919 0
M  V30 3025 H 282.732 7.24767 -2.15054 0
M  V30 3026 H 284 7.72255 -1.0603 0
M  V30 3027 N 288.23 0.939286 1.26551 0
M  V30 3028 C 289.177 0.446088 2.26448 0
M  V30 3029 C 290.147 -0.493234 1.58608 0
M  V30 3030 O 291.332 -0.409857 1.86346 0
M  V30 3031 C 288.472 -0.284375 3.43926 0
M  V30 3032 C 287.585 0.690399 4.26448 0
M  V30 3033 C 286.72 -0.0610712 5.31165 0
M  V30 3034 C 285.759 0.905649 6.05363 0
M  V30 3035 N 284.896 0.186055 7.01853 0
M  V30 3036 H 289.736 1.30291 2.68008 0
M  V30 3037 H 287.273 0.65371 1.31776 0
M  V30 3038 H 289.231 -0.724313 4.10864 0
M  V30 3039 H 287.861 -1.10535 3.03285 0
M  V30 3040 H 286.913 1.24885 3.59316 0
M  V30 3041 H 288.225 1.42873 4.779 0
M  V30 3042 H 287.379 -0.56038 6.04106 0
M  V30 3043 H 286.118 -0.832297 4.80546 0
M  V30 3044 H 285.123 1.4161 5.3125 0
M  V30 3045 H 286.348 1.67685 6.58072 0
M  V30 3046 H 284.294 -0.566714 6.53548 0
M  V30 3047 H 284.211 0.863752 7.51049 0
M  V30 3048 H 285.479 -0.292221 7.78952 0
M  V30 3049 N 289.708 -1.40897 0.706093 0
M  V30 3050 C 290.671 -2.29131 0.0562841 0
M  V30 3051 C 291.671 -1.44901 -0.697166 0
M  V30 3052 O 292.861 -1.65926 -0.530484 0
M  V30 3053 C 289.993 -3.27957 -0.93043 0
M  V30 3054 H 291.186 -2.88091 0.833284 0
M  V30 3055 H 288.739 -1.4906 0.470192 0
M  V30 3056 H 289.474 -2.73997 -1.73482 0
M  V30 3057 H 289.259 -3.90124 -0.393166 0
M  V30 3058 H 290.749 -3.94049 -1.38256 0
M  V30 3059 N 291.186 -0.45159 -1.50991 0
M  V30 3060 C 292.432 0.102439 -2.03142 0
M  V30 3061 C 292.787 1.39138 -1.32884 0
M  V30 3062 O 292.08 1.86493 -0.439438 0
M  V30 3063 C 292.274 0.361728 -3.55565 0
M  V30 3064 C 292.103 -0.900535 -4.40591 0
M  V30 3065 C 290.873 -1.43821 -4.844 0
M  V30 3066 C 293.071 -1.79063 -4.82121 0
M  V30 3067 N 291.053 -2.65153 -5.53685 0
M  V30 3068 C 292.424 -2.84991 -5.50618 0
M  V30 3069 C 294.479 -1.80334 -4.64095 0
M  V30 3070 C 293.182 -3.92155 -6.02998 0
M  V30 3071 C 295.208 -2.86442 -5.17402 0
M  V30 3072 C 294.57 -3.9109 -5.85857 0
M  V30 3073 H 290.669 -0.00204537 -0.781997 0
M  V30 3074 H 293.253 -0.615446 -1.84717 0
M  V30 3075 H 291.424 1.04865 -3.73976 0
M  V30 3076 H 293.156 0.908372 -3.94374 0
M  V30 3077 H 289.911 -0.990117 -4.63135 0
M  V30 3078 H 290.335 -3.26717 -5.92946 0
M  V30 3079 H 294.977 -1.00753 -4.1062 0
M  V30 3080 H 292.695 -4.72565 -6.55521 0
M  V30 3081 H 296.281 -2.88386 -5.05297 0
M  V30 3082 H 295.161 -4.71845 -6.26364 0
M  V30 3083 N 292.664 1.56529 -0.183458 0
M  V30 3084 C 293.912 1.96855 0.457452 0
M  V30 3085 C 294.233 1.07104 1.62953 0
M  V30 3086 O 293.503 0.139887 1.954 0
M  V30 3087 H 292.083 0.72693 0.171992 0
M  V30 3088 H 294.745 1.93056 -0.267476 0
M  V30 3089 H 293.841 3.01423 0.809368 0
M  V30 3090 N 294.142 -0.090211 1.57342 0
M  V30 3091 C 295.367 -0.810082 1.90925 0
M  V30 3092 C 295.792 -1.71248 0.778187 0
M  V30 3093 O 295.15 -1.79278 -0.269991 0
M  V30 3094 C 295.198 -1.59529 3.23393 0
M  V30 3095 O 294.302 -2.70461 3.11327 0
M  V30 3096 H 293.643 -0.222231 0.625707 0
M  V30 3097 H 296.173 -0.0639716 2.045 0
M  V30 3098 H 296.183 -1.97847 3.5682 0
M  V30 3099 H 294.858 -0.933055 4.05299 0
M  V30 3100 H 293.435 -2.35135 2.89423 0
M  V30 3101 N 295.62 -1.53406 -0.361157 0
M  V30 3102 C 296.845 -1.74024 -1.12829 0
M  V30 3103 C 297.27 -0.470069 -1.82132 0
M  V30 3104 O 296.628 0.57619 -1.719 0
M  V30 3105 C 296.676 -2.90903 -2.13091 0
M  V30 3106 O 295.78 -2.59821 -3.20261 0
M  V30 3107 H 295.121 -0.577804 -0.327168 0
M  V30 3108 H 297.651 -2.00307 -0.41693 0
M  V30 3109 H 297.661 -3.17194 -2.56616 0
M  V30 3110 H 296.336 -3.83034 -1.62042 0
M  V30 3111 H 294.913 -2.44362 -2.81677 0
M  V30 3112 N 297.098 0.621204 -1.44841 0
M  V30 3113 C 298.344 1.3826 -1.48365 0
M  V30 3114 C 298.677 1.93831 -0.119624 0
M  V30 3115 O 297.952 1.74251 0.864111 0
M  V30 3116 C 298.235 2.54058 -2.55199 0
M  V30 3117 C 298.088 2.03772 -4.00995 0
M  V30 3118 C 299.407 3.56225 -2.58442 0
M  V30 3119 H 296.526 0.501374 -0.540179 0
M  V30 3120 H 299.168 0.7015 -1.76576 0
M  V30 3121 H 297.318 3.12162 -2.31274 0
M  V30 3122 H 298.99 1.50423 -4.36086 0
M  V30 3123 H 297.233 1.34876 -4.12299 0
M  V30 3124 H 297.904 2.87185 -4.71411 0
M  V30 3125 H 300.38 3.07939 -2.79844 0
M  V30 3126 H 299.256 4.34756 -3.3508 0
M  V30 3127 H 299.517 4.10949 -1.63013 0
M  V30 3128 N 298.576 1.31904 0.862503 0
M  V30 3129 C 299.806 1.24817 1.64634 0
M  V30 3130 C 300.214 -0.187579 1.88268 0
M  V30 3131 O 299.557 -1.13253 1.44635 0
M  V30 3132 C 299.619 1.92996 3.03303 0
M  V30 3133 C 299.283 3.42336 3.02746 0
M  V30 3134 C 300.28 4.37956 2.80162 0
M  V30 3135 C 297.965 3.84147 3.2363 0
M  V30 3136 C 299.959 5.73361 2.78453 0
M  V30 3137 C 297.646 5.19663 3.21549 0
M  V30 3138 C 298.644 6.14081 2.98988 0
M  V30 3139 O 298.332 7.47118 2.96766 0
M  V30 3140 H 298.064 0.432222 0.519769 0
M  V30 3141 H 300.618 1.7445 1.08427 0
M  V30 3142 H 298.848 1.37922 3.61268 0
M  V30 3143 H 300.537 1.79723 3.63943 0
M  V30 3144 H 301.303 4.06981 2.63802 0
M  V30 3145 H 297.182 3.11083 3.40218 0
M  V30 3146 H 300.726 6.4703 2.60763 0
M  V30 3147 H 296.623 5.5027 3.37451 0
M  V30 3148 H 297.391 7.56382 3.12775 0
M  V30 3149 N 300.054 -1.07777 1.14986 0
M  V30 3150 C 301.017 -2.13041 0.845358 0
M  V30 3151 C 302.017 -1.60071 -0.152931 0
M  V30 3152 O 303.207 -1.74033 0.0761879 0
M  V30 3153 C 300.339 -3.39896 0.261383 0
M  V30 3154 H 301.532 -2.41485 1.77834 0
M  V30 3155 H 299.085 -1.23595 0.956757 0
M  V30 3156 H 299.82 -3.17091 -0.68 0
M  V30 3157 H 299.605 -3.79642 0.980514 0
M  V30 3158 H 301.095 -4.17548 0.0657687 0
M  V30 3159 N 301.532 -0.945985 -1.26051 0
M  V30 3160 C 302.809 -0.513816 -1.88731 0
M  V30 3161 C 303.189 1.00872 -1.8544 0
M  V30 3162 O 302.537 1.8708 -1.312 0
M  V30 3163 C 302.747 -1.08062 -3.31849 0
M  V30 3164 C 304.095 -1.1522 -4.08668 0
M  V30 3165 O 305.119 -1.03155 -3.40936 0
M  V30 3166 O 303.978 -1.34044 -5.29806 0
M  V30 3167 H 301.072 -0.168193 -0.809716 0
M  V30 3168 H 303.618 -1.03886 -1.34186 0
M  V30 3169 H 302.39 -2.1241 -3.2863 0
M  V30 3170 H 302.013 -0.538307 -3.93939 0
M  V30 3171 N 303.011 1.40521 -0.713556 0
M  V30 3172 C 304.422 1.83853 -0.324807 0
M  V30 3173 C 304.773 1.59667 1.14021 0
M  V30 3174 O 303.898 1.07649 1.87725 0
M  V30 3175 C 304.493 3.33751 -0.582746 0
M  V30 3176 C 303.052 3.75584 -0.247727 0
M  V30 3177 C 302.199 2.63753 -0.856121 0
M  V30 3178 H 305.15 1.29817 -0.91286 0
M  V30 3179 H 305.171 3.80194 0.152682 0
M  V30 3180 H 304.683 3.51322 -1.64908 0
M  V30 3181 H 302.784 3.63608 0.813624 0
M  V30 3182 H 302.897 4.7373 -0.715307 0
M  V30 3183 H 301.261 2.53108 -0.28432 0
M  V30 3184 H 302.044 2.84137 -1.92668 0
M  V30 3185 N 304.489 0.459591 1.5075 0
M  V30 3186 C 305.737 -0.0991532 2.01857 0
M  V30 3187 C 306.058 -1.41247 1.34441 0
M  V30 3188 O 305.328 -1.89775 0.486022 0
M  V30 3189 H 303.908 -0.039633 0.745948 0
M  V30 3190 H 306.57 0.607387 1.85194 0
M  V30 3191 H 305.666 -0.258998 3.11023 0
M  V30 3192 N 305.967 -1.56429 0.191757 0
M  V30 3193 C 307.197 -2.01574 -0.452928 0
M  V30 3194 C 307.605 -1.07107 -1.55964 0
M  V30 3195 O 306.948 -0.067534 -1.83576 0
M  V30 3196 C 307.01 -3.43121 -1.07278 0
M  V30 3197 C 306.674 -4.56879 -0.105214 0
M  V30 3198 C 307.671 -5.15379 0.684149 0
M  V30 3199 C 305.356 -5.023 0.00489824 0
M  V30 3200 C 307.35 -6.17746 1.57062 0
M  V30 3201 C 305.037 -6.04511 0.894935 0
M  V30 3202 C 306.035 -6.62108 1.67637 0
M  V30 3203 O 305.723 -7.62335 2.55149 0
M  V30 3204 H 305.455 -0.665554 -0.118379 0
M  V30 3205 H 308.009 -2.03245 0.296737 0
M  V30 3206 H 306.239 -3.38425 -1.87097 0
M  V30 3207 H 307.928 -3.72093 -1.62177 0
M  V30 3208 H 308.694 -4.81157 0.609365 0
M  V30 3209 H 304.573 -4.57168 -0.593156 0
M  V30 3210 H 308.117 -6.6263 2.181 0
M  V30 3211 H 304.014 -6.38157 0.970847 0
M  V30 3212 H 304.782 -7.79741 2.48892 0
M  V30 3213 N 307.445 0.0818655 -1.57387 0
M  V30 3214 C 308.722 0.815343 -1.77796 0
M  V30 3215 C 309.102 1.96289 -0.77679 0
M  V30 3216 O 308.45 2.27691 0.192106 0
M  V30 3217 C 308.66 1.29765 -3.23978 0
M  V30 3218 C 310.008 1.7351 -3.8753 0
M  V30 3219 O 311.032 1.39356 -3.27808 0
M  V30 3220 O 309.891 2.36708 -4.92576 0
M  V30 3221 H 306.985 0.389914 -0.729312 0
M  V30 3222 H 309.531 0.0627213 -1.69584 0
M  V30 3223 H 308.303 0.47608 -3.88393 0
M  V30 3224 H 307.926 2.11189 -3.36875 0
M  V30 3225 N 308.923 1.53595 0.353017 0
M  V30 3226 C 309.871 1.81605 1.45335 0
M  V30 3227 C 310.865 0.685923 1.54892 0
M  V30 3228 O 312.071 0.869095 1.57628 0
M  V30 3229 H 308.446 0.575204 0.484401 0
M  V30 3230 H 310.417 2.73679 1.18921 0
M  V30 3231 C 309.166 2.03406 2.81995 0
M  V30 3232 H 308.489 2.89814 2.75405 0
M  V30 3233 H 309.929 2.26975 3.58132 0
M  V30 3234 C 308.388 0.816794 3.26849 0
M  V30 3235 O 308.918 0.0115856 4.01698 0
M  V30 3236 N 307.124 0.636682 2.8354 0
M  V30 3237 H 306.671 1.2931 2.22793 0
M  V30 3238 H 306.629 -0.176336 3.13905 0
M  V30 3239 N 310.401 -0.613514 1.45168 0
M  V30 3240 C 311.626 -1.40437 1.52618 0
M  V30 3241 C 312.051 -1.87438 0.157707 0
M  V30 3242 O 311.409 -1.59791 -0.856537 0
M  V30 3243 C 311.457 -2.58894 2.51011 0
M  V30 3244 O 310.561 -3.59326 2.02382 0
M  V30 3245 H 309.902 -0.419506 0.514695 0
M  V30 3246 H 312.432 -0.747215 1.90467 0
M  V30 3247 H 312.442 -3.06214 2.69624 0
M  V30 3248 H 311.117 -2.24032 3.50403 0
M  V30 3249 H 309.694 -3.18695 1.93618 0
M  V30 3250 N 311.879 -1.3236 -0.855495 0
M  V30 3251 C 312.809 -1.23833 -1.97958 0
M  V30 3252 C 313.79 -0.122361 -1.69659 0
M  V30 3253 O 314.975 -0.30939 -1.9172 0
M  V30 3254 C 312.105 -0.959772 -3.33775 0
M  V30 3255 C 311.059 -2.03689 -3.76424 0
M  V30 3256 C 310.385 -1.61075 -5.09862 0
M  V30 3257 C 311.685 -3.4518 -3.9198 0
M  V30 3258 H 313.379 -2.1788 -2.0535 0
M  V30 3259 H 310.925 -1.04891 -0.986605 0
M  V30 3260 H 312.878 -0.886678 -4.11966 0
M  V30 3261 H 311.602 0.0163404 -3.26596 0
M  V30 3262 H 310.261 -2.10012 -3.00484 0
M  V30 3263 H 309.909 -0.622107 -4.99138 0
M  V30 3264 H 309.609 -2.33143 -5.39368 0
M  V30 3265 H 311.133 -1.55201 -5.90546 0
M  V30 3266 H 312.547 -3.4145 -4.60526 0
M  V30 3267 H 310.944 -4.1559 -4.32903 0
M  V30 3268 H 312.014 -3.84903 -2.94919 0
M  V30 3269 N 313.357 1.07166 -1.15556 0
M  V30 3270 C 314.603 1.80065 -0.932984 0
M  V30 3271 C 314.936 1.86586 0.53845 0
M  V30 3272 O 314.211 1.35098 1.39924 0
M  V30 3273 C 314.494 3.25022 -1.55025 0
M  V30 3274 C 314.347 3.26634 -3.09242 0
M  V30 3275 C 315.666 4.22341 -1.2376 0
M  V30 3276 H 312.785 0.653697 -0.340366 0
M  V30 3277 H 315.427 1.25389 -1.4275 0
M  V30 3278 H 313.577 3.71712 -1.12972 0
M  V30 3279 H 315.249 2.88173 -3.60214 0
M  V30 3280 H 313.492 2.65539 -3.43033 0
M  V30 3281 H 314.163 4.28854 -3.47546 0
M  V30 3282 H 316.639 3.8405 -1.60139 0
M  V30 3283 H 315.515 5.22053 -1.69564 0
M  V30 3284 H 315.776 4.41828 -0.154938 0
M  V30 3285 N 314.835 0.952656 1.25548 0
M  V30 3286 C 316.082 0.606373 1.93208 0
M  V30 3287 C 316.41 -0.85631 1.74636 0
M  V30 3288 O 315.665 -1.62951 1.08376 0
M  V30 3289 C 315.964 0.908818 3.45652 0
M  V30 3290 C 315.63 2.35722 3.84378 0
M  V30 3291 C 314.292 2.75312 3.9466 0
M  V30 3292 C 316.644 3.29793 4.03591 0
M  V30 3293 C 313.972 4.08047 4.21562 0
M  V30 3294 C 316.324 4.62138 4.31985 0
M  V30 3295 C 314.988 5.01528 4.40484 0
M  V30 3296 H 314.258 0.221888 0.706998 0
M  V30 3297 H 316.905 1.20132 1.49133 0
M  V30 3298 H 315.21 0.231456 3.91116 0
M  V30 3299 H 316.907 0.619498 3.96186 0
M  V30 3300 H 313.497 2.04017 3.76928 0
M  V30 3301 H 317.681 3.00397 3.95064 0
M  V30 3302 H 312.937 4.38212 4.26357 0
M  V30 3303 H 317.111 5.35012 4.45797 0
M  V30 3304 H 314.738 6.04406 4.61083 0
M  V30 3305 N 316.313 -1.40141 0.720998 0
M  V30 3306 C 317.56 -2.00787 0.262842 0
M  V30 3307 C 317.888 -1.5718 -1.14563 0
M  V30 3308 O 317.143 -0.785391 -1.79249 0
M  V30 3309 C 317.442 -3.56165 0.296892 0
M  V30 3310 C 317.108 -4.19373 1.65641 0
M  V30 3311 C 315.77 -4.36352 2.02855 0
M  V30 3312 C 318.122 -4.54578 2.54968 0
M  V30 3313 C 315.45 -4.8582 3.28931 0
M  V30 3314 C 317.802 -5.05447 3.80402 0
M  V30 3315 C 316.466 -5.20635 4.17726 0
M  V30 3316 H 315.736 -0.734731 0.0961807 0
M  V30 3317 H 318.383 -1.67673 0.925093 0
M  V30 3318 H 316.688 -3.8922 -0.448932 0
M  V30 3319 H 318.385 -4.00929 -0.0755208 0
M  V30 3320 H 314.975 -4.06549 1.35704 0
M  V30 3321 H 319.159 -4.41091 2.27491 0
M  V30 3322 H 314.415 -4.95764 3.57811 0
M  V30 3323 H 318.589 -5.31663 4.49786 0
M  V30 3324 H 316.216 -5.58728 5.15487 0
M  V30 3325 N 317.792 -0.46758 -1.50504 0
M  V30 3326 C 319.04 0.0884469 -2.01906 0
M  V30 3327 C 319.361 1.40532 -1.35188 0
M  V30 3328 O 318.631 1.89515 -0.496079 0
M  V30 3329 H 317.211 0.0356765 -0.746148 0
M  V30 3330 H 319.873 -0.6172 -1.84869 0
M  V30 3331 H 318.969 0.2425 -3.11156 0
M  V30 3332 N 319.27 1.56325 -0.20005 0
M  V30 3333 C 320.518 1.97329 0.436547 0
M  V30 3334 C 320.839 1.08826 1.61808 0
M  V30 3335 O 320.109 0.160604 1.95241 0
M  V30 3336 H 318.689 0.728714 0.164272 0
M  V30 3337 H 321.351 1.92761 -0.287937 0
M  V30 3338 H 320.447 3.02264 0.777353 0
M  V30 3339 N 320.748 -0.0735177 1.57428 0
M  V30 3340 C 322.025 -0.805903 1.78226 0
M  V30 3341 C 322.405 -1.95874 0.787189 0
M  V30 3342 O 321.753 -2.2779 -0.180029 0
M  V30 3343 C 321.963 -1.28045 3.24662 0
M  V30 3344 C 323.311 -1.71453 3.88444 0
M  V30 3345 O 324.335 -1.37616 3.28543 0
M  V30 3346 O 323.194 -2.34093 4.93825 0
M  V30 3347 H 320.288 -0.386041 0.73137 0
M  V30 3348 H 322.834 -0.0537269 1.69615 0
M  V30 3349 H 321.606 -0.455476 3.8864 0
M  V30 3350 H 321.229 -2.094 3.37991 0
M  V30 3351 N 322.226 -1.5378 -0.344866 0
M  V30 3352 C 323.156 -1.84662 -1.42906 0
M  V30 3353 C 324.137 -0.701648 -1.54955 0
M  V30 3354 O 325.322 -0.953438 -1.69184 0
M  V30 3355 C 322.452 -2.05503 -2.79974 0
M  V30 3356 C 321.406 -3.21318 -2.82734 0
M  V30 3357 C 320.732 -3.2749 -4.22675 0
M  V30 3358 C 322.032 -4.59456 -2.48389 0
M  V30 3359 H 323.726 -2.75461 -1.17311 0
M  V30 3360 H 321.272 -1.32542 -0.562896 0
M  V30 3361 H 323.225 -2.25691 -3.55867 0
M  V30 3362 H 321.949 -1.11434 -3.07002 0
M  V30 3363 H 320.608 -3.00984 -2.09294 0
M  V30 3364 H 320.256 -2.31019 -4.4681 0
M  V30 3365 H 319.956 -4.05316 -4.25433 0
M  V30 3366 H 321.48 -3.49887 -5.00412 0
M  V30 3367 H 322.894 -4.79667 -3.13995 0
M  V30 3368 H 321.291 -5.39675 -2.62432 0
M  V30 3369 H 322.361 -4.63155 -1.4358 0
M  V30 3370 N 323.704 0.605807 -1.45491 0
M  V30 3371 C 324.667 1.69836 -1.5391 0
M  V30 3372 C 325.667 1.55261 -0.418424 0
M  V30 3373 O 326.857 1.60296 -0.681965 0
M  V30 3374 C 323.989 3.09117 -1.43734 0
M  V30 3375 H 325.182 1.63738 -2.51257 0
M  V30 3376 H 322.735 0.821689 -1.32959 0
M  V30 3377 H 323.47 3.20791 -0.475788 0
M  V30 3378 H 323.255 3.21104 -2.25021 0
M  V30 3379 H 324.745 3.88696 -1.52661 0
M  V30 3380 N 325.182 1.32811 0.848464 0
M  V30 3381 C 326.43 1.23479 1.59991 0
M  V30 3382 C 326.751 -0.201853 1.93952 0
M  V30 3383 O 326.021 -1.12818 1.60153 0
M  V30 3384 H 324.601 0.454034 0.593179 0
M  V30 3385 H 327.263 1.66412 1.01455 0
M  V30 3386 H 326.359 1.82178 2.53412 0
M  V30 3387 N 326.66 -1.06551 1.16123 0
M  V30 3388 C 327.909 -1.78687 0.935622 0
M  V30 3389 C 328.222 -1.88056 -0.538001 0
M  V30 3390 O 329.428 -2.56794 -0.88143 0
M  V30 3391 C 327.884 -3.21143 1.62466 0
M  V30 3392 C 327.492 -3.19949 3.13587 0
M  V30 3393 C 329.236 -3.9783 1.48092 0
M  V30 3394 C 327.143 -4.57108 3.75241 0
M  V30 3395 H 326.073 -0.669712 0.346412 0
M  V30 3396 H 328.724 -1.19534 1.39226 0
M  V30 3397 H 327.106 -3.80539 1.09572 0
M  V30 3398 H 328.28 -2.70151 3.73303 0
M  V30 3399 H 326.595 -2.5676 3.27816 0
M  V30 3400 H 329.192 -4.99217 1.91538 0
M  V30 3401 H 329.535 -4.14078 0.429507 0
M  V30 3402 H 330.068 -3.4495 1.98127 0
M  V30 3403 H 326.807 -4.46065 4.80319 0
M  V30 3404 H 326.327 -5.07111 3.20309 0
M  V30 3405 H 328.006 -5.26069 3.76644 0
M  V30 3406 N 328.138 -0.959301 -1.25041 0
M  V30 3407 C 329.415 -0.533805 -1.88175 0
M  V30 3408 C 329.795 0.988994 -1.865 0
M  V30 3409 O 329.143 1.85677 -1.33177 0
M  V30 3410 C 329.353 -1.11575 -3.30684 0
M  V30 3411 C 330.701 -1.19548 -4.07423 0
M  V30 3412 O 331.725 -1.06765 -3.39823 0
M  V30 3413 O 330.584 -1.39656 -5.28354 0
M  V30 3414 H 327.678 -0.176772 -0.807887 0
M  V30 3415 H 330.224 -1.05303 -1.33076 0
M  V30 3416 H 328.996 -2.15884 -3.26358 0
M  V30 3417 H 328.619 -0.580059 -3.93346 0
M  V30 3418 N 329.616 1.39756 -0.72842 0
M  V30 3419 C 330.548 2.29157 -0.0446202 0
M  V30 3420 C 331.561 1.46484 0.710367 0
M  V30 3421 O 332.75 1.69632 0.55562 0
M  V30 3422 C 329.85 3.24987 0.961071 0
M  V30 3423 C 329.023 4.36572 0.268967 0
M  V30 3424 C 328.082 5.12756 1.18184 0
M  V30 3425 O 327.108 5.6534 0.661794 0
M  V30 3426 N 328.31 5.23331 2.51206 0
M  V30 3427 H 331.075 2.88482 -0.812295 0
M  V30 3428 H 328.636 1.51265 -0.577098 0
M  V30 3429 H 330.628 3.72827 1.57423 0
M  V30 3430 H 329.198 2.66739 1.63 0
M  V30 3431 H 328.418 3.90694 -0.524574 0
M  V30 3432 H 329.706 5.08363 -0.210934 0
M  V30 3433 H 329.104 4.82116 2.9594 0
M  V30 3434 H 327.661 5.74634 3.07634 0
M  V30 3435 N 331.094 0.475555 1.50254 0
M  V30 3436 C 332.041 -0.316293 2.28622 0
M  V30 3437 C 333.011 -0.983227 1.33873 0
M  V30 3438 O 334.196 -0.994805 1.62814 0
M  V30 3439 C 331.336 -1.38975 3.1588 0
M  V30 3440 C 330.449 -0.737146 4.25664 0
M  V30 3441 C 329.584 -1.78887 5.00173 0
M  V30 3442 C 328.623 -1.11676 6.01826 0
M  V30 3443 N 327.76 -2.11154 6.69596 0
M  V30 3444 H 332.6 0.358297 2.95838 0
M  V30 3445 H 330.137 0.188541 1.45887 0
M  V30 3446 H 332.095 -2.02383 3.64825 0
M  V30 3447 H 330.725 -2.03344 2.50701 0
M  V30 3448 H 329.777 0.0096065 3.80399 0
M  V30 3449 H 331.089 -0.206816 4.98371 0
M  V30 3450 H 330.243 -2.49865 5.52859 0
M  V30 3451 H 328.982 -2.35302 4.27182 0
M  V30 3452 H 327.987 -0.392633 5.48396 0
M  V30 3453 H 329.212 -0.55945 6.76792 0
M  V30 3454 H 327.158 -2.66577 5.99394 0
M  V30 3455 H 327.075 -1.63118 7.38193 0
M  V30 3456 H 328.343 -2.81497 7.26897 0
M  V30 3457 N 332.573 -1.56217 0.208337 0
M  V30 3458 C 333.503 -2.22694 -0.702116 0
M  V30 3459 C 334.484 -1.19432 -1.2112 0
M  V30 3460 O 335.669 -1.47978 -1.25762 0
M  V30 3461 C 332.799 -2.8966 -1.9161 0
M  V30 3462 C 331.753 -3.9928 -1.5414 0
M  V30 3463 C 331.079 -4.53476 -2.83308 0
M  V30 3464 C 332.379 -5.17012 -0.741339 0
M  V30 3465 H 334.073 -2.99034 -0.147898 0
M  V30 3466 H 331.619 -1.43831 -0.0696951 0
M  V30 3467 H 333.572 -3.34852 -2.55836 0
M  V30 3468 H 332.296 -2.10746 -2.49507 0
M  V30 3469 H 330.955 -3.54799 -0.922668 0
M  V30 3470 H 330.603 -3.71308 -3.39322 0
M  V30 3471 H 330.303 -5.27451 -2.58976 0
M  V30 3472 H 331.827 -5.01378 -3.485 0
M  V30 3473 H 333.241 -5.58667 -1.28699 0
M  V30 3474 H 331.638 -5.97137 -0.595627 0
M  V30 3475 H 332.708 -4.8423 0.254851 0
M  V30 3476 N 334.051 0.0651679 -1.57465 0
M  V30 3477 C 335.299 0.761555 -1.87202 0
M  V30 3478 C 335.62 1.77778 -0.801243 0
M  V30 3479 O 334.89 1.95166 0.16937 0
M  V30 3480 H 333.47 0.284251 -0.690804 0
M  V30 3481 H 336.132 0.0396827 -1.9486 0
M  V30 3482 H 335.228 1.27365 -2.84929 0
M  V30 3483 N 335.529 1.53961 0.336706 0
M  V30 3484 C 336.759 1.75229 1.09446 0
M  V30 3485 C 337.167 0.494602 1.82621 0
M  V30 3486 O 336.51 -0.543764 1.75468 0
M  V30 3487 C 336.572 2.88288 2.1478 0
M  V30 3488 C 336.236 4.27656 1.6112 0
M  V30 3489 C 337.233 5.08981 1.0599 0
M  V30 3490 C 334.918 4.74161 1.6576 0
M  V30 3491 C 336.912 6.34916 0.562129 0
M  V30 3492 C 334.599 6.00067 1.15595 0
M  V30 3493 C 335.597 6.80278 0.609147 0
M  V30 3494 O 335.285 8.03818 0.114999 0
M  V30 3495 H 335.017 0.588881 0.331956 0
M  V30 3496 H 337.571 2.01614 0.392566 0
M  V30 3497 H 335.801 2.57443 2.88548 0
M  V30 3498 H 337.49 2.97461 2.76174 0
M  V30 3499 H 338.256 4.74213 1.01722 0
M  V30 3500 H 334.135 4.11781 2.07261 0
M  V30 3501 H 337.679 6.9747 0.134668 0
M  V30 3502 H 333.576 6.3433 1.19566 0
M  V30 3503 H 334.344 8.18172 0.231651 0
M  V30 3504 N 337.007 -0.598083 1.45811 0
M  V30 3505 C 338.256 -1.35295 1.49594 0
M  V30 3506 C 338.569 -1.95057 0.145679 0
M  V30 3507 O 339.775 -2.71431 0.0612099 0
M  V30 3508 C 338.231 -2.45124 2.63519 0
M  V30 3509 C 337.839 -1.91732 4.04899 0
M  V30 3510 C 339.583 -3.2205 2.76558 0
M  V30 3511 C 337.49 -2.991 5.1019 0
M  V30 3512 H 336.42 -0.508552 0.556679 0
M  V30 3513 H 339.071 -0.639977 1.71978 0
M  V30 3514 H 337.453 -3.19149 2.34435 0
M  V30 3515 H 338.627 -1.24352 4.43704 0
M  V30 3516 H 336.942 -1.27522 3.96393 0
M  V30 3517 H 339.539 -4.0215 3.52391 0
M  V30 3518 H 339.882 -3.73663 1.83526 0
M  V30 3519 H 340.415 -2.55127 3.05213 0
M  V30 3520 H 337.154 -2.52393 6.04961 0
M  V30 3521 H 336.674 -3.65017 4.75944 0
M  V30 3522 H 338.353 -3.63318 5.35359 0
M  V30 3523 N 338.485 -1.33259 -0.841409 0
M  V30 3524 C 339.432 -1.23302 -1.95103 0
M  V30 3525 C 340.402 -0.112204 -1.65721 0
M  V30 3526 O 341.587 -0.290038 -1.88583 0
M  V30 3527 C 338.727 -0.975583 -3.31023 0
M  V30 3528 C 337.84 -2.18243 -3.72819 0
M  V30 3529 C 336.975 -1.85936 -4.97595 0
M  V30 3530 C 336.014 -3.02866 -5.3192 0
M  V30 3531 N 335.151 -2.70565 -6.47873 0
M  V30 3532 H 339.991 -2.18207 -2.02952 0
M  V30 3533 H 337.528 -1.0851 -0.993173 0
M  V30 3534 H 339.486 -0.80677 -4.09325 0
M  V30 3535 H 338.116 -0.0632755 -3.22738 0
M  V30 3536 H 337.168 -2.46107 -2.90061 0
M  V30 3537 H 338.48 -3.05666 -3.94169 0
M  V30 3538 H 337.634 -1.65684 -5.83638 0
M  V30 3539 H 336.373 -0.957452 -4.78209 0
M  V30 3540 H 335.378 -3.23736 -4.44382 0
M  V30 3541 H 336.603 -3.93809 -5.53255 0
M  V30 3542 H 334.549 -1.8293 -6.29978 0
M  V30 3543 H 334.466 -3.51519 -6.69306 0
M  V30 3544 H 335.734 -2.53774 -7.37034 0
M  V30 3545 N 339.963 1.05934 -1.16686 0
M  V30 3546 C 340.91 2.13499 -0.876748 0
M  V30 3547 C 341.88 1.65162 0.176299 0
M  V30 3548 O 343.065 1.90757 0.0407143 0
M  V30 3549 C 340.205 3.42912 -0.387967 0
M  V30 3550 C 339.318 4.04964 -1.50426 0
M  V30 3551 C 338.453 5.22266 -0.970125 0
M  V30 3552 C 337.492 5.76309 -2.06238 0
M  V30 3553 N 336.629 6.84922 -1.54356 0
M  V30 3554 H 341.469 2.37654 -1.7979 0
M  V30 3555 H 339.006 1.16598 -0.896843 0
M  V30 3556 H 340.964 4.17111 -0.086186 0
M  V30 3557 H 339.594 3.18963 0.496235 0
M  V30 3558 H 338.646 3.28277 -1.92193 0
M  V30 3559 H 339.958 4.41122 -2.32836 0
M  V30 3560 H 339.112 6.03506 -0.621743 0
M  V30 3561 H 337.851 4.87564 -0.115377 0
M  V30 3562 H 336.856 4.93704 -2.41942 0
M  V30 3563 H 338.081 6.13062 -2.92115 0
M  V30 3564 H 336.027 6.52131 -0.711406 0
M  V30 3565 H 335.944 7.20043 -2.30379 0
M  V30 3566 H 337.212 7.69832 -1.22387 0
M  V30 3567 N 341.441 0.965919 1.2453 0
M  V30 3568 C 342.669 0.644385 1.96609 0
M  V30 3569 C 343.084 -0.785823 1.71669 0
M  V30 3570 O 342.441 -1.52703 0.999399 0
M  V30 3571 C 342.492 0.907375 3.49927 0
M  V30 3572 O 342.213 2.28136 3.74013 0
M  V30 3573 C 343.714 0.599784 4.39224 0
M  V30 3574 H 340.934 0.240588 0.626385 0
M  V30 3575 H 343.478 1.29337 1.58405 0
M  V30 3576 H 341.633 0.304631 3.862 0
M  V30 3577 H 342.047 2.36002 4.68405 0
M  V30 3578 H 343.521 0.834263 5.45659 0
M  V30 3579 H 343.998 -0.465921 4.36722 0
M  V30 3580 H 344.604 1.18235 4.08535 0
M  V30 3581 N 342.919 -1.39368 0.735821 0
M  V30 3582 C 343.849 -2.33234 0.111506 0
M  V30 3583 C 344.83 -1.53954 -0.723334 0
M  V30 3584 O 346.015 -1.82344 -0.668147 0
M  V30 3585 C 343.145 -3.38057 -0.795917 0
M  V30 3586 C 342.099 -4.2795 -0.065172 0
M  V30 3587 C 341.425 -5.23479 -1.08967 0
M  V30 3588 C 342.725 -5.10741 1.09273 0
M  V30 3589 H 344.419 -2.85692 0.895571 0
M  V30 3590 H 341.965 -1.37364 0.432109 0
M  V30 3591 H 343.918 -4.02675 -1.24221 0
M  V30 3592 H 342.642 -2.8404 -1.61211 0
M  V30 3593 H 341.301 -3.64813 0.361511 0
M  V30 3594 H 340.949 -4.65758 -1.89944 0
M  V30 3595 H 340.649 -5.84472 -0.605489 0
M  V30 3596 H 342.173 -5.90974 -1.53565 0
M  V30 3597 H 343.587 -5.68699 0.724841 0
M  V30 3598 H 341.984 -5.8088 1.50659 0
M  V30 3599 H 343.054 -4.45525 1.91404 0
M  V30 3600 N 344.397 -0.483516 -1.5 0
M  V30 3601 C 345.645 0.067027 -2.01989 0
M  V30 3602 C 345.966 1.3909 -1.36671 0
M  V30 3603 O 345.236 1.88978 -0.516152 0
M  V30 3604 H 343.816 0.0277606 -0.746484 0
M  V30 3605 H 346.478 -0.636773 -1.84204 0
M  V30 3606 H 345.574 0.209484 -3.11396 0
M  V30 3607 N 345.875 1.56104 -0.216619 0
M  V30 3608 C 346.838 2.18819 0.681962 0
M  V30 3609 C 347.838 1.14866 1.12528 0
M  V30 3610 O 349.028 1.40128 1.03488 0
M  V30 3611 C 346.16 2.80756 1.93362 0
M  V30 3612 H 347.353 2.99595 0.135254 0
M  V30 3613 H 344.906 1.56265 0.0330003 0
M  V30 3614 H 345.641 2.03837 2.52232 0
M  V30 3615 H 345.426 3.56876 1.62426 0
M  V30 3616 H 346.916 3.28844 2.57393 0
M  V30 3617 N 347.353 -0.0568162 1.57498 0
M  V30 3618 C 348.301 -1.08452 2.05769 0
M  V30 3619 C 349.295 -1.39164 0.965903 0
M  V30 3620 O 350.501 -1.38395 1.15095 0
M  V30 3621 H 346.876 -0.367148 0.656282 0
M  V30 3622 H 348.847 -0.651368 2.91204 0
M  V30 3623 C 347.596 -2.38543 2.52968 0
M  V30 3624 H 346.919 -2.15765 3.36579 0
M  V30 3625 H 348.359 -3.08863 2.90481 0
M  V30 3626 C 346.818 -3.05562 1.41893 0
M  V30 3627 O 347.348 -3.94262 0.769442 0
M  V30 3628 N 345.554 -2.6643 1.16032 0
M  V30 3629 H 345.101 -1.94387 1.6903 0
M  V30 3630 H 345.059 -3.11593 0.419219 0
M  V30 3631 N 348.832 -1.54138 -0.328536 0
M  V30 3632 C 350.081 -1.71318 -1.06456 0
M  V30 3633 C 350.394 -0.491109 -1.89334 0
M  V30 3634 O 351.6 -0.54416 -2.65991 0
M  V30 3635 C 350.056 -3.03 -1.94214 0
M  V30 3636 C 349.664 -4.32595 -1.16471 0
M  V30 3637 C 351.408 -3.29544 -2.67583 0
M  V30 3638 C 349.315 -5.55341 -2.03347 0
M  V30 3639 H 348.245 -0.638429 -0.401155 0
M  V30 3640 H 350.896 -1.80633 -0.323106 0
M  V30 3641 H 349.278 -2.87579 -2.72239 0
M  V30 3642 H 350.452 -4.58766 -0.432525 0
M  V30 3643 H 348.767 -4.12777 -0.548063 0
M  V30 3644 H 351.364 -4.18444 -3.3288 0
M  V30 3645 H 351.707 -2.47206 -3.34955 0
M  V30 3646 H 352.24 -3.45809 -1.96623 0
M  V30 3647 H 348.979 -6.40268 -1.40491 0
M  V30 3648 H 348.499 -5.33397 -2.74313 0
M  V30 3649 H 350.178 -5.91557 -2.62049 0
M  V30 3650 N 350.31 0.590341 -1.46126 0
M  V30 3651 C 351.24 1.71032 -1.58966 0
M  V30 3652 C 352.221 1.64302 -0.440335 0
M  V30 3653 O 353.406 1.82436 -0.665634 0
M  V30 3654 C 350.536 3.09665 -1.57241 0
M  V30 3655 C 349.49 3.31221 -2.71066 0
M  V30 3656 C 348.816 4.70303 -2.54399 0
M  V30 3657 C 350.116 3.19796 -4.1295 0
M  V30 3658 H 351.81 1.60543 -2.52718 0
M  V30 3659 H 349.356 0.770933 -1.21625 0
M  V30 3660 H 351.309 3.87831 -1.64819 0
M  V30 3661 H 350.033 3.21036 -0.600289 0
M  V30 3662 H 348.692 2.55452 -2.62944 0
M  V30 3663 H 348.34 4.78429 -1.55288 0
M  V30 3664 H 348.04 4.85679 -3.30741 0
M  V30 3665 H 349.564 5.50647 -2.63857 0
M  V30 3666 H 350.978 3.87815 -4.22223 0
M  V30 3667 H 349.375 3.46696 -4.89818 0
M  V30 3668 H 350.445 2.16983 -4.33643 0
M  V30 3669 N 351.788 1.33704 0.83433 0
M  V30 3670 C 353.018 1.28281 1.6195 0
M  V30 3671 C 353.426 -0.147603 1.88623 0
M  V30 3672 O 352.769 -1.1016 1.47005 0
M  V30 3673 C 352.831 1.99386 2.99141 0
M  V30 3674 C 352.495 3.48681 2.95416 0
M  V30 3675 C 353.492 4.438 2.70809 0
M  V30 3676 C 351.177 3.90925 3.15409 0
M  V30 3677 C 353.171 5.79138 2.66229 0
M  V30 3678 C 350.858 5.26366 3.10454 0
M  V30 3679 C 351.856 6.20284 2.85895 0
M  V30 3680 O 351.544 7.53245 2.80852 0
M  V30 3681 H 351.276 0.44315 0.510484 0
M  V30 3682 H 353.83 1.76711 1.04702 0
M  V30 3683 H 352.06 1.45554 3.58261 0
M  V30 3684 H 353.749 1.87403 3.60049 0
M  V30 3685 H 354.515 4.12485 2.5511 0
M  V30 3686 H 350.394 3.18229 3.33543 0
M  V30 3687 H 353.938 6.52416 2.4698 0
M  V30 3688 H 349.835 5.57304 3.25703 0
M  V30 3689 H 350.603 7.62846 2.96661 0
M  V30 3690 N 353.266 -1.05314 1.17247 0
M  V30 3691 C 354.196 -2.1498 0.911362 0
M  V30 3692 C 355.177 -1.69471 -0.146169 0
M  V30 3693 O 356.362 -1.942 0.003812 0
M  V30 3694 C 353.492 -3.4472 0.422528 0
M  V30 3695 C 352.446 -4.03789 1.4191 0
M  V30 3696 C 351.772 -5.28858 0.788274 0
M  V30 3697 C 353.072 -4.41418 2.7919 0
M  V30 3698 H 354.766 -2.3708 1.82848 0
M  V30 3699 H 352.312 -1.13938 0.880569 0
M  V30 3700 H 354.265 -4.20787 0.227289 0
M  V30 3701 H 352.989 -3.22269 -0.530123 0
M  V30 3702 H 351.648 -3.2979 1.60106 0
M  V30 3703 H 351.296 -5.02709 -0.171173 0
M  V30 3704 H 350.996 -5.69338 1.45353 0
M  V30 3705 H 352.52 -6.07612 0.603282 0
M  V30 3706 H 353.934 -5.08524 2.64719 0
M  V30 3707 H 352.331 -4.92913 3.42282 0
M  V30 3708 H 353.401 -3.51819 3.33693 0
M  V30 3709 N 354.744 -0.972509 -1.24016 0
M  V30 3710 C 355.692 -0.498562 -2.27194 0
M  V30 3711 C 356.686 0.440372 -1.63576 0
M  V30 3712 O 357.892 0.315133 -1.7722 0
M  V30 3713 H 354.267 -0.142775 -0.738322 0
M  V30 3714 H 356.238 -1.38065 -2.64539 0
M  V30 3715 C 354.987 0.191072 -3.47175 0
M  V30 3716 H 354.31 -0.522318 -3.96373 0
M  V30 3717 H 355.75 0.486445 -4.212 0
M  V30 3718 C 354.209 1.41967 -3.05527 0
M  V30 3719 O 354.739 2.51642 -3.13112 0
M  V30 3720 N 352.945 1.28746 -2.60524 0
M  V30 3721 H 352.492 0.395089 -2.54552 0
M  V30 3722 H 352.45 2.11061 -2.33025 0
M  V30 3723 N 356.222 1.38976 -0.743202 0
M  V30 3724 C 357.633 1.83123 -0.363732 0
M  V30 3725 C 357.984 1.6205 1.10609 0
M  V30 3726 O 357.109 1.11606 1.854 0
M  V30 3727 C 357.704 3.32439 -0.653408 0
M  V30 3728 C 356.263 3.74974 -0.327338 0
M  V30 3729 C 355.41 2.61878 -0.911875 0
M  V30 3730 H 358.361 1.27852 -0.940191 0
M  V30 3731 H 358.382 3.80432 0.0720031 0
M  V30 3732 H 357.894 3.47745 -1.72323 0
M  V30 3733 H 355.995 3.65252 0.736314 0
M  V30 3734 H 356.108 4.72106 -0.815631 0
M  V30 3735 H 354.472 2.52448 -0.337944 0
M  V30 3736 H 355.255 2.79987 -1.98651 0
M  V30 3737 N 357.7 0.491464 1.49741 0
M  V30 3738 C 358.949 -0.0582189 2.01616 0
M  V30 3739 C 359.262 -1.38927 1.3769 0
M  V30 3740 O 360.468 -2.02509 1.80838 0
M  V30 3741 C 358.924 -0.154235 3.59569 0
M  V30 3742 C 358.532 1.1696 4.32463 0
M  V30 3743 C 360.276 -0.65479 4.1942 0
M  V30 3744 C 358.183 1.03627 5.8225 0
M  V30 3745 H 357.113 -0.0255317 0.753568 0
M  V30 3746 H 359.764 0.629445 1.72367 0
M  V30 3747 H 358.146 -0.906138 3.85493 0
M  V30 3748 H 359.32 1.93405 4.18248 0
M  V30 3749 H 357.635 1.60285 3.84315 0
M  V30 3750 H 360.232 -0.771903 5.29099 0
M  V30 3751 H 360.575 -1.65127 3.8215 0
M  V30 3752 H 361.108 0.040304 3.9778 0
M  V30 3753 H 357.847 2.00672 6.24028 0
M  V30 3754 H 357.367 0.312546 5.98985 0
M  V30 3755 H 359.046 0.711114 6.4308 0
M  V30 3756 N 359.178 -1.55987 0.224894 0
M  V30 3757 C 360.425 -1.9839 -0.4059 0
M  V30 3758 C 360.753 -1.11261 -1.59535 0
M  V30 3759 O 360.008 -0.158314 -1.95059 0
M  V30 3760 C 360.307 -3.46394 -0.880106 0
M  V30 3761 C 359.973 -4.5046 0.19918 0
M  V30 3762 C 358.635 -4.7864 0.495661 0
M  V30 3763 C 360.987 -5.12855 0.928939 0
M  V30 3764 C 358.315 -5.66497 1.52636 0
M  V30 3765 C 360.667 -6.01828 1.949 0
M  V30 3766 C 359.331 -6.28351 2.25236 0
M  V30 3767 H 358.601 -0.725961 -0.148529 0
M  V30 3768 H 361.248 -1.88668 0.328113 0
M  V30 3769 H 359.553 -3.53337 -1.69294 0
M  V30 3770 H 361.25 -3.76577 -1.37808 0
M  V30 3771 H 357.84 -4.28579 -0.0420526 0
M  V30 3772 H 362.024 -4.9115 0.713129 0
M  V30 3773 H 357.28 -5.8531 1.76698 0
M  V30 3774 H 361.454 -6.49225 2.51951 0
M  V30 3775 H 359.081 -6.96226 3.05244 0
M  V30 3776 N 360.656 0.0484629 -1.57525 0
M  V30 3777 C 361.603 1.05504 -2.05275 0
M  V30 3778 C 362.573 1.37084 -0.937927 0
M  V30 3779 O 363.758 1.47754 -1.2072 0
M  V30 3780 C 360.898 2.35676 -2.52093 0
M  V30 3781 C 360.011 2.10423 -3.77288 0
M  V30 3782 C 359.146 3.34327 -4.12794 0
M  V30 3783 C 358.185 3.04542 -5.30962 0
M  V30 3784 N 357.322 4.20841 -5.61994 0
M  V30 3785 H 362.162 0.640885 -2.91027 0
M  V30 3786 H 359.699 0.304854 -1.43906 0
M  V30 3787 H 361.657 3.11709 -2.77297 0
M  V30 3788 H 360.287 2.7485 -1.69285 0
M  V30 3789 H 359.339 1.24976 -3.59284 0
M  V30 3790 H 360.651 1.84438 -4.63448 0
M  V30 3791 H 359.805 4.1874 -4.39024 0
M  V30 3792 H 358.544 3.63408 -3.25247 0
M  V30 3793 H 357.549 2.18528 -5.04505 0
M  V30 3794 H 358.774 2.76758 -6.20146 0
M  V30 3795 H 356.72 4.4991 -4.77406 0
M  V30 3796 H 356.637 3.98212 -6.42622 0
M  V30 3797 H 357.905 5.06184 -5.92789 0
M  V30 3798 N 362.134 1.5431 0.320358 0
M  V30 3799 C 363.097 1.83195 1.3774 0
M  V30 3800 C 364.097 0.703906 1.44575 0
M  V30 3801 O 365.287 0.972214 1.44546 0
M  V30 3802 C 362.419 1.99487 2.76438 0
M  V30 3803 H 363.612 2.77642 1.1338 0
M  V30 3804 H 361.165 1.46076 0.556012 0
M  V30 3805 H 361.9 1.07262 3.06048 0
M  V30 3806 H 361.685 2.81575 2.7287 0
M  V30 3807 H 363.175 2.23271 3.52902 0
M  V30 3808 N 363.613 -0.582584 1.46437 0
M  V30 3809 C 365.024 -1.1647 1.45916 0
M  V30 3810 C 365.375 -1.95177 0.200077 0
M  V30 3811 O 364.5 -2.04874 -0.696819 0
M  V30 3812 C 365.095 -2.11885 2.64367 0
M  V30 3813 C 363.654 -2.65421 2.66887 0
M  V30 3814 C 362.801 -1.41294 2.38603 0
M  V30 3815 H 365.752 -0.370514 1.54314 0
M  V30 3816 H 365.773 -2.9535 2.39892 0
M  V30 3817 H 365.285 -1.54573 3.5599 0
M  V30 3818 H 363.386 -3.26602 1.79338 0
M  V30 3819 H 363.499 -3.08147 3.66854 0
M  V30 3820 H 361.863 -1.71109 1.88663 0
M  V30 3821 H 362.646 -0.858125 3.32402 0
M  V30 3822 N 365.091 -1.34144 -0.827227 0
M  V30 3823 C 366.319 -1.29325 -1.61501 0
M  V30 3824 C 366.734 0.13354 -1.88327 0
M  V30 3825 O 366.091 1.0793 -1.47164 0
M  V30 3826 C 366.142 -2.07746 -2.95844 0
M  V30 3827 O 365.863 -3.4486 -2.70191 0
M  V30 3828 C 367.364 -2.10273 -3.90256 0
M  V30 3829 H 364.584 -0.445069 -0.50215 0
M  V30 3830 H 367.128 -1.76693 -1.02955 0
M  V30 3831 H 365.283 -1.6403 -3.5096 0
M  V30 3832 H 365.697 -3.85345 -3.55822 0
M  V30 3833 H 367.171 -2.69575 -4.81698 0
M  V30 3834 H 367.648 -1.096 -4.25305 0
M  V30 3835 H 368.254 -2.54059 -3.41078 0
M  V30 3836 N 366.569 1.04691 -1.17803 0
M  V30 3837 C 367.517 2.14665 -0.895635 0
M  V30 3838 C 368.511 1.68806 0.141679 0
M  V30 3839 O 369.717 1.79999 -0.00587914 0
M  V30 3840 H 366.092 0.701038 -0.272121 0
M  V30 3841 H 368.063 2.35685 -1.83017 0
M  V30 3842 C 366.812 3.45019 -0.430962 0
M  V30 3843 H 366.135 3.8071 -1.22064 0
M  V30 3844 H 367.575 4.23125 -0.272301 0
M  V30 3845 C 366.034 3.25943 0.852207 0
M  V30 3846 O 366.564 3.5296 1.91786 0
M  V30 3847 N 364.77 2.79304 0.802346 0
M  V30 3848 H 364.317 2.57518 -0.0650788 0
M  V30 3849 H 364.275 2.66921 1.66134 0
M  V30 3850 N 368.047 0.979072 1.23499 0
M  V30 3851 C 368.997 0.489378 2.22686 0
M  V30 3852 C 369.981 -0.434871 1.54912 0
M  V30 3853 O 371.173 -0.263941 1.75021 0
M  V30 3854 C 368.302 -0.208178 3.42668 0
M  V30 3855 C 367.388 0.735563 4.17672 0
M  V30 3856 N 367.779 1.87763 4.69658 0
M  V30 3857 C 366.077 0.548625 4.42613 0
M  V30 3858 C 366.778 2.46886 5.26709 0
M  V30 3859 N 365.754 1.75287 5.14563 0
M  V30 3860 H 369.556 1.36062 2.60508 0
M  V30 3861 H 367.07 0.83958 1.39014 0
M  V30 3862 H 369.067 -0.576295 4.12898 0
M  V30 3863 H 367.727 -1.07572 3.06363 0
M  V30 3864 H 368.738 2.25885 4.66043 0
M  V30 3865 H 365.415 -0.274006 4.166 0
M  V30 3866 H 366.805 3.43326 5.77561 0
M  V30 3867 N 369.525 -1.3858 0.750561 0
M  V30 3868 C 370.472 -2.30483 0.120835 0
M  V30 3869 C 371.442 -1.50022 -0.712923 0
M  V30 3870 O 372.627 -1.78662 -0.669676 0
M  V30 3871 C 369.767 -3.36431 -0.768666 0
M  V30 3872 C 368.88 -4.31927 0.0793922 0
M  V30 3873 C 368.015 -5.24944 -0.81283 0
M  V30 3874 C 367.054 -6.12088 0.0390447 0
M  V30 3875 N 366.191 -6.97412 -0.809969 0
M  V30 3876 H 371.031 -2.83761 0.91015 0
M  V30 3877 H 368.568 -1.39707 0.460463 0
M  V30 3878 H 370.526 -3.96462 -1.29898 0
M  V30 3879 H 369.156 -2.8457 -1.5238 0
M  V30 3880 H 368.208 -3.73382 0.727303 0
M  V30 3881 H 369.52 -4.93319 0.737401 0
M  V30 3882 H 368.674 -5.90078 -1.41042 0
M  V30 3883 H 367.413 -4.63911 -1.50458 0
M  V30 3884 H 366.418 -5.45952 0.649328 0
M  V30 3885 H 367.643 -6.75189 0.727809 0
M  V30 3886 H 365.589 -6.38931 -1.48672 0
M  V30 3887 H 365.506 -7.55712 -0.208789 0
M  V30 3888 H 366.774 -7.66959 -1.39263 0
M  V30 3889 N 371.003 -0.499398 -1.49478 0
M  V30 3890 C 372.233 0.0424839 -2.06556 0
M  V30 3891 C 372.641 1.31514 -1.36018 0
M  V30 3892 O 371.984 1.78555 -0.431718 0
M  V30 3893 C 372.046 0.368074 -3.57611 0
M  V30 3894 C 371.71 -0.806631 -4.49825 0
M  V30 3895 C 372.707 -1.69667 -4.91436 0
M  V30 3896 C 370.392 -1.00498 -4.92144 0
M  V30 3897 C 372.386 -2.76923 -5.74101 0
M  V30 3898 C 370.073 -2.08072 -5.74586 0
M  V30 3899 C 371.071 -2.96119 -6.15469 0
M  V30 3900 O 370.759 -4.01836 -6.96264 0
M  V30 3901 H 370.491 -0.0165165 -0.675798 0
M  V30 3902 H 373.045 -0.695497 -1.93267 0
M  V30 3903 H 371.275 1.15963 -3.68903 0
M  V30 3904 H 372.964 0.848381 -3.96935 0
M  V30 3905 H 373.73 -1.55524 -4.59388 0
M  V30 3906 H 369.609 -0.329036 -4.59824 0
M  V30 3907 H 373.153 -3.45676 -6.05932 0
M  V30 3908 H 369.05 -2.22211 -6.06047 0
M  V30 3909 H 369.818 -3.9917 -7.14567 0
M  V30 3910 N 372.481 1.55866 -0.233164 0
M  V30 3911 C 373.758 1.90471 0.444988 0
M  V30 3912 C 374.138 1.15209 1.7689 0
M  V30 3913 O 373.486 0.265119 2.26957 0
M  V30 3914 C 373.696 3.4333 0.626559 0
M  V30 3915 C 375.044 4.14319 0.92871 0
M  V30 3916 O 376.068 3.48993 0.712926 0
M  V30 3917 O 374.927 5.29846 1.33887 0
M  V30 3918 H 372.021 0.792347 0.236885 0
M  V30 3919 H 374.567 1.67437 -0.276211 0
M  V30 3920 H 373.339 3.90095 -0.306822 0
M  V30 3921 H 372.962 3.72181 1.39881 0
M  V30 3922 N 373.959 -0.0401083 1.57549 0
M  V30 3923 C 375.187 -0.745196 1.93014 0
M  V30 3924 C 375.602 -1.6948 0.831984 0
M  V30 3925 O 374.959 -1.81482 -0.192463 0
M  V30 3926 C 375.01 -1.51176 3.28372 0
M  V30 3927 O 374.731 -0.600284 4.33968 0
M  V30 3928 C 376.232 -2.315 3.78051 0
M  V30 3929 H 373.452 -0.210088 0.637263 0
M  V30 3930 H 375.996 -0.000924689 2.045 0
M  V30 3931 H 374.151 -2.20801 3.18317 0
M  V30 3932 H 374.565 -1.13669 5.12035 0
M  V30 3933 H 376.039 -2.80697 4.75303 0
M  V30 3934 H 376.516 -3.12436 3.08675 0
M  V30 3935 H 377.122 -1.66971 3.91153 0
M  V30 3936 N 375.437 -1.54477 -0.31217 0
M  V30 3937 C 376.369 -1.81011 -1.40598 0
M  V30 3938 C 377.382 -0.692546 -1.47335 0
M  V30 3939 O 378.571 -0.969847 -1.49854 0
M  V30 3940 C 375.671 -1.92307 -2.79054 0
M  V30 3941 C 374.844 -3.22594 -2.95384 0
M  V30 3942 C 373.903 -3.24448 -4.1427 0
M  V30 3943 O 372.929 -3.98035 -4.06887 0
M  V30 3944 N 374.131 -2.49042 -5.24365 0
M  V30 3945 H 376.896 -2.75408 -1.18196 0
M  V30 3946 H 374.457 -1.53914 -0.502202 0
M  V30 3947 H 376.449 -1.90962 -3.56813 0
M  V30 3948 H 375.019 -1.04955 -2.94454 0
M  V30 3949 H 374.239 -3.36806 -2.04831 0
M  V30 3950 H 375.527 -4.08593 -3.03198 0
M  V30 3951 H 374.925 -1.88867 -5.33241 0
M  V30 3952 H 373.482 -2.53463 -6.005 0
M  V30 3953 N 376.915 0.57481 -1.46744 0
M  V30 3954 C 378.192 1.3352 -1.4294 0
M  V30 3955 C 378.572 2.10775 -0.117009 0
M  V30 3956 O 377.92 2.09966 0.901474 0
M  V30 3957 C 378.13 2.25456 -2.66403 0
M  V30 3958 C 379.478 2.87035 -3.12883 0
M  V30 3959 O 380.502 2.35766 -2.67007 0
M  V30 3960 O 379.361 3.80179 -3.92589 0
M  V30 3961 H 376.455 0.600318 -0.568812 0
M  V30 3962 H 379.001 0.595171 -1.58921 0
M  V30 3963 H 377.773 1.67851 -3.53471 0
M  V30 3964 H 377.396 3.06785 -2.52921 0
M  V30 3965 N 378.394 1.34581 0.820102 0
M  V30 3966 C 379.624 1.29991 1.6058 0
M  V30 3967 C 380.032 -0.127588 1.88769 0
M  V30 3968 O 379.375 -1.08595 1.48165 0
M  V30 3969 C 379.437 2.02548 2.9701 0
M  V30 3970 C 379.101 3.51794 2.91701 0
M  V30 3971 C 380.098 4.46647 2.66087 0
M  V30 3972 C 377.783 3.94249 3.11245 0
M  V30 3973 C 379.777 5.81929 2.60071 0
M  V30 3974 C 377.464 5.2963 3.04853 0
M  V30 3975 C 378.462 6.23282 2.793 0
M  V30 3976 O 378.15 7.56181 2.72847 0
M  V30 3977 H 377.882 0.448539 0.505756 0
M  V30 3978 H 380.436 1.77811 1.02822 0
M  V30 3979 H 378.666 1.49345 3.56697 0
M  V30 3980 H 380.355 1.91211 3.58041 0
M  V30 3981 H 381.121 4.15168 2.5072 0
M  V30 3982 H 377 3.21749 3.30149 0
M  V30 3983 H 380.544 6.54999 2.40046 0
M  V30 3984 H 376.441 5.60727 3.19774 0
M  V30 3985 H 377.209 7.6595 2.88553 0
M  V30 3986 N 379.872 -1.04064 1.18357 0
M  V30 3987 C 380.805 -2.11618 0.854 0
M  V30 3988 C 381.783 -1.61555 -0.184043 0
M  V30 3989 O 382.967 -1.88395 -0.0630048 0
M  V30 3990 C 380.094 -3.37574 0.27597 0
M  V30 3991 C 379.14 -4.06485 1.2912 0
M  V30 3992 S 379.973 -4.53543 2.84709 0
M  V30 3993 C 381.129 -5.82732 2.28417 0
M  V30 3994 H 381.362 -2.39247 1.76488 0
M  V30 3995 H 378.895 -1.16832 1.00944 0
M  V30 3996 H 380.853 -4.10468 -0.051026 0
M  V30 3997 H 379.514 -3.0806 -0.613028 0
M  V30 3998 H 378.707 -4.97024 0.835633 0
M  V30 3999 H 378.309 -3.39708 1.56443 0
M  V30 4000 H 380.601 -6.56677 1.66677 0
M  V30 4001 H 381.544 -6.33052 3.17256 0
M  V30 4002 H 381.952 -5.37838 1.71436 0
M  V30 4003 N 381.35 -0.985608 -1.22978 0
M  V30 4004 C 382.313 -0.535071 -2.22867 0
M  V30 4005 C 383.313 0.378123 -1.56291 0
M  V30 4006 O 384.503 0.171092 -1.73358 0
M  V30 4007 C 381.635 0.222702 -3.40172 0
M  V30 4008 H 382.828 -1.41835 -2.6424 0
M  V30 4009 H 380.381 -0.772042 -1.35901 0
M  V30 4010 H 381.116 1.12229 -3.04262 0
M  V30 4011 H 380.901 -0.43288 -3.89703 0
M  V30 4012 H 382.391 0.526335 -4.1427 0
M  V30 4013 N 382.828 1.3818 -0.7579 0
M  V30 4014 C 384.074 2.00316 -0.316453 0
M  V30 4015 C 384.407 1.60026 1.10025 0
M  V30 4016 O 383.682 0.839835 1.75434 0
M  V30 4017 C 383.965 3.57349 -0.444245 0
M  V30 4018 C 383.818 4.07591 -1.90236 0
M  V30 4019 C 385.137 4.3981 0.1598 0
M  V30 4020 H 382.256 0.727741 -0.116459 0
M  V30 4021 H 384.898 1.6406 -0.958352 0
M  V30 4022 H 383.048 3.88365 0.102233 0
M  V30 4023 H 384.72 3.87199 -2.50748 0
M  V30 4024 H 382.963 3.60297 -2.41595 0
M  V30 4025 H 383.634 5.16677 -1.94291 0
M  V30 4026 H 386.11 4.14971 -0.306314 0
M  V30 4027 H 384.986 5.48885 0.0401675 0
M  V30 4028 H 385.247 4.24102 1.24859 0
M  V30 4029 N 384.306 0.507319 1.49211 0
M  V30 4030 C 385.583 -0.0982702 1.95353 0
M  V30 4031 C 385.963 -1.53516 1.449 0
M  V30 4032 O 385.311 -2.18594 0.66551 0
M  V30 4033 C 385.521 -0.00440283 3.49 0
M  V30 4034 C 386.869 -0.175147 4.24239 0
M  V30 4035 O 387.893 -0.0792891 3.56112 0
M  V30 4036 O 386.752 -0.37276 5.45227 0
M  V30 4037 H 383.846 -0.0918236 0.821887 0
M  V30 4038 H 386.392 0.570307 1.5983 0
M  V30 4039 H 385.164 0.997402 3.78375 0
M  V30 4040 H 384.787 -0.712845 3.91158 0
M  V30 4041 N 385.784 -1.5574 0.241426 0
M  V30 4042 C 387.195 -1.84842 -0.262755 0
M  V30 4043 C 387.546 -1.16317 -1.58003 0
M  V30 4044 O 386.671 -0.439653 -2.11887 0
M  V30 4045 C 387.266 -3.35332 -0.483523 0
M  V30 4046 C 385.825 -3.6468 -0.931977 0
M  V30 4047 C 384.972 -2.77299 -0.0061151 0
M  V30 4048 H 387.923 -1.51761 0.464129 0
M  V30 4049 H 387.944 -3.56615 -1.32688 0
M  V30 4050 H 387.456 -3.85178 0.47537 0
M  V30 4051 H 385.557 -3.20307 -1.90353 0
M  V30 4052 H 385.67 -4.72498 -0.792628 0
M  V30 4053 H 384.034 -2.49408 -0.516503 0
M  V30 4054 H 384.817 -3.2995 0.948052 0
M  V30 4055 N 387.262 0.0317525 -1.57568 0
M  V30 4056 C 388.225 1.01783 -2.0536 0
M  V30 4057 C 389.225 1.29203 -0.957253 0
M  V30 4058 O 390.415 1.24251 -1.22095 0
M  V30 4059 C 387.547 2.35137 -2.46827 0
M  V30 4060 H 388.74 0.605062 -2.93733 0
M  V30 4061 H 386.293 0.278514 -1.53799 0
M  V30 4062 H 387.028 2.81168 -1.61602 0
M  V30 4063 H 386.813 2.16566 -3.26866 0
M  V30 4064 H 388.303 3.05938 -2.84239 0
M  V30 4065 N 388.74 1.54641 0.303973 0
M  V30 4066 C 389.987 1.7378 1.03955 0
M  V30 4067 C 390.315 0.521986 1.87365 0
M  V30 4068 O 389.57 -0.496099 1.89308 0
M  V30 4069 C 389.869 2.97753 1.97681 0
M  V30 4070 C 389.535 4.31671 1.30271 0
M  V30 4071 C 388.197 4.68075 1.11619 0
M  V30 4072 C 390.549 5.147 0.82055 0
M  V30 4073 C 387.877 5.8509 0.434304 0
M  V30 4074 C 390.229 6.32416 0.152395 0
M  V30 4075 C 388.893 6.67484 -0.0461067 0
M  V30 4076 H 388.163 0.635908 0.380398 0
M  V30 4077 H 390.81 1.88896 0.314718 0
M  V30 4078 H 389.115 2.77406 2.76682 0
M  V30 4079 H 390.812 3.09756 2.54661 0
M  V30 4080 H 387.402 4.03041 1.45795 0
M  V30 4081 H 391.586 4.87077 0.952374 0
M  V30 4082 H 386.842 6.10806 0.269495 0
M  V30 4083 H 391.016 6.96023 -0.229126 0
M  V30 4084 H 388.643 7.58011 -0.576494 0
M  V30 4085 N 390.218 -0.567019 1.47046 0
M  V30 4086 C 391.466 -1.322 1.52864 0
M  V30 4087 C 391.787 -1.94088 0.188388 0
M  V30 4088 O 391.057 -1.7941 -0.786693 0
M  V30 4089 H 389.637 -0.490894 0.563056 0
M  V30 4090 H 392.299 -0.662879 1.83281 0
M  V30 4091 H 391.395 -2.12062 2.2899 0
M  V30 4092 N 391.696 -1.35014 -0.812953 0
M  V30 4093 C 392.973 -1.18502 -1.55617 0
M  V30 4094 C 393.353 0.238421 -2.09749 0
M  V30 4095 O 392.701 1.2411 -1.91857 0
M  V30 4096 C 392.911 -2.24783 -2.66971 0
M  V30 4097 C 394.259 -2.60268 -3.35478 0
M  V30 4098 O 395.283 -2.23648 -2.77236 0
M  V30 4099 O 394.142 -3.2321 -4.40678 0
M  V30 4100 H 391.236 -0.459984 -0.687272 0
M  V30 4101 H 393.782 -1.46677 -0.853464 0
M  V30 4102 H 392.554 -3.20284 -2.24798 0
M  V30 4103 H 392.177 -1.97841 -3.44884 0
M  V30 4104 N 393.175 1.03435 -1.18907 0
M  V30 4105 C 394.123 2.13703 -0.918353 0
M  V30 4106 C 395.117 1.68947 0.123767 0
M  V30 4107 O 396.323 1.79983 -0.0249701 0
M  V30 4108 H 392.698 0.698112 -0.279542 0
M  V30 4109 H 394.669 2.33731 -1.85506 0
M  V30 4110 C 393.418 3.44542 -0.467532 0
M  V30 4111 H 392.741 3.79394 -1.26095 0
M  V30 4112 H 394.181 4.22812 -0.317164 0
M  V30 4113 C 392.64 3.26829 0.817588 0
M  V30 4114 O 393.17 3.54975 1.88031 0
M  V30 4115 N 391.376 2.80139 0.772677 0
M  V30 4116 H 390.923 2.57434 -0.0923883 0
M  V30 4117 H 390.881 2.68668 1.63294 0
M  V30 4118 N 394.653 0.992116 1.22453 0
M  V30 4119 C 395.878 0.685644 1.95739 0
M  V30 4120 C 396.303 -0.743 1.72804 0
M  V30 4121 O 395.661 -1.50778 1.00676 0
M  V30 4122 C 395.709 0.996293 3.46564 0
M  V30 4123 O 394.813 0.0945512 4.12292 0
M  V30 4124 H 394.154 0.256694 0.612376 0
M  V30 4125 H 396.684 1.32888 1.5557 0
M  V30 4126 H 396.694 0.93781 3.97076 0
M  V30 4127 H 395.369 2.03733 3.62582 0
M  V30 4128 H 393.946 0.208451 3.72317 0
M  V30 4129 N 396.131 -1.37776 0.765217 0
M  V30 4130 C 397.359 -2.04124 0.337767 0
M  V30 4131 C 397.774 -1.57715 -1.03785 0
M  V30 4132 O 397.131 -0.755447 -1.6613 0
M  V30 4133 C 397.182 -3.59658 0.364442 0
M  V30 4134 O 396.903 -4.04367 1.68579 0
M  V30 4135 C 398.404 -4.43236 -0.0754221 0
M  V30 4136 H 395.624 -0.655696 0.142491 0
M  V30 4137 H 398.168 -1.76238 1.03732 0
M  V30 4138 H 396.323 -3.86339 -0.286471 0
M  V30 4139 H 396.737 -4.98857 1.61993 0
M  V30 4140 H 398.211 -5.52 -0.00560067 0
M  V30 4141 H 398.688 -4.2455 -1.12491 0
M  V30 4142 H 399.294 -4.21767 0.547055 0
M  V30 4143 N 397.609 -0.515225 -1.4894 0
M  V30 4144 C 398.539 0.244628 -2.32215 0
M  V30 4145 C 399.52 0.949136 -1.41157 0
M  V30 4146 O 400.705 0.937783 -1.70057 0
M  V30 4147 C 397.835 1.30096 -3.22013 0
M  V30 4148 C 396.789 0.715486 -4.21977 0
M  V30 4149 C 396.115 1.87339 -5.00808 0
M  V30 4150 C 397.415 -0.302982 -5.2142 0
M  V30 4151 H 399.109 -0.450501 -2.95991 0
M  V30 4152 H 396.655 -0.218098 -1.42339 0
M  V30 4153 H 398.608 1.84037 -3.79089 0
M  V30 4154 H 397.332 2.02547 -2.56207 0
M  V30 4155 H 395.991 0.197715 -3.66066 0
M  V30 4156 H 395.639 2.58592 -4.31438 0
M  V30 4157 H 395.339 1.48764 -5.68457 0
M  V30 4158 H 396.863 2.41686 -5.60732 0
M  V30 4159 H 398.277 0.148802 -5.73107 0
M  V30 4160 H 396.674 -0.60532 -5.97039 0
M  V30 4161 H 397.744 -1.21395 -4.69459 0
M  V30 4162 N 399.087 1.5561 -0.249682 0
M  V30 4163 C 400.019 2.18834 0.681496 0
M  V30 4164 C 401.032 1.16546 1.1367 0
M  V30 4165 O 402.221 1.43397 1.06299 0
M  V30 4166 C 399.321 2.77992 1.9384 0
M  V30 4167 C 398.494 4.05725 1.63419 0
M  V30 4168 C 397.553 4.49174 2.74096 0
M  V30 4169 O 396.579 5.15492 2.41364 0
M  V30 4170 N 397.781 4.17191 4.03649 0
M  V30 4171 H 400.546 2.9937 0.140514 0
M  V30 4172 H 398.107 1.6175 -0.0697541 0
M  V30 4173 H 400.099 3.04015 2.67127 0
M  V30 4174 H 398.669 2.01596 2.38909 0
M  V30 4175 H 397.889 3.87261 0.736358 0
M  V30 4176 H 399.177 4.88999 1.40562 0
M  V30 4177 H 398.575 3.63955 4.33074 0
M  V30 4178 H 397.132 4.48043 4.73393 0
M  V30 4179 N 400.565 -0.0233959 1.57583 0
M  V30 4180 C 401.793 -0.724682 1.93794 0
M  V30 4181 C 402.208 -1.68588 0.849912 0
M  V30 4182 O 401.565 -1.81676 -0.173204 0
M  V30 4183 C 401.616 -1.47684 3.29957 0
M  V30 4184 O 401.337 -0.554222 4.3458 0
M  V30 4185 C 402.838 -2.27477 3.80485 0
M  V30 4186 H 400.058 -0.203317 0.639455 0
M  V30 4187 H 402.602 0.0207653 2.04489 0
M  V30 4188 H 400.757 -2.17412 3.20641 0
M  V30 4189 H 401.171 -1.08232 5.13212 0
M  V30 4190 H 402.645 -2.7564 4.78254 0
M  V30 4191 H 403.122 -3.09144 3.11972 0
M  V30 4192 H 403.728 -1.62813 3.92902 0
M  V30 4193 N 402.043 -1.548 -0.295768 0
M  V30 4194 C 402.973 -1.89115 -1.36959 0
M  V30 4195 C 403.954 -0.75059 -1.52644 0
M  V30 4196 O 405.139 -1.00678 -1.66065 0
M  V30 4197 C 402.269 -2.14307 -2.73295 0
M  V30 4198 C 401.223 -3.30151 -2.72368 0
M  V30 4199 C 400.549 -3.40772 -4.12042 0
M  V30 4200 C 401.849 -4.67126 -2.33646 0
M  V30 4201 H 403.543 -2.79053 -1.08488 0
M  V30 4202 H 401.089 -1.34266 -0.520443 0
M  V30 4203 H 403.042 -2.36898 -3.48507 0
M  V30 4204 H 401.766 -1.21145 -3.03301 0
M  V30 4205 H 400.425 -3.0749 -1.99613 0
M  V30 4206 H 400.073 -2.45117 -4.39234 0
M  V30 4207 H 399.773 -4.18645 -4.12322 0
M  V30 4208 H 401.297 -3.6563 -4.89027 0
M  V30 4209 H 402.711 -4.89414 -2.98575 0
M  V30 4210 H 401.108 -5.47751 -2.45129 0
M  V30 4211 H 402.178 -4.67489 -1.28772 0
M  V30 4212 N 403.521 0.559213 -1.47345 0
M  V30 4213 C 404.77 1.31281 -1.53128 0
M  V30 4214 C 405.083 1.94602 -0.197344 0
M  V30 4215 O 406.289 2.71173 -0.133154 0
M  V30 4216 C 404.745 2.38051 -2.69925 0
M  V30 4217 C 404.353 1.8093 -4.0984 0
M  V30 4218 C 406.097 3.14604 -2.84999 0
M  V30 4219 C 404.004 2.85468 -5.1794 0
M  V30 4220 H 402.934 0.493614 -0.569966 0
M  V30 4221 H 405.585 0.594155 -1.73615 0
M  V30 4222 H 403.967 3.12822 -2.42814 0
M  V30 4223 H 405.141 1.12544 -4.46845 0
M  V30 4224 H 403.456 1.16967 -3.99634 0
M  V30 4225 H 406.053 3.92666 -3.62929 0
M  V30 4226 H 406.396 3.68665 -1.93369 0
M  V30 4227 H 406.929 2.46945 -3.1187 0
M  V30 4228 H 403.668 2.36264 -6.1144 0
M  V30 4229 H 403.188 3.52269 -4.85455 0
M  V30 4230 H 404.867 3.48996 -5.44803 0
M  V30 4231 N 404.999 1.35443 0.805782 0
M  V30 4232 C 405.947 1.28465 1.93906 0
M  V30 4233 C 406.941 0.17943 1.68447 0
M  V30 4234 O 408.147 0.345459 1.76654 0
M  V30 4235 H 404.522 0.399528 0.637088 0
M  V30 4236 H 406.493 2.24206 1.96912 0
M  V30 4237 C 405.242 1.07432 3.30687 0
M  V30 4238 H 404.565 1.91716 3.50835 0
M  V30 4239 H 406.005 1.06591 4.10383 0
M  V30 4240 C 404.464 -0.22179 3.36169 0
M  V30 4241 O 404.994 -1.21731 3.82811 0
M  V30 4242 N 403.2 -0.260841 2.89427 0
M  V30 4243 H 402.747 0.549884 2.51663 0
M  V30 4244 H 402.705 -1.12777 2.93477 0
M  V30 4245 N 406.477 -1.02803 1.19454 0
M  V30 4246 C 407.754 -1.73299 0.907013 0
M  V30 4247 C 408.134 -2.02772 -0.587086 0
M  V30 4248 O 407.482 -1.68304 -1.54551 0
M  V30 4249 C 407.692 -3.00912 1.76785 0
M  V30 4250 C 409.04 -3.74403 2.00268 0
M  V30 4251 O 410.064 -3.10841 1.73943 0
M  V30 4252 O 408.923 -4.88675 2.4466 0
M  V30 4253 H 406.017 -0.754727 0.338106 0
M  V30 4254 H 408.563 -1.08754 1.30271 0
M  V30 4255 H 407.335 -2.75366 2.7801 0
M  V30 4256 H 406.958 -3.73197 1.37149 0
M  V30 4257 N 407.956 -0.998596 -1.21925 0
M  V30 4258 C 409.205 -0.673085 -1.90138 0
M  V30 4259 C 409.518 0.79895 -1.78539 0
M  V30 4260 O 410.724 1.23628 -2.4172 0
M  V30 4261 C 409.18 -1.15339 -3.40918 0
M  V30 4262 C 408.788 -2.65106 -3.61141 0
M  V30 4263 C 410.532 -0.902476 -4.14796 0
M  V30 4264 C 408.439 -3.0671 -5.05651 0
M  V30 4265 H 407.369 -0.248057 -0.712028 0
M  V30 4266 H 410.02 -1.20891 -1.38049 0
M  V30 4267 H 408.402 -0.545658 -3.92223 0
M  V30 4268 H 409.576 -3.31274 -3.20304 0
M  V30 4269 H 407.891 -2.88142 -3.00605 0
M  V30 4270 H 410.488 -1.18895 -5.21314 0
M  V30 4271 H 410.831 0.161349 -4.15987 0
M  V30 4272 H 411.364 -1.47269 -3.69536 0
M  V30 4273 H 408.103 -4.12292 -5.09603 0
M  V30 4274 H 407.623 -2.45249 -5.47369 0
M  V30 4275 H 409.302 -2.9833 -5.74115 0
M  V30 4276 N 409.434 1.37368 -0.772513 0
M  V30 4277 C 410.384 2.27613 -0.132823 0
M  V30 4278 C 411.368 1.46138 0.673247 0
M  V30 4279 O 412.56 1.68686 0.536095 0
M  V30 4280 C 409.689 3.35122 0.744864 0
M  V30 4281 C 408.775 4.24044 -0.0690771 0
M  V30 4282 N 409.166 4.93355 -1.1151 0
M  V30 4283 C 407.464 4.45731 0.154782 0
M  V30 4284 C 408.165 5.59 -1.60917 0
M  V30 4285 N 407.141 5.35737 -0.921222 0
M  V30 4286 H 410.943 2.78675 -0.933681 0
M  V30 4287 H 408.457 1.50494 -0.610342 0
M  V30 4288 H 410.454 3.98683 1.21892 0
M  V30 4289 H 409.114 2.85616 1.54446 0
M  V30 4290 H 410.125 4.95785 -1.49726 0
M  V30 4291 H 406.802 4.07096 0.926224 0
M  V30 4292 H 408.192 6.24395 -2.48153 0
M  V30 4293 N 410.912 0.523116 1.48665 0
M  V30 4294 C 412.137 -0.0117284 2.07397 0
M  V30 4295 C 412.562 -1.28031 1.37803 0
M  V30 4296 O 411.92 -1.75836 0.441762 0
M  V30 4297 C 411.968 -0.225786 3.59892 0
M  V30 4298 O 411.072 -1.29592 3.91509 0
M  V30 4299 H 410.413 0.0360673 0.66302 0
M  V30 4300 H 412.943 0.729066 1.9117 0
M  V30 4301 H 412.953 -0.450552 4.05505 0
M  V30 4302 H 411.628 0.700944 4.09951 0
M  V30 4303 H 410.205 -1.05436 3.57684 0
M  V30 4304 N 412.39 -1.55475 0.257931 0
M  V30 4305 C 413.618 -2.03609 -0.367559 0
M  V30 4306 C 414.033 -1.13687 -1.50734 0
M  V30 4307 O 413.39 -0.153479 -1.81853 0
M  V30 4308 C 413.441 -3.51001 -0.864908 0
M  V30 4309 O 413.162 -4.37499 0.229465 0
M  V30 4310 C 414.663 -4.14946 -1.55997 0
M  V30 4311 H 411.883 -0.665459 -0.0860521 0
M  V30 4312 H 414.427 -2.00843 0.385014 0
M  V30 4313 H 412.582 -3.54266 -1.56762 0
M  V30 4314 H 412.996 -5.24286 -0.14998 0
M  V30 4315 H 414.47 -5.19735 -1.85956 0
M  V30 4316 H 414.947 -3.6209 -2.4857 0
M  V30 4317 H 415.553 -4.15635 -0.901543 0
M  V30 4318 N 413.868 0.0150385 -1.57593 0
M  V30 4319 C 414.831 0.995996 -2.06428 0
M  V30 4320 C 415.831 1.2818 -0.970903 0
M  V30 4321 O 417.021 1.22949 -1.23406 0
M  V30 4322 C 414.153 2.32506 -2.49307 0
M  V30 4323 H 415.346 0.573873 -2.94358 0
M  V30 4324 H 412.899 0.262186 -1.54085 0
M  V30 4325 H 413.634 2.79438 -1.64575 0
M  V30 4326 H 413.419 2.13087 -3.29145 0
M  V30 4327 H 414.909 3.02906 -2.87468 0
M  V30 4328 N 415.346 1.54954 0.287554 0
M  V30 4329 C 416.294 1.87606 1.37502 0
M  V30 4330 C 417.288 0.751001 1.51843 0
M  V30 4331 O 418.494 0.935169 1.53801 0
M  V30 4332 H 414.869 0.595231 0.459569 0
M  V30 4333 H 416.84 2.78477 1.07206 0
M  V30 4334 C 415.589 2.15183 2.73115 0
M  V30 4335 H 414.912 3.01234 2.62866 0
M  V30 4336 H 416.352 2.4196 3.48183 0
M  V30 4337 C 414.811 0.954686 3.2309 0
M  V30 4338 O 415.341 0.181949 4.01288 0
M  V30 4339 N 413.547 0.756368 2.80584 0
M  V30 4340 H 413.094 1.38643 2.17108 0
M  V30 4341 H 413.052 -0.0430391 3.14371 0
M  V30 4342 N 416.824 -0.551391 1.4764 0
M  V30 4343 C 418.072 -1.30572 1.54258 0
M  V30 4344 C 418.393 -1.93877 0.208963 0
M  V30 4345 O 417.663 -1.80234 -0.767619 0
M  V30 4346 H 416.243 -0.484894 0.568231 0
M  V30 4347 H 418.905 -0.643402 1.83974 0
M  V30 4348 H 418.001 -2.09621 2.31226 0
M  V30 4349 N 418.302 -1.35869 -0.798587 0
M  V30 4350 C 419.713 -1.26498 -1.37314 0
M  V30 4351 C 420.064 0.0991899 -1.95949 0
M  V30 4352 O 419.189 1.0004 -1.91888 0
M  V30 4353 C 419.784 -2.29054 -2.49639 0
M  V30 4354 C 418.343 -2.234 -3.02935 0
M  V30 4355 C 417.49 -2.14329 -1.75949 0
M  V30 4356 H 420.441 -1.46881 -0.600971 0
M  V30 4357 H 420.462 -1.92166 -3.28409 0
M  V30 4358 H 419.974 -3.2833 -2.06933 0
M  V30 4359 H 418.075 -1.27562 -3.50084 0
M  V30 4360 H 418.188 -3.15703 -3.60372 0
M  V30 4361 H 416.552 -1.60435 -1.9782 0
M  V30 4362 H 417.335 -3.15477 -1.35384 0
M  V30 4363 N 419.78 1.02168 -1.19998 0
M  V30 4364 C 420.727 2.10601 -0.944228 0
M  V30 4365 C 421.697 1.65639 0.123664 0
M  V30 4366 O 422.882 1.9079 -0.0199941 0
M  V30 4367 C 420.022 3.41504 -0.496865 0
M  V30 4368 C 419.135 3.99973 -1.63234 0
M  V30 4369 C 418.27 5.18915 -1.13579 0
M  V30 4370 C 417.309 5.69456 -2.24468 0
M  V30 4371 N 416.446 6.79665 -1.76068 0
M  V30 4372 H 421.286 2.31814 -1.8726 0
M  V30 4373 H 418.823 1.13686 -0.933483 0
M  V30 4374 H 420.781 4.16626 -0.218843 0
M  V30 4375 H 419.411 3.2038 0.394508 0
M  V30 4376 H 418.463 3.21997 -2.0254 0
M  V30 4377 H 419.775 4.33492 -2.46752 0
M  V30 4378 H 418.929 6.01222 -0.813429 0
M  V30 4379 H 417.668 4.8695 -0.270434 0
M  V30 4380 H 416.673 4.85757 -2.57526 0
M  V30 4381 H 417.898 6.03459 -3.11472 0
M  V30 4382 H 415.844 6.49538 -0.918516 0
M  V30 4383 H 415.761 7.12349 -2.5317 0
M  V30 4384 H 417.029 7.65549 -1.46817 0
M  V30 4385 N 421.258 1.00505 1.21394 0
M  V30 4386 C 422.506 0.686415 1.90086 0
M  V30 4387 C 422.827 -0.785264 1.7849 0
M  V30 4388 O 422.097 -1.56387 1.17983 0
M  V30 4389 H 420.677 0.2509 0.703604 0
M  V30 4390 H 423.339 1.27417 1.47482 0
M  V30 4391 H 422.435 0.959621 2.96981 0
M  V30 4392 N 422.737 -1.36956 0.779787 0
M  V30 4393 C 423.967 -2.03459 0.358877 0
M  V30 4394 C 424.375 -1.58939 -1.02641 0
M  V30 4395 O 423.718 -0.769777 -1.66794 0
M  V30 4396 C 423.78 -3.5796 0.332393 0
M  V30 4397 C 423.444 -4.25644 1.66362 0
M  V30 4398 C 424.441 -4.49205 2.61746 0
M  V30 4399 C 422.126 -4.63313 1.94027 0
M  V30 4400 C 424.12 -5.09503 3.82996 0
M  V30 4401 C 421.807 -5.2333 3.15546 0
M  V30 4402 C 422.805 -5.46363 4.0985 0
M  V30 4403 O 422.493 -6.05122 5.29228 0
M  V30 4404 H 422.225 -0.659767 0.147254 0
M  V30 4405 H 424.779 -1.76111 1.05708 0
M  V30 4406 H 423.009 -3.84388 -0.422237 0
M  V30 4407 H 424.698 -4.05852 -0.0625389 0
M  V30 4408 H 425.464 -4.20508 2.41657 0
M  V30 4409 H 421.343 -4.44715 1.21448 0
M  V30 4410 H 424.887 -5.27397 4.56617 0
M  V30 4411 H 420.784 -5.51451 3.35517 0
M  V30 4412 H 421.552 -6.23595 5.30161 0
M  V30 4413 N 424.215 -0.530993 -1.48385 0
M  V30 4414 C 425.145 0.219985 -2.32461 0
M  V30 4415 C 426.126 0.934111 -1.42156 0
M  V30 4416 O 427.311 0.919694 -1.71042 0
M  V30 4417 C 424.441 1.26674 -3.23375 0
M  V30 4418 C 423.395 0.67069 -4.22712 0
M  V30 4419 C 422.721 1.82017 -5.02766 0
M  V30 4420 C 424.021 -0.358268 -5.2107 0
M  V30 4421 H 425.715 -0.48187 -2.95497 0
M  V30 4422 H 423.261 -0.233182 -1.42099 0
M  V30 4423 H 425.214 1.80006 -3.81019 0
M  V30 4424 H 423.938 1.99818 -2.58341 0
M  V30 4425 H 422.597 0.158878 -3.66256 0
M  V30 4426 H 422.245 2.54002 -4.34157 0
M  V30 4427 H 421.945 1.42727 -5.70003 0
M  V30 4428 H 423.469 2.35725 -5.63264 0
M  V30 4429 H 424.883 0.0880081 -5.73232 0
M  V30 4430 H 423.28 -0.66861 -5.96364 0
M  V30 4431 H 424.35 -1.26367 -4.68145 0
M  V30 4432 N 425.693 1.55336 -0.266172 0
M  V30 4433 C 426.942 1.98574 0.353749 0
M  V30 4434 C 427.255 1.15789 1.57646 0
M  V30 4435 O 428.461 1.49129 2.26876 0
M  V30 4436 C 426.917 3.53403 0.680747 0
M  V30 4437 C 426.525 4.44953 -0.52165 0
M  V30 4438 C 428.269 4.05251 1.26379 0
M  V30 4439 C 426.176 5.91156 -0.169736 0
M  V30 4440 H 425.106 0.741643 0.135949 0
M  V30 4441 H 427.757 1.79743 -0.369421 0
M  V30 4442 H 426.139 3.68001 1.46257 0
M  V30 4443 H 427.313 4.42121 -1.29869 0
M  V30 4444 H 425.628 4.03691 -1.02093 0
M  V30 4445 H 428.225 5.12021 1.54074 0
M  V30 4446 H 428.568 3.53749 2.19471 0
M  V30 4447 H 429.101 3.94057 0.544447 0
M  V30 4448 H 425.84 6.46736 -1.0683 0
M  V30 4449 H 425.36 5.97079 0.570717 0
M  V30 4450 H 427.039 6.4655 0.241245 0
M  V30 4451 N 427.171 -0.0066808 1.57599 0
M  V30 4452 C 428.101 -0.999296 2.11036 0
M  V30 4453 C 429.082 -1.36278 1.01795 0
M  V30 4454 O 430.267 -1.4477 1.29442 0
M  V30 4455 C 427.397 -2.29328 2.60818 0
M  V30 4456 C 426.351 -2.07159 3.74525 0
M  V30 4457 C 425.677 -3.42512 4.10596 0
M  V30 4458 C 426.977 -1.43959 5.02069 0
M  V30 4459 H 428.671 -0.554382 2.94223 0
M  V30 4460 H 426.217 -0.265221 1.41536 0
M  V30 4461 H 428.17 -2.99117 2.96828 0
M  V30 4462 H 426.894 -2.7592 1.74745 0
M  V30 4463 H 425.553 -1.39797 3.38899 0
M  V30 4464 H 425.201 -3.86795 3.21556 0
M  V30 4465 H 424.901 -3.28498 4.87199 0
M  V30 4466 H 426.425 -4.13628 4.4916 0
M  V30 4467 H 427.839 -2.03696 5.35893 0
M  V30 4468 H 426.236 -1.40452 5.83432 0
M  V30 4469 H 427.306 -0.407992 4.83181 0
M  V30 4470 N 428.649 -1.55105 -0.279332 0
M  V30 4471 C 429.926 -1.66119 -1.03267 0
M  V30 4472 C 430.306 -0.523525 -2.04505 0
M  V30 4473 O 429.654 0.477194 -2.23462 0
M  V30 4474 C 429.864 -3.05067 -1.69515 0
M  V30 4475 C 431.212 -3.62606 -2.20912 0
M  V30 4476 O 432.236 -3.07659 -1.79512 0
M  V30 4477 O 431.095 -4.58861 -2.96831 0
M  V30 4478 H 428.189 -0.674429 -0.478618 0
M  V30 4479 H 430.735 -1.67446 -0.275694 0
M  V30 4480 H 429.507 -3.79311 -0.9612 0
M  V30 4481 H 429.13 -3.07611 -2.51915 0
M  V30 4482 N 430.127 0.543554 -1.4793 0
M  V30 4483 C 431.375 1.29752 -1.54948 0
M  V30 4484 C 431.696 1.93764 -0.219242 0
M  V30 4485 O 430.966 1.80639 0.75805 0
M  V30 4486 H 429.546 0.481874 -0.570795 0
M  V30 4487 H 432.208 0.633636 -1.84312 0
M  V30 4488 H 431.304 2.08392 -2.32334 0
M  V30 4489 N 431.605 1.3629 0.791371 0
M  V30 4490 C 432.851 1.30605 1.55146 0
M  V30 4491 C 433.184 -0.115042 1.93859 0
M  V30 4492 O 432.459 -1.06798 1.62556 0
M  V30 4493 C 432.742 2.22692 2.82985 0
M  V30 4494 C 432.595 3.73489 2.50651 0
M  V30 4495 C 433.914 2.13588 3.84796 0
M  V30 4496 H 431.033 0.475761 0.562868 0
M  V30 4497 H 433.675 1.66825 0.909358 0
M  V30 4498 H 431.825 1.91933 3.37778 0
M  V30 4499 H 433.497 4.14758 2.01924 0
M  V30 4500 H 431.74 3.93021 1.83622 0
M  V30 4501 H 432.411 4.3333 3.41949 0
M  V30 4502 H 434.887 2.40659 3.39445 0
M  V30 4503 H 433.763 2.80195 4.71998 0
M  V30 4504 H 434.024 1.12256 4.27611 0
M  V30 4505 N 433.083 -1.0153 1.20538 0
M  V30 4506 C 434.33 -1.75149 1.01633 0
M  V30 4507 C 434.658 -1.89189 -0.451399 0
M  V30 4508 O 433.913 -1.41551 -1.35136 0
M  V30 4509 C 434.212 -3.17213 1.64654 0
M  V30 4510 C 433.878 -3.23146 3.14464 0
M  V30 4511 C 432.54 -3.24472 3.55347 0
M  V30 4512 C 434.892 -3.21207 4.10458 0
M  V30 4513 C 432.22 -3.21532 4.90748 0
M  V30 4514 C 434.572 -3.19808 5.45807 0
M  V30 4515 C 433.236 -3.19439 5.86102 0
M  V30 4516 H 432.506 -0.640914 0.3719 0
M  V30 4517 H 435.153 -1.19071 1.49981 0
M  V30 4518 H 433.458 -3.76457 1.08571 0
M  V30 4519 H 435.155 -3.72871 1.4754 0
M  V30 4520 H 431.745 -3.2285 2.81897 0
M  V30 4521 H 435.929 -3.19351 3.79906 0
M  V30 4522 H 431.185 -3.19578 5.21229 0
M  V30 4523 H 435.359 -3.1726 6.19935 0
M  V30 4524 H 432.986 -3.16915 6.90991 0
M  V30 4525 N 434.561 -1.01147 -1.20859 0
M  V30 4526 C 435.509 -0.57059 -2.25493 0
M  V30 4527 C 436.503 0.388109 -1.64894 0
M  V30 4528 O 437.709 0.258592 -1.78133 0
M  V30 4529 H 434.084 -0.166191 -0.733406 0
M  V30 4530 H 436.055 -1.46411 -2.60012 0
M  V30 4531 C 434.804 0.0805241 -3.47607 0
M  V30 4532 H 434.127 -0.648156 -3.94511 0
M  V30 4533 H 435.567 0.352197 -4.22535 0
M  V30 4534 C 434.026 1.32175 -3.09889 0
M  V30 4535 O 434.556 2.41553 -3.20959 0
M  V30 4536 N 432.762 1.20392 -2.64488 0
M  V30 4537 H 432.309 0.313905 -2.5568 0
M  V30 4538 H 432.267 2.03541 -2.39621 0
M  V30 4539 N 436.039 1.36541 -0.78704 0
M  V30 4540 C 436.989 2.27459 -0.156957 0
M  V30 4541 C 437.973 1.46843 0.657709 0
M  V30 4542 O 439.165 1.69245 0.518173 0
M  V30 4543 C 436.294 3.35893 0.709278 0
M  V30 4544 C 435.38 4.23947 -0.114049 0
M  V30 4545 N 435.771 4.92145 -1.16736 0
M  V30 4546 C 434.069 4.4587 0.107497 0
M  V30 4547 C 434.77 5.57261 -1.66837 0
M  V30 4548 N 433.746 5.3473 -0.977992 0
M  V30 4549 H 437.548 2.77669 -0.963185 0
M  V30 4550 H 435.062 1.49839 -0.62627 0
M  V30 4551 H 437.059 3.99953 1.17656 0
M  V30 4552 H 435.719 2.87238 1.51408 0
M  V30 4553 H 436.73 4.94169 -1.54976 0
M  V30 4554 H 433.407 4.08056 0.882994 0
M  V30 4555 H 434.797 6.21728 -2.54762 0
M  V30 4556 N 437.518 0.538854 1.48102 0
M  V30 4557 C 438.746 0.0123136 2.06896 0
M  V30 4558 C 439.161 -1.27312 1.39417 0
M  V30 4559 O 438.518 -1.75949 0.484582 0
M  V30 4560 C 438.569 -0.206118 3.60912 0
M  V30 4561 O 438.29 1.0284 4.25859 0
M  V30 4562 C 439.791 -0.772033 4.36526 0
M  V30 4563 H 437.011 0.0375239 0.66995 0
M  V30 4564 H 439.555 0.747032 1.90367 0
M  V30 4565 H 437.71 -0.89091 3.77017 0
M  V30 4566 H 438.124 0.814654 5.18135 0
M  V30 4567 H 439.598 -0.874251 5.45033 0
M  V30 4568 H 440.075 -1.77904 4.01555 0
M  V30 4569 H 440.681 -0.123526 4.25121 0
M  V30 4570 N 438.996 -1.55193 0.274407 0
M  V30 4571 C 440.244 -1.99187 -0.341902 0
M  V30 4572 C 440.565 -1.16422 -1.56431 0
M  V30 4573 O 439.835 -0.253573 -1.94252 0
M  V30 4574 H 438.415 -0.735721 -0.129317 0
M  V30 4575 H 441.077 -1.91168 0.379578 0
M  V30 4576 H 440.173 -3.05629 -0.632253 0
M  V30 4577 N 440.474 -0.00167713 -1.576 0
M  V30 4578 C 441.751 0.719951 -1.81868 0
M  V30 4579 C 442.131 1.91895 -0.879747 0
M  V30 4580 O 441.479 2.28389 0.0711423 0
M  V30 4581 C 441.689 1.12409 -3.30402 0
M  V30 4582 C 443.037 1.52724 -3.96182 0
M  V30 4583 O 444.061 1.21784 -3.34734 0
M  V30 4584 O 442.92 2.10265 -5.04431 0
M  V30 4585 H 440.014 0.350707 -0.748955 0
M  V30 4586 H 442.56 -0.0272597 -1.69678 0
M  V30 4587 H 441.332 0.269532 -3.90371 0
M  V30 4588 H 440.955 1.93035 -3.47596 0
M  V30 4589 N 441.952 1.55251 0.271103 0
M  V30 4590 C 443.177 1.80306 1.02491 0
M  V30 4591 C 443.602 0.575457 1.79081 0
M  V30 4592 O 442.96 -0.474987 1.74967 0
M  V30 4593 C 443.008 3.02832 1.95768 0
M  V30 4594 O 442.112 2.78051 3.04568 0
M  V30 4595 H 441.453 0.595896 0.292923 0
M  V30 4596 H 443.983 2.02397 0.299436 0
M  V30 4597 H 443.993 3.31616 2.37686 0
M  V30 4598 H 442.668 3.9183 1.39434 0
M  V30 4599 H 441.245 2.60369 2.66951 0
M  V30 4600 N 443.43 -0.535701 1.48216 0
M  V30 4601 C 444.38 -1.63688 1.58714 0
M  V30 4602 C 445.364 -1.54635 0.444615 0
M  V30 4603 O 446.556 -1.62753 0.695742 0
M  V30 4604 C 443.685 -3.02423 1.62466 0
M  V30 4605 C 442.771 -3.16601 2.82178 0
M  V30 4606 N 443.162 -3.00771 4.06658 0
M  V30 4607 C 441.46 -3.47645 2.79391 0
M  V30 4608 C 442.161 -3.18213 4.86945 0
M  V30 4609 N 441.137 -3.45528 4.19656 0
M  V30 4610 H 444.939 -1.5005 2.5271 0
M  V30 4611 H 442.453 -0.741018 1.44508 0
M  V30 4612 H 444.45 -3.81517 1.6808 0
M  V30 4613 H 443.11 -3.17157 0.695826 0
M  V30 4614 H 444.121 -2.77652 4.37184 0
M  V30 4615 H 440.798 -3.68771 1.95739 0
M  V30 4616 H 442.188 -3.1076 5.95716 0
M  V30 4617 N 444.908 -1.36708 -0.784132 0
M  V30 4618 C 446.319 -1.27947 -1.35965 0
M  V30 4619 C 446.67 0.0784013 -1.96043 0
M  V30 4620 O 445.795 0.979989 -1.92938 0
M  V30 4621 C 446.39 -2.31689 -2.47195 0
M  V30 4622 C 444.949 -2.26601 -3.00548 0
M  V30 4623 C 444.096 -2.16184 -1.73666 0
M  V30 4624 H 447.047 -1.4751 -0.585358 0
M  V30 4625 H 447.068 -1.95638 -3.26352 0
M  V30 4626 H 446.58 -3.30506 -2.03439 0
M  V30 4627 H 444.681 -1.31268 -3.48711 0
M  V30 4628 H 444.794 -3.19508 -3.57004 0
M  V30 4629 H 443.158 -1.62524 -1.96107 0
M  V30 4630 H 443.941 -3.16896 -1.32031 0
M  V30 4631 N 446.386 1.0089 -1.21074 0
M  V30 4632 C 447.632 1.7497 -1.03717 0
M  V30 4633 C 447.987 1.8764 0.425344 0
M  V30 4634 O 447.28 1.39679 1.3115 0
M  V30 4635 C 447.474 3.16335 -1.66334 0
M  V30 4636 C 447.303 3.17449 -3.18522 0
M  V30 4637 C 446.073 3.2425 -3.87543 0
M  V30 4638 C 448.271 3.02877 -4.15656 0
M  V30 4639 N 446.253 3.14949 -5.26954 0
M  V30 4640 C 447.624 3.0143 -5.41793 0
M  V30 4641 C 449.679 2.8715 -4.06755 0
M  V30 4642 C 448.382 2.85869 -6.60054 0
M  V30 4643 C 450.408 2.72944 -5.24648 0
M  V30 4644 C 449.77 2.72171 -6.49694 0
M  V30 4645 H 445.869 0.650627 -0.43383 0
M  V30 4646 H 448.453 1.19944 -1.53367 0
M  V30 4647 H 446.624 3.69638 -1.19256 0
M  V30 4648 H 448.356 3.78888 -1.42219 0
M  V30 4649 H 445.111 3.31288 -3.38446 0
M  V30 4650 H 445.535 3.13651 -5.9996 0
M  V30 4651 H 450.177 2.86557 -3.10878 0
M  V30 4652 H 447.895 2.8521 -7.56096 0
M  V30 4653 H 451.481 2.61782 -5.19578 0
M  V30 4654 H 450.361 2.61307 -7.39384 0
M  V30 4655 N 447.864 1.01787 1.20321 0
M  V30 4656 C 449.111 0.707936 1.89722 0
M  V30 4657 C 449.439 -0.762535 1.78929 0
M  V30 4658 O 448.694 -1.56977 1.16861 0
M  V30 4659 C 448.993 1.09076 3.40349 0
M  V30 4660 C 448.659 2.55765 3.71342 0
M  V30 4661 C 447.321 2.95845 3.79511 0
M  V30 4662 C 449.673 3.50723 3.85542 0
M  V30 4663 C 447.001 4.2982 3.99339 0
M  V30 4664 C 449.353 4.84387 4.06881 0
M  V30 4665 C 448.017 5.24172 4.1328 0
M  V30 4666 H 447.287 0.259052 0.694243 0
M  V30 4667 H 449.934 1.27868 1.42555 0
M  V30 4668 H 448.239 0.438453 3.89339 0
M  V30 4669 H 449.936 0.828636 3.92345 0
M  V30 4670 H 446.526 2.2371 3.65584 0
M  V30 4671 H 450.71 3.20916 3.78585 0
M  V30 4672 H 445.966 4.60196 4.02529 0
M  V30 4673 H 450.14 5.57891 4.1681 0
M  V30 4674 H 447.767 6.27997 4.28396 0
M  V30 4675 N 449.342 -1.36122 0.79427 0
M  V30 4676 C 450.619 -1.93398 0.292685 0
M  V30 4677 C 450.999 -1.72567 -1.21589 0
M  V30 4678 O 450.347 -1.08745 -2.00965 0
M  V30 4679 C 450.557 -3.42099 0.690614 0
M  V30 4680 C 451.905 -4.19231 0.673105 0
M  V30 4681 O 452.929 -3.50559 0.631389 0
M  V30 4682 O 451.788 -5.41732 0.720362 0
M  V30 4683 H 448.882 -0.823712 0.0736693 0
M  V30 4684 H 451.428 -1.45273 0.87714 0
M  V30 4685 H 450.2 -3.50938 1.73085 0
M  V30 4686 H 449.823 -3.97519 0.0803036 0
M  V30 4687 N 450.82 -0.546701 -1.47814 0
M  V30 4688 C 451.767 0.206854 -2.29871 0
M  V30 4689 C 452.737 0.918235 -1.38411 0
M  V30 4690 O 453.922 0.915991 -1.67375 0
M  V30 4691 C 451.062 1.23746 -3.22151 0
M  V30 4692 C 450.175 0.533216 -4.28697 0
M  V30 4693 C 449.31 1.5482 -5.08138 0
M  V30 4694 C 448.349 0.828347 -6.06469 0
M  V30 4695 N 447.486 1.78966 -6.78908 0
M  V30 4696 H 452.326 -0.499037 -2.93792 0
M  V30 4697 H 449.863 -0.25793 -1.44821 0
M  V30 4698 H 451.821 1.84746 -3.74065 0
M  V30 4699 H 450.451 1.91151 -2.60117 0
M  V30 4700 H 449.503 -0.191089 -3.7992 0
M  V30 4701 H 450.815 -0.0311987 -4.9879 0
M  V30 4702 H 449.969 2.23202 -5.6415 0
M  V30 4703 H 448.708 2.14652 -4.37922 0
M  V30 4704 H 447.713 0.130539 -5.49645 0
M  V30 4705 H 448.938 0.235907 -6.7869 0
M  V30 4706 H 446.884 2.37675 -6.1143 0
M  V30 4707 H 446.801 1.27712 -7.45135 0
M  V30 4708 H 448.069 2.46496 -7.395 0
M  V30 4709 N 452.299 1.55045 -0.282633 0
M  V30 4710 C 453.529 2.03872 0.334635 0
M  V30 4711 C 453.937 1.16018 1.49454 0
M  V30 4712 O 453.28 0.174449 1.8287 0
M  V30 4713 C 453.342 3.48791 0.870905 0
M  V30 4714 C 453.006 4.56715 -0.161338 0
M  V30 4715 C 454.003 5.10513 -0.983466 0
M  V30 4716 C 451.688 5.01417 -0.297745 0
M  V30 4717 C 453.682 6.07538 -1.92811 0
M  V30 4718 C 451.369 5.98265 -1.24586 0
M  V30 4719 C 452.367 6.51208 -2.05954 0
M  V30 4720 O 452.055 7.46162 -2.99162 0
M  V30 4721 H 451.787 0.671324 0.0793742 0
M  V30 4722 H 454.341 2.01169 -0.41473 0
M  V30 4723 H 452.571 3.48758 1.67047 0
M  V30 4724 H 454.26 3.80916 1.40207 0
M  V30 4725 H 455.026 4.76785 -0.888856 0
M  V30 4726 H 450.905 4.59849 0.325604 0
M  V30 4727 H 454.449 6.48787 -2.56363 0
M  V30 4728 H 450.346 6.31412 -1.34126 0
M  V30 4729 H 451.114 7.63903 -2.93929 0
M  V30 4730 N 453.777 0.010035 1.57597 0
M  V30 4731 C 454.725 -0.996272 2.10184 0
M  V30 4732 C 455.719 -1.34942 1.02406 0
M  V30 4733 O 456.925 -1.33389 1.20861 0
M  V30 4734 H 453.3 -0.338982 0.671264 0
M  V30 4735 H 455.271 -0.527272 2.93705 0
M  V30 4736 C 454.02 -2.27599 2.62857 0
M  V30 4737 H 453.343 -2.01295 3.45428 0
M  V30 4738 H 454.783 -2.96265 3.0332 0
M  V30 4739 C 453.242 -2.99269 1.54725 0
M  V30 4740 O 453.772 -3.90644 0.93597 0
M  V30 4741 N 451.978 -2.61269 1.27228 0
M  V30 4742 H 451.525 -1.87043 1.77123 0
M  V30 4743 H 451.483 -3.09534 0.550999 0
M  V30 4744 N 455.255 -1.55392 -0.262866 0
M  V30 4745 C 456.203 -1.8977 -1.345 0
M  V30 4746 C 457.197 -0.775063 -1.50629 0
M  V30 4747 O 458.403 -0.959519 -1.52293 0
M  V30 4748 H 454.778 -0.602467 -0.450041 0
M  V30 4749 H 456.749 -2.80147 -1.02762 0
M  V30 4750 C 455.498 -2.19501 -2.69657 0
M  V30 4751 H 454.821 -3.05378 -2.5804 0
M  V30 4752 H 456.261 -2.47469 -3.44289 0
M  V30 4753 C 454.72 -1.00597 -3.21531 0
M  V30 4754 O 455.25 -0.245768 -4.00947 0
M  V30 4755 N 453.456 -0.800911 -2.79345 0
M  V30 4756 H 453.003 -1.42079 -2.14875 0
M  V30 4757 H 452.961 -0.00697996 -3.14399 0
M  V30 4758 N 456.733 0.527833 -1.48498 0
M  V30 4759 C 457.98 1.28354 -1.56625 0
M  V30 4760 C 458.308 1.93 -0.241096 0
M  V30 4761 O 457.563 1.79967 0.768798 0
M  V30 4762 C 457.862 2.39275 -2.65485 0
M  V30 4763 C 457.528 1.92268 -4.07853 0
M  V30 4764 C 456.19 1.79166 -4.46602 0
M  V30 4765 C 458.542 1.56771 -4.97064 0
M  V30 4766 C 455.87 1.28905 -5.72364 0
M  V30 4767 C 458.222 1.07972 -6.23318 0
M  V30 4768 C 456.886 0.934887 -6.60921 0
M  V30 4769 H 456.156 0.469682 -0.573131 0
M  V30 4770 H 458.803 0.588781 -1.82224 0
M  V30 4771 H 457.108 3.1443 -2.33754 0
M  V30 4772 H 458.805 2.974 -2.68988 0
M  V30 4773 H 455.395 2.03417 -3.77252 0
M  V30 4774 H 459.579 1.65753 -4.67803 0
M  V30 4775 H 454.835 1.16381 -6.00221 0
M  V30 4776 H 459.009 0.795775 -6.91838 0
M  V30 4777 H 456.636 0.543231 -7.58257 0
M  V30 4778 N 458.211 1.37122 0.776871 0
M  V30 4779 C 459.436 1.354 1.57104 0
M  V30 4780 C 459.861 -0.0595562 1.88006 0
M  V30 4781 O 459.219 -1.03514 1.48844 0
M  V30 4782 C 459.267 2.19472 2.8612 0
M  V30 4783 O 458.371 1.59582 3.80273 0
M  V30 4784 H 457.712 0.462869 0.476076 0
M  V30 4785 H 460.242 1.80577 0.961932 0
M  V30 4786 H 460.252 2.32502 3.35271 0
M  V30 4787 H 458.927 3.22222 2.62956 0
M  V30 4788 H 457.504 1.55564 3.38902 0
M  V30 4789 N 459.689 -1.00246 1.21608 0
M  V30 4790 C 460.914 -1.78167 1.06167 0
M  V30 4791 C 461.339 -1.84138 -0.384035 0
M  V30 4792 O 460.697 -1.28683 -1.27712 0
M  V30 4793 C 460.745 -3.19786 1.66642 0
M  V30 4794 O 459.849 -4.02153 0.913613 0
M  V30 4795 H 459.19 -0.549 0.37349 0
M  V30 4796 H 461.72 -1.25994 1.61204 0
M  V30 4797 H 461.73 -3.70451 1.70969 0
M  V30 4798 H 460.405 -3.14754 2.7185 0
M  V30 4799 H 458.982 -3.60711 0.945635 0
M  V30 4800 N 461.167 -1.02423 -1.1978 0
M  V30 4801 C 462.099 -0.559152 -2.22275 0
M  V30 4802 C 463.112 0.36251 -1.58713 0
M  V30 4803 O 464.301 0.159641 -1.77785 0
M  V30 4804 C 461.401 0.205094 -3.38279 0
M  V30 4805 C 460.574 -0.720361 -4.31427 0
M  V30 4806 C 459.633 -0.00234368 -5.262 0
M  V30 4807 O 458.659 -0.627378 -5.65732 0
M  V30 4808 N 459.861 1.26996 -5.66438 0
M  V30 4809 H 462.626 -1.44064 -2.62804 0
M  V30 4810 H 460.187 -0.902692 -1.34399 0
M  V30 4811 H 462.179 0.694868 -3.9869 0
M  V30 4812 H 460.749 0.987947 -2.96578 0
M  V30 4813 H 459.969 -1.39031 -3.68869 0
M  V30 4814 H 461.257 -1.3495 -4.90577 0
M  V30 4815 H 460.655 1.79858 -5.36347 0
M  V30 4816 H 459.212 1.70432 -6.29123 0
M  V30 4817 N 462.645 1.35699 -0.801477 0
M  V30 4818 C 463.893 1.9852 -0.37871 0
M  V30 4819 C 464.214 1.63907 1.05638 0
M  V30 4820 O 463.484 0.919013 1.73006 0
M  V30 4821 H 462.064 0.734322 -0.137042 0
M  V30 4822 H 464.726 1.65697 -1.02619 0
M  V30 4823 H 463.822 3.08382 -0.480284 0
M  V30 4824 N 464.123 0.554532 1.47522 0
M  V30 4825 C 465.086 -0.184174 2.28459 0
M  V30 4826 C 466.086 -0.845195 1.36796 0
M  V30 4827 O 467.276 -0.701467 1.59452 0
M  V30 4828 C 464.408 -1.26903 3.16399 0
M  V30 4829 H 465.601 0.526751 2.95238 0
M  V30 4830 H 463.154 0.311375 1.53167 0
M  V30 4831 H 463.889 -2.01244 2.54306 0
M  V30 4832 H 463.674 -0.799883 3.83854 0
M  V30 4833 H 465.164 -1.78794 3.77389 0
M  V30 4834 N 465.601 -1.54893 0.290851 0
M  V30 4835 C 466.831 -2.04047 -0.323818 0
M  V30 4836 C 467.239 -1.16809 -1.48837 0
M  V30 4837 O 466.582 -0.184145 -1.82775 0
M  V30 4838 C 466.644 -3.49248 -0.852395 0
M  V30 4839 C 466.308 -4.56623 0.185557 0
M  V30 4840 C 467.305 -5.09985 1.01053 0
M  V30 4841 C 464.99 -5.01252 0.324332 0
M  V30 4842 C 466.984 -6.06507 1.96031 0
M  V30 4843 C 464.671 -5.97596 1.27757 0
M  V30 4844 C 465.669 -6.50107 2.09405 0
M  V30 4845 O 465.357 -7.44565 3.03114 0
M  V30 4846 H 465.089 -0.671735 -0.0758129 0
M  V30 4847 H 467.643 -2.00947 0.425393 0
M  V30 4848 H 465.873 -3.49639 -1.65195 0
M  V30 4849 H 467.562 -3.81654 -1.38185 0
M  V30 4850 H 468.328 -4.76307 0.914129 0
M  V30 4851 H 464.207 -4.60015 -0.301213 0
M  V30 4852 H 467.751 -6.47418 2.598 0
M  V30 4853 H 463.648 -6.30691 1.37473 0
M  V30 4854 H 464.416 -7.62334 2.97976 0
M  V30 4855 N 467.08 -0.0183926 -1.57589 0
M  V30 4856 C 467.99 0.982943 -2.13015 0
M  V30 4857 C 469.006 1.36443 -1.07979 0
M  V30 4858 O 470.182 1.44802 -1.3998 0
M  V30 4859 C 467.247 2.25024 -2.63752 0
M  V30 4860 C 466.308 1.93018 -3.83461 0
M  V30 4861 C 465.541 3.13706 -4.31769 0
M  V30 4862 O 465.764 4.2601 -3.79305 0
M  V30 4863 O 464.698 2.96629 -5.23732 0
M  V30 4864 H 468.524 0.541709 -2.9883 0
M  V30 4865 H 466.109 0.201565 -1.48034 0
M  V30 4866 H 467.991 2.99441 -2.96502 0
M  V30 4867 H 466.666 2.68349 -1.81026 0
M  V30 4868 H 465.573 1.16019 -3.55655 0
M  V30 4869 H 466.906 1.54516 -4.67317 0
M  V30 4870 N 468.558 1.5553 0.254621 0
M  V30 4871 C 469.783 1.81383 1.00573 0
M  V30 4872 C 470.208 0.594419 1.78461 0
M  V30 4873 O 469.566 -0.456403 1.75461 0
M  V30 4874 C 469.614 3.04892 1.92545 0
M  V30 4875 O 468.718 2.81266 3.01601 0
M  V30 4876 H 468.059 0.598969 0.286587 0
M  V30 4877 H 470.589 2.02703 0.277952 0
M  V30 4878 H 470.599 3.34119 2.34155 0
M  V30 4879 H 469.274 3.93287 1.3527 0
M  V30 4880 H 467.851 2.63185 2.64174 0
M  V30 4881 N 470.036 -0.519951 1.48776 0
M  V30 4882 C 470.968 -1.63973 1.60142 0
M  V30 4883 C 471.981 -1.55404 0.485117 0
M  V30 4884 O 473.17 -1.61682 0.756391 0
M  V30 4885 C 470.27 -3.02676 1.52449 0
M  V30 4886 C 469.443 -3.36624 2.79291 0
M  V30 4887 C 468.502 -4.54652 2.64912 0
M  V30 4888 O 467.528 -4.57374 3.38818 0
M  V30 4889 N 468.73 -5.53432 1.75195 0
M  V30 4890 H 471.495 -1.54656 2.56713 0
M  V30 4891 H 469.056 -0.707439 1.45626 0
M  V30 4892 H 471.048 -3.79525 1.4051 0
M  V30 4893 H 469.618 -3.06018 0.638125 0
M  V30 4894 H 468.838 -2.48855 3.0572 0
M  V30 4895 H 470.126 -3.56094 3.6342 0
M  V30 4896 H 469.524 -5.54018 1.14371 0
M  V30 4897 H 468.081 -6.29459 1.69189 0
M  V30 4898 N 471.514 -1.37532 -0.769588 0
M  V30 4899 C 472.739 -1.36231 -1.56384 0
M  V30 4900 C 473.164 0.0495849 -1.88035 0
M  V30 4901 O 472.522 1.02723 -1.49391 0
M  V30 4902 C 472.57 -2.20986 -2.84952 0
M  V30 4903 O 471.674 -1.61597 -3.79421 0
M  V30 4904 H 471.015 -0.465387 -0.473615 0
M  V30 4905 H 473.545 -1.81085 -0.952342 0
M  V30 4906 H 473.555 -2.34277 -3.34034 0
M  V30 4907 H 472.23 -3.23612 -2.61243 0
M  V30 4908 H 470.807 -1.57359 -3.38072 0
M  V30 4909 N 472.992 0.995999 -1.22138 0
M  V30 4910 C 474.217 1.77601 -1.0711 0
M  V30 4911 C 474.642 1.84339 0.374264 0
M  V30 4912 O 474 1.29359 1.27028 0
M  V30 4913 C 474.048 3.18897 -1.68336 0
M  V30 4914 O 473.152 4.01663 -0.934928 0
M  V30 4915 H 472.493 0.547011 -0.376397 0
M  V30 4916 H 475.023 1.25137 -1.6187 0
M  V30 4917 H 475.033 3.69539 -1.72931 0
M  V30 4918 H 473.708 3.13308 -2.73516 0
M  V30 4919 H 472.285 3.60204 -0.964751 0
M  V30 4920 N 474.47 1.03057 1.19235 0
M  V30 4921 C 475.881 0.757449 1.70645 0
M  V30 4922 C 476.232 -0.722735 1.82403 0
M  V30 4923 O 475.357 -1.56325 1.49638 0
M  V30 4924 C 475.952 1.36833 3.09939 0
M  V30 4925 C 474.511 1.14375 3.58602 0
M  V30 4926 C 473.658 1.46533 2.35422 0
M  V30 4927 H 476.609 1.19828 1.04052 0
M  V30 4928 H 476.63 0.766184 3.72706 0
M  V30 4929 H 476.142 2.44562 3.01349 0
M  V30 4930 H 474.243 0.0847542 3.72504 0
M  V30 4931 H 474.356 1.83366 4.42622 0
M  V30 4932 H 472.72 0.884712 2.38841 0
M  V30 4933 H 473.503 2.55349 2.2946 0
M  V30 4934 N 475.948 -1.35272 0.808662 0
M  V30 4935 C 477.194 -1.99434 0.399717 0
M  V30 4936 C 477.549 -1.62992 -1.02232 0
M  V30 4937 O 476.842 -0.884091 -1.69983 0
M  V30 4938 C 477.036 -3.53556 0.522798 0
M  V30 4939 C 476.865 -4.04969 1.95525 0
M  V30 4940 C 475.635 -4.34228 2.58407 0
M  V30 4941 C 477.833 -4.23362 2.92009 0
M  V30 4942 N 475.815 -4.71585 3.93041 0
M  V30 4943 C 477.186 -4.63739 4.11517 0
M  V30 4944 C 479.241 -4.05576 2.88813 0
M  V30 4945 C 477.944 -4.88189 5.28265 0
M  V30 4946 C 479.97 -4.31184 4.04765 0
M  V30 4947 C 479.332 -4.71834 5.23022 0
M  V30 4948 H 475.431 -0.757534 0.19408 0
M  V30 4949 H 478.015 -1.63939 1.05034 0
M  V30 4950 H 476.186 -3.88277 -0.0978471 0
M  V30 4951 H 477.918 -4.04604 0.0882378 0
M  V30 4952 H 474.673 -4.24621 2.09747 0
M  V30 4953 H 475.097 -4.9452 4.62363 0
M  V30 4954 H 479.739 -3.73288 1.98535 0
M  V30 4955 H 477.457 -5.1935 6.19113 0
M  V30 4956 H 481.043 -4.18972 4.03675 0
M  V30 4957 H 479.923 -4.91263 6.11253 0
M  V30 4958 N 477.426 -0.562348 -1.47226 0
M  V30 4959 C 478.656 -0.0451619 -2.06551 0
M  V30 4960 C 479.064 1.25626 -1.41473 0
M  V30 4961 O 478.407 1.76563 -0.507061 0
M  V30 4962 C 478.469 0.216068 -3.5885 0
M  V30 4963 C 478.133 -0.996691 -4.45999 0
M  V30 4964 C 479.13 -1.90358 -4.83797 0
M  V30 4965 C 476.815 -1.21281 -4.87438 0
M  V30 4966 C 478.809 -3.01023 -5.6184 0
M  V30 4967 C 476.496 -2.32255 -5.65244 0
M  V30 4968 C 477.494 -3.21956 -6.02356 0
M  V30 4969 O 477.182 -4.31005 -6.78594 0
M  V30 4970 H 476.914 -0.0451646 -0.67449 0
M  V30 4971 H 479.468 -0.776842 -1.90143 0
M  V30 4972 H 477.698 1.00212 -3.7349 0
M  V30 4973 H 479.387 0.679264 -4.00176 0
M  V30 4974 H 480.153 -1.74868 -4.52378 0
M  V30 4975 H 476.032 -0.523767 -4.58015 0
M  V30 4976 H 479.576 -3.71064 -5.90726 0
M  V30 4977 H 475.473 -2.47715 -5.96077 0
M  V30 4978 H 476.241 -4.29118 -6.96994 0
M  V30 4979 N 478.904 1.54736 -0.299062 0
M  V30 4980 C 479.852 2.24897 0.593658 0
M  V30 4981 C 480.846 1.25429 1.13859 0
M  V30 4982 O 482.052 1.43286 1.08945 0
M  V30 4983 H 478.427 0.72207 0.210046 0
M  V30 4984 H 480.398 2.98393 -0.0206421 0
M  V30 4985 C 479.147 3.00159 1.75499 0
M  V30 4986 H 478.47 3.76501 1.34489 0
M  V30 4987 H 479.91 3.52535 2.35574 0
M  V30 4988 C 478.369 2.07015 2.65794 0
M  V30 4989 O 478.899 1.63692 3.66835 0
M  V30 4990 N 477.105 1.73012 2.33485 0
M  V30 4991 H 476.652 2.08439 1.51364 0
M  V30 4992 H 476.61 1.10965 2.94167 0
M  V30 4993 N 480.382 0.0267497 1.57577 0
M  V30 4994 C 481.612 -0.6617 1.95717 0
M  V30 4995 C 482.02 -1.66331 0.901706 0
M  V30 4996 O 481.363 -1.83273 -0.125241 0
M  V30 4997 C 481.425 -1.42649 3.29987 0
M  V30 4998 C 481.089 -0.583482 4.5326 0
M  V30 4999 C 482.086 0.140221 5.19711 0
M  V30 5000 C 479.771 -0.521581 4.99585 0
M  V30 5001 C 481.765 0.914523 6.30805 0
M  V30 5002 C 479.452 0.256428 6.10562 0
M  V30 5003 C 480.45 0.973189 6.76031 0
M  V30 5004 O 480.138 1.73845 7.84878 0
M  V30 5005 H 479.87 -0.187483 0.649481 0
M  V30 5006 H 482.424 0.0820847 2.05236 0
M  V30 5007 H 480.654 -2.21536 3.16952 0
M  V30 5008 H 482.343 -2.00282 3.53047 0
M  V30 5009 H 483.109 0.101716 4.84893 0
M  V30 5010 H 478.988 -1.06904 4.48433 0
M  V30 5011 H 482.532 1.4745 6.81839 0
M  V30 5012 H 478.429 0.296657 6.44818 0
M  V30 5013 H 479.197 1.65797 8.01532 0
M  V30 5014 N 481.861 -1.55662 -0.24637 0
M  V30 5015 C 483.091 -1.81312 -0.990438 0
M  V30 5016 C 483.499 -0.600234 -1.79426 0
M  V30 5017 O 482.842 0.440537 -1.78339 0
M  V30 5018 C 482.904 -3.0032 -1.97607 0
M  V30 5019 C 482.568 -4.36322 -1.35912 0
M  V30 5020 C 483.565 -5.14295 -0.761348 0
M  V30 5021 C 481.25 -4.83019 -1.37833 0
M  V30 5022 C 483.244 -6.37114 -0.190998 0
M  V30 5023 C 480.931 -6.05786 -0.804128 0
M  V30 5024 C 481.929 -6.82672 -0.211489 0
M  V30 5025 O 481.617 -8.03121 0.353845 0
M  V30 5026 H 481.349 -0.607233 -0.297058 0
M  V30 5027 H 483.903 -2.0356 -0.274351 0
M  V30 5028 H 482.133 -2.73829 -2.73047 0
M  V30 5029 H 483.822 -3.13057 -2.58361 0
M  V30 5030 H 484.588 -4.79337 -0.739013 0
M  V30 5031 H 480.467 -4.23165 -1.829 0
M  V30 5032 H 484.011 -6.97069 0.272206 0
M  V30 5033 H 479.908 -6.40222 -0.823792 0
M  V30 5034 H 480.676 -8.18131 0.245761 0
M  V30 5035 N 483.339 0.512053 -1.4905 0
M  V30 5036 C 484.567 1.29116 -1.61669 0
M  V30 5037 C 484.982 1.86655 -0.283787 0
M  V30 5038 O 484.339 1.67293 0.729331 0
M  V30 5039 C 484.39 2.4293 -2.67707 0
M  V30 5040 O 484.111 1.87758 -3.95826 0
M  V30 5041 C 485.612 3.34476 -2.90931 0
M  V30 5042 H 482.832 0.392009 -0.544583 0
M  V30 5043 H 485.376 0.615881 -1.95006 0
M  V30 5044 H 483.531 3.06308 -2.37179 0
M  V30 5045 H 483.945 2.62393 -4.54148 0
M  V30 5046 H 485.419 4.10642 -3.68886 0
M  V30 5047 H 485.896 3.90801 -2.00427 0
M  V30 5048 H 486.502 2.76874 -3.22832 0
M  V30 5049 N 484.817 1.37938 0.762283 0
M  V30 5050 C 486.064 1.33668 1.52115 0
M  V30 5051 C 486.392 -0.0759538 1.94352 0
M  V30 5052 O 485.647 -1.05121 1.6507 0
M  V30 5053 C 485.946 2.23042 2.79261 0
M  V30 5054 C 485.612 3.71159 2.56031 0
M  V30 5055 C 484.274 4.11523 2.49404 0
M  V30 5056 C 486.626 4.64955 2.35513 0
M  V30 5057 C 483.954 5.43784 2.20263 0
M  V30 5058 C 486.306 5.97464 2.07894 0
M  V30 5059 C 484.97 6.36922 1.99718 0
M  V30 5060 H 484.24 0.489127 0.556629 0
M  V30 5061 H 486.887 1.70224 0.877262 0
M  V30 5062 H 485.192 1.79512 3.48256 0
M  V30 5063 H 486.889 2.17047 3.37182 0
M  V30 5064 H 483.479 3.39153 2.62056 0
M  V30 5065 H 487.663 4.34623 2.39617 0
M  V30 5066 H 482.919 5.73307 2.12435 0
M  V30 5067 H 487.093 6.6969 1.91019 0
M  V30 5068 H 484.72 7.39331 1.76902 0
M  V30 5069 N 486.295 -0.989507 1.22664 0
M  V30 5070 C 487.525 -1.7624 1.0781 0
M  V30 5071 C 487.933 -1.85466 -0.374036 0
M  V30 5072 O 487.276 -1.32645 -1.27087 0
M  V30 5073 C 487.338 -3.21007 1.61849 0
M  V30 5074 C 487.002 -3.35316 3.10503 0
M  V30 5075 C 487.999 -3.22362 4.07896 0
M  V30 5076 C 485.684 -3.60258 3.50028 0
M  V30 5077 C 487.678 -3.34139 5.42798 0
M  V30 5078 C 485.365 -3.71676 4.85078 0
M  V30 5079 C 486.363 -3.58625 5.81272 0
M  V30 5080 O 486.051 -3.69655 7.1387 0
M  V30 5081 H 485.783 -0.560209 0.378341 0
M  V30 5082 H 488.337 -1.25252 1.62792 0
M  V30 5083 H 486.567 -3.73202 1.01279 0
M  V30 5084 H 488.256 -3.80024 1.42606 0
M  V30 5085 H 489.022 -3.03 3.78703 0
M  V30 5086 H 484.901 -3.69492 2.75675 0
M  V30 5087 H 488.445 -3.23869 6.17863 0
M  V30 5088 H 484.342 -3.90545 5.1395 0
M  V30 5089 H 485.11 -3.86507 7.21495 0
M  V30 5090 N 487.773 -1.03688 -1.18687 0
M  V30 5091 C 489.001 -0.757918 -1.92518 0
M  V30 5092 C 489.416 0.684398 -1.75959 0
M  V30 5093 O 488.773 1.46617 -1.08673 0
M  V30 5094 C 488.824 -1.10985 -3.44042 0
M  V30 5095 O 488.545 -2.49554 -3.60076 0
M  V30 5096 C 490.046 -0.854844 -4.3498 0
M  V30 5097 H 487.266 -0.276699 -0.611293 0
M  V30 5098 H 489.81 -1.38352 -1.50595 0
M  V30 5099 H 487.965 -0.529279 -3.83767 0
M  V30 5100 H 488.379 -2.6291 -4.53849 0
M  V30 5101 H 489.853 -1.15098 -5.39867 0
M  V30 5102 H 490.33 0.210507 -4.38695 0
M  V30 5103 H 490.936 -1.41853 -4.00946 0
M  V30 5104 N 489.251 1.34841 -0.815825 0
M  V30 5105 C 490.497 1.99219 -0.410288 0
M  V30 5106 C 490.852 1.63532 1.01366 0
M  V30 5107 O 490.145 0.893093 1.69512 0
M  V30 5108 C 490.339 3.53273 -0.541541 0
M  V30 5109 C 490.168 4.03927 -1.9767 0
M  V30 5110 C 488.938 4.32852 -2.60706 0
M  V30 5111 C 491.136 4.21808 -2.9425 0
M  V30 5112 N 489.118 4.69494 -3.95536 0
M  V30 5113 C 490.489 4.6155 -4.13971 0
M  V30 5114 C 492.544 4.04038 -2.9096 0
M  V30 5115 C 491.247 4.85381 -5.30847 0
M  V30 5116 C 493.273 4.29031 -4.07046 0
M  V30 5117 C 492.635 4.69054 -5.25517 0
M  V30 5118 H 488.734 0.756494 -0.198094 0
M  V30 5119 H 491.318 1.63379 -1.05902 0
M  V30 5120 H 489.489 3.88323 0.0772544 0
M  V30 5121 H 491.221 4.04551 -0.109694 0
M  V30 5122 H 487.976 4.23503 -2.11995 0
M  V30 5123 H 488.4 4.92061 -4.64979 0
M  V30 5124 H 493.042 3.7223 -2.00512 0
M  V30 5125 H 490.76 5.16059 -6.21859 0
M  V30 5126 H 494.346 4.16826 -4.05891 0
M  V30 5127 H 493.226 4.88014 -6.1385 0
M  V30 5128 N 490.729 0.570148 1.46925 0
M  V30 5129 C 492.14 0.1402 1.86173 0
M  V30 5130 C 492.491 -1.29347 1.47526 0
M  V30 5131 O 491.616 -1.97508 0.884292 0
M  V30 5132 C 492.211 0.247661 3.37894 0
M  V30 5133 C 490.77 -0.127332 3.76185 0
M  V30 5134 C 489.917 0.589349 2.70965 0
M  V30 5135 H 492.868 0.779117 1.38259 0
M  V30 5136 H 492.889 -0.530341 3.76786 0
M  V30 5137 H 492.401 1.29121 3.65991 0
M  V30 5138 H 490.502 -1.17149 3.53704 0
M  V30 5139 H 490.615 0.240238 4.78497 0
M  V30 5140 H 488.979 0.0309824 2.54681 0
M  V30 5141 H 489.762 1.6343 3.01903 0
M  V30 5142 N 492.207 -1.54576 0.307264 0
M  V30 5143 C 493.484 -1.92377 -0.353605 0
M  V30 5144 C 493.864 -1.23517 -1.71192 0
M  V30 5145 O 493.212 -0.373101 -2.25433 0
M  V30 5146 C 493.422 -3.45928 -0.462039 0
M  V30 5147 C 494.77 -4.18278 -0.729975 0
M  V30 5148 O 495.794 -3.51997 -0.545605 0
M  V30 5149 O 494.653 -5.3563 -1.08454 0
M  V30 5150 H 491.747 -0.802747 -0.198812 0
M  V30 5151 H 494.293 -1.65929 0.355783 0
M  V30 5152 H 493.065 -3.88187 0.492592 0
M  V30 5153 H 492.688 -3.78431 -1.21965 0
M  V30 5154 N 493.685 -0.035106 -1.57561 0
M  V30 5155 C 494.91 0.655802 -1.96759 0
M  V30 5156 C 495.335 1.64523 -0.911809 0
M  V30 5157 O 494.693 1.80857 0.126673 0
M  V30 5158 C 494.741 1.33326 -3.35047 0
M  V30 5159 O 493.845 2.44866 -3.31835 0
M  V30 5160 H 493.186 0.171807 -0.641388 0
M  V30 5161 H 495.716 -0.0987369 -2.04362 0
M  V30 5162 H 495.726 1.68867 -3.71413 0
M  V30 5163 H 494.401 0.608033 -4.11431 0
M  V30 5164 H 492.978 2.11392 -3.07193 0
M  V30 5165 N 495.163 1.55791 0.238111 0
M  V30 5166 C 496.393 1.81834 0.980809 0
M  V30 5167 C 496.801 0.609741 1.79106 0
M  V30 5168 O 496.144 -0.431073 1.78571 0
M  V30 5169 C 496.206 3.01363 1.96011 0
M  V30 5170 C 495.87 4.37037 1.33597 0
M  V30 5171 C 496.867 5.14692 0.734063 0
M  V30 5172 C 494.552 4.83743 1.3527 0
M  V30 5173 C 496.546 6.37206 0.157208 0
M  V30 5174 C 494.233 6.06204 0.77199 0
M  V30 5175 C 495.231 6.82775 0.175282 0
M  V30 5176 O 494.919 8.02922 -0.396432 0
M  V30 5177 H 494.651 0.6088 0.293834 0
M  V30 5178 H 497.205 2.03702 0.263552 0
M  V30 5179 H 495.435 2.75273 2.71591 0
M  V30 5180 H 497.124 3.14422 2.56697 0
M  V30 5181 H 497.89 4.79722 0.713582 0
M  V30 5182 H 493.769 4.24129 1.80653 0
M  V30 5183 H 497.313 6.96915 -0.30917 0
M  V30 5184 H 493.21 6.4065 0.789828 0
M  V30 5185 H 493.978 8.17989 -0.289145 0
M  V30 5186 N 496.642 -0.504142 1.49319 0
M  V30 5187 C 497.605 -1.5883 1.65244 0
M  V30 5188 C 498.605 -1.52009 0.524386 0
M  V30 5189 O 499.795 -1.55218 0.79077 0
M  V30 5190 C 496.927 -2.98481 1.64687 0
M  V30 5191 H 498.12 -1.4604 2.61939 0
M  V30 5192 H 495.673 -0.728144 1.38303 0
M  V30 5193 H 496.408 -3.16751 0.695644 0
M  V30 5194 H 496.193 -3.0484 2.46607 0
M  V30 5195 H 497.683 -3.77256 1.79075 0
M  V30 5196 N 498.12 -1.38341 -0.754957 0
M  V30 5197 C 499.345 -1.37882 -1.5493 0
M  V30 5198 C 499.77 0.0296385 -1.88077 0
M  V30 5199 O 499.128 1.01133 -1.50472 0
M  V30 5200 C 499.176 -2.23996 -2.82592 0
M  V30 5201 O 498.28 -1.65612 -3.77686 0
M  V30 5202 H 497.621 -0.470384 -0.468652 0
M  V30 5203 H 500.151 -1.82084 -0.933082 0
M  V30 5204 H 500.161 -2.37806 -3.3153 0
M  V30 5205 H 498.836 -3.26365 -2.57796 0
M  V30 5206 H 497.413 -1.60936 -3.36384 0
M  V30 5207 N 499.598 0.982988 -1.23187 0
M  V30 5208 C 500.845 1.72392 -1.06241 0
M  V30 5209 C 501.173 1.9032 0.40108 0
M  V30 5210 O 500.428 1.45084 1.31336 0
M  V30 5211 C 500.727 3.12736 -1.73006 0
M  V30 5212 C 500.393 3.14695 -3.22921 0
M  V30 5213 C 499.055 3.14937 -3.63824 0
M  V30 5214 C 501.407 3.10211 -4.1883 0
M  V30 5215 C 498.735 3.08408 -4.99101 0
M  V30 5216 C 501.087 3.05224 -5.54095 0
M  V30 5217 C 499.751 3.03787 -5.94365 0
M  V30 5218 H 499.021 0.630829 -0.388762 0
M  V30 5219 H 501.668 1.15053 -1.53085 0
M  V30 5220 H 499.973 3.73446 -1.18514 0
M  V30 5221 H 501.67 3.68828 -1.57374 0
M  V30 5222 H 498.26 3.15262 -2.90358 0
M  V30 5223 H 502.444 3.09166 -3.8824 0
M  V30 5224 H 497.7 3.05646 -5.29519 0
M  V30 5225 H 501.874 3.00712 -6.28128 0
M  V30 5226 H 499.501 2.98483 -6.99151 0
M  V30 5227 N 501.076 1.04316 1.18135 0
M  V30 5228 C 502.006 0.657299 2.24058 0
M  V30 5229 C 502.987 -0.340678 1.66654 0
M  V30 5230 O 504.172 -0.220223 1.92947 0
M  V30 5231 C 501.302 0.0220715 3.47293 0
M  V30 5232 C 500.256 0.943857 4.17463 0
M  V30 5233 C 499.582 0.172973 5.3442 0
M  V30 5234 C 500.882 2.26409 4.70677 0
M  V30 5235 H 502.576 1.5428 2.56589 0
M  V30 5236 H 500.122 0.743263 1.23335 0
M  V30 5237 H 502.075 -0.259607 4.206 0
M  V30 5238 H 500.799 -0.898323 3.14003 0
M  V30 5239 H 499.458 1.20996 3.46057 0
M  V30 5240 H 499.106 -0.749907 4.97379 0
M  V30 5241 H 498.806 0.787098 5.82304 0
M  V30 5242 H 500.33 -0.101628 6.10515 0
M  V30 5243 H 501.744 2.04294 5.35665 0
M  V30 5244 H 500.141 2.8314 5.29105 0
M  V30 5245 H 501.211 2.90883 3.87962 0
M  V30 5246 N 502.554 -1.34406 0.822964 0
M  V30 5247 C 503.802 -1.97892 0.410245 0
M  V30 5248 C 504.123 -1.65567 -1.03017 0
M  V30 5249 O 503.393 -0.94642 -1.71522 0
M  V30 5250 H 501.973 -0.732049 0.148707 0
M  V30 5251 H 504.635 -1.64043 1.05242 0
M  V30 5252 H 503.731 -3.07579 0.529284 0
M  V30 5253 N 504.032 -0.577932 -1.46621 0
M  V30 5254 C 505.279 -0.0616879 -2.02406 0
M  V30 5255 C 505.607 1.29638 -1.44997 0
M  V30 5256 O 504.862 1.86176 -0.60308 0
M  V30 5257 C 505.161 0.0590832 -3.57351 0
M  V30 5258 C 504.827 -1.23077 -4.33777 0
M  V30 5259 C 503.489 -1.58416 -4.54376 0
M  V30 5260 C 505.841 -2.08457 -4.77698 0
M  V30 5261 C 503.169 -2.78943 -5.16147 0
M  V30 5262 C 505.521 -3.28204 -5.408 0
M  V30 5263 C 504.185 -3.63832 -5.59627 0
M  V30 5264 H 503.455 -0.0225732 -0.740656 0
M  V30 5265 H 506.102 -0.753609 -1.76048 0
M  V30 5266 H 504.407 0.834104 -3.82818 0
M  V30 5267 H 506.104 0.474202 -3.98186 0
M  V30 5268 H 502.694 -0.945652 -4.18038 0
M  V30 5269 H 506.878 -1.82459 -4.61544 0
M  V30 5270 H 502.134 -3.06689 -5.28916 0
M  V30 5271 H 506.308 -3.94634 -5.73792 0
M  V30 5272 H 503.935 -4.57315 -6.07262 0
M  V30 5273 N 505.51 1.54411 -0.315457 0
M  V30 5274 C 506.458 2.25514 0.569771 0
M  V30 5275 C 507.452 1.2663 1.12522 0
M  V30 5276 O 508.658 1.44434 1.07419 0
M  V30 5277 H 505.033 0.724257 0.202376 0
M  V30 5278 H 507.004 2.98354 -0.0522895 0
M  V30 5279 C 505.753 3.02004 1.72305 0
M  V30 5280 H 505.076 3.77906 1.30488 0
M  V30 5281 H 506.516 3.55014 2.31821 0
M  V30 5282 C 504.975 2.09822 2.63583 0
M  V30 5283 O 505.505 1.67574 3.65078 0
M  V30 5284 N 503.711 1.75478 2.31637 0
M  V30 5285 H 503.258 2.10032 1.49145 0
M  V30 5286 H 503.216 1.14079 2.92973 0
M  V30 5287 N 506.988 0.0434614 1.5754 0
M  V30 5288 C 508.213 -0.645358 1.97104 0
M  V30 5289 C 508.638 -1.64037 0.920521 0
M  V30 5290 O 507.996 -1.80922 -0.11708 0
M  V30 5291 C 508.044 -1.31547 3.35749 0
M  V30 5292 O 507.148 -2.43103 3.33129 0
M  V30 5293 H 506.489 -0.168403 0.64229 0
M  V30 5294 H 509.019 0.109573 2.04306 0
M  V30 5295 H 509.029 -1.66895 3.72304 0
M  V30 5296 H 507.704 -0.586205 4.11748 0
M  V30 5297 H 506.281 -2.0976 3.0831 0
M  V30 5298 N 508.466 -1.55915 -0.229846 0
M  V30 5299 C 509.396 -1.94754 -1.28815 0
M  V30 5300 C 510.377 -0.814657 -1.49323 0
M  V30 5301 O 511.562 -1.07631 -1.61645 0
M  V30 5302 C 508.692 -2.25705 -2.63959 0
M  V30 5303 C 507.646 -3.41406 -2.5812 0
M  V30 5304 C 506.972 -3.57941 -3.97218 0
M  V30 5305 C 508.272 -4.76616 -2.13623 0
M  V30 5306 H 509.966 -2.83404 -0.965547 0
M  V30 5307 H 507.512 -1.36353 -0.463028 0
M  V30 5308 H 509.465 -2.51467 -3.38146 0
M  V30 5309 H 508.189 -1.339 -2.9789 0
M  V30 5310 H 506.848 -3.1568 -1.86391 0
M  V30 5311 H 506.496 -2.63526 -4.28443 0
M  V30 5312 H 506.196 -4.35757 -3.94195 0
M  V30 5313 H 507.72 -3.86042 -4.73079 0
M  V30 5314 H 509.134 -5.01637 -2.77549 0
M  V30 5315 H 507.531 -5.57655 -2.21677 0
M  V30 5316 H 508.601 -4.7253 -1.08829 0
M  V30 5317 N 509.944 0.496216 -1.49584 0
M  V30 5318 C 511.355 1.07765 -1.52459 0
M  V30 5319 C 511.706 1.93679 -0.31353 0
M  V30 5320 O 510.831 2.08588 0.576186 0
M  V30 5321 C 511.426 1.96111 -2.76271 0
M  V30 5322 C 509.985 2.49409 -2.81908 0
M  V30 5323 C 509.132 1.27142 -2.46435 0
M  V30 5324 H 512.083 0.279914 -1.56212 0
M  V30 5325 H 512.104 2.80862 -2.56704 0
M  V30 5326 H 511.616 1.33555 -3.64396 0
M  V30 5327 H 509.717 3.1559 -1.98074 0
M  V30 5328 H 509.83 2.86234 -3.84196 0
M  V30 5329 H 508.194 1.59818 -1.98319 0
M  V30 5330 H 508.977 0.662866 -3.3684 0
M  V30 5331 N 511.423 1.38739 0.74761 0
M  V30 5332 C 512.37 1.36449 1.86146 0
M  V30 5333 C 513.34 0.226098 1.64554 0
M  V30 5334 O 514.525 0.41926 1.86137 0
M  V30 5335 C 511.665 1.2013 3.23516 0
M  V30 5336 C 510.778 2.43407 3.56899 0
M  V30 5337 C 509.913 2.19773 4.83605 0
M  V30 5338 C 508.952 3.3879 5.09792 0
M  V30 5339 N 508.089 3.14553 6.27695 0
M  V30 5340 H 512.929 2.3167 1.87438 0
M  V30 5341 H 510.466 1.15094 0.916063 0
M  V30 5342 H 512.424 1.08683 4.02795 0
M  V30 5343 H 511.054 0.285453 3.21535 0
M  V30 5344 H 510.106 2.65504 2.72418 0
M  V30 5345 H 511.418 3.32094 3.72176 0
M  V30 5346 H 510.572 2.05496 5.70838 0
M  V30 5347 H 509.311 1.28461 4.70478 0
M  V30 5348 H 508.316 3.53579 4.21025 0
M  V30 5349 H 509.541 4.30986 5.24812 0
M  V30 5350 H 507.487 2.25893 6.1588 0
M  V30 5351 H 507.404 3.96791 6.435 0
M  V30 5352 H 508.672 3.03943 7.17801 0
M  V30 5353 N 512.901 -0.976442 1.23707 0
M  V30 5354 C 513.831 -2.08749 1.04624 0
M  V30 5355 C 514.812 -1.70057 -0.0380956 0
M  V30 5356 O 515.997 -1.93782 0.127308 0
M  V30 5357 C 513.127 -3.41335 0.640902 0
M  V30 5358 C 512.081 -3.93947 1.67302 0
M  V30 5359 C 511.407 -5.22774 1.12301 0
M  V30 5360 C 512.707 -4.22769 3.06697 0
M  V30 5361 H 514.401 -2.24972 1.97555 0
M  V30 5362 H 511.947 -1.08108 0.951247 0
M  V30 5363 H 513.9 -4.18489 0.494434 0
M  V30 5364 H 512.624 -3.24988 -0.324099 0
M  V30 5365 H 511.283 -3.18941 1.80755 0
M  V30 5366 H 510.931 -5.0278 0.148877 0
M  V30 5367 H 510.631 -5.58942 1.81267 0
M  V30 5368 H 512.155 -6.02546 0.988479 0
M  V30 5369 H 513.569 -4.90659 2.96524 0
M  V30 5370 H 511.966 -4.70147 3.72937 0
M  V30 5371 H 513.036 -3.29885 3.55392 0
M  V30 5372 N 514.379 -1.04941 -1.1758 0
M  V30 5373 C 515.327 -0.64204 -2.23563 0
M  V30 5374 C 516.321 0.335453 -1.66045 0
M  V30 5375 O 517.527 0.20179 -1.78865 0
M  V30 5376 H 513.902 -0.18944 -0.727748 0
M  V30 5377 H 515.873 -1.54609 -2.55223 0
M  V30 5378 C 514.622 -0.0301051 -3.47687 0
M  V30 5379 H 513.945 -0.773339 -3.92249 0
M  V30 5380 H 515.385 0.217592 -4.23441 0
M  V30 5381 C 513.844 1.2225 -3.13937 0
M  V30 5382 O 514.374 2.3122 -3.28482 0
M  V30 5383 N 512.58 1.11917 -2.68185 0
M  V30 5384 H 512.127 0.232403 -2.5655 0
M  V30 5385 H 512.085 1.95814 -2.45976 0
M  V30 5386 N 515.857 1.33968 -0.830081 0
M  V30 5387 C 517.087 2.01987 -0.434142 0
M  V30 5388 C 517.495 1.62639 0.96671 0
M  V30 5389 O 516.838 0.831151 1.63822 0
M  V30 5390 C 516.9 3.5648 -0.465018 0
M  V30 5391 C 516.564 4.19176 -1.82045 0
M  V30 5392 C 517.561 4.39181 -2.78237 0
M  V30 5393 C 515.246 4.55792 -2.11089 0
M  V30 5394 C 517.24 4.94937 -4.01642 0
M  V30 5395 C 514.927 5.11258 -3.34752 0
M  V30 5396 C 515.925 5.30775 -4.29845 0
M  V30 5397 O 515.613 5.85064 -5.51322 0
M  V30 5398 H 515.345 0.653847 -0.171639 0
M  V30 5399 H 517.899 1.72066 -1.12171 0
M  V30 5400 H 516.129 3.8569 0.279284 0
M  V30 5401 H 517.818 4.05804 -0.0881334 0
M  V30 5402 H 518.584 4.11249 -2.57097 0
M  V30 5403 H 514.463 4.39901 -1.3787 0
M  V30 5404 H 518.007 5.10086 -4.75876 0
M  V30 5405 H 513.904 5.38619 -3.55753 0
M  V30 5406 H 514.672 6.03489 -5.5294 0
M  V30 5407 N 517.335 0.585699 1.46312 0
M  V30 5408 C 518.583 0.072278 2.01971 0
M  V30 5409 C 518.904 -1.29345 1.45928 0
M  V30 5410 O 518.174 -1.84973 0.645109 0
M  V30 5411 H 516.754 0.023729 0.746623 0
M  V30 5412 H 519.416 0.762155 1.7938 0
M  V30 5413 H 518.512 0.00552767 3.121 0
M  V30 5414 N 518.813 -1.54241 0.323641 0
M  V30 5415 C 519.761 -2.25813 -0.557804 0
M  V30 5416 C 520.755 -1.27225 -1.11849 0
M  V30 5417 O 521.961 -1.45001 -1.06652 0
M  V30 5418 H 518.336 -0.72532 -0.198532 0
M  V30 5419 H 520.307 -2.98322 0.0681112 0
M  V30 5420 C 519.056 -3.02913 -1.70701 0
M  V30 5421 H 518.379 -3.78593 -1.28482 0
M  V30 5422 H 519.819 -3.56238 -2.29935 0
M  V30 5423 C 518.278 -2.11217 -2.62467 0
M  V30 5424 O 518.808 -1.69508 -3.64184 0
M  V30 5425 N 517.014 -1.76704 -2.30703 0
M  V30 5426 H 516.561 -2.1082 -1.48029 0
M  V30 5427 H 516.519 -1.15631 -2.92364 0
M  V30 5428 N 520.291 -0.0518155 -1.57515 0
M  V30 5429 C 521.516 0.634896 -1.97443 0
M  V30 5430 C 521.941 1.63546 -0.929207 0
M  V30 5431 O 521.299 1.80981 0.107484 0
M  V30 5432 C 521.347 1.29765 -3.36442 0
M  V30 5433 O 520.451 2.41333 -3.34413 0
M  V30 5434 H 519.792 0.164994 -0.643174 0
M  V30 5435 H 522.322 -0.120407 -2.04245 0
M  V30 5436 H 522.332 1.64918 -3.73184 0
M  V30 5437 H 521.007 0.564361 -4.12053 0
M  V30 5438 H 519.584 2.08122 -3.09418 0
M  V30 5439 N 521.769 1.56035 0.221574 0
M  V30 5440 C 523.017 1.78693 0.944102 0
M  V30 5441 C 523.338 0.620317 1.8487 0
M  V30 5442 O 522.608 -0.362784 1.92512 0
M  V30 5443 H 521.188 0.659082 0.351597 0
M  V30 5444 H 523.85 1.93497 0.233435 0
M  V30 5445 H 522.946 2.70837 1.55093 0
M  V30 5446 N 523.247 -0.488276 1.49845 0
M  V30 5447 C 524.472 -1.26997 1.63971 0
M  V30 5448 C 524.897 -1.85427 0.315994 0
M  V30 5449 O 524.255 -1.66475 -0.718032 0
M  V30 5450 C 524.303 -2.36689 2.72049 0
M  V30 5451 O 523.407 -3.40882 2.32107 0
M  V30 5452 H 522.748 -0.374376 0.548396 0
M  V30 5453 H 525.278 -0.583104 1.96115 0
M  V30 5454 H 525.288 -2.82262 2.94605 0
M  V30 5455 H 523.963 -1.93529 3.68129 0
M  V30 5456 H 522.54 -3.01139 2.19931 0
M  V30 5457 N 524.725 -1.39134 -0.740242 0
M  V30 5458 C 525.688 -1.37217 -1.83587 0
M  V30 5459 C 526.688 -0.270221 -1.58513 0
M  V30 5460 O 527.878 -0.527843 -1.6601 0
M  V30 5461 C 525.01 -1.13959 -3.21288 0
M  V30 5462 H 526.203 -2.34705 -1.86691 0
M  V30 5463 H 523.756 -1.24622 -0.94335 0
M  V30 5464 H 524.491 -0.17131 -3.23847 0
M  V30 5465 H 524.276 -1.93754 -3.40884 0
M  V30 5466 H 525.766 -1.15346 -4.01354 0
M  V30 5467 N 526.204 0.969867 -1.24223 0
M  V30 5468 C 527.45 1.7151 -1.08223 0
M  V30 5469 C 527.783 1.90478 0.37838 0
M  V30 5470 O 527.058 1.4647 1.27971 0
M  V30 5471 C 527.341 3.10714 -1.82013 0
M  V30 5472 C 527.194 2.9925 -3.35811 0
M  V30 5473 C 528.513 4.10332 -1.59108 0
M  V30 5474 H 525.632 0.622499 -0.394543 0
M  V30 5475 H 528.274 1.1284 -1.52863 0
M  V30 5476 H 526.424 3.608 -1.44068 0
M  V30 5477 H 528.096 2.56608 -3.83341 0
M  V30 5478 H 526.339 2.35512 -3.64303 0
M  V30 5479 H 527.01 3.97857 -3.82641 0
M  V30 5480 H 529.486 3.69097 -1.92111 0
M  V30 5481 H 528.362 5.05804 -2.13198 0
M  V30 5482 H 528.623 4.38926 -0.528832 0
M  V30 5483 N 527.682 1.05563 1.17022 0
M  V30 5484 C 529.098 0.777684 1.39371 0
M  V30 5485 C 529.298 -0.626269 1.91521 0
M  V30 5486 O 528.354 -1.38806 2.10924 0
M  V30 5487 C 529.667 1.83642 2.3811 0
M  V30 5488 C 531.215 1.85907 2.51809 0
M  V30 5489 C 531.69 2.90813 3.53824 0
M  V30 5490 N 533.181 2.898 3.61345 0
M  V30 5491 C 533.916 3.6762 4.40049 0
M  V30 5492 N 533.412 4.55237 5.22237 0
M  V30 5493 N 535.205 3.56044 4.34959 0
M  V30 5494 H 527.356 1.9614 0.815047 0
M  V30 5495 H 529.619 0.849527 0.420722 0
M  V30 5496 H 529.325 2.84425 2.06871 0
M  V30 5497 H 529.199 1.6812 3.37662 0
M  V30 5498 H 531.586 0.857865 2.82356 0
M  V30 5499 H 531.667 2.05506 1.52318 0
M  V30 5500 H 531.311 3.91122 3.24015 0
M  V30 5501 H 531.241 2.68465 4.53028 0
M  V30 5502 H 533.732 2.26274 3.02669 0
M  V30 5503 H 534.045 5.11291 5.79484 0
M  V30 5504 H 532.39 4.59296 5.21605 0
M  V30 5505 H 535.581 2.86986 3.69806 0
M  V30 5506 H 535.754 4.16938 4.96051 0
M  V30 5507 N 529.16 -1.33526 0.837174 0
M  V30 5508 C 530.408 -1.97446 0.431211 0
M  V30 5509 C 530.729 -1.6665 -1.01255 0
M  V30 5510 O 529.999 -0.964559 -1.70508 0
M  V30 5511 H 528.579 -0.73043 0.156463 0
M  V30 5512 H 531.241 -1.62918 1.06976 0
M  V30 5513 H 530.337 -3.07001 0.561877 0
M  V30 5514 N 530.638 -0.59345 -1.46 0
M  V30 5515 C 531.884 -0.0832754 -2.02629 0
M  V30 5516 C 532.217 1.27749 -1.46266 0
M  V30 5517 O 531.492 1.8395 -0.631866 0
M  V30 5518 C 531.775 -0.0290756 -3.60088 0
M  V30 5519 C 531.628 -1.41951 -4.26814 0
M  V30 5520 C 532.947 0.666055 -4.35031 0
M  V30 5521 H 530.066 -0.031736 -0.736316 0
M  V30 5522 H 532.708 -0.762711 -1.74019 0
M  V30 5523 H 530.858 0.549532 -3.84594 0
M  V30 5524 H 532.53 -2.04411 -4.13538 0
M  V30 5525 H 530.773 -1.98422 -3.8576 0
M  V30 5526 H 531.444 -1.33395 -5.3564 0
M  V30 5527 H 533.92 0.174401 -4.15734 0
M  V30 5528 H 532.796 0.673041 -5.44758 0
M  V30 5529 H 533.057 1.72946 -4.06869 0
M  V30 5530 N 532.116 1.54067 -0.331816 0
M  V30 5531 C 533.365 1.99895 0.269209 0
M  V30 5532 C 533.678 1.22371 1.52593 0
M  V30 5533 O 534.884 1.58618 2.20347 0
M  V30 5534 C 533.34 3.55972 0.530244 0
M  V30 5535 C 532.948 4.4234 -0.709901 0
M  V30 5536 C 534.692 4.10247 1.09077 0
M  V30 5537 C 532.599 5.89905 -0.420312 0
M  V30 5538 H 531.529 0.746741 0.104371 0
M  V30 5539 H 534.18 1.78014 -0.445324 0
M  V30 5540 H 532.562 3.73873 1.30518 0
M  V30 5541 H 533.736 4.36215 -1.48504 0
M  V30 5542 H 532.051 3.98997 -1.19123 0
M  V30 5543 H 534.648 5.18095 1.32219 0
M  V30 5544 H 534.991 3.62739 2.0427 0
M  V30 5545 H 535.524 3.96011 0.376824 0
M  V30 5546 H 532.263 6.41623 -1.34164 0
M  V30 5547 H 531.783 5.98962 0.316962 0
M  V30 5548 H 533.462 6.46991 -0.0331956 0
M  V30 5549 N 533.594 0.0601682 1.57485 0
M  V30 5550 C 534.824 -0.620037 1.97076 0
M  V30 5551 C 535.232 -1.64381 0.936784 0
M  V30 5552 O 534.575 -1.83497 -0.0863377 0
M  V30 5553 C 534.637 -1.35617 3.32939 0
M  V30 5554 C 534.301 -0.487208 4.54396 0
M  V30 5555 C 535.298 0.250428 5.19297 0
M  V30 5556 C 532.983 -0.415494 5.00579 0
M  V30 5557 C 534.977 1.04812 6.28723 0
M  V30 5558 C 532.664 0.385879 6.0988 0
M  V30 5559 C 533.662 1.11637 6.73815 0
M  V30 5560 O 533.35 1.90454 7.81014 0
M  V30 5561 H 533.082 -0.173664 0.653312 0
M  V30 5562 H 535.636 0.1256 2.05016 0
M  V30 5563 H 533.866 -2.14763 3.2158 0
M  V30 5564 H 535.555 -1.92749 3.57215 0
M  V30 5565 H 536.321 0.204546 4.84568 0
M  V30 5566 H 532.2 -0.973679 4.506 0
M  V30 5567 H 535.744 1.6188 6.78558 0
M  V30 5568 H 531.641 0.433366 6.44044 0
M  V30 5569 H 532.409 1.82762 7.97835 0
M  V30 5570 N 535.072 -1.5615 -0.213296 0
M  V30 5571 C 536.02 -1.93953 -1.28394 0
M  V30 5572 C 537.014 -0.822592 -1.48087 0
M  V30 5573 O 538.22 -1.00748 -1.49164 0
M  V30 5574 H 534.595 -0.61648 -0.430646 0
M  V30 5575 H 536.566 -2.83275 -0.937977 0
M  V30 5576 C 535.315 -2.27969 -2.62537 0
M  V30 5577 H 534.638 -3.13432 -2.48194 0
M  V30 5578 H 536.078 -2.58297 -3.36242 0
M  V30 5579 C 534.537 -1.10775 -3.18167 0
M  V30 5580 O 535.067 -0.373201 -3.99963 0
M  V30 5581 N 533.273 -0.889377 -2.76656 0
M  V30 5582 H 532.82 -1.48843 -2.10246 0
M  V30 5583 H 532.778 -0.107 -3.14218 0
M  V30 5584 N 536.55 0.480323 -1.50102 0
M  V30 5585 C 537.498 1.60024 -1.68805 0
M  V30 5586 C 538.492 1.60089 -0.553888 0
M  V30 5587 O 539.698 1.64349 -0.734127 0
M  V30 5588 H 536.073 0.530841 -0.532646 0
M  V30 5589 H 538.044 1.41408 -2.62767 0
M  V30 5590 C 536.793 2.98029 -1.79092 0
M  V30 5591 H 536.116 2.98694 -2.65748 0
M  V30 5592 H 537.556 3.75871 -1.96206 0
M  V30 5593 C 536.015 3.32538 -0.540388 0
M  V30 5594 O 536.545 4.00386 0.324637 0
M  V30 5595 N 534.751 2.87873 -0.397154 0
M  V30 5596 H 534.298 2.32834 -1.1021 0
M  V30 5597 H 534.256 3.11328 0.438425 0
M  V30 5598 N 538.028 1.39524 0.732853 0
M  V30 5599 C 539.253 1.40329 1.52717 0
M  V30 5600 C 539.678 0.000286574 1.881 0
M  V30 5601 O 539.036 -0.987262 1.52062 0
M  V30 5602 C 539.084 2.28464 2.78992 0
M  V30 5603 O 538.188 1.716 3.75003 0
M  V30 5604 H 537.529 0.47778 0.461109 0
M  V30 5605 H 540.059 1.83546 0.903996 0
M  V30 5606 H 540.069 2.43051 3.27705 0
M  V30 5607 H 538.744 3.30425 2.52572 0
M  V30 5608 H 537.321 1.66267 3.33781 0
M  V30 5609 N 539.506 -0.963266 1.24736 0
M  V30 5610 C 540.454 -2.07985 1.04139 0
M  V30 5611 C 541.448 -1.69381 -0.0250556 0
M  V30 5612 O 542.654 -1.79531 0.129863 0
M  V30 5613 H 539.029 -0.680627 0.319768 0
M  V30 5614 H 541 -2.22517 1.98818 0
M  V30 5615 C 539.749 -3.4123 0.667615 0
M  V30 5616 H 539.072 -3.71397 1.48 0
M  V30 5617 H 540.512 -4.20244 0.563136 0
M  V30 5618 C 538.971 -3.3104 -0.625647 0
M  V30 5619 O 539.501 -3.65334 -1.67016 0
M  V30 5620 N 537.707 -2.84168 -0.608033 0
M  V30 5621 H 537.254 -2.56458 0.242323 0
M  V30 5622 H 537.212 -2.77732 -1.47352 0
M  V30 5623 N 540.985 -1.06182 -1.16461 0
M  V30 5624 C 542.21 -0.798599 -1.91408 0
M  V30 5625 C 542.635 0.640987 -1.76842 0
M  V30 5626 O 541.993 1.44652 -1.09296 0
M  V30 5627 C 542.041 -1.19665 -3.40165 0
M  V30 5628 O 541.145 -0.334768 -4.11039 0
M  V30 5629 H 540.486 -0.291961 -0.596368 0
M  V30 5630 H 543.016 -1.41732 -1.47557 0
M  V30 5631 H 543.026 -1.16772 -3.90933 0
M  V30 5632 H 541.701 -2.24526 -3.50087 0
M  V30 5633 H 540.278 -0.425168 -3.70468 0
M  V30 5634 N 542.463 1.3308 -0.844243 0
M  V30 5635 C 543.709 1.97898 -0.443206 0
M  V30 5636 C 544.042 1.66699 0.99625 0
M  V30 5637 O 543.317 0.949704 1.69738 0
M  V30 5638 C 543.6 3.53801 -0.670606 0
M  V30 5639 C 543.453 3.94667 -2.15772 0
M  V30 5640 C 544.772 4.39936 -0.120226 0
M  V30 5641 H 541.891 0.718861 -0.162504 0
M  V30 5642 H 544.533 1.57633 -1.06075 0
M  V30 5643 H 542.683 3.88229 -0.14496 0
M  V30 5644 H 544.355 3.70469 -2.74865 0
M  V30 5645 H 542.598 3.44203 -2.6402 0
M  V30 5646 H 543.269 5.03275 -2.26757 0
M  V30 5647 H 545.745 4.12183 -0.5696 0
M  V30 5648 H 544.621 5.4803 -0.308984 0
M  V30 5649 H 544.882 4.31184 0.976347 0
M  V30 5650 N 543.941 0.601185 1.45683 0
M  V30 5651 C 544.904 -0.111398 2.28929 0
M  V30 5652 C 545.904 -0.801246 1.39416 0
M  V30 5653 O 547.094 -0.650383 1.61603 0
M  V30 5654 C 544.226 -1.16773 3.20276 0
M  V30 5655 H 545.419 0.620412 2.93413 0
M  V30 5656 H 542.972 0.359946 1.52099 0
M  V30 5657 H 543.707 -1.93051 2.60579 0
M  V30 5658 H 543.492 -0.677358 3.86205 0
M  V30 5659 H 544.982 -1.66698 3.82886 0
M  V30 5660 N 545.419 -1.53889 0.339982 0
M  V30 5661 C 546.366 -2.24902 -0.518452 0
M  V30 5662 C 547.336 -1.24593 -1.09844 0
M  V30 5663 O 548.521 -1.53317 -1.13572 0
M  V30 5664 C 545.661 -3.02262 -1.66529 0
M  V30 5665 C 544.774 -4.17418 -1.11295 0
M  V30 5666 C 543.909 -4.82273 -2.2268 0
M  V30 5667 C 542.948 -5.89503 -1.6478 0
M  V30 5668 N 542.085 -6.48153 -2.69893 0
M  V30 5669 H 546.925 -2.97853 0.0936579 0
M  V30 5670 H 544.462 -1.46986 0.0579924 0
M  V30 5671 H 546.42 -3.45371 -2.3404 0
M  V30 5672 H 545.05 -2.31614 -2.24844 0
M  V30 5673 H 544.102 -3.78976 -0.328886 0
M  V30 5674 H 545.414 -4.94554 -0.649414 0
M  V30 5675 H 544.568 -5.28435 -2.98063 0
M  V30 5676 H 543.307 -4.04552 -2.72376 0
M  V30 5677 H 542.312 -5.42728 -0.879004 0
M  V30 5678 H 543.537 -6.6913 -1.1594 0
M  V30 5679 H 541.483 -5.73298 -3.1885 0
M  V30 5680 H 541.4 -7.20752 -2.28151 0
M  V30 5681 H 542.668 -6.98968 -3.45056 0
M  V30 5682 N 546.897 -0.0685191 -1.57451 0
M  V30 5683 C 548.125 0.610462 -1.97689 0
M  V30 5684 C 548.54 1.63346 -0.946758 0
M  V30 5685 O 547.897 1.82377 0.0669868 0
M  V30 5686 C 547.948 1.28196 -3.38006 0
M  V30 5687 O 547.669 0.299906 -4.37072 0
M  V30 5688 C 549.17 2.04907 -3.931 0
M  V30 5689 H 546.39 0.165689 -0.650222 0
M  V30 5690 H 548.934 -0.139953 -2.04021 0
M  V30 5691 H 547.089 1.98348 -3.32771 0
M  V30 5692 H 547.503 0.78126 -5.18649 0
M  V30 5693 H 548.977 2.47287 -4.93511 0
M  V30 5694 H 549.454 2.9043 -3.29465 0
M  V30 5695 H 550.06 1.39629 -4.01726 0
M  V30 5696 N 548.375 1.56261 0.205012 0
M  V30 5697 C 549.605 1.83874 0.942018 0
M  V30 5698 C 550.013 0.647595 1.77772 0
M  V30 5699 O 549.356 -0.393098 1.79445 0
M  V30 5700 C 549.418 3.05453 1.89575 0
M  V30 5701 C 549.082 4.39772 1.24296 0
M  V30 5702 C 550.079 5.16133 0.624724 0
M  V30 5703 C 547.764 4.86504 1.24978 0
M  V30 5704 C 549.758 6.37396 0.0220117 0
M  V30 5705 C 547.445 6.07705 0.643232 0
M  V30 5706 C 548.443 6.82993 0.0304164 0
M  V30 5707 O 548.131 8.019 -0.566654 0
M  V30 5708 H 547.863 0.614896 0.280854 0
M  V30 5709 H 550.417 2.04215 0.220285 0
M  V30 5710 H 548.647 2.80972 2.65691 0
M  V30 5711 H 550.336 3.19797 2.4997 0
M  V30 5712 H 551.102 4.81127 0.611666 0
M  V30 5713 H 546.981 4.27865 1.71616 0
M  V30 5714 H 550.525 6.96102 -0.456926 0
M  V30 5715 H 546.422 6.42181 0.653759 0
M  V30 5716 H 547.19 8.17192 -0.462588 0
M  V30 5717 N 549.853 -0.472356 1.50355 0
M  V30 5718 C 550.783 -1.57859 1.72055 0
M  V30 5719 C 551.764 -1.60283 0.569505 0
M  V30 5720 O 552.949 -1.7657 0.808503 0
M  V30 5721 C 550.079 -2.96191 1.81351 0
M  V30 5722 C 549.033 -3.08633 2.96529 0
M  V30 5723 C 548.359 -4.486 2.90968 0
M  V30 5724 C 549.659 -2.85969 4.37057 0
M  V30 5725 H 551.353 -1.39953 2.64676 0
M  V30 5726 H 548.899 -0.671846 1.27367 0
M  V30 5727 H 550.852 -3.73507 1.95117 0
M  V30 5728 H 549.576 -3.15251 0.853502 0
M  V30 5729 H 548.235 -2.33749 2.82413 0
M  V30 5730 H 547.883 -4.64577 1.92815 0
M  V30 5731 H 547.583 -4.57861 3.68289 0
M  V30 5732 H 549.107 -5.27938 3.0678 0
M  V30 5733 H 550.521 -3.53036 4.51706 0
M  V30 5734 H 548.918 -3.06677 5.15819 0
M  V30 5735 H 549.988 -1.81838 4.49514 0
M  V30 5736 N 551.331 -1.39911 -0.725443 0
M  V30 5737 C 552.279 -1.39552 -1.86086 0
M  V30 5738 C 553.273 -0.277334 -1.67114 0
M  V30 5739 O 554.479 -0.447865 -1.74339 0
M  V30 5740 H 550.854 -0.435993 -0.612711 0
M  V30 5741 H 552.825 -2.35305 -1.83505 0
M  V30 5742 C 551.574 -1.26529 -3.2386 0
M  V30 5743 H 550.897 -2.11845 -3.3906 0
M  V30 5744 H 552.337 -1.30336 -4.03471 0
M  V30 5745 C 550.796 0.0254168 -3.3689 0
M  V30 5746 O 551.326 0.992048 -3.89257 0
M  V30 5747 N 549.532 0.0916528 -2.90455 0
M  V30 5748 H 549.079 -0.695675 -2.48028 0
M  V30 5749 H 549.037 0.954745 -2.99553 0
M  V30 5750 N 552.809 0.956637 -1.25245 0
M  V30 5751 C 554.22 1.51569 -1.09012 0
M  V30 5752 C 554.571 1.93322 0.334813 0
M  V30 5753 O 553.696 1.78421 1.22454 0
M  V30 5754 C 554.291 2.75444 -1.97271 0
M  V30 5755 C 552.85 3.27669 -1.8523 0
M  V30 5756 C 551.997 2.00517 -1.91542 0
M  V30 5757 H 554.948 0.773746 -1.3856 0
M  V30 5758 H 554.969 3.4919 -1.51151 0
M  V30 5759 H 554.481 2.45024 -3.00973 0
M  V30 5760 H 552.582 3.62914 -0.844045 0
M  V30 5761 H 552.695 3.9582 -2.69932 0
M  V30 5762 H 551.059 2.15727 -1.35404 0
M  V30 5763 H 551.842 1.72448 -2.96844 0
M  V30 5764 N 554.287 1.06798 1.15896 0
M  V30 5765 C 555.698 0.811355 1.68149 0
M  V30 5766 C 556.049 -0.664339 1.8461 0
M  V30 5767 O 555.174 -1.51485 1.54535 0
M  V30 5768 C 555.769 1.46624 3.05429 0
M  V30 5769 C 554.328 1.25726 3.54781 0
M  V30 5770 C 553.475 1.53949 2.3064 0
M  V30 5771 H 556.426 1.23078 1.00187 0
M  V30 5772 H 556.447 0.88437 3.7008 0
M  V30 5773 H 555.959 2.54025 2.93416 0
M  V30 5774 H 554.06 0.20322 3.72045 0
M  V30 5775 H 554.173 1.97354 4.36564 0
M  V30 5776 H 552.537 0.96025 2.35905 0
M  V30 5777 H 553.32 2.6252 2.2122 0
M  V30 5778 N 555.766 -1.3263 0.851289 0
M  V30 5779 C 556.996 -2.01271 0.466222 0
M  V30 5780 C 557.404 -1.64156 -0.940714 0
M  V30 5781 O 556.747 -0.857109 -1.62479 0
M  V30 5782 C 556.809 -3.55695 0.521672 0
M  V30 5783 C 556.473 -4.16227 1.88691 0
M  V30 5784 C 557.47 -4.34699 2.85189 0
M  V30 5785 C 555.155 -4.52377 2.18313 0
M  V30 5786 C 557.149 -4.88484 4.09465 0
M  V30 5787 C 554.836 -5.05868 3.42843 0
M  V30 5788 C 555.834 -5.23869 4.38235 0
M  V30 5789 O 555.522 -5.76218 5.6056 0
M  V30 5790 H 555.254 -0.651034 0.18202 0
M  V30 5791 H 557.808 -1.7026 1.14894 0
M  V30 5792 H 556.038 -3.86086 -0.217888 0
M  V30 5793 H 557.727 -4.05613 0.152682 0
M  V30 5794 H 558.493 -4.07107 2.63607 0
M  V30 5795 H 554.372 -4.37652 1.44851 0
M  V30 5796 H 557.916 -5.02451 4.83931 0
M  V30 5797 H 553.813 -5.32891 3.64277 0
M  V30 5798 H 554.581 -5.94616 5.62471 0
M  V30 5799 N 557.244 -0.608902 -1.45362 0
M  V30 5800 C 558.469 -0.10921 -2.07112 0
M  V30 5801 C 558.894 1.19779 -1.45033 0
M  V30 5802 O 558.252 1.72961 -0.543527 0
M  V30 5803 C 558.3 0.0155745 -3.60597 0
M  V30 5804 O 557.404 1.06546 -3.98399 0
M  V30 5805 H 556.745 -0.0746619 -0.659789 0
M  V30 5806 H 559.275 -0.839283 -1.86594 0
M  V30 5807 H 559.285 0.213364 -4.07442 0
M  V30 5808 H 557.96 -0.938765 -4.05167 0
M  V30 5809 H 556.537 0.844024 -3.63223 0
M  V30 5810 N 558.722 1.53707 -0.348139 0
M  V30 5811 C 559.968 2.01286 0.247332 0
M  V30 5812 C 560.301 1.23546 1.49834 0
M  V30 5813 O 559.576 0.324331 1.91777 0
M  V30 5814 C 559.859 3.55768 0.556858 0
M  V30 5815 C 559.712 4.44216 -0.706564 0
M  V30 5816 C 561.031 4.1841 1.3646 0
M  V30 5817 H 558.15 0.731677 0.0884201 0
M  V30 5818 H 560.792 1.84106 -0.469584 0
M  V30 5819 H 558.942 3.70539 1.16761 0
M  V30 5820 H 560.614 4.41274 -1.34444 0
M  V30 5821 H 558.857 4.12892 -1.33052 0
M  V30 5822 H 559.528 5.50202 -0.445186 0
M  V30 5823 H 562.004 4.07365 0.848113 0
M  V30 5824 H 560.88 5.26563 1.54992 0
M  V30 5825 H 561.141 3.7333 2.36805 0
M  V30 5826 N 560.2 0.0768682 1.57412 0
M  V30 5827 C 561.477 -0.632359 1.85096 0
M  V30 5828 C 561.857 -1.87479 0.9703 0
M  V30 5829 O 561.205 -2.28469 0.0379062 0
M  V30 5830 C 561.415 -0.965174 3.35388 0
M  V30 5831 C 562.763 -1.33648 4.03018 0
M  V30 5832 O 563.787 -1.05675 3.40164 0
M  V30 5833 O 562.646 -1.85959 5.13889 0
M  V30 5834 H 559.74 -0.314574 0.764835 0
M  V30 5835 H 562.286 0.108184 1.69355 0
M  V30 5836 H 561.058 -0.0829745 3.91212 0
M  V30 5837 H 560.681 -1.76231 3.5641 0
M  V30 5838 N 561.678 -1.56367 -0.196722 0
M  V30 5839 C 562.926 -1.80172 -0.915554 0
M  V30 5840 C 563.247 -0.649649 -1.8386 0
M  V30 5841 O 562.517 0.332111 -1.93064 0
M  V30 5842 H 561.097 -0.664592 -0.341067 0
M  V30 5843 H 563.759 -1.93844 -0.202622 0
M  V30 5844 H 562.855 -2.7327 -1.50764 0
M  V30 5845 N 563.156 0.464375 -1.50603 0
M  V30 5846 C 564.402 1.21485 -1.63135 0
M  V30 5847 C 564.757 1.89538 -0.33063 0
M  V30 5848 O 564.05 1.79432 0.671903 0
M  V30 5849 C 564.244 2.278 -2.75394 0
M  V30 5850 C 564.073 1.70178 -4.16257 0
M  V30 5851 C 562.843 1.49854 -4.82568 0
M  V30 5852 C 565.041 1.19298 -5.00272 0
M  V30 5853 N 563.023 0.875458 -6.07626 0
M  V30 5854 C 564.394 0.693527 -6.16109 0
M  V30 5855 C 566.449 1.08216 -4.85998 0
M  V30 5856 C 565.152 0.0941808 -7.19238 0
M  V30 5857 C 567.178 0.496745 -5.8931 0
M  V30 5858 C 566.54 0.00770448 -7.044 0
M  V30 5859 H 562.639 0.433184 -0.651057 0
M  V30 5860 H 565.223 0.515748 -1.87745 0
M  V30 5861 H 563.394 2.95129 -2.52495 0
M  V30 5862 H 565.126 2.94814 -2.77249 0
M  V30 5863 H 561.881 1.75269 -4.39975 0
M  V30 5864 H 562.305 0.582135 -6.74493 0
M  V30 5865 H 566.947 1.44617 -3.97298 0
M  V30 5866 H 564.665 -0.28202 -8.07608 0
M  V30 5867 H 568.251 0.413275 -5.8033 0
M  V30 5868 H 567.131 -0.438188 -7.82975 0
M  V30 5869 N 564.634 1.40294 0.718013 0
M  V30 5870 C 566.05 1.2227 1.02577 0
M  V30 5871 C 566.25 0.0961976 2.0127 0
M  V30 5872 O 565.306 -0.546695 2.46511 0
M  V30 5873 C 566.619 2.56348 1.57182 0
M  V30 5874 C 568.167 2.6334 1.69178 0
M  V30 5875 C 568.642 3.9768 2.27188 0
M  V30 5876 N 570.133 3.99409 2.34578 0
M  V30 5877 C 570.868 5.00141 2.8044 0
M  V30 5878 N 570.364 6.11268 3.26073 0
M  V30 5879 N 572.157 4.87511 2.79802 0
M  V30 5880 H 564.308 2.12304 0.0637899 0
M  V30 5881 H 566.571 0.943632 0.0909036 0
M  V30 5882 H 566.277 3.3942 0.921262 0
M  V30 5883 H 566.151 2.77266 2.55741 0
M  V30 5884 H 568.538 1.80641 2.33351 0
M  V30 5885 H 568.619 2.46255 0.692247 0
M  V30 5886 H 568.263 4.80817 1.63638 0
M  V30 5887 H 568.193 4.12093 3.27852 0
M  V30 5888 H 570.684 3.19162 2.02346 0
M  V30 5889 H 570.997 6.84023 3.59628 0
M  V30 5890 H 569.342 6.14837 3.24038 0
M  V30 5891 H 572.533 3.9979 2.43487 0
M  V30 5892 H 572.706 5.66158 3.15228 0
M  V30 5893 N 566.112 -0.949982 1.2575 0
M  V30 5894 C 567.042 -2.06483 1.09028 0
M  V30 5895 C 568.023 -1.701 -0.00201532 0
M  V30 5896 O 569.208 -1.93469 0.168383 0
M  V30 5897 C 566.338 -3.39899 0.71316 0
M  V30 5898 C 565.292 -3.90309 1.75621 0
M  V30 5899 C 564.618 -5.20274 1.23365 0
M  V30 5900 C 565.918 -4.16169 3.15596 0
M  V30 5901 H 567.612 -2.20731 2.02283 0
M  V30 5902 H 565.158 -1.06066 0.973964 0
M  V30 5903 H 567.111 -4.17346 0.58309 0
M  V30 5904 H 565.835 -3.25602 -0.255091 0
M  V30 5905 H 564.494 -3.15035 1.8748 0
M  V30 5906 H 564.142 -5.02351 0.255491 0
M  V30 5907 H 563.842 -5.54971 1.93082 0
M  V30 5908 H 565.366 -6.00314 1.11607 0
M  V30 5909 H 566.78 -4.84259 3.06864 0
M  V30 5910 H 565.177 -4.62131 3.82825 0
M  V30 5911 H 566.247 -3.22273 3.6231 0
M  V30 5912 N 567.59 -1.07411 -1.15328 0
M  V30 5913 C 568.867 -0.710732 -1.82231 0
M  V30 5914 C 569.247 0.806732 -1.95077 0
M  V30 5915 O 568.595 1.72139 -1.50268 0
M  V30 5916 C 568.805 -1.42586 -3.18544 0
M  V30 5917 C 570.153 -1.57836 -3.94174 0
M  V30 5918 O 571.177 -1.38669 -3.281 0
M  V30 5919 O 570.036 -1.8938 -5.12638 0
M  V30 5920 H 567.13 -0.25297 -0.78736 0
M  V30 5921 H 569.676 -1.17508 -1.22434 0
M  V30 5922 H 568.448 -2.46008 -3.04296 0
M  V30 5923 H 568.071 -0.952332 -3.86026 0
M  V30 5924 N 569.068 1.32177 -0.85831 0
M  V30 5925 C 570.031 2.27086 -0.310588 0
M  V30 5926 C 571.031 1.51751 0.531806 0
M  V30 5927 O 572.221 1.70794 0.34279 0
M  V30 5928 C 569.353 3.36266 0.560179 0
M  V30 5929 H 570.546 2.77045 -1.1483 0
M  V30 5930 H 568.099 1.42911 -0.632942 0
M  V30 5931 H 568.834 2.9158 1.41956 0
M  V30 5932 H 568.619 3.92077 -0.0428473 0
M  V30 5933 H 570.109 4.06974 0.936056 0
M  V30 5934 N 570.547 0.616602 1.45037 0
M  V30 5935 C 571.51 -0.0871112 2.29034 0
M  V30 5936 C 572.51 -0.786414 1.40258 0
M  V30 5937 O 573.7 -0.633207 1.62284 0
M  V30 5938 C 570.832 -1.13369 3.21497 0
M  V30 5939 H 572.025 0.651497 2.92738 0
M  V30 5940 H 569.578 0.376058 1.51709 0
M  V30 5941 H 570.313 -1.90277 2.62612 0
M  V30 5942 H 570.098 -0.636358 3.86902 0
M  V30 5943 H 571.588 -1.62627 3.84633 0
M  V30 5944 N 572.025 -1.5352 0.356285 0
M  V30 5945 C 572.957 -2.23009 -0.529127 0
M  V30 5946 C 573.97 -1.241 -1.05371 0
M  V30 5947 O 575.159 -1.50379 -0.961679 0
M  V30 5948 C 572.259 -2.90685 -1.74229 0
M  V30 5949 C 571.432 -4.16019 -1.35081 0
M  V30 5950 C 570.491 -4.66989 -2.42502 0
M  V30 5951 O 569.517 -5.30895 -2.05279 0
M  V30 5952 N 570.719 -4.44006 -3.7395 0
M  V30 5953 H 573.484 -2.99627 0.0660501 0
M  V30 5954 H 571.045 -1.60885 0.181014 0
M  V30 5955 H 573.037 -3.21695 -2.4555 0
M  V30 5956 H 571.607 -2.17575 -2.24454 0
M  V30 5957 H 570.827 -3.91414 -0.467833 0
M  V30 5958 H 572.115 -4.9752 -1.06542 0
M  V30 5959 H 571.513 -3.92924 -4.06973 0
M  V30 5960 H 570.07 -4.7959 -4.41403 0
M  V30 5961 N 573.503 -0.0852151 -1.57369 0
M  V30 5962 C 574.733 0.588605 -1.98038 0
M  V30 5963 C 575.141 1.62869 -0.962817 0
M  V30 5964 O 574.484 1.83611 0.057134 0
M  V30 5965 C 574.546 1.30303 -3.35054 0
M  V30 5966 C 574.21 0.414855 -4.55113 0
M  V30 5967 C 575.207 -0.333011 -5.18832 0
M  V30 5968 C 572.892 0.335804 -5.01176 0
M  V30 5969 C 574.886 -1.14801 -6.26976 0
M  V30 5970 C 572.573 -0.482857 -6.09189 0
M  V30 5971 C 573.571 -1.22342 -6.71953 0
M  V30 5972 O 573.259 -2.02855 -7.77885 0
M  V30 5973 H 572.991 0.163249 -0.655992 0
M  V30 5974 H 575.545 -0.1582 -2.0479 0
M  V30 5975 H 573.775 2.0962 -3.24956 0
M  V30 5976 H 575.464 1.87041 -3.60237 0
M  V30 5977 H 576.23 -0.281611 -4.84182 0
M  V30 5978 H 572.109 0.901869 -4.52092 0
M  V30 5979 H 575.653 -1.72654 -6.75897 0
M  V30 5980 H 571.55 -0.535773 -6.43273 0
M  V30 5981 H 572.318 -1.95432 -7.94826 0
M  V30 5982 N 574.981 1.5647 0.188427 0
M  V30 5983 C 576.227 1.81281 0.909124 0
M  V30 5984 C 576.56 0.66034 1.82628 0
M  V30 5985 O 575.835 -0.338737 1.91528 0
M  V30 5986 C 576.118 3.16388 1.7196 0
M  V30 5987 C 575.971 4.42137 0.826714 0
M  V30 5988 C 577.29 3.48256 2.69083 0
M  V30 5989 H 574.409 0.659457 0.329068 0
M  V30 5990 H 577.051 1.89182 0.176156 0
M  V30 5991 H 575.201 3.09784 2.34448 0
M  V30 5992 H 576.873 4.60794 0.216025 0
M  V30 5993 H 575.116 4.33594 0.133792 0
M  V30 5994 H 575.787 5.33184 1.42893 0
M  V30 5995 H 578.263 3.55203 2.16726 0
M  V30 5996 H 577.139 4.43899 3.2287 0
M  V30 5997 H 577.4 2.72088 3.48455 0
M  V30 5998 N 576.459 -0.456382 1.50847 0
M  V30 5999 C 577.736 -1.21739 1.53098 0
M  V30 6000 C 578.116 -2.09179 0.284132 0
M  V30 6001 O 577.464 -2.16466 -0.731773 0
M  V30 6002 C 577.674 -2.03573 2.83477 0
M  V30 6003 C 579.022 -2.61264 3.34703 0
M  V30 6004 O 580.046 -2.13802 2.84898 0
M  V30 6005 O 578.905 -3.47779 4.21559 0
M  V30 6006 H 575.999 -0.553219 0.614718 0
M  V30 6007 H 578.545 -0.467003 1.63148 0
M  V30 6008 H 577.317 -1.39232 3.65691 0
M  V30 6009 H 576.94 -2.85716 2.76499 0
M  V30 6010 N 577.937 -1.40673 -0.710563 0
M  V30 6011 C 578.9 -1.4108 -1.80635 0
M  V30 6012 C 579.9 -0.303783 -1.57904 0
M  V30 6013 O 581.09 -0.562937 -1.64853 0
M  V30 6014 C 578.222 -1.20748 -3.18799 0
M  V30 6015 H 579.415 -2.38612 -1.81671 0
M  V30 6016 H 576.968 -1.26595 -0.916704 0
M  V30 6017 H 577.703 -0.239964 -3.23411 0
M  V30 6018 H 577.488 -2.00941 -3.36698 0
M  V30 6019 H 578.978 -1.23833 -3.98817 0
M  V30 6020 N 579.415 0.9433 -1.26252 0
M  V30 6021 C 580.363 2.06302 -1.07434 0
M  V30 6022 C 581.357 1.694 -0.00189471 0
M  V30 6023 O 582.563 1.79302 -0.158408 0
M  V30 6024 H 578.938 0.675453 -0.330556 0
M  V30 6025 H 580.909 2.19326 -2.02333 0
M  V30 6026 C 579.658 3.40125 -0.721817 0
M  V30 6027 H 578.981 3.68996 -1.5389 0
M  V30 6028 H 580.421 4.19295 -0.629922 0
M  V30 6029 C 578.88 3.31993 0.572902 0
M  V30 6030 O 579.41 3.67945 1.61182 0
M  V30 6031 N 577.616 2.85099 0.562748 0
M  V30 6032 H 577.163 2.5604 -0.283092 0
M  V30 6033 H 577.121 2.80041 1.42915 0
M  V30 6034 N 580.893 1.08022 1.14757 0
M  V30 6035 C 582.141 0.805913 1.85336 0
M  V30 6036 C 582.462 -0.670162 1.83122 0
M  V30 6037 O 581.732 -1.48567 1.2769 0
M  V30 6038 H 580.312 0.295138 0.686223 0
M  V30 6039 H 582.974 1.36538 1.3908 0
M  V30 6040 H 582.07 1.14655 2.90277 0
M  V30 6041 N 582.371 -1.3172 0.865308 0
M  V30 6042 C 583.319 -2.30569 0.306674 0
M  V30 6043 C 584.313 -1.59317 -0.575724 0
M  V30 6044 O 585.519 -1.73961 -0.462343 0
M  V30 6045 H 581.894 -0.747681 0.0804834 0
M  V30 6046 H 583.865 -2.75165 1.15441 0
M  V30 6047 C 582.614 -3.44358 -0.480952 0
M  V30 6048 H 581.937 -3.99354 0.18876 0
M  V30 6049 H 583.377 -4.15652 -0.837241 0
M  V30 6050 C 581.836 -2.92574 -1.67039 0
M  V30 6051 O 582.366 -2.90954 -2.76964 0
M  V30 6052 N 580.572 -2.48835 -1.50097 0
M  V30 6053 H 580.119 -2.50353 -0.606738 0
M  V30 6054 H 580.077 -2.14543 -2.29823 0
M  V30 6055 N 583.85 -0.624285 -1.44708 0
M  V30 6056 C 584.798 0.0969952 -2.32398 0
M  V30 6057 C 585.792 0.842762 -1.46949 0
M  V30 6058 O 586.998 0.756436 -1.63334 0
M  V30 6059 H 583.373 0.0501306 -0.750327 0
M  V30 6060 H 585.344 -0.660767 -2.90992 0
M  V30 6061 C 584.093 1.06967 -3.30837 0
M  V30 6062 H 583.416 0.505242 -3.96595 0
M  V30 6063 H 584.856 1.54397 -3.94889 0
M  V30 6064 C 583.315 2.15153 -2.5925 0
M  V30 6065 O 583.845 3.23139 -2.3863 0
M  V30 6066 N 582.051 1.90898 -2.19103 0
M  V30 6067 H 581.598 1.03086 -2.36074 0
M  V30 6068 H 581.556 2.63485 -1.71531 0
M  V30 6069 N 585.328 1.53329 -0.364422 0
M  V30 6070 C 586.576 2.00842 0.225189 0
M  V30 6071 C 586.897 1.25345 1.49378 0
M  V30 6072 O 586.167 0.366396 1.92443 0
M  V30 6073 H 584.747 0.742009 0.0862027 0
M  V30 6074 H 587.409 1.8863 -0.490389 0
M  V30 6075 H 586.505 3.08795 0.452987 0
M  V30 6076 N 586.806 0.0935595 1.57322 0
M  V30 6077 C 588.031 -0.582324 1.99057 0
M  V30 6078 C 588.456 -1.61025 0.972242 0
M  V30 6079 O 587.814 -1.81202 -0.0594622 0
M  V30 6080 C 587.862 -1.20799 3.39765 0
M  V30 6081 O 586.966 -2.32382 3.40694 0
M  V30 6082 H 586.307 -0.147884 0.647323 0
M  V30 6083 H 588.837 0.174516 2.03854 0
M  V30 6084 H 588.847 -1.54966 3.77425 0
M  V30 6085 H 587.522 -0.454914 4.13405 0
M  V30 6086 H 586.099 -1.99845 3.14827 0
M  V30 6087 N 588.284 -1.56567 -0.180126 0
M  V30 6088 C 589.561 -1.7235 -0.924931 0
M  V30 6089 C 589.941 -0.652523 -2.00762 0
M  V30 6090 O 589.289 0.334115 -2.26044 0
M  V30 6091 C 589.499 -3.1523 -1.49771 0
M  V30 6092 C 590.847 -3.75921 -1.97405 0
M  V30 6093 O 591.871 -3.18452 -1.59583 0
M  V30 6094 O 590.73 -4.7681 -2.67048 0
M  V30 6095 H 587.824 -0.703502 -0.434758 0
M  V30 6096 H 590.37 -1.6886 -0.168647 0
M  V30 6097 H 589.142 -3.84656 -0.718027 0
M  V30 6098 H 588.765 -3.23009 -2.31842 0
M  V30 6099 N 589.762 0.448376 -1.51087 0
M  V30 6100 C 591.008 1.20049 -1.6345 0
M  V30 6101 C 591.341 1.91121 -0.344444 0
M  V30 6102 O 590.616 1.83125 0.655396 0
M  V30 6103 C 590.899 2.22624 -2.83038 0
M  V30 6104 C 590.752 1.55708 -4.21989 0
M  V30 6105 C 592.071 3.23718 -2.98152 0
M  V30 6106 H 589.19 0.435085 -0.59487 0
M  V30 6107 H 591.832 0.491183 -1.83541 0
M  V30 6108 H 589.982 2.83117 -2.66039 0
M  V30 6109 H 591.654 0.986367 -4.50631 0
M  V30 6110 H 589.897 0.859647 -4.25197 0
M  V30 6111 H 590.568 2.30357 -5.01637 0
M  V30 6112 H 593.044 2.73269 -3.13788 0
M  V30 6113 H 591.92 3.92795 -3.83411 0
M  V30 6114 H 592.181 3.89179 -2.09743 0
M  V30 6115 N 591.24 1.41047 0.703093 0
M  V30 6116 C 592.468 1.4334 1.49202 0
M  V30 6117 C 592.883 0.0365596 1.88765 0
M  V30 6118 O 592.24 -0.942419 1.56284 0
M  V30 6119 C 592.291 2.33538 2.75939 0
M  V30 6120 O 592.012 3.67786 2.38045 0
M  V30 6121 C 593.513 2.44555 3.6974 0
M  V30 6122 H 590.733 0.488472 0.460039 0
M  V30 6123 H 593.277 1.85245 0.86629 0
M  V30 6124 H 591.432 1.94962 3.34766 0
M  V30 6125 H 591.846 4.15816 3.19683 0
M  V30 6126 H 593.32 3.11849 4.55471 0
M  V30 6127 H 593.797 1.47447 4.1371 0
M  V30 6128 H 594.403 2.83735 3.16819 0
M  V30 6129 N 592.718 -0.936591 1.26751 0
M  V30 6130 C 593.666 -2.0573 1.08527 0
M  V30 6131 C 594.66 -1.69397 0.0108784 0
M  V30 6132 O 595.866 -1.79215 0.167915 0
M  V30 6133 H 592.241 -0.673691 0.334133 0
M  V30 6134 H 594.212 -2.1825 2.03493 0
M  V30 6135 C 592.961 -3.39738 0.739845 0
M  V30 6136 H 592.284 -3.68174 1.55845 0
M  V30 6137 H 593.724 -4.18955 0.652149 0
M  V30 6138 C 592.183 -3.32292 -0.555288 0
M  V30 6139 O 592.713 -3.68794 -1.59229 0
M  V30 6140 N 590.919 -2.85394 -0.54762 0
M  V30 6141 H 590.466 -2.55886 0.296667 0
M  V30 6142 H 590.424 -2.80795 -1.41427 0
M  V30 6143 N 594.196 -1.08629 -1.14182 0
M  V30 6144 C 595.146 -0.687882 -2.17376 0
M  V30 6145 C 596.13 0.293632 -1.58198 0
M  V30 6146 O 597.322 0.105292 -1.76687 0
M  V30 6147 C 594.451 -0.101184 -3.43151 0
M  V30 6148 C 593.537 -1.10862 -4.09354 0
M  V30 6149 N 593.928 -2.29285 -4.50846 0
M  V30 6150 C 592.226 -0.944897 -4.35876 0
M  V30 6151 C 592.927 -2.93305 -5.02342 0
M  V30 6152 N 591.903 -2.20903 -4.96692 0
M  V30 6153 H 595.705 -1.58963 -2.472 0
M  V30 6154 H 593.219 -0.961329 -1.3089 0
M  V30 6155 H 595.216 0.202209 -4.16409 0
M  V30 6156 H 593.876 0.795522 -3.14804 0
M  V30 6157 H 594.887 -2.66927 -4.43813 0
M  V30 6158 H 591.564 -0.102186 -4.17375 0
M  V30 6159 H 592.954 -3.93932 -5.44304 0
M  V30 6160 N 595.674 1.31259 -0.872281 0
M  V30 6161 C 596.606 2.27396 -0.28697 0
M  V30 6162 C 597.619 1.53181 0.551297 0
M  V30 6163 O 598.808 1.74561 0.372914 0
M  V30 6164 C 595.908 3.33335 0.611617 0
M  V30 6165 C 595.081 4.36966 -0.194729 0
M  V30 6166 C 594.14 5.22387 0.632358 0
M  V30 6167 O 593.166 5.69169 0.0595691 0
M  V30 6168 N 594.368 5.46985 1.94391 0
M  V30 6169 H 597.133 2.78261 -1.11314 0
M  V30 6170 H 594.694 1.44306 -0.733994 0
M  V30 6171 H 596.686 3.87398 1.17068 0
M  V30 6172 H 595.256 2.82496 1.33846 0
M  V30 6173 H 594.476 3.82945 -0.935241 0
M  V30 6174 H 595.764 5.03273 -0.747935 0
M  V30 6175 H 595.162 5.10737 2.43237 0
M  V30 6176 H 593.719 6.03973 2.45071 0
M  V30 6177 N 597.152 0.631951 1.44375 0
M  V30 6178 C 598.401 0.134214 2.01253 0
M  V30 6179 C 598.714 -1.25171 1.50305 0
M  V30 6180 O 599.92 -1.8435 1.99317 0
M  V30 6181 C 598.376 0.189187 3.59402 0
M  V30 6182 C 597.984 1.57647 4.19346 0
M  V30 6183 C 599.728 -0.252044 4.23751 0
M  V30 6184 C 597.635 1.58651 5.69722 0
M  V30 6185 H 596.565 0.0464101 0.75257 0
M  V30 6186 H 599.216 0.790868 1.65582 0
M  V30 6187 H 597.598 -0.534584 3.92375 0
M  V30 6188 H 598.772 2.32389 3.97909 0
M  V30 6189 H 597.087 1.96186 3.67288 0
M  V30 6190 H 599.684 -0.264084 5.34047 0
M  V30 6191 H 600.027 -1.27951 3.96149 0
M  V30 6192 H 600.56 0.41926 3.95584 0
M  V30 6193 H 597.299 2.59237 6.0206 0
M  V30 6194 H 596.819 0.882039 5.93279 0
M  V30 6195 H 598.498 1.32082 6.33375 0
M  V30 6196 N 598.631 -1.53133 0.372548 0
M  V30 6197 C 599.877 -2.02336 -0.207823 0
M  V30 6198 C 600.232 -1.25477 -1.45853 0
M  V30 6199 O 599.525 -0.341971 -1.88524 0
M  V30 6200 C 599.719 -3.53206 -0.545938 0
M  V30 6201 C 599.548 -4.44674 0.670454 0
M  V30 6202 C 598.318 -4.91217 1.18465 0
M  V30 6203 C 600.516 -4.90772 1.53777 0
M  V30 6204 N 598.498 -5.66711 2.36034 0
M  V30 6205 C 599.869 -5.64678 2.56004 0
M  V30 6206 C 601.924 -4.72836 1.55983 0
M  V30 6207 C 600.627 -6.22555 3.60303 0
M  V30 6208 C 602.653 -5.31583 2.59179 0
M  V30 6209 C 602.015 -6.05381 3.6013 0
M  V30 6210 H 598.114 -0.781048 -0.0385783 0
M  V30 6211 H 600.698 -1.87665 0.518664 0
M  V30 6212 H 598.869 -3.68024 -1.24149 0
M  V30 6213 H 600.601 -3.89123 -1.112 0
M  V30 6214 H 597.356 -4.67652 0.748205 0
M  V30 6215 H 597.78 -6.09117 2.95475 0
M  V30 6216 H 602.422 -4.15299 0.792877 0
M  V30 6217 H 600.14 -6.79183 4.37876 0
M  V30 6218 H 603.726 -5.19595 2.61749 0
M  V30 6219 H 602.606 -6.50028 4.38672 0
M  V30 6220 N 600.109 -0.101901 -1.5727 0
M  V30 6221 C 601.334 0.571759 -1.99363 0
M  V30 6222 C 601.759 1.60507 -0.980768 0
M  V30 6223 O 601.117 1.81231 0.0498517 0
M  V30 6224 C 601.165 1.18996 -3.404 0
M  V30 6225 O 600.269 2.30572 -3.41922 0
M  V30 6226 H 599.61 0.144449 -0.648098 0
M  V30 6227 H 602.14 -0.185325 -2.03759 0
M  V30 6228 H 602.15 1.52962 -3.78241 0
M  V30 6229 H 600.825 0.432984 -4.1364 0
M  V30 6230 H 599.402 1.98173 -3.15883 0
M  V30 6231 N 601.587 1.56661 0.17182 0
M  V30 6232 C 602.497 1.99604 1.2327 0
M  V30 6233 C 603.513 0.907333 1.4847 0
M  V30 6234 O 604.689 1.21492 1.60629 0
M  V30 6235 C 601.754 2.34685 2.55194 0
M  V30 6236 C 600.815 3.57381 2.3786 0
M  V30 6237 C 600.048 3.90779 3.63494 0
M  V30 6238 O 600.271 3.25152 4.6865 0
M  V30 6239 O 599.205 4.84129 3.57634 0
M  V30 6240 H 603.031 2.90114 0.898192 0
M  V30 6241 H 600.616 1.44522 0.378647 0
M  V30 6242 H 602.498 2.5822 3.33017 0
M  V30 6243 H 601.173 1.47336 2.88225 0
M  V30 6244 H 600.08 3.39064 1.5807 0
M  V30 6245 H 601.413 4.45268 2.09754 0
M  V30 6246 N 603.065 -0.440357 1.51323 0
M  V30 6247 C 604.312 -1.19004 1.63842 0
M  V30 6248 C 604.64 -1.91266 0.35321 0
M  V30 6249 O 603.895 -1.84143 -0.662565 0
M  V30 6250 C 604.194 -2.2339 2.78984 0
M  V30 6251 C 603.86 -1.68162 4.18369 0
M  V30 6252 C 602.522 -1.52823 4.56288 0
M  V30 6253 C 604.874 -1.27524 5.05358 0
M  V30 6254 C 602.202 -0.953157 5.78906 0
M  V30 6255 C 604.554 -0.714474 6.28552 0
M  V30 6256 C 603.218 -0.547961 6.65247 0
M  V30 6257 H 602.488 -0.435468 0.59954 0
M  V30 6258 H 605.135 -0.481538 1.85347 0
M  V30 6259 H 603.44 -3.00267 2.51688 0
M  V30 6260 H 605.137 -2.81211 2.85869 0
M  V30 6261 H 601.727 -1.81077 3.8847 0
M  V30 6262 H 605.911 -1.38197 4.76671 0
M  V30 6263 H 601.167 -0.811882 6.05986 0
M  V30 6264 H 605.341 -0.391059 6.95301 0
M  V30 6265 H 602.968 -0.100222 7.60134 0
M  V30 6266 N 604.543 -1.41418 -0.695603 0
M  V30 6267 C 605.959 -1.23887 -1.00619 0
M  V30 6268 C 606.159 -0.128206 -2.01092 0
M  V30 6269 O 605.215 0.507408 -2.47349 0
M  V30 6270 C 606.528 -2.58816 -1.53083 0
M  V30 6271 C 608.076 -2.65998 -1.64967 0
M  V30 6272 C 608.551 -4.01244 -2.20833 0
M  V30 6273 N 610.042 -4.0309 -2.28194 0
M  V30 6274 C 610.777 -5.04539 -2.72448 0
M  V30 6275 N 610.273 -6.16378 -3.16306 0
M  V30 6276 N 612.066 -4.91901 -2.72011 0
M  V30 6277 H 604.217 -2.12379 -0.0300061 0
M  V30 6278 H 606.48 -0.944958 -0.0758797 0
M  V30 6279 H 606.186 -3.40842 -0.867147 0
M  V30 6280 H 606.06 -2.81299 -2.51298 0
M  V30 6281 H 608.447 -1.84331 -2.30448 0
M  V30 6282 H 608.528 -2.47325 -0.652982 0
M  V30 6283 H 608.172 -4.83359 -1.55968 0
M  V30 6284 H 608.102 -4.17257 -3.21254 0
M  V30 6285 H 610.593 -3.22341 -1.97242 0
M  V30 6286 H 610.906 -6.89658 -3.487 0
M  V30 6287 H 609.251 -6.19914 -3.14215 0
M  V30 6288 H 612.442 -4.03613 -2.37095 0
M  V30 6289 H 612.615 -5.71102 -3.06181 0
M  V30 6290 N 606.021 0.929856 -1.27246 0
M  V30 6291 C 606.969 2.05151 -1.09616 0
M  V30 6292 C 607.963 1.69388 -0.0198617 0
M  V30 6293 O 609.169 1.79124 -0.177417 0
M  V30 6294 H 605.544 0.671909 -0.337701 0
M  V30 6295 H 607.515 2.17168 -2.04648 0
M  V30 6296 C 606.264 3.3934 -0.757851 0
M  V30 6297 H 605.587 3.67343 -1.57795 0
M  V30 6298 H 607.027 4.18603 -0.674358 0
M  V30 6299 C 605.486 3.32582 0.537658 0
M  V30 6300 O 606.016 3.69633 1.57271 0
M  V30 6301 N 604.222 2.8568 0.532478 0
M  V30 6302 H 603.769 2.55725 -0.310233 0
M  V30 6303 H 603.727 2.81541 1.39936 0
M  V30 6304 N 607.499 1.09233 1.13605 0
M  V30 6305 C 608.462 0.733553 2.17144 0
M  V30 6306 C 609.462 -0.235873 1.59061 0
M  V30 6307 O 610.652 -0.0143167 1.74194 0
M  V30 6308 C 607.784 0.084471 3.40795 0
M  V30 6309 H 608.977 1.65049 2.50397 0
M  V30 6310 H 606.53 0.891264 1.28399 0
M  V30 6311 H 607.265 -0.843795 3.1313 0
M  V30 6312 H 607.05 0.781985 3.84223 0
M  V30 6313 H 608.54 -0.151216 4.17326 0
M  V30 6314 N 608.977 -1.30795 0.87923 0
M  V30 6315 C 610.223 -1.96653 0.495519 0
M  V30 6316 C 610.556 -1.69282 -0.951703 0
M  V30 6317 O 609.831 -0.994374 -1.6716 0
M  V30 6318 C 610.114 -3.51898 0.764174 0
M  V30 6319 C 609.967 -3.88808 2.2616 0
M  V30 6320 C 611.286 -4.39462 0.236825 0
M  V30 6321 H 608.405 -0.7143 0.181507 0
M  V30 6322 H 611.047 -1.54765 1.10217 0
M  V30 6323 H 609.197 -3.87709 0.247841 0
M  V30 6324 H 610.869 -3.63051 2.8459 0
M  V30 6325 H 609.112 -3.37082 2.73053 0
M  V30 6326 H 609.783 -4.97086 2.4002 0
M  V30 6327 H 612.259 -4.10528 0.678683 0
M  V30 6328 H 611.135 -5.47018 0.454176 0
M  V30 6329 H 611.396 -4.33621 -0.861683 0
M  V30 6330 N 610.455 -0.639598 -1.44038 0
M  V30 6331 C 611.402 0.0602458 -2.30721 0
M  V30 6332 C 612.372 0.828352 -1.43971 0
M  V30 6333 O 613.557 0.807693 -1.72861 0
M  V30 6334 C 610.697 1.03008 -3.29368 0
M  V30 6335 C 609.81 0.259502 -4.3122 0
M  V30 6336 C 608.945 1.22191 -5.16955 0
M  V30 6337 C 607.984 0.440978 -6.10509 0
M  V30 6338 N 607.121 1.35428 -6.88915 0
M  V30 6339 H 611.961 -0.684867 -2.90023 0
M  V30 6340 H 609.498 -0.349509 -1.42888 0
M  V30 6341 H 611.456 1.60583 -3.85057 0
M  V30 6342 H 610.086 1.74222 -2.71747 0
M  V30 6343 H 609.138 -0.432317 -3.77935 0
M  V30 6344 H 610.45 -0.348347 -4.97582 0
M  V30 6345 H 609.604 1.86873 -5.77203 0
M  V30 6346 H 608.343 1.86367 -4.50687 0
M  V30 6347 H 607.348 -0.219279 -5.49363 0
M  V30 6348 H 608.573 -0.196192 -6.78817 0
M  V30 6349 H 606.519 1.9831 -6.25307 0
M  V30 6350 H 606.436 0.800657 -7.51748 0
M  V30 6351 H 607.704 1.98967 -7.53679 0
M  V30 6352 N 611.933 1.52934 -0.380664 0
M  V30 6353 C 613.181 2.01069 0.203874 0
M  V30 6354 C 613.502 1.26922 1.4804 0
M  V30 6355 O 612.772 0.386787 1.92044 0
M  V30 6356 H 611.352 0.742882 0.0783279 0
M  V30 6357 H 614.014 1.88099 -0.510368 0
M  V30 6358 H 613.11 3.09258 0.42021 0
M  V30 6359 N 613.412 0.11024 1.57214 0
M  V30 6360 C 614.658 -0.550684 1.9518 0
M  V30 6361 C 614.991 -1.66885 0.993122 0
M  V30 6362 O 614.266 -1.94479 0.0287907 0
M  V30 6363 C 614.549 -1.09163 3.43155 0
M  V30 6364 C 614.402 0.0225198 4.49794 0
M  V30 6365 C 615.721 -1.98527 3.92778 0
M  V30 6366 H 612.84 -0.198706 0.709708 0
M  V30 6367 H 615.482 0.184024 1.89107 0
M  V30 6368 H 613.632 -1.71775 3.48462 0
M  V30 6369 H 615.304 0.657443 4.56591 0
M  V30 6370 H 613.547 0.686868 4.28328 0
M  V30 6371 H 614.218 -0.39706 5.5057 0
M  V30 6372 H 616.694 -1.458 3.8972 0
M  V30 6373 H 615.57 -2.33298 4.96853 0
M  V30 6374 H 615.831 -2.90846 3.32958 0
M  V30 6375 N 614.89 -1.56749 -0.16351 0
M  V30 6376 C 615.838 -1.97939 -1.22159 0
M  V30 6377 C 616.832 -0.869288 -1.45395 0
M  V30 6378 O 618.038 -1.05443 -1.45883 0
M  V30 6379 H 614.413 -0.629869 -0.410815 0
M  V30 6380 H 616.384 -2.86115 -0.847381 0
M  V30 6381 C 615.133 -2.36206 -2.55151 0
M  V30 6382 H 614.456 -3.2117 -2.38097 0
M  V30 6383 H 615.896 -2.68863 -3.27854 0
M  V30 6384 C 614.355 -1.20841 -3.14482 0
M  V30 6385 O 614.885 -0.500258 -3.98573 0
M  V30 6386 N 613.091 -0.976943 -2.73686 0
M  V30 6387 H 612.638 -1.55457 -2.05404 0
M  V30 6388 H 612.596 -0.206912 -3.13718 0
M  V30 6389 N 616.368 0.432326 -1.51554 0
M  V30 6390 C 617.593 1.20824 -1.68571 0
M  V30 6391 C 618.018 1.84126 -0.384596 0
M  V30 6392 O 617.376 1.69025 0.655751 0
M  V30 6393 C 617.424 2.26429 -2.80646 0
M  V30 6394 O 616.528 3.32032 -2.44598 0
M  V30 6395 H 615.869 0.353765 -0.561913 0
M  V30 6396 H 618.399 0.509916 -1.98144 0
M  V30 6397 H 618.409 2.71133 -3.04878 0
M  V30 6398 H 617.084 1.79733 -3.75058 0
M  V30 6399 H 615.661 2.92769 -2.30956 0
M  V30 6400 N 617.846 1.41785 0.688094 0
M  V30 6401 C 618.794 1.44436 1.82321 0
M  V30 6402 C 619.788 0.321544 1.6632 0
M  V30 6403 O 620.994 0.493931 1.73091 0
M  V30 6404 H 617.369 0.452084 0.600936 0
M  V30 6405 H 619.34 2.40087 1.77202 0
M  V30 6406 C 618.089 1.35071 3.20392 0
M  V30 6407 H 617.412 2.2076 3.33324 0
M  V30 6408 H 618.852 1.40988 3.99873 0
M  V30 6409 C 617.311 0.0639127 3.36839 0
M  V30 6410 O 617.841 -0.888495 3.91751 0
M  V30 6411 N 616.047 -0.0146114 2.90596 0
M  V30 6412 H 615.594 0.761191 2.46097 0
M  V30 6413 H 615.552 -0.874988 3.01979 0
M  V30 6414 N 619.324 -0.923095 1.27737 0
M  V30 6415 C 620.287 -2.00587 1.10894 0
M  V30 6416 C 621.287 -1.60718 0.0514927 0
M  V30 6417 O 622.477 -1.71658 0.296481 0
M  V30 6418 C 619.609 -3.33829 0.690717 0
M  V30 6419 H 620.802 -2.16959 2.07048 0
M  V30 6420 H 618.355 -1.10451 1.1059 0
M  V30 6421 H 619.09 -3.23157 -0.272 0
M  V30 6422 H 618.875 -3.64125 1.45448 0
M  V30 6423 H 620.365 -4.13336 0.595252 0
M  V30 6424 N 620.802 -1.09834 -1.13024 0
M  V30 6425 C 621.765 -0.745058 -2.16752 0
M  V30 6426 C 622.765 0.227435 -1.59183 0
M  V30 6427 O 623.955 0.0050786 -1.74199 0
M  V30 6428 C 621.087 -0.102543 -3.40746 0
M  V30 6429 H 622.28 -1.66375 -2.49518 0
M  V30 6430 H 619.833 -0.898061 -1.27924 0
M  V30 6431 H 620.568 0.827177 -3.13573 0
M  V30 6432 H 620.353 -0.80235 -3.83803 0
M  V30 6433 H 621.843 0.129082 -4.174 0
M  V30 6434 N 622.28 1.30327 -0.886154 0
M  V30 6435 C 623.529 1.95373 -0.501243 0
M  V30 6436 C 623.842 1.70722 0.954634 0
M  V30 6437 O 625.048 2.29761 1.44644 0
M  V30 6438 C 623.504 3.49828 -0.845493 0
M  V30 6439 C 623.112 3.83296 -2.31922 0
M  V30 6440 C 624.856 4.2118 -0.529838 0
M  V30 6441 C 622.763 5.30935 -2.60504 0
M  V30 6442 H 621.693 0.731274 -0.183722 0
M  V30 6443 H 624.344 1.48258 -1.08129 0
M  V30 6444 H 622.726 3.95522 -0.19452 0
M  V30 6445 H 623.9 3.48508 -3.01461 0
M  V30 6446 H 622.215 3.2505 -2.60253 0
M  V30 6447 H 624.812 5.29825 -0.720401 0
M  V30 6448 H 625.155 4.12902 0.530828 0
M  V30 6449 H 625.688 3.81173 -1.13806 0
M  V30 6450 H 622.427 5.44265 -3.65316 0
M  V30 6451 H 621.947 5.67019 -1.95575 0
M  V30 6452 H 623.626 5.98381 -2.46066 0
M  V30 6453 N 623.758 0.647228 1.43697 0
M  V30 6454 C 625.007 0.155552 2.01099 0
M  V30 6455 C 625.32 -1.23569 1.51624 0
M  V30 6456 O 626.526 -1.82226 2.01261 0
M  V30 6457 C 624.982 0.227296 3.59182 0
M  V30 6458 C 624.59 1.62086 4.17651 0
M  V30 6459 C 626.334 -0.207085 4.23995 0
M  V30 6460 C 624.241 1.64685 5.68008 0
M  V30 6461 H 623.171 0.0543895 0.752036 0
M  V30 6462 H 625.822 0.808386 1.64734 0
M  V30 6463 H 624.204 -0.492937 3.9292 0
M  V30 6464 H 625.378 2.36597 3.95422 0
M  V30 6465 H 623.693 2.0007 3.65186 0
M  V30 6466 H 626.29 -0.207426 5.34298 0
M  V30 6467 H 626.633 -1.23742 3.97484 0
M  V30 6468 H 627.166 0.461193 3.95118 0
M  V30 6469 H 623.905 2.65608 5.99277 0
M  V30 6470 H 623.425 0.944914 5.9231 0
M  V30 6471 H 625.104 1.38792 6.31938 0
M  V30 6472 N 625.236 -1.5273 0.388769 0
M  V30 6473 C 626.484 -2.01174 -0.193208 0
M  V30 6474 C 626.805 -1.27705 -1.47365 0
M  V30 6475 O 626.075 -0.396966 -1.91836 0
M  V30 6476 H 624.655 -0.743287 -0.0743871 0
M  V30 6477 H 627.317 -1.87826 0.520336 0
M  V30 6478 H 626.413 -3.09477 -0.403803 0
M  V30 6479 N 626.714 -0.118576 -1.57153 0
M  V30 6480 C 627.624 0.845484 -2.18835 0
M  V30 6481 C 628.64 1.29299 -1.16438 0
M  V30 6482 O 629.816 1.35607 -1.48905 0
M  V30 6483 C 626.881 2.07795 -2.77529 0
M  V30 6484 C 625.942 1.6824 -3.9496 0
M  V30 6485 C 625.175 2.85612 -4.50845 0
M  V30 6486 O 625.398 4.01025 -4.05629 0
M  V30 6487 O 624.332 2.62721 -5.41536 0
M  V30 6488 H 628.158 0.350568 -3.0167 0
M  V30 6489 H 625.743 0.107013 -1.49016 0
M  V30 6490 H 627.625 2.79978 -3.14945 0
M  V30 6491 H 626.3 2.56294 -1.97725 0
M  V30 6492 H 625.207 0.931663 -3.62313 0
M  V30 6493 H 626.54 1.24484 -4.76198 0
M  V30 6494 N 628.193 1.56834 0.155195 0
M  V30 6495 C 629.423 1.86778 0.883044 0
M  V30 6496 C 629.831 0.703824 1.75622 0
M  V30 6497 O 629.174 -0.33581 1.80605 0
M  V30 6498 C 629.236 3.1133 1.79761 0
M  V30 6499 C 628.9 4.43504 1.10242 0
M  V30 6500 C 629.897 5.17859 0.460204 0
M  V30 6501 C 627.582 4.90233 1.09437 0
M  V30 6502 C 629.576 6.37144 -0.180782 0
M  V30 6503 C 627.263 6.09444 0.449569 0
M  V30 6504 C 628.261 6.82744 -0.186888 0
M  V30 6505 O 627.949 7.99692 -0.821486 0
M  V30 6506 H 627.681 0.62352 0.261149 0
M  V30 6507 H 630.235 2.04813 0.155204 0
M  V30 6508 H 628.465 2.89282 2.56618 0
M  V30 6509 H 630.154 3.27587 2.39669 0
M  V30 6510 H 630.92 4.8283 0.458289 0
M  V30 6511 H 626.799 4.33109 1.57917 0
M  V30 6512 H 630.343 6.94296 -0.678154 0
M  V30 6513 H 626.24 6.43936 0.449123 0
M  V30 6514 H 627.008 8.15306 -0.722337 0
M  V30 6515 N 629.671 -0.424282 1.51781 0
M  V30 6516 C 630.917 -1.17117 1.66298 0
M  V30 6517 C 631.272 -1.88595 0.380767 0
M  V30 6518 O 630.565 -1.81151 -0.624094 0
M  V30 6519 C 630.759 -2.20418 2.81337 0
M  V30 6520 C 630.588 -1.59081 4.20622 0
M  V30 6521 C 629.358 -1.37007 4.86371 0
M  V30 6522 C 631.556 -1.05992 5.0326 0
M  V30 6523 N 629.538 -0.714049 6.09733 0
M  V30 6524 C 630.909 -0.529933 6.17731 0
M  V30 6525 C 632.964 -0.952927 4.88696 0
M  V30 6526 C 631.667 0.0965457 7.19235 0
M  V30 6527 C 633.693 -0.340325 5.9042 0
M  V30 6528 C 633.055 0.179057 7.04172 0
M  V30 6529 H 629.154 -0.41577 0.662314 0
M  V30 6530 H 631.738 -0.46579 1.89046 0
M  V30 6531 H 629.909 -2.8833 2.60231 0
M  V30 6532 H 631.641 -2.8736 2.84968 0
M  V30 6533 H 628.396 -1.63543 4.44467 0
M  V30 6534 H 628.82 -0.403101 6.75799 0
M  V30 6535 H 633.462 -1.34033 4.00993 0
M  V30 6536 H 631.18 0.496044 8.06576 0
M  V30 6537 H 634.766 -0.259266 5.81222 0
M  V30 6538 H 633.646 0.645626 7.81538 0
M  V30 6539 N 631.149 -1.42148 -0.680565 0
M  V30 6540 C 632.397 -1.42029 -1.43779 0
M  V30 6541 C 632.718 -0.0356347 -1.94967 0
M  V30 6542 O 631.988 0.924936 -1.7269 0
M  V30 6543 H 630.568 -0.522835 -0.533529 0
M  V30 6544 H 633.23 -1.7752 -0.804538 0
M  V30 6545 H 632.326 -2.11658 -2.29363 0
M  V30 6546 N 632.627 0.916307 -1.28225 0
M  V30 6547 C 633.575 2.03977 -1.11786 0
M  V30 6548 C 634.569 1.69358 -0.0378265 0
M  V30 6549 O 635.775 1.78925 -0.196405 0
M  V30 6550 H 632.15 0.66829 -0.344809 0
M  V30 6551 H 634.121 2.14985 -2.06939 0
M  V30 6552 C 632.87 3.38518 -0.7938 0
M  V30 6553 H 632.193 3.65649 -1.61682 0
M  V30 6554 H 633.633 4.17864 -0.718719 0
M  V30 6555 C 632.092 3.33134 0.502353 0
M  V30 6556 O 632.622 3.71281 1.53341 0
M  V30 6557 N 630.828 2.86229 0.502147 0
M  V30 6558 H 630.375 2.55382 -0.337338 0
M  V30 6559 H 630.333 2.83009 1.36942 0
M  V30 6560 N 634.105 1.10431 1.1244 0
M  V30 6561 C 635.068 0.756542 2.16354 0
M  V30 6562 C 636.068 -0.21899 1.59302 0
M  V30 6563 O 637.258 0.00415969 1.742 0
M  V30 6564 C 634.39 0.120612 3.40687 0
M  V30 6565 H 635.583 1.67696 2.48632 0
M  V30 6566 H 633.136 0.904832 1.27446 0
M  V30 6567 H 633.871 -0.810536 3.14008 0
M  V30 6568 H 633.656 0.822693 3.83372 0
M  V30 6569 H 635.146 -0.106945 4.17463 0
M  V30 6570 N 635.583 -1.29855 0.893053 0
M  V30 6571 C 636.531 -2.29867 0.355512 0
M  V30 6572 C 637.525 -1.60502 -0.541801 0
M  V30 6573 O 638.731 -1.74902 -0.425339 0
M  V30 6574 H 635.106 -0.745805 0.0963247 0
M  V30 6575 H 637.077 -2.72655 1.21252 0
M  V30 6576 C 635.826 -3.453 -0.407801 0
M  V30 6577 H 635.149 -3.98864 0.273426 0
M  V30 6578 H 636.589 -4.17334 -0.748887 0
M  V30 6579 C 635.048 -2.96051 -1.60795 0
M  V30 6580 O 635.578 -2.96763 -2.7073 0
M  V30 6581 N 633.784 -2.51963 -1.44786 0
M  V30 6582 H 633.331 -2.51583 -0.553498 0
M  V30 6583 H 633.289 -2.1937 -2.2522 0
M  V30 6584 N 637.061 -0.65484 -1.43351 0
M  V30 6585 C 638.472 -0.248506 -1.85039 0
M  V30 6586 C 638.823 1.20526 -1.54816 0
M  V30 6587 O 637.948 1.92016 -0.99794 0
M  V30 6588 C 638.543 -0.444241 -3.35875 0
M  V30 6589 C 637.102 -0.0922108 -3.76287 0
M  V30 6590 C 636.249 -0.746327 -2.67068 0
M  V30 6591 H 639.2 -0.8584 -1.33481 0
M  V30 6592 H 639.221 0.309762 -3.79237 0
M  V30 6593 H 638.733 -1.50239 -3.5784 0
M  V30 6594 H 636.834 0.96328 -3.59933 0
M  V30 6595 H 636.947 -0.518807 -4.76283 0
M  V30 6596 H 635.311 -0.179416 -2.54067 0
M  V30 6597 H 636.094 -1.80754 -2.91861 0
M  V30 6598 N 638.539 1.52521 -0.396863 0
M  V30 6599 C 639.785 2.02641 0.175606 0
M  V30 6600 C 640.14 1.27782 1.43839 0
M  V30 6601 O 639.433 0.371921 1.87956 0
M  V30 6602 C 639.627 3.5403 0.489677 0
M  V30 6603 C 639.456 4.43551 -0.741113 0
M  V30 6604 C 638.226 4.8927 -1.26265 0
M  V30 6605 C 640.424 4.88263 -1.61565 0
M  V30 6606 N 638.406 5.62884 -2.4502 0
M  V30 6607 C 639.777 5.60534 -2.64955 0
M  V30 6608 C 641.832 4.70294 -1.63486 0
M  V30 6609 C 640.535 6.16744 -3.70162 0
M  V30 6610 C 642.561 5.27392 -2.67603 0
M  V30 6611 C 641.923 5.99575 -3.69715 0
M  V30 6612 H 638.022 0.781563 0.0261477 0
M  V30 6613 H 640.606 1.86816 -0.548454 0
M  V30 6614 H 638.777 3.69952 1.18279 0
M  V30 6615 H 640.509 3.90843 1.04996 0
M  V30 6616 H 637.264 4.66403 -0.822509 0
M  V30 6617 H 637.688 6.04339 -3.05128 0
M  V30 6618 H 642.33 4.13985 -0.858848 0
M  V30 6619 H 640.048 6.72131 -4.48626 0
M  V30 6620 H 643.634 5.15365 -2.69982 0
M  V30 6621 H 642.514 6.42967 -4.48958 0
M  V30 6622 N 640.017 0.126909 1.57088 0
M  V30 6623 C 641.245 -0.53667 1.99819 0
M  V30 6624 C 641.66 -1.5972 1.00673 0
M  V30 6625 O 641.017 -1.825 0.000747365 0
M  V30 6626 C 641.068 -1.15563 3.42531 0
M  V30 6627 O 640.789 -0.137483 4.37884 0
M  V30 6628 C 642.29 -1.90176 4.00435 0
M  V30 6629 H 639.51 -0.141443 0.655923 0
M  V30 6630 H 642.054 0.215578 2.03361 0
M  V30 6631 H 640.209 -1.85861 3.39904 0
M  V30 6632 H 640.623 -0.588229 5.21191 0
M  V30 6633 H 642.097 -2.28801 5.02349 0
M  V30 6634 H 642.574 -2.78002 3.40017 0
M  V30 6635 H 643.18 -1.24623 4.06632 0
M  V30 6636 N 641.495 -1.56914 -0.146875 0
M  V30 6637 C 642.458 -1.97368 -1.16526 0
M  V30 6638 C 643.458 -0.860223 -1.35856 0
M  V30 6639 O 644.648 -1.12684 -1.32846 0
M  V30 6640 C 641.78 -2.28974 -2.52555 0
M  V30 6641 H 642.973 -2.88523 -0.818209 0
M  V30 6642 H 640.526 -1.5135 -0.390221 0
M  V30 6643 H 641.261 -1.40611 -2.92231 0
M  V30 6644 H 641.046 -3.10157 -2.39886 0
M  V30 6645 H 642.536 -2.61109 -3.25902 0
M  V30 6646 N 642.974 0.416227 -1.52004 0
M  V30 6647 C 643.906 1.52552 -1.71058 0
M  V30 6648 C 644.919 1.51693 -0.59102 0
M  V30 6649 O 646.108 1.56087 -0.865973 0
M  V30 6650 C 643.208 2.91455 -1.72937 0
M  V30 6651 C 642.381 3.16584 -3.01816 0
M  V30 6652 C 641.44 4.35322 -2.95603 0
M  V30 6653 O 640.466 4.32947 -3.6952 0
M  V30 6654 N 641.668 5.40049 -2.12903 0
M  V30 6655 H 644.433 1.36604 -2.66757 0
M  V30 6656 H 641.994 0.60544 -1.50153 0
M  V30 6657 H 643.986 3.68944 -1.66321 0
M  V30 6658 H 642.556 3.00895 -0.847418 0
M  V30 6659 H 641.776 2.27203 -3.22137 0
M  V30 6660 H 643.064 3.30213 -3.87088 0
M  V30 6661 H 642.462 5.44823 -1.52265 0
M  V30 6662 H 641.019 6.16308 -2.1215 0
M  V30 6663 N 644.452 1.42507 0.673017 0
M  V30 6664 C 645.7 1.42789 1.43023 0
M  V30 6665 C 646.021 0.0459738 1.94946 0
M  V30 6666 O 645.291 -0.915765 1.73178 0
M  V30 6667 H 643.871 0.525657 0.530748 0
M  V30 6668 H 646.533 1.77944 0.795113 0
M  V30 6669 H 645.629 2.12872 2.28237 0
M  V30 6670 N 645.93 -0.909495 1.28709 0
M  V30 6671 C 646.878 -2.03381 1.12866 0
M  V30 6672 C 647.872 -1.69335 0.0468074 0
M  V30 6673 O 649.078 -1.78819 0.205891 0
M  V30 6674 H 645.453 -0.666452 0.348348 0
M  V30 6675 H 647.424 -2.13885 2.08077 0
M  V30 6676 C 646.173 -3.38092 0.811742 0
M  V30 6677 H 645.496 -3.64786 1.63619 0
M  V30 6678 H 646.936 -4.17477 0.740869 0
M  V30 6679 C 645.395 -3.33395 -0.484679 0
M  V30 6680 O 645.925 -3.72089 -1.5137 0
M  V30 6681 N 644.131 -2.86491 -0.486961 0
M  V30 6682 H 643.678 -2.55199 0.350877 0
M  V30 6683 H 643.636 -2.83731 -1.3544 0
M  V30 6684 N 647.408 -1.11026 -1.11852 0
M  V30 6685 C 648.34 -0.72249 -2.17515 0
M  V30 6686 C 649.353 0.243782 -1.60964 0
M  V30 6687 O 650.542 0.0273252 -1.78479 0
M  V30 6688 C 647.642 -0.0463979 -3.38868 0
M  V30 6689 C 646.815 -1.0384 -4.24895 0
M  V30 6690 C 645.874 -0.392659 -5.24733 0
M  V30 6691 O 644.9 -1.0453 -5.5952 0
M  V30 6692 N 646.102 0.846296 -5.74298 0
M  V30 6693 H 648.867 -1.63161 -2.51393 0
M  V30 6694 H 646.428 -0.999899 -1.27333 0
M  V30 6695 H 648.42 0.397215 -4.02746 0
M  V30 6696 H 646.99 0.765231 -3.03089 0
M  V30 6697 H 646.21 -1.6601 -3.57539 0
M  V30 6698 H 647.498 -1.70968 -4.79215 0
M  V30 6699 H 646.896 1.39578 -5.4821 0
M  V30 6700 H 645.453 1.23296 -6.40032 0
M  V30 6701 N 648.886 1.2938 -0.899927 0
M  V30 6702 C 650.132 1.96206 -0.536153 0
M  V30 6703 C 650.487 1.69647 0.90761 0
M  V30 6704 O 649.78 0.999089 1.63489 0
M  V30 6705 C 649.974 3.49114 -0.765113 0
M  V30 6706 C 649.803 3.90538 -2.22958 0
M  V30 6707 C 648.573 4.15395 -2.87706 0
M  V30 6708 C 650.771 4.0224 -3.20479 0
M  V30 6709 N 648.753 4.43389 -4.24593 0
M  V30 6710 C 650.124 4.34288 -4.42486 0
M  V30 6711 C 652.179 3.84716 -3.16066 0
M  V30 6712 C 650.882 4.50638 -5.6064 0
M  V30 6713 C 652.908 4.02276 -4.33507 0
M  V30 6714 C 652.27 4.34684 -5.54283 0
M  V30 6715 H 648.369 0.742364 -0.245804 0
M  V30 6716 H 650.953 1.56314 -1.16078 0
M  V30 6717 H 649.124 3.88028 -0.169861 0
M  V30 6718 H 650.856 4.03035 -0.366751 0
M  V30 6719 H 647.611 4.09164 -2.385 0
M  V30 6720 H 648.035 4.61494 -4.95331 0
M  V30 6721 H 652.677 3.58724 -2.23778 0
M  V30 6722 H 650.395 4.75467 -6.5342 0
M  V30 6723 H 653.981 3.90169 -4.31578 0
M  V30 6724 H 652.861 4.47988 -6.43643 0
M  V30 6725 N 650.364 0.662433 1.43002 0
M  V30 6726 C 651.641 0.109096 1.95296 0
M  V30 6727 C 652.021 -1.37313 1.60338 0
M  V30 6728 O 651.369 -2.1032 0.893187 0
M  V30 6729 C 651.579 0.365096 3.47085 0
M  V30 6730 C 652.927 0.274964 4.23709 0
M  V30 6731 O 653.951 0.29816 3.5495 0
M  V30 6732 O 652.81 0.206549 5.4611 0
M  V30 6733 H 649.904 -0.00429724 0.826989 0
M  V30 6734 H 652.45 0.736308 1.52894 0
M  V30 6735 H 651.222 1.39237 3.65689 0
M  V30 6736 H 650.845 -0.294733 3.96506 0
M  V30 6737 N 651.842 -1.52309 0.404946 0
M  V30 6738 C 652.805 -2.25491 -0.410651 0
M  V30 6739 C 653.805 -1.27704 -0.977154 0
M  V30 6740 O 654.995 -1.51679 -0.856691 0
M  V30 6741 C 652.127 -3.02197 -1.57765 0
M  V30 6742 H 653.32 -2.99015 0.230277 0
M  V30 6743 H 650.873 -1.55506 0.157377 0
M  V30 6744 H 651.608 -2.33013 -2.25556 0
M  V30 6745 H 651.393 -3.73987 -1.17797 0
M  V30 6746 H 652.883 -3.57719 -2.15469 0
M  V30 6747 N 653.32 -0.135238 -1.57019 0
M  V30 6748 C 654.283 0.794707 -2.14981 0
M  V30 6749 C 655.283 1.18342 -1.08866 0
M  V30 6750 O 656.473 1.10627 -1.34563 0
M  V30 6751 C 653.605 2.07685 -2.70333 0
M  V30 6752 H 654.798 0.290696 -2.98488 0
M  V30 6753 H 652.351 0.114128 -1.55883 0
M  V30 6754 H 653.086 2.6248 -1.9046 0
M  V30 6755 H 652.871 1.80745 -3.47957 0
M  V30 6756 H 654.361 2.74127 -3.1503 0
M  V30 6757 N 654.798 1.5699 0.138552 0
M  V30 6758 C 656.026 1.87976 0.864437 0
M  V30 6759 C 656.441 0.724372 1.74351 0
M  V30 6760 O 655.798 -0.305575 1.79924 0
M  V30 6761 C 655.849 3.18276 1.71414 0
M  V30 6762 O 655.57 4.29365 0.870487 0
M  V30 6763 C 657.071 3.62834 2.54688 0
M  V30 6764 H 654.291 0.622878 0.249528 0
M  V30 6765 H 656.835 2.04094 0.128805 0
M  V30 6766 H 654.99 3.03886 2.40274 0
M  V30 6767 H 655.404 5.03924 1.45466 0
M  V30 6768 H 656.878 4.5682 3.0987 0
M  V30 6769 H 657.355 2.88533 3.31127 0
M  V30 6770 H 657.961 3.79946 1.91105 0
M  V30 6771 N 656.276 -0.40816 1.52223 0
M  V30 6772 C 657.224 -1.51788 1.76248 0
M  V30 6773 C 658.218 -1.57264 0.629638 0
M  V30 6774 O 659.424 -1.60659 0.811704 0
M  V30 6775 H 655.799 -0.504823 0.557367 0
M  V30 6776 H 657.77 -1.2871 2.69214 0
M  V30 6777 C 656.519 -2.89145 1.93107 0
M  V30 6778 H 655.842 -2.85674 2.79697 0
M  V30 6779 H 657.282 -3.66082 2.13916 0
M  V30 6780 C 655.741 -3.29581 0.698431 0
M  V30 6781 O 656.271 -4.01479 -0.133238 0
M  V30 6782 N 654.477 -2.85651 0.53405 0
M  V30 6783 H 654.024 -2.2731 1.21194 0
M  V30 6784 H 653.982 -3.13065 -0.289387 0
M  V30 6785 N 657.755 -1.42862 -0.66545 0
M  V30 6786 C 659.002 -1.4383 -1.42546 0
M  V30 6787 C 659.33 -0.0581114 -1.94413 0
M  V30 6788 O 658.585 0.935002 -1.71919 0
M  V30 6789 C 658.884 -2.4175 -2.63233 0
M  V30 6790 C 658.55 -3.87915 -2.29854 0
M  V30 6791 C 657.212 -4.27726 -2.20463 0
M  V30 6792 C 659.564 -4.80074 -2.02924 0
M  V30 6793 C 656.892 -5.57666 -1.82279 0
M  V30 6794 C 659.244 -6.10366 -1.66242 0
M  V30 6795 C 657.908 -6.49167 -1.55367 0
M  V30 6796 H 657.178 -0.52631 -0.521612 0
M  V30 6797 H 659.825 -1.75863 -0.757914 0
M  V30 6798 H 658.13 -2.03077 -3.35063 0
M  V30 6799 H 659.827 -2.39759 -3.21429 0
M  V30 6800 H 656.417 -3.564 -2.3807 0
M  V30 6801 H 660.601 -4.50097 -2.09108 0
M  V30 6802 H 655.857 -5.8658 -1.72436 0
M  V30 6803 H 660.031 -6.81258 -1.44432 0
M  V30 6804 H 657.658 -7.49761 -1.2555 0
M  V30 6805 N 659.233 0.902656 -1.29189 0
M  V30 6806 C 660.51 1.63296 -1.07674 0
M  V30 6807 C 660.89 2.07649 0.380137 0
M  V30 6808 O 660.238 1.82997 1.36837 0
M  V30 6809 C 660.448 2.81603 -2.06158 0
M  V30 6810 C 661.796 3.52359 -2.36914 0
M  V30 6811 O 662.82 2.91767 -2.04329 0
M  V30 6812 O 661.679 4.61586 -2.92576 0
M  V30 6813 H 658.773 0.716889 -0.41231 0
M  V30 6814 H 661.319 0.950984 -1.4055 0
M  V30 6815 H 660.091 2.46004 -3.04299 0
M  V30 6816 H 659.714 3.57508 -1.73993 0
M  V30 6817 N 660.711 1.11618 1.11262 0
M  V30 6818 C 661.959 0.864469 1.82678 0
M  V30 6819 C 662.28 -0.611564 1.85162 0
M  V30 6820 O 661.55 -1.44429 1.32352 0
M  V30 6821 H 660.13 0.316821 0.676486 0
M  V30 6822 H 662.792 1.40894 1.34666 0
M  V30 6823 H 661.888 1.23832 2.86482 0
M  V30 6824 N 662.189 -1.289 0.906776 0
M  V30 6825 C 663.436 -1.95269 0.536326 0
M  V30 6826 C 663.764 -1.71435 -0.918711 0
M  V30 6827 O 663.019 -1.02431 -1.66752 0
M  V30 6828 C 663.318 -3.48704 0.783617 0
M  V30 6829 C 662.984 -3.92626 2.21711 0
M  V30 6830 C 661.646 -4.04329 2.60906 0
M  V30 6831 C 663.998 -4.15218 3.15029 0
M  V30 6832 C 661.326 -4.35998 3.92584 0
M  V30 6833 C 663.678 -4.48365 4.46264 0
M  V30 6834 C 662.342 -4.58278 4.85322 0
M  V30 6835 H 661.612 -0.714538 0.196256 0
M  V30 6836 H 664.259 -1.53366 1.14678 0
M  V30 6837 H 662.564 -3.91696 0.0903048 0
M  V30 6838 H 664.261 -3.98162 0.476267 0
M  V30 6839 H 660.851 -3.84038 1.90296 0
M  V30 6840 H 665.035 -4.05636 2.8596 0
M  V30 6841 H 660.291 -4.41878 4.22557 0
M  V30 6842 H 664.465 -4.64795 5.18593 0
M  V30 6843 H 662.092 -4.82573 5.87391 0
M  V30 6844 N 663.667 -0.670007 -1.42649 0
M  V30 6845 C 664.895 -0.19854 -2.05945 0
M  V30 6846 C 665.31 1.14243 -1.50313 0
M  V30 6847 O 664.667 1.70872 -0.641027 0
M  V30 6848 C 664.718 -0.11966 -3.61302 0
M  V30 6849 O 664.439 -1.40764 -4.1487 0
M  V30 6850 C 665.94 0.375878 -4.41704 0
M  V30 6851 H 663.16 -0.0976894 -0.663851 0
M  V30 6852 H 665.704 -0.915392 -1.82868 0
M  V30 6853 H 663.859 0.547851 -3.83507 0
M  V30 6854 H 664.273 -1.27784 -5.08696 0
M  V30 6855 H 665.747 0.379988 -5.50691 0
M  V30 6856 H 666.224 1.41028 -4.15942 0
M  V30 6857 H 666.83 -0.259727 -4.24506 0
M  V30 6858 N 665.145 1.52092 -0.413018 0
M  V30 6859 C 666.077 2.24819 0.445994 0
M  V30 6860 C 667.09 1.27925 1.00692 0
M  V30 6861 O 668.279 1.53845 0.905204 0
M  V30 6862 C 665.379 2.96951 1.6332 0
M  V30 6863 C 664.552 4.20746 1.19548 0
M  V30 6864 C 663.611 4.75668 2.25003 0
M  V30 6865 O 662.637 5.38148 1.85434 0
M  V30 6866 N 663.839 4.57579 3.57214 0
M  V30 6867 H 666.604 2.99176 -0.177209 0
M  V30 6868 H 664.165 1.60102 -0.240601 0
M  V30 6869 H 666.157 3.30586 2.33441 0
M  V30 6870 H 664.727 2.25756 2.16225 0
M  V30 6871 H 663.947 3.92881 0.32224 0
M  V30 6872 H 665.235 5.01132 0.880033 0
M  V30 6873 H 664.633 4.07758 3.92109 0
M  V30 6874 H 663.19 4.95642 4.23299 0
M  V30 6875 N 666.623 0.143563 1.56945 0
M  V30 6876 C 668.034 -0.37783 1.82837 0
M  V30 6877 C 668.385 -1.64967 1.06209 0
M  V30 6878 O 667.51 -2.14221 0.306291 0
M  V30 6879 C 668.105 -0.692274 3.31652 0
M  V30 6880 C 666.664 -1.1582 3.58138 0
M  V30 6881 C 665.811 -0.17951 2.76718 0
M  V30 6882 H 668.762 0.368317 1.54367 0
M  V30 6883 H 668.783 -1.54729 3.47619 0
M  V30 6884 H 668.295 0.233572 3.87397 0
M  V30 6885 H 666.396 -2.10011 3.07776 0
M  V30 6886 H 666.509 -1.08655 4.66616 0
M  V30 6887 H 664.873 -0.671458 2.4569 0
M  V30 6888 H 665.656 0.739865 3.35233 0
M  V30 6889 N 668.101 -1.57061 -0.130224 0
M  V30 6890 C 669.347 -1.8453 -0.841216 0
M  V30 6891 C 669.68 -0.727666 -1.80052 0
M  V30 6892 O 668.955 0.267419 -1.92653 0
M  V30 6893 C 669.238 -3.22553 -1.60099 0
M  V30 6894 C 669.091 -4.44901 -0.662048 0
M  V30 6895 C 670.41 -3.58003 -2.55973 0
M  V30 6896 H 667.529 -0.671215 -0.304366 0
M  V30 6897 H 670.171 -1.89705 -0.105821 0
M  V30 6898 H 668.321 -3.18272 -2.22789 0
M  V30 6899 H 669.993 -4.61278 -0.0448559 0
M  V30 6900 H 668.236 -4.33791 0.0272253 0
M  V30 6901 H 668.907 -5.3812 -1.23006 0
M  V30 6902 H 671.383 -3.63002 -2.03393 0
M  V30 6903 H 670.259 -4.55576 -3.06172 0
M  V30 6904 H 670.52 -2.84833 -3.38116 0
M  V30 6905 N 669.579 0.400081 -1.52437 0
M  V30 6906 C 670.804 1.17221 -1.71096 0
M  V30 6907 C 671.229 1.83269 -0.423565 0
M  V30 6908 O 670.587 1.70378 0.619751 0
M  V30 6909 C 670.635 2.20425 -2.85386 0
M  V30 6910 O 669.739 3.26769 -2.51586 0
M  V30 6911 H 669.08 0.341766 -0.569291 0
M  V30 6912 H 671.61 0.467772 -1.99181 0
M  V30 6913 H 671.62 2.64605 -3.10561 0
M  V30 6914 H 670.295 1.71737 -3.78786 0
M  V30 6915 H 668.872 2.87804 -2.37114 0
M  V30 6916 N 671.057 1.43213 0.657864 0
M  V30 6917 C 671.967 1.50448 1.80007 0
M  V30 6918 C 672.983 0.39191 1.69529 0
M  V30 6919 O 674.159 0.645349 1.90781 0
M  V30 6920 C 671.224 1.42062 3.16258 0
M  V30 6921 C 670.285 2.63951 3.38568 0
M  V30 6922 C 669.518 2.55956 4.68318 0
M  V30 6923 O 669.741 1.60473 5.47361 0
M  V30 6924 O 668.675 3.46378 4.92245 0
M  V30 6925 H 672.501 2.4689 1.76858 0
M  V30 6926 H 670.086 1.25163 0.81576 0
M  V30 6927 H 671.968 1.3981 3.97531 0
M  V30 6928 H 670.643 0.487524 3.20008 0
M  V30 6929 H 669.55 2.71776 2.57077 0
M  V30 6930 H 670.883 3.56217 3.39662 0
M  V30 6931 N 672.536 -0.895792 1.29666 0
M  V30 6932 C 673.782 -1.64921 1.19049 0
M  V30 6933 C 674.137 -1.90707 -0.254678 0
M  V30 6934 O 673.43 -1.5092 -1.18041 0
M  V30 6935 C 673.624 -3.00075 1.94139 0
M  V30 6936 C 673.453 -2.87482 3.4581 0
M  V30 6937 C 672.223 -2.88041 4.15163 0
M  V30 6938 C 674.421 -2.64224 4.41237 0
M  V30 6939 N 672.403 -2.66226 5.5317 0
M  V30 6940 C 673.774 -2.51427 5.66732 0
M  V30 6941 C 675.829 -2.49362 4.30956 0
M  V30 6942 C 674.532 -2.25281 6.83111 0
M  V30 6943 C 676.558 -2.246 5.47091 0
M  V30 6944 C 675.92 -2.12571 6.7156 0
M  V30 6945 H 672.019 -0.608926 0.490646 0
M  V30 6946 H 674.603 -1.05648 1.63544 0
M  V30 6947 H 672.774 -3.574 1.52052 0
M  V30 6948 H 674.506 -3.64544 1.75754 0
M  V30 6949 H 671.261 -2.99471 3.66898 0
M  V30 6950 H 671.685 -2.58361 6.25762 0
M  V30 6951 H 676.327 -2.57403 3.35415 0
M  V30 6952 H 674.045 -2.15978 7.78704 0
M  V30 6953 H 677.631 -2.13939 5.41037 0
M  V30 6954 H 676.511 -1.93676 7.59907 0
M  V30 6955 N 674.014 -1.12206 -1.10668 0
M  V30 6956 C 675.263 -0.870595 -1.81944 0
M  V30 6957 C 675.576 0.605447 -1.85994 0
M  V30 6958 O 676.782 0.973433 -2.53449 0
M  V30 6959 C 675.238 -1.50783 -3.26791 0
M  V30 6960 C 674.846 -3.01849 -3.31046 0
M  V30 6961 C 676.59 -1.33653 -4.02911 0
M  V30 6962 C 674.497 -3.58518 -4.70339 0
M  V30 6963 H 673.427 -0.322043 -0.681765 0
M  V30 6964 H 676.078 -1.34827 -1.24475 0
M  V30 6965 H 674.46 -0.957825 -3.84242 0
M  V30 6966 H 675.634 -3.63321 -2.83433 0
M  V30 6967 H 673.949 -3.18346 -2.68411 0
M  V30 6968 H 676.546 -1.73416 -5.05797 0
M  V30 6969 H 676.889 -0.279949 -4.15358 0
M  V30 6970 H 677.422 -1.85562 -3.51868 0
M  V30 6971 H 674.161 -4.63925 -4.63091 0
M  V30 6972 H 673.681 -3.01819 -5.18329 0
M  V30 6973 H 675.36 -3.57434 -5.39305 0
M  V30 6974 N 675.492 1.28418 -0.913599 0
M  V30 6975 C 676.72 1.99106 -0.562536 0
M  V30 6976 C 677.135 1.68273 0.856137 0
M  V30 6977 O 676.492 0.935401 1.56705 0
M  V30 6978 C 676.543 3.5338 -0.761903 0
M  V30 6979 O 676.264 3.83127 -2.12475 0
M  V30 6980 C 677.765 4.41328 -0.417651 0
M  V30 6981 H 674.985 0.635798 -0.214481 0
M  V30 6982 H 677.529 1.63618 -1.22676 0
M  V30 6983 H 675.684 3.8713 -0.144676 0
M  V30 6984 H 676.098 4.77763 -2.16431 0
M  V30 6985 H 677.572 5.48642 -0.607919 0
M  V30 6986 H 678.049 4.34422 0.646108 0
M  V30 6987 H 678.655 4.13074 -1.01241 0
M  V30 6988 N 676.97 0.677563 1.42291 0
M  V30 6989 C 678.218 0.200578 2.01102 0
M  V30 6990 C 678.539 -1.19803 1.53858 0
M  V30 6991 O 677.809 -1.80496 0.761439 0
M  V30 6992 H 676.389 0.0711634 0.743603 0
M  V30 6993 H 679.051 0.874691 1.7417 0
M  V30 6994 H 678.147 0.204 3.11433 0
M  V30 6995 N 678.448 -1.51871 0.421078 0
M  V30 6996 C 679.395 -2.27334 -0.398508 0
M  V30 6997 C 680.365 -1.30241 -1.03085 0
M  V30 6998 O 681.55 -1.59121 -1.05285 0
M  V30 6999 C 678.69 -3.10664 -1.50272 0
M  V30 7000 C 677.803 -4.2273 -0.890122 0
M  V30 7001 C 676.938 -4.93399 -1.96803 0
M  V30 7002 C 675.977 -5.97409 -1.333 0
M  V30 7003 N 675.114 -6.61548 -2.35156 0
M  V30 7004 H 679.954 -2.96938 0.251411 0
M  V30 7005 H 677.491 -1.46472 0.135825 0
M  V30 7006 H 679.449 -3.57292 -2.15403 0
M  V30 7007 H 678.079 -2.43207 -2.1225 0
M  V30 7008 H 677.131 -3.80186 -0.127537 0
M  V30 7009 H 678.443 -4.97302 -0.386349 0
M  V30 7010 H 677.597 -5.43491 -2.69633 0
M  V30 7011 H 676.336 -4.18421 -2.50549 0
M  V30 7012 H 675.341 -5.46624 -0.59008 0
M  V30 7013 H 676.566 -6.74335 -0.803076 0
M  V30 7014 H 674.512 -5.89394 -2.88012 0
M  V30 7015 H 674.429 -7.31832 -1.89624 0
M  V30 7016 H 675.697 -7.16276 -3.0752 0
M  V30 7017 N 679.926 -0.151884 -1.56866 0
M  V30 7018 C 681.203 0.543328 -1.87902 0
M  V30 7019 C 681.583 1.82636 -1.05864 0
M  V30 7020 O 680.931 2.28028 -0.146868 0
M  V30 7021 C 681.141 0.804056 -3.39611 0
M  V30 7022 C 682.489 1.14267 -4.08935 0
M  V30 7023 O 683.513 0.893248 -3.44818 0
M  V30 7024 O 682.372 1.61229 -5.22176 0
M  V30 7025 H 679.466 0.277724 -0.778973 0
M  V30 7026 H 682.012 -0.188862 -1.68646 0
M  V30 7027 H 680.784 -0.103772 -3.91162 0
M  V30 7028 H 680.407 1.59025 -3.64413 0
M  V30 7029 N 681.404 1.57128 0.121893 0
M  V30 7030 C 682.634 1.88609 0.843227 0
M  V30 7031 C 683.042 0.740917 1.74089 0
M  V30 7032 O 682.385 -0.297426 1.81276 0
M  V30 7033 C 682.447 3.15073 1.73117 0
M  V30 7034 C 682.111 4.45742 1.0081 0
M  V30 7035 C 683.108 5.18719 0.350255 0
M  V30 7036 C 680.793 4.92444 0.99014 0
M  V30 7037 C 682.787 6.36617 -0.315889 0
M  V30 7038 C 680.474 6.10261 0.320196 0
M  V30 7039 C 681.472 6.82194 -0.331666 0
M  V30 7040 O 681.16 7.97769 -0.990927 0
M  V30 7041 H 680.892 0.628919 0.247865 0
M  V30 7042 H 683.446 2.05096 0.111725 0
M  V30 7043 H 681.676 2.9466 2.50424 0
M  V30 7044 H 683.365 3.32597 2.32667 0
M  V30 7045 H 684.131 4.83693 0.35577 0
M  V30 7046 H 680.01 4.36361 1.48695 0
M  V30 7047 H 683.554 6.92701 -0.825272 0
M  V30 7048 H 679.451 6.44743 0.312433 0
M  V30 7049 H 680.219 8.13591 -0.895113 0
M  V30 7050 N 682.882 -0.391992 1.52647 0
M  V30 7051 C 683.814 -1.49811 1.73463 0
M  V30 7052 C 684.827 -1.50734 0.615078 0
M  V30 7053 O 686.016 -1.5469 0.890696 0
M  V30 7054 C 683.116 -2.88667 1.77552 0
M  V30 7055 C 682.289 -3.11743 3.06815 0
M  V30 7056 C 681.348 -4.30564 3.02491 0
M  V30 7057 O 680.374 -4.27014 3.76361 0
M  V30 7058 N 681.576 -5.36593 2.21468 0
M  V30 7059 H 684.341 -1.32343 2.68897 0
M  V30 7060 H 681.902 -0.581475 1.51098 0
M  V30 7061 H 683.894 -3.66251 1.7217 0
M  V30 7062 H 682.464 -2.99508 0.895181 0
M  V30 7063 H 681.684 -2.2205 3.25711 0
M  V30 7064 H 682.972 -3.24013 3.92292 0
M  V30 7065 H 682.37 -5.42332 1.60913 0
M  V30 7066 H 680.927 -6.12855 2.21928 0
M  V30 7067 N 684.36 -1.4356 -0.65026 0
M  V30 7068 C 685.308 -1.49219 -1.78427 0
M  V30 7069 C 686.302 -0.365528 -1.65409 0
M  V30 7070 O 687.508 -0.539649 -1.7172 0
M  V30 7071 H 683.883 -0.467858 -0.588738 0
M  V30 7072 H 685.854 -2.44701 -1.70774 0
M  V30 7073 C 684.603 -1.43519 -3.16698 0
M  V30 7074 H 683.926 -2.2952 -3.27354 0
M  V30 7075 H 685.366 -1.5154 -3.95995 0
M  V30 7076 C 683.825 -0.153197 -3.36552 0
M  V30 7077 O 684.355 0.784317 -3.93969 0
M  V30 7078 N 682.561 -0.0624402 -2.90533 0
M  V30 7079 H 682.108 -0.826172 -2.43992 0
M  V30 7080 H 682.066 0.794616 -3.04193 0
M  V30 7081 N 685.838 0.888903 -1.30139 0
M  V30 7082 C 686.786 2.0156 -1.16088 0
M  V30 7083 C 687.78 1.69239 -0.0737413 0
M  V30 7084 O 688.986 1.78468 -0.234313 0
M  V30 7085 H 685.361 0.660825 -0.358907 0
M  V30 7086 H 687.332 2.10547 -2.11453 0
M  V30 7087 C 686.081 3.36758 -0.865426 0
M  V30 7088 H 685.404 3.62137 -1.69402 0
M  V30 7089 H 686.844 4.16246 -0.807192 0
M  V30 7090 C 685.303 3.34124 0.431577 0
M  V30 7091 O 685.833 3.7445 1.45431 0
M  V30 7092 N 684.039 2.87229 0.441321 0
M  V30 7093 H 683.586 2.54609 -0.391433 0
M  V30 7094 H 683.544 2.8585 1.30909 0
M  V30 7095 N 687.317 1.12792 1.10072 0
M  V30 7096 C 688.542 0.908838 1.86427 0
M  V30 7097 C 688.967 -0.536793 1.80278 0
M  V30 7098 O 688.325 -1.38033 1.17543 0
M  V30 7099 C 688.373 1.39295 3.3261 0
M  V30 7100 O 687.477 0.573846 4.08388 0
M  V30 7101 H 686.818 0.326234 0.578331 0
M  V30 7102 H 689.348 1.50094 1.39043 0
M  V30 7103 H 689.358 1.39366 3.83459 0
M  V30 7104 H 688.033 2.44555 3.36401 0
M  V30 7105 H 686.61 0.640438 3.67359 0
M  V30 7106 N 688.795 -1.27931 0.920396 0
M  V30 7107 C 689.758 -2.25345 0.41858 0
M  V30 7108 C 690.758 -1.54116 -0.458798 0
M  V30 7109 O 691.948 -1.72235 -0.260912 0
M  V30 7110 C 689.08 -3.38556 -0.399104 0
M  V30 7111 H 690.273 -2.71251 1.27918 0
M  V30 7112 H 687.826 -1.39728 0.700406 0
M  V30 7113 H 688.561 -2.98021 -1.27882 0
M  V30 7114 H 688.346 -3.91426 0.229863 0
M  V30 7115 H 689.836 -4.10976 -0.740817 0
M  V30 7116 N 690.273 -0.685099 -1.4193 0
M  V30 7117 C 691.498 -0.218842 -2.06242 0
M  V30 7118 C 691.923 1.11923 -1.51178 0
M  V30 7119 O 691.281 1.69837 -0.634446 0
M  V30 7120 C 691.329 -0.175592 -3.60172 0
M  V30 7121 O 690.433 0.852776 -4.03487 0
M  V30 7122 H 689.774 -0.109531 -0.654904 0
M  V30 7123 H 692.304 -0.937013 -1.81882 0
M  V30 7124 H 692.314 -0.00291151 -4.08 0
M  V30 7125 H 690.989 -1.15222 -3.99621 0
M  V30 7126 H 689.566 0.650301 -3.67186 0
M  V30 7127 N 691.751 1.51645 -0.429126 0
M  V30 7128 C 693 2.01203 0.141538 0
M  V30 7129 C 693.313 1.31828 1.44502 0
M  V30 7130 O 694.519 1.7231 2.09813 0
M  V30 7131 C 692.975 3.58624 0.302786 0
M  V30 7132 C 692.583 4.3693 -0.989775 0
M  V30 7133 C 694.327 4.16353 0.827661 0
M  V30 7134 C 692.234 5.86037 -0.794619 0
M  V30 7135 H 691.164 0.751867 0.05667 0
M  V30 7136 H 693.815 1.74822 -0.557633 0
M  V30 7137 H 692.197 3.81417 1.06476 0
M  V30 7138 H 693.371 4.25887 -1.75945 0
M  V30 7139 H 691.686 3.90614 -1.44256 0
M  V30 7140 H 694.283 5.25455 0.990026 0
M  V30 7141 H 694.626 3.74995 1.80787 0
M  V30 7142 H 695.159 3.97606 0.124213 0
M  V30 7143 H 691.898 6.31792 -1.74697 0
M  V30 7144 H 691.418 5.99765 -0.0645968 0
M  V30 7145 H 693.097 6.45471 -0.444591 0
M  V30 7146 N 693.229 0.160201 1.56784 0
M  V30 7147 C 694.454 -0.497373 2.01348 0
M  V30 7148 C 694.879 -1.56757 1.03966 0
M  V30 7149 O 694.237 -1.81292 0.0174455 0
M  V30 7150 C 694.285 -1.0628 3.44582 0
M  V30 7151 O 693.389 -2.17723 3.50244 0
M  V30 7152 H 692.73 -0.120295 0.653012 0
M  V30 7153 H 695.26 0.260821 2.02931 0
M  V30 7154 H 695.27 -1.38819 3.83658 0
M  V30 7155 H 693.945 -0.279166 4.14962 0
M  V30 7156 H 692.522 -1.86313 3.2302 0
M  V30 7157 N 694.707 -1.5719 -0.113559 0
M  V30 7158 C 695.935 -1.89328 -0.834422 0
M  V30 7159 C 696.35 -0.752018 -1.73177 0
M  V30 7160 O 695.707 0.276912 -1.80387 0
M  V30 7161 C 695.758 -3.20962 -1.66329 0
M  V30 7162 O 695.479 -4.30695 -0.802069 0
M  V30 7163 C 696.98 -3.6684 -2.48884 0
M  V30 7164 H 694.2 -0.626769 -0.239587 0
M  V30 7165 H 696.744 -2.04273 -0.0963195 0
M  V30 7166 H 694.899 -3.0767 -2.35409 0
M  V30 7167 H 695.313 -5.06175 -1.37431 0
M  V30 7168 H 696.787 -4.61692 -3.02563 0
M  V30 7169 H 697.264 -2.93765 -3.26495 0
M  V30 7170 H 697.87 -3.82938 -1.85036 0
M  V30 7171 N 696.185 0.383891 -1.52853 0
M  V30 7172 C 697.413 1.1495 -1.7203 0
M  V30 7173 C 697.828 1.83578 -0.440957 0
M  V30 7174 O 697.185 1.72872 0.584925 0
M  V30 7175 C 697.236 2.19368 -2.87333 0
M  V30 7176 O 696.957 1.53536 -4.10315 0
M  V30 7177 C 698.458 3.08616 -3.18231 0
M  V30 7178 H 695.678 0.344445 -0.575846 0
M  V30 7179 H 698.222 0.448397 -1.99524 0
M  V30 7180 H 696.377 2.85105 -2.62286 0
M  V30 7181 H 696.791 2.2296 -4.74752 0
M  V30 7182 H 698.265 3.77902 -4.02361 0
M  V30 7183 H 698.742 3.72409 -2.32826 0
M  V30 7184 H 699.348 2.48518 -3.45136 0
M  V30 7185 N 697.663 1.43903 0.642637 0
M  V30 7186 C 698.595 1.45857 1.768 0
M  V30 7187 C 699.608 0.353358 1.58919 0
M  V30 7188 O 700.797 0.618426 1.67445 0
M  V30 7189 C 697.897 1.26583 3.14372 0
M  V30 7190 C 697.07 2.50139 3.58817 0
M  V30 7191 C 696.129 2.25933 4.75227 0
M  V30 7192 O 695.155 2.99351 4.84125 0
M  V30 7193 N 696.357 1.28263 5.66153 0
M  V30 7194 H 699.122 2.42869 1.75598 0
M  V30 7195 H 696.683 1.39194 0.826832 0
M  V30 7196 H 698.675 1.08255 3.89953 0
M  V30 7197 H 697.245 0.37978 3.10284 0
M  V30 7198 H 696.465 2.83821 2.73568 0
M  V30 7199 H 697.753 3.32344 3.8526 0
M  V30 7200 H 697.151 0.676041 5.61646 0
M  V30 7201 H 695.708 1.15916 6.4141 0
M  V30 7202 N 699.141 -0.881989 1.30609 0
M  V30 7203 C 700.388 -1.63405 1.19604 0
M  V30 7204 C 700.716 -1.92905 -0.248574 0
M  V30 7205 O 699.971 -1.55062 -1.19391 0
M  V30 7206 C 700.27 -2.97999 1.97311 0
M  V30 7207 C 699.936 -2.88039 3.46907 0
M  V30 7208 C 698.598 -2.85029 3.877 0
M  V30 7209 C 700.95 -2.75948 4.42156 0
M  V30 7210 C 698.278 -2.67772 5.2203 0
M  V30 7211 C 700.63 -2.60228 5.76597 0
M  V30 7212 C 699.294 -2.55595 6.16626 0
M  V30 7213 H 698.564 -0.597941 0.437662 0
M  V30 7214 H 701.211 -1.02524 1.61744 0
M  V30 7215 H 699.516 -3.62847 1.47815 0
M  V30 7216 H 701.213 -3.55156 1.86186 0
M  V30 7217 H 697.803 -2.91192 3.14492 0
M  V30 7218 H 701.987 -2.77337 4.1158 0
M  V30 7219 H 697.243 -2.62601 5.52133 0
M  V30 7220 H 701.417 -2.49847 6.50038 0
M  V30 7221 H 699.044 -2.41981 7.20659 0
M  V30 7222 N 700.619 -1.13374 -1.09472 0
M  V30 7223 C 701.896 -0.806329 -1.78207 0
M  V30 7224 C 702.276 0.702191 -1.99079 0
M  V30 7225 O 701.624 1.63931 -1.59182 0
M  V30 7226 C 701.834 -1.59271 -3.10538 0
M  V30 7227 C 703.182 -1.78509 -3.85253 0
M  V30 7228 O 704.206 -1.55866 -3.20288 0
M  V30 7229 O 703.065 -2.16287 -5.01879 0
M  V30 7230 H 700.159 -0.29435 -0.772843 0
M  V30 7231 H 702.705 -1.23833 -1.16033 0
M  V30 7232 H 701.477 -2.61792 -2.90828 0
M  V30 7233 H 701.1 -1.15562 -3.80436 0
M  V30 7234 N 702.098 1.27442 -0.927168 0
M  V30 7235 C 703.323 1.99036 -0.583042 0
M  V30 7236 C 703.748 1.68711 0.83176 0
M  V30 7237 O 703.106 0.927081 1.55804 0
M  V30 7238 C 703.154 3.51271 -0.814925 0
M  V30 7239 O 702.258 4.12226 0.119742 0
M  V30 7240 H 701.599 0.624883 -0.224538 0
M  V30 7241 H 704.129 1.62263 -1.24628 0
M  V30 7242 H 704.139 4.01411 -0.730282 0
M  V30 7243 H 702.814 3.72676 -1.84623 0
M  V30 7244 H 701.391 3.72897 -0.0147688 0
M  V30 7245 N 703.576 0.692616 1.41565 0
M  V30 7246 C 704.822 0.231408 2.02079 0
M  V30 7247 C 705.177 -1.15514 1.53864 0
M  V30 7248 O 704.47 -1.76786 0.73873 0
M  V30 7249 C 704.664 0.225073 3.56691 0
M  V30 7250 C 704.493 1.60947 4.19912 0
M  V30 7251 C 703.263 2.2116 4.54331 0
M  V30 7252 C 705.461 2.55553 4.46315 0
M  V30 7253 N 703.443 3.52195 5.02824 0
M  V30 7254 C 704.814 3.71263 4.96552 0
M  V30 7255 C 706.869 2.53857 4.28323 0
M  V30 7256 C 705.572 4.85555 5.30687 0
M  V30 7257 C 707.598 3.67259 4.63546 0
M  V30 7258 C 706.96 4.81699 5.13951 0
M  V30 7259 H 703.059 0.130001 0.771119 0
M  V30 7260 H 705.643 0.909459 1.72154 0
M  V30 7261 H 703.814 -0.422453 3.86096 0
M  V30 7262 H 705.546 -0.250685 4.03923 0
M  V30 7263 H 702.301 1.73474 4.40685 0
M  V30 7264 H 702.725 4.19354 5.3148 0
M  V30 7265 H 707.367 1.66598 3.88594 0
M  V30 7266 H 705.085 5.73477 5.69341 0
M  V30 7267 H 708.671 3.67195 4.51286 0
M  V30 7268 H 707.551 5.67995 5.40695 0
M  V30 7269 N 705.054 -1.51416 0.437162 0
M  V30 7270 C 705.984 -2.30631 -0.364922 0
M  V30 7271 C 706.965 -1.36037 -1.02118 0
M  V30 7272 O 708.15 -1.64956 -1.02485 0
M  V30 7273 C 705.28 -3.1482 -1.46648 0
M  V30 7274 C 704.234 -4.17691 -0.933717 0
M  V30 7275 C 703.56 -4.904 -2.13101 0
M  V30 7276 C 704.86 -5.2229 0.0317201 0
M  V30 7277 H 706.554 -2.97932 0.29614 0
M  V30 7278 H 704.1 -1.4328 0.143865 0
M  V30 7279 H 706.053 -3.69017 -2.03481 0
M  V30 7280 H 704.777 -2.4534 -2.15583 0
M  V30 7281 H 703.436 -3.64545 -0.387602 0
M  V30 7282 H 703.084 -4.17423 -2.80654 0
M  V30 7283 H 702.784 -5.59962 -1.78092 0
M  V30 7284 H 704.308 -5.4742 -2.70487 0
M  V30 7285 H 705.722 -5.7156 -0.446302 0
M  V30 7286 H 704.119 -5.99378 0.29437 0
M  V30 7287 H 705.189 -4.75131 0.968447 0
M  V30 7288 N 706.532 -0.168513 -1.56696 0
M  V30 7289 C 707.948 0.187686 -1.58493 0
M  V30 7290 C 708.148 1.63063 -1.18375 0
M  V30 7291 O 707.204 2.36142 -0.894042 0
M  V30 7292 C 708.517 -0.0905858 -3.00564 0
M  V30 7293 C 710.065 -0.028575 -3.12987 0
M  V30 7294 C 710.54 -0.279799 -4.57145 0
M  V30 7295 N 712.031 -0.227476 -4.62641 0
M  V30 7296 C 712.766 -0.396073 -5.7203 0
M  V30 7297 N 712.262 -0.623572 -6.89988 0
M  V30 7298 N 714.055 -0.332173 -5.61118 0
M  V30 7299 H 706.206 -1.11042 -1.81062 0
M  V30 7300 H 708.469 -0.441235 -0.839056 0
M  V30 7301 H 708.175 -1.09006 -3.34381 0
M  V30 7302 H 708.049 0.619078 -3.72085 0
M  V30 7303 H 710.436 0.961471 -2.78998 0
M  V30 7304 H 710.517 -0.770905 -2.43907 0
M  V30 7305 H 710.161 -1.26704 -4.91842 0
M  V30 7306 H 710.091 0.48311 -5.24379 0
M  V30 7307 H 712.582 -0.0571723 -3.77857 0
M  V30 7308 H 712.895 -0.741745 -7.69232 0
M  V30 7309 H 711.24 -0.660153 -6.91858 0
M  V30 7310 H 714.431 -0.155051 -4.67843 0
M  V30 7311 H 714.604 -0.466994 -6.46315 0
M  V30 7312 N 708.01 1.57248 0.105221 0
M  V30 7313 C 709.258 1.85204 0.808951 0
M  V30 7314 C 709.579 0.75574 1.7976 0
M  V30 7315 O 708.849 -0.218984 1.94672 0
M  V30 7316 H 707.429 0.683346 0.301739 0
M  V30 7317 H 710.091 1.94695 0.0892605 0
M  V30 7318 H 709.187 2.81595 1.34575 0
M  V30 7319 N 709.488 -0.375779 1.53054 0
M  V30 7320 C 710.716 -1.14036 1.72637 0
M  V30 7321 C 711.131 -1.83342 0.450687 0
M  V30 7322 O 710.488 -1.7318 -0.575749 0
M  V30 7323 C 710.539 -2.17841 2.88492 0
M  V30 7324 O 710.26 -1.51358 4.11123 0
M  V30 7325 C 711.761 -3.06924 3.19863 0
M  V30 7326 H 708.981 -0.341386 0.577665 0
M  V30 7327 H 711.525 -0.437809 1.99759 0
M  V30 7328 H 709.68 -2.8371 2.63794 0
M  V30 7329 H 710.094 -2.20439 4.75928 0
M  V30 7330 H 711.568 -3.75763 4.04359 0
M  V30 7331 H 712.045 -3.71169 2.34798 0
M  V30 7332 H 712.651 -2.46684 3.46449 0
M  V30 7333 N 710.966 -1.44241 -0.634997 0
M  V30 7334 C 712.382 -1.28043 -0.952742 0
M  V30 7335 C 712.582 -0.21338 -2.00367 0
M  V30 7336 O 711.638 0.402042 -2.49279 0
M  V30 7337 C 712.951 -2.65076 -1.41968 0
M  V30 7338 C 714.499 -2.72755 -1.53537 0
M  V30 7339 C 714.974 -4.10249 -2.03616 0
M  V30 7340 N 716.465 -4.12406 -2.10892 0
M  V30 7341 C 717.2 -5.15641 -2.50803 0
M  V30 7342 N 716.696 -6.29239 -2.89879 0
M  V30 7343 N 718.489 -5.02995 -2.50903 0
M  V30 7344 H 710.64 -2.12315 0.060098 0
M  V30 7345 H 712.903 -0.947326 -0.0357325 0
M  V30 7346 H 712.609 -3.44213 -0.721804 0
M  V30 7347 H 712.483 -2.91704 -2.39141 0
M  V30 7348 H 714.87 -1.93939 -2.22422 0
M  V30 7349 H 714.951 -2.49872 -0.547496 0
M  V30 7350 H 714.595 -4.8954 -1.35327 0
M  V30 7351 H 714.525 -4.30507 -3.03268 0
M  V30 7352 H 717.016 -3.30417 -1.83393 0
M  V30 7353 H 717.329 -7.03827 -3.19135 0
M  V30 7354 H 715.674 -6.32683 -2.8764 0
M  V30 7355 H 718.865 -4.13306 -2.19763 0
M  V30 7356 H 719.038 -5.83574 -2.81683 0
M  V30 7357 N 712.444 0.87505 -1.31075 0
M  V30 7358 C 713.407 1.96333 -1.18263 0
M  V30 7359 C 714.407 1.60416 -0.111106 0
M  V30 7360 O 715.597 1.7044 -0.359987 0
M  V30 7361 C 712.729 3.31036 -0.81414 0
M  V30 7362 H 713.922 2.09125 -2.14958 0
M  V30 7363 H 711.475 1.06271 -1.14614 0
M  V30 7364 H 712.21 3.23944 0.151875 0
M  V30 7365 H 711.995 3.58476 -1.58862 0
M  V30 7366 H 713.485 4.10842 -0.748249 0
M  V30 7367 N 713.922 1.13953 1.08869 0
M  V30 7368 C 714.87 0.817664 2.17754 0
M  V30 7369 C 715.864 -0.202444 1.68186 0
M  V30 7370 O 717.07 -0.0590159 1.79903 0
M  V30 7371 H 713.445 0.246671 0.710392 0
M  V30 7372 H 715.416 1.74401 2.4213 0
M  V30 7373 C 714.165 0.3063 3.46348 0
M  V30 7374 H 713.488 1.08259 3.84864 0
M  V30 7375 H 714.928 0.119584 4.23831 0
M  V30 7376 C 713.387 -0.969158 3.22659 0
M  V30 7377 O 713.917 -2.04386 3.45817 0
M  V30 7378 N 712.123 -0.902516 2.7623 0
M  V30 7379 H 711.67 -0.027801 2.57585 0
M  V30 7380 H 711.628 -1.75649 2.60758 0
M  V30 7381 N 715.4 -1.26948 0.933913 0
M  V30 7382 C 716.63 -1.97898 0.593279 0
M  V30 7383 C 717.038 -1.69806 -0.834412 0
M  V30 7384 O 716.381 -0.958704 -1.56699 0
M  V30 7385 C 716.443 -3.51657 0.746825 0
M  V30 7386 C 716.107 -4.03384 2.14779 0
M  V30 7387 C 717.104 -4.15682 3.12257 0
M  V30 7388 C 714.789 -4.37577 2.46641 0
M  V30 7389 C 716.783 -4.61455 4.39702 0
M  V30 7390 C 714.47 -4.8304 3.7432 0
M  V30 7391 C 715.468 -4.94939 4.70664 0
M  V30 7392 O 715.156 -5.39403 5.96071 0
M  V30 7393 H 714.888 -0.63814 0.223055 0
M  V30 7394 H 717.442 -1.62608 1.2549 0
M  V30 7395 H 715.672 -3.8669 0.0280889 0
M  V30 7396 H 717.361 -4.03821 0.410328 0
M  V30 7397 H 718.127 -3.89519 2.88964 0
M  V30 7398 H 714.006 -4.27554 1.72391 0
M  V30 7399 H 717.55 -4.70658 5.14905 0
M  V30 7400 H 713.447 -5.08646 3.97429 0
M  V30 7401 H 714.215 -5.57641 5.99148 0
M  V30 7402 N 716.879 -0.700114 -1.41195 0
M  V30 7403 C 718.29 -0.307249 -1.84154 0
M  V30 7404 C 718.641 1.15539 -1.58572 0
M  V30 7405 O 717.766 1.88744 -1.05852 0
M  V30 7406 C 718.361 -0.550872 -3.34292 0
M  V30 7407 C 716.92 -0.211877 -3.75803 0
M  V30 7408 C 716.067 -0.830915 -2.64558 0
M  V30 7409 H 719.018 -0.900431 -1.30683 0
M  V30 7410 H 719.039 0.188954 -3.80031 0
M  V30 7411 H 718.551 -1.61548 -3.5288 0
M  V30 7412 H 716.652 0.848283 -3.62815 0
M  V30 7413 H 716.765 -0.67007 -4.74391 0
M  V30 7414 H 715.129 -0.260155 -2.53368 0
M  V30 7415 H 715.912 -1.89948 -2.85963 0
M  V30 7416 N 718.357 1.51182 -0.445186 0
M  V30 7417 C 719.585 2.06568 0.117091 0
M  V30 7418 C 720 1.31182 1.35781 0
M  V30 7419 O 719.357 0.373605 1.78635 0
M  V30 7420 C 719.408 3.58917 0.431408 0
M  V30 7421 O 719.129 4.31456 -0.760078 0
M  V30 7422 C 720.63 4.30843 1.0435 0
M  V30 7423 H 717.85 0.670985 0.00444436 0
M  V30 7424 H 720.394 1.94666 -0.626525 0
M  V30 7425 H 718.549 3.70708 1.12493 0
M  V30 7426 H 718.963 5.22215 -0.489048 0
M  V30 7427 H 720.437 5.38499 1.21337 0
M  V30 7428 H 720.914 3.89644 2.02667 0
M  V30 7429 H 721.52 4.23516 0.38913 0
M  V30 7430 N 719.835 0.176821 1.56605 0
M  V30 7431 C 720.783 -0.768159 2.1955 0
M  V30 7432 C 721.777 -1.23343 1.16116 0
M  V30 7433 O 722.983 -1.19844 1.34303 0
M  V30 7434 H 719.358 -0.266013 0.703378 0
M  V30 7435 H 721.329 -0.213374 2.97636 0
M  V30 7436 C 720.078 -1.98492 2.85475 0
M  V30 7437 H 719.401 -1.63595 3.64797 0
M  V30 7438 H 720.841 -2.62489 3.3298 0
M  V30 7439 C 719.3 -2.81207 1.85538 0
M  V30 7440 O 719.83 -3.7854 1.34427 0
M  V30 7441 N 718.036 -2.46331 1.54173 0
M  V30 7442 H 717.583 -1.67241 1.95929 0
M  V30 7443 H 717.541 -3.01961 0.875595 0
M  V30 7444 N 721.313 -1.57302 -0.09688 0
M  V30 7445 C 722.559 -1.86273 -0.801885 0
M  V30 7446 C 722.892 -0.765694 -1.78468 0
M  V30 7447 O 722.167 0.226495 -1.93177 0
M  V30 7448 C 722.45 -3.25876 -1.53221 0
M  V30 7449 C 722.303 -4.46205 -0.567529 0
M  V30 7450 C 723.622 -3.63352 -2.48321 0
M  V30 7451 H 720.741 -0.67752 -0.29006 0
M  V30 7452 H 723.383 -1.89887 -0.0655577 0
M  V30 7453 H 721.533 -3.22926 -2.15988 0
M  V30 7454 H 723.205 -4.6127 0.0529982 0
M  V30 7455 H 721.448 -4.33636 0.119233 0
M  V30 7456 H 722.119 -5.40608 -1.11564 0
M  V30 7457 H 724.595 -3.67234 -1.95648 0
M  V30 7458 H 723.471 -4.61968 -2.9644 0
M  V30 7459 H 723.732 -2.91941 -3.31998 0
M  V30 7460 N 722.791 0.367657 -1.53252 0
M  V30 7461 C 723.723 1.47032 -1.75824 0
M  V30 7462 C 724.736 1.49736 -0.63898 0
M  V30 7463 O 725.925 1.53253 -0.915193 0
M  V30 7464 C 723.025 2.85805 -1.82122 0
M  V30 7465 C 722.198 3.06822 -3.11736 0
M  V30 7466 C 721.257 4.25698 -3.09302 0
M  V30 7467 O 720.283 4.20972 -3.83107 0
M  V30 7468 N 721.485 5.33002 -2.29977 0
M  V30 7469 H 724.25 1.28048 -2.70968 0
M  V30 7470 H 721.811 0.557363 -1.52004 0
M  V30 7471 H 723.803 3.63465 -1.77975 0
M  V30 7472 H 722.373 2.98046 -0.942716 0
M  V30 7473 H 721.593 2.1684 -3.29202 0
M  V30 7474 H 722.881 3.17731 -3.97397 0
M  V30 7475 H 722.279 5.39703 -1.69521 0
M  V30 7476 H 720.836 6.09247 -2.3165 0
M  V30 7477 N 724.269 1.44576 0.627338 0
M  V30 7478 C 725.201 1.47724 1.75243 0
M  V30 7479 C 726.214 0.370193 1.58535 0
M  V30 7480 O 727.403 0.636151 1.66779 0
M  V30 7481 C 724.503 1.2991 3.13012 0
M  V30 7482 C 723.676 2.5393 3.56143 0
M  V30 7483 C 722.735 2.30961 4.72804 0
M  V30 7484 O 721.761 3.04469 4.80923 0
M  V30 7485 N 722.963 1.34261 5.6476 0
M  V30 7486 H 725.728 2.44718 1.73012 0
M  V30 7487 H 723.289 1.40064 0.812022 0
M  V30 7488 H 725.281 1.12385 3.88782 0
M  V30 7489 H 723.851 0.412668 3.09864 0
M  V30 7490 H 723.071 2.86707 2.70542 0
M  V30 7491 H 724.359 3.36411 3.81713 0
M  V30 7492 H 723.757 0.735573 5.60897 0
M  V30 7493 H 722.314 1.22713 6.40144 0
M  V30 7494 N 725.747 -0.868086 1.31537 0
M  V30 7495 C 726.972 -1.65926 1.24432 0
M  V30 7496 C 727.397 -1.87169 -0.186936 0
M  V30 7497 O 726.755 -1.4148 -1.13371 0
M  V30 7498 C 726.803 -3.00347 1.9956 0
M  V30 7499 O 725.907 -3.90221 1.33422 0
M  V30 7500 H 725.248 -0.506375 0.429512 0
M  V30 7501 H 727.778 -1.0822 1.73637 0
M  V30 7502 H 727.788 -3.50269 2.09226 0
M  V30 7503 H 726.463 -2.84205 3.03645 0
M  V30 7504 H 725.04 -3.48672 1.32219 0
M  V30 7505 N 727.225 -1.14528 -1.08264 0
M  V30 7506 C 728.158 -0.777154 -2.14559 0
M  V30 7507 C 729.136 0.242165 -1.60787 0
M  V30 7508 O 730.32 0.130882 -1.88045 0
M  V30 7509 C 727.447 -0.154092 -3.38349 0
M  V30 7510 C 726.493 -1.14382 -4.10876 0
M  V30 7511 S 727.326 -2.68173 -4.63512 0
M  V30 7512 C 728.482 -2.0726 -5.90588 0
M  V30 7513 H 728.715 -1.67748 -2.45454 0
M  V30 7514 H 726.248 -0.966661 -1.20395 0
M  V30 7515 H 728.206 0.19897 -4.10018 0
M  V30 7516 H 726.867 0.723688 -3.05649 0
M  V30 7517 H 726.06 -0.655908 -4.99714 0
M  V30 7518 H 725.662 -1.44095 -3.45127 0
M  V30 7519 H 727.954 -1.42895 -6.62259 0
M  V30 7520 H 728.897 -2.94227 -6.44078 0
M  V30 7521 H 729.305 -1.51935 -5.43669 0
M  V30 7522 N 728.703 1.26451 -0.940633 0
M  V30 7523 C 729.636 2.24771 -0.394094 0
M  V30 7524 C 730.614 1.54169 0.516781 0
M  V30 7525 O 731.798 1.82942 0.454352 0
M  V30 7526 C 728.925 3.3591 0.433807 0
M  V30 7527 C 727.971 4.24472 -0.415464 0
M  V30 7528 S 728.804 5.0293 -1.83907 0
M  V30 7529 C 729.96 6.17546 -1.01921 0
M  V30 7530 H 730.193 2.70782 -1.22737 0
M  V30 7531 H 727.726 1.35308 -0.743709 0
M  V30 7532 H 729.684 4.00387 0.905576 0
M  V30 7533 H 728.345 2.88512 1.24175 0
M  V30 7534 H 727.538 5.03525 0.218833 0
M  V30 7535 H 727.14 3.64857 -0.821897 0
M  V30 7536 H 729.432 6.76996 -0.261227 0
M  V30 7537 H 730.375 6.8528 -1.78318 0
M  V30 7538 H 730.783 5.6176 -0.555511 0
M  V30 7539 N 730.181 0.707592 1.40822 0
M  V30 7540 C 731.129 0.0386643 2.32568 0
M  V30 7541 C 732.123 -0.755653 1.51612 0
M  V30 7542 O 733.329 -0.659921 1.67467 0
M  V30 7543 H 729.704 -0.00629912 0.751974 0
M  V30 7544 H 731.675 0.8293 2.86645 0
M  V30 7545 C 730.424 -0.87496 3.36511 0
M  V30 7546 H 729.747 -0.273157 3.98866 0
M  V30 7547 H 731.187 -1.31111 4.03219 0
M  V30 7548 C 729.646 -1.99672 2.71353 0
M  V30 7549 O 730.176 -3.08676 2.57064 0
M  V30 7550 N 728.382 -1.77799 2.29861 0
M  V30 7551 H 727.929 -0.89147 2.41683 0
M  V30 7552 H 727.887 -2.53036 1.86601 0
M  V30 7553 N 731.66 -1.50943 0.453197 0
M  V30 7554 C 732.907 -2.02212 -0.107922 0
M  V30 7555 C 733.235 -1.33639 -1.41318 0
M  V30 7556 O 732.49 -0.445154 -1.9057 0
M  V30 7557 C 732.789 -3.55603 -0.357944 0
M  V30 7558 C 732.455 -4.42556 0.863427 0
M  V30 7559 C 731.117 -4.6604 1.19834 0
M  V30 7560 C 733.469 -4.93468 1.67747 0
M  V30 7561 C 730.797 -5.37681 2.34768 0
M  V30 7562 C 733.149 -5.6637 2.81793 0
M  V30 7563 C 731.813 -5.88113 3.1572 0
M  V30 7564 H 731.083 -0.739947 -0.0394916 0
M  V30 7565 H 733.73 -1.81738 0.60363 0
M  V30 7566 H 732.035 -3.74495 -1.15156 0
M  V30 7567 H 733.732 -3.92821 -0.805781 0
M  V30 7568 H 730.322 -4.24485 0.592478 0
M  V30 7569 H 734.506 -4.75194 1.43192 0
M  V30 7570 H 729.762 -5.52727 2.61348 0
M  V30 7571 H 733.936 -6.04806 3.45229 0
M  V30 7572 H 731.563 -6.43404 4.04889 0
M  V30 7573 N 733.138 -0.185124 -1.56509 0
M  V30 7574 C 734.068 0.735098 -2.21627 0
M  V30 7575 C 735.049 1.2288 -1.1762 0
M  V30 7576 O 736.234 1.27945 -1.46095 0
M  V30 7577 C 733.364 1.95889 -2.86783 0
M  V30 7578 C 732.318 1.6005 -3.96948 0
M  V30 7579 C 731.644 2.90009 -4.4922 0
M  V30 7580 C 732.944 0.818008 -5.15855 0
M  V30 7581 H 734.638 0.192274 -2.98782 0
M  V30 7582 H 732.184 0.0910393 -1.43712 0
M  V30 7583 H 734.137 2.60779 -3.31017 0
M  V30 7584 H 732.861 2.52608 -2.07018 0
M  V30 7585 H 731.52 0.975237 -3.5339 0
M  V30 7586 H 731.168 3.44797 -3.6623 0
M  V30 7587 H 730.868 2.66778 -5.23549 0
M  V30 7588 H 732.392 3.55904 -4.9615 0
M  V30 7589 H 733.806 1.36979 -5.56695 0
M  V30 7590 H 732.203 0.684207 -5.96187 0
M  V30 7591 H 733.273 -0.182939 -4.84555 0
M  V30 7592 N 734.616 1.57351 0.0885366 0
M  V30 7593 C 735.841 1.91011 0.80805 0
M  V30 7594 C 736.266 0.780009 1.71165 0
M  V30 7595 O 735.624 -0.268083 1.79307 0
M  V30 7596 C 735.672 3.23562 1.59185 0
M  V30 7597 O 734.776 3.11615 2.7013 0
M  V30 7598 H 734.117 0.625943 0.221565 0
M  V30 7599 H 736.647 2.04507 0.0617954 0
M  V30 7600 H 736.657 3.5703 1.97468 0
M  V30 7601 H 735.332 4.05398 0.928741 0
M  V30 7602 H 733.909 2.89673 2.34827 0
M  V30 7603 N 736.094 -0.359525 1.53444 0
M  V30 7604 C 737.042 -1.46104 1.80987 0
M  V30 7605 C 738.036 -1.55181 0.679351 0
M  V30 7606 O 739.242 -1.57995 0.862405 0
M  V30 7607 H 735.617 -0.486835 0.573145 0
M  V30 7608 H 737.588 -1.2008 2.73173 0
M  V30 7609 C 736.337 -2.82855 2.02208 0
M  V30 7610 H 735.66 -2.76631 2.88644 0
M  V30 7611 H 737.1 -3.59091 2.25455 0
M  V30 7612 C 735.559 -3.27192 0.802931 0
M  V30 7613 O 736.089 -4.017 -0.00544286 0
M  V30 7614 N 734.295 -2.83807 0.624657 0
M  V30 7615 H 733.842 -2.23339 1.28364 0
M  V30 7616 H 733.8 -3.13828 -0.189641 0
M  V30 7617 N 737.572 -1.44907 -0.619662 0
M  V30 7618 C 738.522 -1.49085 -1.72504 0
M  V30 7619 C 739.506 -0.355372 -1.56926 0
M  V30 7620 O 740.698 -0.601441 -1.66468 0
M  V30 7621 C 737.827 -1.44889 -3.11227 0
M  V30 7622 C 736.913 -2.63593 -3.32234 0
M  V30 7623 N 737.304 -3.88775 -3.23555 0
M  V30 7624 C 735.602 -2.59033 -3.63067 0
M  V30 7625 C 736.303 -4.67932 -3.45564 0
M  V30 7626 N 735.279 -3.9919 -3.68983 0
M  V30 7627 H 739.081 -2.43706 -1.6427 0
M  V30 7628 H 736.595 -1.4003 -0.82252 0
M  V30 7629 H 738.592 -1.45966 -3.90512 0
M  V30 7630 H 737.252 -0.513143 -3.2062 0
M  V30 7631 H 738.263 -4.20574 -3.02221 0
M  V30 7632 H 734.94 -1.7431 -3.79371 0
M  V30 7633 H 736.33 -5.76952 -3.44349 0
M  V30 7634 N 739.05 0.861098 -1.31996 0
M  V30 7635 C 740.327 1.59788 -1.12814 0
M  V30 7636 C 740.707 2.08753 0.313882 0
M  V30 7637 O 740.055 1.87258 1.30946 0
M  V30 7638 C 740.265 2.74901 -2.15012 0
M  V30 7639 C 741.613 3.44643 -2.48004 0
M  V30 7640 O 742.637 2.85119 -2.13508 0
M  V30 7641 O 741.496 4.52044 -3.07113 0
M  V30 7642 H 738.59 0.703408 -0.434909 0
M  V30 7643 H 741.136 0.905788 -1.43505 0
M  V30 7644 H 739.908 2.36198 -3.11971 0
M  V30 7645 H 739.531 3.51792 -1.85279 0
M  V30 7646 N 740.528 1.15101 1.07655 0
M  V30 7647 C 741.777 0.918528 1.79572 0
M  V30 7648 C 742.09 -0.555922 1.87534 0
M  V30 7649 O 743.296 -0.905893 2.55941 0
M  V30 7650 C 741.752 1.59394 3.22679 0
M  V30 7651 C 741.36 3.1052 3.22927 0
M  V30 7652 C 743.104 1.44289 3.99225 0
M  V30 7653 C 741.011 3.70862 4.60668 0
M  V30 7654 H 739.941 0.340006 0.672987 0
M  V30 7655 H 742.592 1.38079 1.20857 0
M  V30 7656 H 740.974 1.05936 3.81567 0
M  V30 7657 H 742.148 3.70708 2.737 0
M  V30 7658 H 740.463 3.25351 2.59876 0
M  V30 7659 H 743.06 1.86766 5.01022 0
M  V30 7660 H 743.403 0.389975 4.14469 0
M  V30 7661 H 743.936 1.94826 3.46825 0
M  V30 7662 H 740.675 4.7604 4.50628 0
M  V30 7663 H 740.195 3.15456 5.10145 0
M  V30 7664 H 741.874 3.71607 5.29639 0
M  V30 7665 N 742.006 -1.2595 0.947325 0
M  V30 7666 C 743.234 -1.97544 0.615127 0
M  V30 7667 C 743.649 -1.70484 -0.811221 0
M  V30 7668 O 743.006 -0.97662 -1.5417 0
M  V30 7669 C 743.057 -3.51236 0.855328 0
M  V30 7670 O 742.778 -3.77359 2.22558 0
M  V30 7671 C 744.279 -4.40066 0.534515 0
M  V30 7672 H 741.499 -0.629888 0.231263 0
M  V30 7673 H 744.043 -1.60308 1.26971 0
M  V30 7674 H 742.198 -3.8661 0.247266 0
M  V30 7675 H 742.612 -4.71857 2.29022 0
M  V30 7676 H 744.086 -5.46838 0.753168 0
M  V30 7677 H 744.563 -4.35982 -0.530701 0
M  V30 7678 H 745.169 -4.10245 1.12158 0
M  V30 7679 N 743.484 -0.715051 -1.40445 0
M  V30 7680 C 744.9 -0.388555 -1.54798 0
M  V30 7681 C 745.1 1.10271 -1.68649 0
M  V30 7682 O 744.156 1.88875 -1.67578 0
M  V30 7683 C 745.469 -1.15414 -2.77669 0
M  V30 7684 C 747.017 -1.14039 -2.91486 0
M  V30 7685 C 747.492 -1.88812 -4.1727 0
M  V30 7686 N 748.983 -1.85878 -4.24268 0
M  V30 7687 C 749.718 -2.40558 -5.20499 0
M  V30 7688 N 749.214 -3.03791 -6.22642 0
M  V30 7689 N 751.007 -2.30703 -5.12574 0
M  V30 7690 H 743.158 -1.68201 -1.297 0
M  V30 7691 H 745.421 -0.710915 -0.627139 0
M  V30 7692 H 745.127 -2.20853 -2.7371 0
M  V30 7693 H 745.001 -0.745412 -3.69761 0
M  V30 7694 H 747.388 -0.0941996 -2.9495 0
M  V30 7695 H 747.469 -1.58834 -2.00513 0
M  V30 7696 H 747.113 -2.93422 -4.14568 0
M  V30 7697 H 747.043 -1.41438 -5.0725 0
M  V30 7698 H 749.534 -1.39794 -3.51093 0
M  V30 7699 H 749.847 -3.43032 -6.92495 0
M  V30 7700 H 748.192 -3.07875 -6.23087 0
M  V30 7701 H 751.383 -1.80961 -4.31707 0
M  V30 7702 H 751.556 -2.73618 -5.87398 0
M  V30 7703 N 744.962 1.50701 -0.461195 0
M  V30 7704 C 746.209 2.02267 0.0971971 0
M  V30 7705 C 746.537 1.34387 1.40608 0
M  V30 7706 O 745.792 0.455254 1.90331 0
M  V30 7707 C 746.091 3.55788 0.33908 0
M  V30 7708 C 745.757 4.42092 -0.886885 0
M  V30 7709 C 744.419 4.65398 -1.22304 0
M  V30 7710 C 746.771 4.92571 -1.70361 0
M  V30 7711 C 744.099 5.36429 -2.37616 0
M  V30 7712 C 746.451 5.64868 -2.84793 0
M  V30 7713 C 745.115 5.86431 -3.18834 0
M  V30 7714 H 744.385 0.740146 0.0355669 0
M  V30 7715 H 747.032 1.81415 -0.61326 0
M  V30 7716 H 745.337 3.751 1.13168 0
M  V30 7717 H 747.034 3.93243 0.784937 0
M  V30 7718 H 743.624 4.24165 -0.614981 0
M  V30 7719 H 747.808 4.74428 -1.4571 0
M  V30 7720 H 743.064 5.51333 -2.64276 0
M  V30 7721 H 747.238 6.02966 -3.48432 0
M  V30 7722 H 744.865 6.41248 -4.08296 0
M  V30 7723 N 746.441 0.193421 1.56409 0
M  V30 7724 C 747.404 -0.714371 2.17783 0
M  V30 7725 C 748.404 -1.1422 1.13183 0
M  V30 7726 O 749.594 -1.05557 1.38576 0
M  V30 7727 C 746.726 -1.97509 2.77855 0
M  V30 7728 H 747.919 -0.179714 2.99361 0
M  V30 7729 H 745.472 -0.0561944 1.56199 0
M  V30 7730 H 746.207 -2.5523 2.0007 0
M  V30 7731 H 745.992 -1.67706 3.54425 0
M  V30 7732 H 747.482 -2.62246 3.24987 0
M  V30 7733 N 747.919 -1.57396 -0.0801906 0
M  V30 7734 C 749.147 -1.91055 -0.794075 0
M  V30 7735 C 749.562 -0.788583 -1.71542 0
M  V30 7736 O 748.919 0.238587 -1.80934 0
M  V30 7737 C 748.97 -3.24418 -1.59484 0
M  V30 7738 O 748.691 -4.323 -0.710532 0
M  V30 7739 C 750.192 -3.72037 -2.41046 0
M  V30 7740 H 747.412 -0.63171 -0.226238 0
M  V30 7741 H 749.956 -2.04431 -0.0529685 0
M  V30 7742 H 748.111 -3.12595 -2.2883 0
M  V30 7743 H 748.525 -5.08976 -1.26663 0
M  V30 7744 H 749.999 -4.68006 -2.92702 0
M  V30 7745 H 750.476 -3.00624 -3.2019 0
M  V30 7746 H 751.082 -3.86777 -1.76871 0
M  V30 7747 N 749.397 0.351382 -1.53633 0
M  V30 7748 C 750.813 0.693987 -1.43722 0
M  V30 7749 C 751.013 1.9274 -0.587669 0
M  V30 7750 O 750.069 2.52387 -0.0756082 0
M  V30 7751 C 751.382 0.893937 -2.87105 0
M  V30 7752 C 752.93 0.993051 -2.96829 0
M  V30 7753 C 753.405 1.22537 -4.41303 0
M  V30 7754 N 754.896 1.29275 -4.44795 0
M  V30 7755 C 755.631 1.48988 -5.53706 0
M  V30 7756 N 755.127 1.65924 -6.72637 0
M  V30 7757 N 756.92 1.51472 -5.41306 0
M  V30 7758 H 749.071 -0.459688 -2.07366 0
M  V30 7759 H 751.334 -0.143684 -0.937048 0
M  V30 7760 H 751.04 0.0592517 -3.5165 0
M  V30 7761 H 750.914 1.79795 -3.31592 0
M  V30 7762 H 753.301 1.81827 -2.32429 0
M  V30 7763 H 753.382 0.0661119 -2.55715 0
M  V30 7764 H 753.026 0.405117 -5.06282 0
M  V30 7765 H 752.956 2.16575 -4.80003 0
M  V30 7766 H 755.447 1.17743 -3.59089 0
M  V30 7767 H 755.76 1.80578 -7.51406 0
M  V30 7768 H 754.105 1.63075 -6.75597 0
M  V30 7769 H 757.296 1.37818 -4.47352 0
M  V30 7770 H 757.469 1.66493 -6.26246 0
M  V30 7771 N 750.875 1.45233 0.611969 0
M  V30 7772 C 752.1 1.52767 1.40274 0
M  V30 7773 C 752.525 0.159701 1.87421 0
M  V30 7774 O 751.883 -0.854837 1.59882 0
M  V30 7775 C 751.931 2.51286 2.58626 0
M  V30 7776 O 751.035 2.02764 3.59111 0
M  V30 7777 H 750.376 0.515141 0.418958 0
M  V30 7778 H 752.906 1.90547 0.745188 0
M  V30 7779 H 752.916 2.69949 3.05927 0
M  V30 7780 H 751.591 3.50641 2.23659 0
M  V30 7781 H 750.168 1.93957 3.18489 0
M  V30 7782 N 752.353 -0.854086 1.3245 0
M  V30 7783 C 753.601 -1.60513 1.228 0
M  V30 7784 C 753.922 -1.93865 -0.210073 0
M  V30 7785 O 753.192 -1.59673 -1.13496 0
M  V30 7786 H 751.772 -0.595099 0.451516 0
M  V30 7787 H 754.434 -1.0216 1.6598 0
M  V30 7788 H 753.53 -2.54182 1.81102 0
M  V30 7789 N 753.831 -1.1567 -1.07043 0
M  V30 7790 C 755.079 -0.931673 -1.79344 0
M  V30 7791 C 755.4 0.542421 -1.87304 0
M  V30 7792 O 754.67 1.39418 -1.37621 0
M  V30 7793 H 753.25 -0.34171 -0.664262 0
M  V30 7794 H 755.912 -1.45795 -1.29344 0
M  V30 7795 H 755.008 -1.34379 -2.81689 0
M  V30 7796 N 755.309 1.25446 -0.953992 0
M  V30 7797 C 756.586 1.884 -0.525823 0
M  V30 7798 C 756.966 1.86079 0.996891 0
M  V30 7799 O 756.314 1.32389 1.8624 0
M  V30 7800 C 756.524 3.31154 -1.10172 0
M  V30 7801 C 757.872 4.07926 -1.17819 0
M  V30 7802 O 758.896 3.40273 -1.05323 0
M  V30 7803 O 757.755 5.28942 -1.37415 0
M  V30 7804 H 754.849 0.808629 -0.173345 0
M  V30 7805 H 757.395 1.33522 -1.04738 0
M  V30 7806 H 756.167 3.27271 -2.14499 0
M  V30 7807 H 755.79 3.93588 -0.56338 0
M  V30 7808 N 756.787 0.722489 1.40064 0
M  V30 7809 C 757.717 0.0892452 2.33329 0
M  V30 7810 C 758.698 -0.737992 1.53257 0
M  V30 7811 O 759.883 -0.685516 1.81698 0
M  V30 7812 C 757.013 -0.828139 3.37282 0
M  V30 7813 C 755.967 -0.106005 4.27869 0
M  V30 7814 C 755.293 -1.13957 5.22415 0
M  V30 7815 C 756.593 1.04395 5.11761 0
M  V30 7816 H 758.287 0.868269 2.86534 0
M  V30 7817 H 755.833 0.418982 1.3777 0
M  V30 7818 H 757.786 -1.28058 4.01471 0
M  V30 7819 H 756.51 -1.63914 2.82489 0
M  V30 7820 H 755.169 0.326683 3.65142 0
M  V30 7821 H 754.817 -1.9438 4.63924 0
M  V30 7822 H 754.517 -0.661233 5.83868 0
M  V30 7823 H 756.041 -1.59197 5.89482 0
M  V30 7824 H 757.455 0.670541 5.69365 0
M  V30 7825 H 755.852 1.4511 5.82291 0
M  V30 7826 H 756.922 1.87144 4.47331 0
M  V30 7827 N 758.265 -1.50454 0.469181 0
M  V30 7828 C 759.511 -2.03248 -0.0787241 0
M  V30 7829 C 759.866 -1.34499 -1.37578 0
M  V30 7830 O 759.159 -0.461173 -1.85967 0
M  V30 7831 C 759.353 -3.55963 -0.320207 0
M  V30 7832 C 759.182 -4.3951 0.951893 0
M  V30 7833 C 757.952 -4.82689 1.49465 0
M  V30 7834 C 760.15 -4.79999 1.84677 0
M  V30 7835 N 758.132 -5.50553 2.71597 0
M  V30 7836 C 759.503 -5.47254 2.91398 0
M  V30 7837 C 761.558 -4.61959 1.85738 0
M  V30 7838 C 760.261 -5.98381 3.99166 0
M  V30 7839 C 762.287 -5.14024 2.92461 0
M  V30 7840 C 761.649 -5.81253 3.97901 0
M  V30 7841 H 757.748 -0.78192 0.0111715 0
M  V30 7842 H 760.332 -1.83986 0.636961 0
M  V30 7843 H 758.503 -3.75174 -1.00493 0
M  V30 7844 H 760.235 -3.95407 -0.862285 0
M  V30 7845 H 756.99 -4.61948 1.0441 0
M  V30 7846 H 757.414 -5.89093 3.33615 0
M  V30 7847 H 762.056 -4.09416 1.05539 0
M  V30 7848 H 759.774 -6.49961 4.80183 0
M  V30 7849 H 763.36 -5.01897 2.94263 0
M  V30 7850 H 762.24 -6.20814 4.79123 0
M  V30 7851 N 759.743 -0.201713 -1.56304 0
M  V30 7852 C 760.69 0.716499 -2.19397 0
M  V30 7853 C 761.66 1.20494 -1.14326 0
M  V30 7854 O 762.845 1.26763 -1.42604 0
M  V30 7855 C 759.985 1.92762 -2.86246 0
M  V30 7856 C 759.098 1.47993 -4.0586 0
M  V30 7857 C 758.233 2.64706 -4.60547 0
M  V30 7858 C 757.272 2.16576 -5.72504 0
M  V30 7859 N 756.409 3.26491 -6.21569 0
M  V30 7860 H 761.249 0.171724 -2.97505 0
M  V30 7861 H 758.786 0.073016 -1.46919 0
M  V30 7862 H 760.744 2.6384 -3.23178 0
M  V30 7863 H 759.374 2.44559 -2.10691 0
M  V30 7864 H 758.426 0.66477 -3.74546 0
M  V30 7865 H 759.738 1.08686 -4.86815 0
M  V30 7866 H 758.892 3.43898 -4.99819 0
M  V30 7867 H 757.631 3.0729 -3.78713 0
M  V30 7868 H 756.636 1.3584 -5.32755 0
M  V30 7869 H 757.861 1.75015 -6.56161 0
M  V30 7870 H 755.807 3.68594 -5.42655 0
M  V30 7871 H 755.724 2.91374 -6.97594 0
M  V30 7872 H 756.992 4.05877 -6.65495 0
M  V30 7873 N 761.222 1.57436 0.0718424 0
M  V30 7874 C 762.45 1.91474 0.783932 0
M  V30 7875 C 762.865 0.797669 1.71122 0
M  V30 7876 O 762.222 -0.228989 1.81058 0
M  V30 7877 C 762.273 3.25259 1.57761 0
M  V30 7878 O 761.994 4.3267 0.687596 0
M  V30 7879 C 763.495 3.7331 2.3907 0
M  V30 7880 H 760.715 0.632901 0.222885 0
M  V30 7881 H 763.259 2.04457 0.0421262 0
M  V30 7882 H 761.414 3.13804 2.27169 0
M  V30 7883 H 761.828 5.09641 1.23962 0
M  V30 7884 H 763.302 4.69551 2.90216 0
M  V30 7885 H 763.779 3.02318 3.18591 0
M  V30 7886 H 764.385 3.8771 1.74818 0
M  V30 7887 N 762.7 -0.34323 1.53817 0
M  V30 7888 C 763.93 -1.10188 1.74763 0
M  V30 7889 C 764.338 -1.82829 0.486856 0
M  V30 7890 O 763.681 -1.75236 -0.551198 0
M  V30 7891 C 763.743 -2.16 2.87375 0
M  V30 7892 C 763.407 -1.62931 4.26969 0
M  V30 7893 C 764.404 -1.08147 5.08528 0
M  V30 7894 C 762.089 -1.67769 4.73454 0
M  V30 7895 C 764.083 -0.589039 6.34672 0
M  V30 7896 C 761.77 -1.18138 5.99572 0
M  V30 7897 C 762.768 -0.637979 6.80014 0
M  V30 7898 O 762.456 -0.149073 8.03762 0
M  V30 7899 H 762.188 -0.33445 0.587469 0
M  V30 7900 H 764.742 -0.401109 2.01445 0
M  V30 7901 H 762.972 -2.89637 2.56218 0
M  V30 7902 H 764.661 -2.77432 2.96287 0
M  V30 7903 H 765.427 -1.03732 4.73777 0
M  V30 7904 H 761.306 -2.09004 4.10899 0
M  V30 7905 H 764.85 -0.164233 6.97407 0
M  V30 7906 H 760.747 -1.22254 6.33817 0
M  V30 7907 H 761.515 -0.266332 8.18067 0
M  V30 7908 N 764.178 -1.45556 -0.604258 0
M  V30 7909 C 765.108 -1.57327 -1.72541 0
M  V30 7910 C 766.089 -0.424637 -1.64714 0
M  V30 7911 O 767.274 -0.648196 -1.83063 0
M  V30 7912 C 764.404 -1.54279 -3.11152 0
M  V30 7913 C 763.358 -2.67893 -3.33792 0
M  V30 7914 C 762.684 -2.499 -4.72709 0
M  V30 7915 C 763.984 -4.0988 -3.23722 0
M  V30 7916 H 765.678 -2.51175 -1.62947 0
M  V30 7917 H 763.224 -1.20884 -0.782504 0
M  V30 7918 H 765.177 -1.6111 -3.89386 0
M  V30 7919 H 763.901 -0.569627 -3.21594 0
M  V30 7920 H 762.56 -2.60495 -2.57949 0
M  V30 7921 H 762.208 -1.50715 -4.79889 0
M  V30 7922 H 761.908 -3.26091 -4.88813 0
M  V30 7923 H 763.432 -2.5859 -5.5314 0
M  V30 7924 H 764.846 -4.18503 -3.91826 0
M  V30 7925 H 763.243 -4.86487 -3.51355 0
M  V30 7926 H 764.313 -4.31553 -2.21111 0
M  V30 7927 N 765.656 0.84705 -1.32902 0
M  V30 7928 C 766.619 1.9378 -1.224 0
M  V30 7929 C 767.619 1.60144 -0.145108 0
M  V30 7930 O 768.809 1.69638 -0.396058 0
M  V30 7931 C 765.941 3.29234 -0.884174 0
M  V30 7932 H 767.134 2.04518 -2.19345 0
M  V30 7933 H 764.687 1.03816 -1.16842 0
M  V30 7934 H 765.422 3.24193 0.0831277 0
M  V30 7935 H 765.207 3.55026 -1.6643 0
M  V30 7936 H 766.697 4.09162 -0.835226 0
M  V30 7937 N 767.134 1.16236 1.06428 0
M  V30 7938 C 768.064 0.890807 2.1584 0
M  V30 7939 C 769.045 -0.162333 1.69324 0
M  V30 7940 O 770.23 -0.0147191 1.94194 0
M  V30 7941 C 767.36 0.389615 3.45108 0
M  V30 7942 C 766.314 1.38051 4.05125 0
M  V30 7943 C 765.64 0.737773 5.29586 0
M  V30 7944 C 766.94 2.74965 4.44062 0
M  V30 7945 H 768.634 1.80577 2.38814 0
M  V30 7946 H 766.18 0.869657 1.14774 0
M  V30 7947 H 768.133 0.187127 4.20984 0
M  V30 7948 H 766.857 -0.560851 3.21748 0
M  V30 7949 H 765.516 1.56952 3.31303 0
M  V30 7950 H 765.164 -0.219135 5.02522 0
M  V30 7951 H 764.864 1.39914 5.70699 0
M  V30 7952 H 766.388 0.545275 6.0816 0
M  V30 7953 H 767.802 2.59855 5.11027 0
M  V30 7954 H 766.199 3.37563 4.96156 0
M  V30 7955 H 767.269 3.30321 3.54987 0
M  V30 7956 N 768.612 -1.24939 0.960631 0
M  V30 7957 C 769.861 -1.92118 0.614298 0
M  V30 7958 C 770.174 -1.75998 -0.853474 0
M  V30 7959 O 771.38 -2.37804 -1.31003 0
M  V30 7960 C 769.836 -3.44303 1.04801 0
M  V30 7961 C 769.444 -3.69123 2.53875 0
M  V30 7962 C 771.188 -4.17375 0.774497 0
M  V30 7963 C 769.095 -5.14843 2.91016 0
M  V30 7964 H 768.025 -0.719319 0.226045 0
M  V30 7965 H 770.676 -1.41701 1.16589 0
M  V30 7966 H 769.058 -3.93715 0.42479 0
M  V30 7967 H 770.232 -3.30339 3.21267 0
M  V30 7968 H 768.547 -3.09323 2.78762 0
M  V30 7969 H 771.144 -5.24723 1.02808 0
M  V30 7970 H 771.487 -4.15294 -0.289192 0
M  V30 7971 H 772.02 -3.7389 1.35835 0
M  V30 7972 H 768.759 -5.2204 3.96427 0
M  V30 7973 H 768.279 -5.54652 2.28302 0
M  V30 7974 H 769.958 -5.83017 2.80535 0
M  V30 7975 N 770.09 -0.729906 -1.39679 0
M  V30 7976 C 771.337 -0.275622 -2.00615 0
M  V30 7977 C 771.665 1.13559 -1.57907 0
M  V30 7978 O 770.92 1.78745 -0.796789 0
M  V30 7979 C 771.219 -0.319564 -3.55968 0
M  V30 7980 C 770.885 -1.68308 -4.1831 0
M  V30 7981 C 769.547 -2.05629 -4.35052 0
M  V30 7982 C 771.899 -2.57857 -4.52945 0
M  V30 7983 C 769.227 -3.32018 -4.83716 0
M  V30 7984 C 771.579 -3.83613 -5.03015 0
M  V30 7985 C 770.243 -4.21033 -5.17965 0
M  V30 7986 H 769.513 -0.100857 -0.734104 0
M  V30 7987 H 772.16 -0.93575 -1.67081 0
M  V30 7988 H 770.465 0.42414 -3.89497 0
M  V30 7989 H 772.162 0.0499905 -4.00969 0
M  V30 7990 H 768.752 -1.3829 -4.05677 0
M  V30 7991 H 772.936 -2.30295 -4.39634 0
M  V30 7992 H 768.192 -3.6096 -4.93475 0
M  V30 7993 H 772.366 -4.53162 -5.28788 0
M  V30 7994 H 769.993 -5.19034 -5.55435 0
M  V30 7995 N 771.568 1.50203 -0.477153 0
M  V30 7996 C 772.5 2.26508 0.350239 0
M  V30 7997 C 773.513 1.32081 0.95176 0
M  V30 7998 O 774.702 1.57546 0.839139 0
M  V30 7999 C 771.802 3.0361 1.50579 0
M  V30 8000 C 770.975 4.25438 1.01595 0
M  V30 8001 C 770.034 4.84783 2.04626 0
M  V30 8002 O 769.06 5.45528 1.62442 0
M  V30 8003 N 770.262 4.72318 3.37485 0
M  V30 8004 H 773.027 2.98155 -0.30394 0
M  V30 8005 H 770.588 1.58938 -0.308289 0
M  V30 8006 H 772.58 3.4019 2.1921 0
M  V30 8007 H 771.15 2.34724 2.06455 0
M  V30 8008 H 770.37 3.93894 0.155316 0
M  V30 8009 H 771.658 5.04413 0.666694 0
M  V30 8010 H 771.056 4.24022 3.74462 0
M  V30 8011 H 769.613 5.13149 4.01897 0
M  V30 8012 N 773.046 0.209999 1.56195 0
M  V30 8013 C 773.979 -0.744546 2.15712 0
M  V30 8014 C 774.957 -1.19917 1.09812 0
M  V30 8015 O 776.141 -1.284 1.38006 0
M  V30 8016 C 773.268 -2.00733 2.72807 0
M  V30 8017 C 772.314 -1.69363 3.91431 0
M  V30 8018 S 773.147 -0.828579 5.29051 0
M  V30 8019 C 774.303 -2.10118 5.89577 0
M  V30 8020 H 774.536 -0.238636 2.96341 0
M  V30 8021 H 772.069 -0.00517877 1.54399 0
M  V30 8022 H 774.027 -2.73246 3.06344 0
M  V30 8023 H 772.688 -2.48436 1.92193 0
M  V30 8024 H 771.881 -2.63157 4.29842 0
M  V30 8025 H 771.483 -1.04921 3.58981 0
M  V30 8026 H 773.775 -3.05231 6.04847 0
M  V30 8027 H 774.718 -1.76116 6.85849 0
M  V30 8028 H 775.126 -2.23644 5.18308 0
M  V30 8029 N 774.524 -1.57472 -0.0634922 0
M  V30 8030 C 775.752 -1.91887 -0.773767 0
M  V30 8031 C 776.167 -0.806733 -1.70696 0
M  V30 8032 O 775.524 0.219383 -1.81177 0
M  V30 8033 C 775.575 -3.26092 -1.56034 0
M  V30 8034 O 775.296 -4.33029 -0.66464 0
M  V30 8035 C 776.797 -3.74573 -2.37087 0
M  V30 8036 H 774.017 -0.634074 -0.219525 0
M  V30 8037 H 776.561 -2.04476 -0.0312828 0
M  V30 8038 H 774.716 -3.15004 -2.25502 0
M  V30 8039 H 775.13 -5.10291 -1.21258 0
M  V30 8040 H 776.604 -4.71084 -2.87722 0
M  V30 8041 H 777.081 -3.04003 -3.16984 0
M  V30 8042 H 777.687 -3.88631 -1.72759 0
M  V30 8043 N 776.003 0.335068 -1.53997 0
M  V30 8044 C 777.233 1.0926 -1.75345 0
M  V30 8045 C 777.641 1.82568 -0.496545 0
M  V30 8046 O 776.984 1.75525 0.541897 0
M  V30 8047 C 777.046 2.14473 -2.88516 0
M  V30 8048 C 776.71 1.60665 -4.27827 0
M  V30 8049 C 777.707 1.05448 -5.09094 0
M  V30 8050 C 775.392 1.65255 -4.74337 0
M  V30 8051 C 777.386 0.555372 -6.34976 0
M  V30 8052 C 775.073 1.14956 -6.0019 0
M  V30 8053 C 776.071 0.601907 -6.80343 0
M  V30 8054 O 775.759 0.106445 -8.0383 0
M  V30 8055 H 775.491 0.331329 -0.589234 0
M  V30 8056 H 778.045 0.39042 -2.01655 0
M  V30 8057 H 776.275 2.88274 -2.5775 0
M  V30 8058 H 777.964 2.75857 -2.97755 0
M  V30 8059 H 778.73 1.01218 -4.74321 0
M  V30 8060 H 774.609 2.06822 -4.12002 0
M  V30 8061 H 778.153 0.127245 -6.97484 0
M  V30 8062 H 774.05 1.18891 -6.34457 0
M  V30 8063 H 774.818 0.222944 -8.18196 0
M  V30 8064 N 777.481 1.45874 0.596531 0
M  V30 8065 C 778.727 1.5069 1.35722 0
M  V30 8066 C 779.06 0.152506 1.936 0
M  V30 8067 O 778.335 -0.834411 1.75692 0
M  V30 8068 C 778.618 2.59474 2.4969 0
M  V30 8069 C 778.471 4.04396 1.96937 0
M  V30 8070 C 779.79 2.64451 3.51787 0
M  V30 8071 H 776.909 0.548611 0.492133 0
M  V30 8072 H 779.551 1.77741 0.671428 0
M  V30 8073 H 777.701 2.36539 3.08191 0
M  V30 8074 H 779.373 4.38576 1.43 0
M  V30 8075 H 777.616 4.14529 1.27859 0
M  V30 8076 H 778.287 4.76218 2.79143 0
M  V30 8077 H 780.763 2.85031 3.03145 0
M  V30 8078 H 779.639 3.42411 4.29006 0
M  V30 8079 H 779.9 1.69965 4.08123 0
M  V30 8080 N 778.959 -0.83999 1.33349 0
M  V30 8081 C 780.207 -1.59202 1.24496 0
M  V30 8082 C 780.528 -1.94077 -0.189499 0
M  V30 8083 O 779.798 -1.60868 -1.11796 0
M  V30 8084 H 778.378 -0.590276 0.457802 0
M  V30 8085 H 781.04 -1.00394 1.67054 0
M  V30 8086 H 780.136 -2.52247 1.83788 0
M  V30 8087 N 780.437 -1.16799 -1.0581 0
M  V30 8088 C 781.665 -0.97687 -1.82387 0
M  V30 8089 C 782.08 0.474917 -1.82729 0
M  V30 8090 O 781.437 1.3297 -1.25001 0
M  V30 8091 C 781.488 -1.50279 -3.28783 0
M  V30 8092 O 781.209 -2.89772 -3.28578 0
M  V30 8093 C 782.71 -1.35538 -4.22071 0
M  V30 8094 H 779.93 -0.345977 -0.574927 0
M  V30 8095 H 782.474 -1.54942 -1.33466 0
M  V30 8096 H 780.629 -0.972414 -3.74997 0
M  V30 8097 H 781.043 -3.13954 -4.20159 0
M  V30 8098 H 782.517 -1.7716 -5.22799 0
M  V30 8099 H 782.994 -0.301598 -4.38163 0
M  V30 8100 H 783.6 -1.87562 -3.81708 0
M  V30 8101 N 781.915 1.24427 -0.967243 0
M  V30 8102 C 783.326 1.74349 -0.667785 0
M  V30 8103 C 783.677 1.78403 0.816509 0
M  V30 8104 O 782.802 1.41315 1.63887 0
M  V30 8105 C 783.397 3.16628 -1.20548 0
M  V30 8106 C 781.956 3.64059 -0.955934 0
M  V30 8107 C 781.103 2.42715 -1.34106 0
M  V30 8108 H 784.054 1.10136 -1.14262 0
M  V30 8109 H 784.075 3.76183 -0.571547 0
M  V30 8110 H 783.587 3.13646 -2.28578 0
M  V30 8111 H 781.688 3.72441 0.108858 0
M  V30 8112 H 781.801 4.51549 -1.60126 0
M  V30 8113 H 780.165 2.43114 -0.759452 0
M  V30 8114 H 780.948 2.42414 -2.43085 0
M  V30 8115 N 783.393 0.737304 1.3929 0
M  V30 8116 C 784.621 0.296573 2.04763 0
M  V30 8117 C 785.036 -1.06941 1.55592 0
M  V30 8118 O 784.393 -1.67619 0.721822 0
M  V30 8119 C 784.444 0.291906 3.6032 0
M  V30 8120 O 784.165 1.60397 4.07682 0
M  V30 8121 C 785.666 -0.164708 4.42994 0
M  V30 8122 H 782.886 0.129251 0.658434 0
M  V30 8123 H 785.43 1.0016 1.78293 0
M  V30 8124 H 783.585 -0.364251 3.85684 0
M  V30 8125 H 783.999 1.51909 5.0202 0
M  V30 8126 H 785.473 -0.116814 5.51876 0
M  V30 8127 H 785.95 -1.21022 4.22197 0
M  V30 8128 H 786.556 0.461968 4.22784 0
M  V30 8129 N 784.871 -1.49948 0.485112 0
M  V30 8130 C 786.12 -2.01589 -0.066765 0
M  V30 8131 C 786.433 -1.371 -1.39509 0
M  V30 8132 O 787.639 -1.79978 -2.03274 0
M  V30 8133 C 786.095 -3.59501 -0.169476 0
M  V30 8134 C 785.703 -4.32955 1.15126 0
M  V30 8135 C 787.447 -4.19138 -0.672564 0
M  V30 8136 C 785.354 -5.82684 1.01158 0
M  V30 8137 H 784.284 -0.753453 -0.0287259 0
M  V30 8138 H 786.935 -1.72632 0.622132 0
M  V30 8139 H 785.317 -3.85106 -0.922471 0
M  V30 8140 H 786.491 -4.19064 1.9163 0
M  V30 8141 H 784.806 -3.84991 1.58654 0
M  V30 8142 H 787.403 -5.28767 -0.794325 0
M  V30 8143 H 787.746 -3.81447 -1.66745 0
M  V30 8144 H 788.279 -3.97793 0.0234415 0
M  V30 8145 H 785.018 -6.24873 1.98025 0
M  V30 8146 H 784.538 -5.99112 0.287151 0
M  V30 8147 H 786.217 -6.43376 0.683847 0
M  V30 8148 N 786.349 -0.21828 -1.56081 0
M  V30 8149 C 787.579 0.41865 -2.02314 0
M  V30 8150 C 787.987 1.54124 -1.09739 0
M  V30 8151 O 787.33 1.83435 -0.0986829 0
M  V30 8152 C 787.392 1.01439 -3.44892 0
M  V30 8153 C 787.056 0.0276523 -4.56992 0
M  V30 8154 C 788.053 -0.771526 -5.14143 0
M  V30 8155 C 785.738 -0.0901537 -5.02219 0
M  V30 8156 C 787.732 -1.67525 -6.14991 0
M  V30 8157 C 785.419 -0.997411 -6.02905 0
M  V30 8158 C 786.417 -1.78851 -6.59167 0
M  V30 8159 O 786.105 -2.68052 -7.57894 0
M  V30 8160 H 785.837 0.107066 -0.667468 0
M  V30 8161 H 788.391 -0.331191 -2.02712 0
M  V30 8162 H 786.621 1.81326 -3.41552 0
M  V30 8163 H 788.31 1.55838 -3.74792 0
M  V30 8164 H 789.076 -0.690945 -4.80053 0
M  V30 8165 H 784.955 0.515474 -4.58109 0
M  V30 8166 H 788.499 -2.29316 -6.58832 0
M  V30 8167 H 784.396 -1.07902 -6.36418 0
M  V30 8168 H 785.164 -2.6209 -7.75404 0
M  V30 8169 N 787.827 1.57504 0.0551401 0
M  V30 8170 C 789.057 1.92015 0.762472 0
M  V30 8171 C 789.465 0.814088 1.7079 0
M  V30 8172 O 788.808 -0.220273 1.82375 0
M  V30 8173 C 788.87 3.22132 1.59598 0
M  V30 8174 C 788.534 4.49617 0.818141 0
M  V30 8175 C 789.531 5.19738 0.129933 0
M  V30 8176 C 787.216 4.96201 0.780387 0
M  V30 8177 C 789.21 6.34704 -0.585616 0
M  V30 8178 C 786.897 6.11069 0.0610756 0
M  V30 8179 C 787.895 6.80174 -0.62071 0
M  V30 8180 O 787.583 7.92849 -1.3284 0
M  V30 8181 H 787.315 0.638866 0.220967 0
M  V30 8182 H 789.869 2.05385 0.0246362 0
M  V30 8183 H 788.099 3.05016 2.37701 0
M  V30 8184 H 789.788 3.42166 2.18351 0
M  V30 8185 H 790.554 4.84767 0.150299 0
M  V30 8186 H 786.433 4.42275 1.30054 0
M  V30 8187 H 789.977 6.88578 -1.11833 0
M  V30 8188 H 785.874 6.45488 0.0386945 0
M  V30 8189 H 786.642 8.09062 -1.23938 0
M  V30 8190 N 789.305 -0.326896 1.54172 0
M  V30 8191 C 790.553 -1.06313 1.71878 0
M  V30 8192 C 790.874 -1.88652 0.493498 0
M  V30 8193 O 790.144 -1.89608 -0.492522 0
M  V30 8194 H 788.724 -0.39549 0.633716 0
M  V30 8195 H 791.386 -0.364139 1.91468 0
M  V30 8196 H 790.482 -1.73105 2.59694 0
M  V30 8197 N 790.784 -1.46188 -0.588786 0
M  V30 8198 C 792.061 -1.41659 -1.34878 0
M  V30 8199 C 792.441 -0.0968913 -2.10878 0
M  V30 8200 O 791.789 0.921468 -2.09096 0
M  V30 8201 C 791.999 -2.6424 -2.27988 0
M  V30 8202 C 793.347 -3.1013 -2.90008 0
M  V30 8203 O 794.371 -2.64745 -2.38303 0
M  V30 8204 O 793.23 -3.88944 -3.83908 0
M  V30 8205 H 790.324 -0.563058 -0.605718 0
M  V30 8206 H 792.87 -1.58346 -0.610309 0
M  V30 8207 H 791.642 -3.51853 -1.71217 0
M  V30 8208 H 791.265 -2.49982 -3.09184 0
M  V30 8209 N 792.262 0.832906 -1.33792 0
M  V30 8210 C 793.172 1.97514 -1.26592 0
M  V30 8211 C 794.188 1.73114 -0.175391 0
M  V30 8212 O 795.364 1.97387 -0.400062 0
M  V30 8213 C 792.429 3.31625 -1.01121 0
M  V30 8214 C 791.49 3.69101 -2.19233 0
M  V30 8215 C 790.723 4.96813 -1.94968 0
M  V30 8216 O 790.946 5.63208 -0.902955 0
M  V30 8217 O 789.88 5.31932 -2.8166 0
M  V30 8218 H 793.706 2.0653 -2.22664 0
M  V30 8219 H 791.291 0.966826 -1.13898 0
M  V30 8220 H 793.173 4.11968 -0.886571 0
M  V30 8221 H 791.848 3.23599 -0.080822 0
M  V30 8222 H 790.755 2.89243 -2.37253 0
M  V30 8223 H 792.088 3.818 -3.10628 0
M  V30 8224 N 793.74 1.17359 1.05189 0
M  V30 8225 C 794.97 0.985099 1.81602 0
M  V30 8226 C 795.378 -0.469872 1.83273 0
M  V30 8227 O 794.721 -1.33806 1.25864 0
M  V30 8228 C 794.783 1.44956 3.2898 0
M  V30 8229 C 794.447 2.92666 3.50993 0
M  V30 8230 C 795.444 3.906 3.43115 0
M  V30 8231 C 793.129 3.30841 3.77954 0
M  V30 8232 C 795.123 5.24709 3.61883 0
M  V30 8233 C 792.81 4.65116 3.96371 0
M  V30 8234 C 793.808 5.61859 3.88335 0
M  V30 8235 O 793.496 6.93704 4.06238 0
M  V30 8236 H 793.228 0.348731 0.579105 0
M  V30 8237 H 795.782 1.56066 1.33539 0
M  V30 8238 H 794.012 0.817559 3.77959 0
M  V30 8239 H 795.701 1.22674 3.86919 0
M  V30 8240 H 796.467 3.62453 3.22262 0
M  V30 8241 H 792.346 2.5611 3.83313 0
M  V30 8242 H 795.89 6.00205 3.55527 0
M  V30 8243 H 791.787 4.92969 4.16715 0
M  V30 8244 H 792.555 7.00443 4.23463 0
M  V30 8245 N 795.218 -1.23913 0.973828 0
M  V30 8246 C 796.466 -1.91771 0.637817 0
M  V30 8247 C 796.787 -1.76434 -0.830435 0
M  V30 8248 O 796.057 -1.13965 -1.59339 0
M  V30 8249 H 794.637 -0.709761 0.232912 0
M  V30 8250 H 797.299 -1.50677 1.23622 0
M  V30 8251 H 796.395 -2.99327 0.883731 0
M  V30 8252 N 796.696 -0.74468 -1.38897 0
M  V30 8253 C 797.629 -0.0596441 -2.28122 0
M  V30 8254 C 798.607 0.73764 -1.44906 0
M  V30 8255 O 799.791 0.718155 -1.74284 0
M  V30 8256 C 796.918 0.922533 -3.25894 0
M  V30 8257 C 795.964 0.212566 -4.2597 0
M  V30 8258 S 796.797 -1.08035 -5.24489 0
M  V30 8259 C 797.953 -0.101014 -6.25818 0
M  V30 8260 H 798.186 -0.816289 -2.85874 0
M  V30 8261 H 795.719 -0.536882 -1.44765 0
M  V30 8262 H 797.677 1.4839 -3.82741 0
M  V30 8263 H 796.338 1.65209 -2.67142 0
M  V30 8264 H 795.531 0.956106 -4.94848 0
M  V30 8265 H 795.133 -0.277029 -3.72973 0
M  V30 8266 H 797.425 0.736072 -6.7349 0
M  V30 8267 H 798.368 -0.757206 -7.0404 0
M  V30 8268 H 798.776 0.275706 -5.63826 0
M  V30 8269 N 798.174 1.49689 -0.493057 0
M  V30 8270 C 799.106 2.26867 0.326195 0
M  V30 8271 C 800.119 1.33083 0.937697 0
M  V30 8272 O 801.308 1.58427 0.822382 0
M  V30 8273 C 798.408 3.0519 1.4735 0
M  V30 8274 C 797.581 4.26491 0.970767 0
M  V30 8275 C 796.64 4.86926 1.99473 0
M  V30 8276 O 795.666 5.47221 1.56647 0
M  V30 8277 N 796.868 4.75871 3.32456 0
M  V30 8278 H 799.633 2.97816 -0.335547 0
M  V30 8279 H 797.194 1.58602 -0.325129 0
M  V30 8280 H 799.186 3.42496 2.15589 0
M  V30 8281 H 797.756 2.369 2.03954 0
M  V30 8282 H 796.976 3.94036 0.113529 0
M  V30 8283 H 798.264 5.05092 0.613156 0
M  V30 8284 H 797.662 4.2797 3.69944 0
M  V30 8285 H 796.219 5.17383 3.96431 0
M  V30 8286 N 799.652 0.226554 1.55963 0
M  V30 8287 C 800.9 -0.402991 1.98041 0
M  V30 8288 C 801.221 -1.59938 1.11557 0
M  V30 8289 O 800.491 -1.9494 0.193719 0
M  V30 8290 H 799.071 -0.15188 0.731397 0
M  V30 8291 H 801.733 0.320613 1.92245 0
M  V30 8292 H 800.829 -0.725937 3.0354 0
M  V30 8293 N 801.13 -1.57531 -0.0467866 0
M  V30 8294 C 802.378 -1.88078 -0.739656 0
M  V30 8295 C 802.699 -0.821936 -1.76831 0
M  V30 8296 O 801.969 0.146582 -1.95351 0
M  V30 8297 H 800.549 -0.694075 -0.276169 0
M  V30 8298 H 803.211 -1.94893 -0.0169391 0
M  V30 8299 H 802.307 -2.86396 -1.24031 0
M  V30 8300 N 802.608 0.318715 -1.54344 0
M  V30 8301 C 803.571 1.37545 -1.83342 0
M  V30 8302 C 804.571 1.445 -0.705444 0
M  V30 8303 O 805.761 1.44443 -0.973752 0
M  V30 8304 C 802.893 2.76225 -1.99781 0
M  V30 8305 H 804.086 1.13084 -2.77762 0
M  V30 8306 H 801.639 0.554457 -1.46135 0
M  V30 8307 H 802.374 3.05934 -1.07588 0
M  V30 8308 H 802.159 2.7257 -2.81865 0
M  V30 8309 H 803.649 3.52664 -2.23647 0
M  V30 8310 N 804.086 1.46499 0.581025 0
M  V30 8311 C 805.363 1.42372 1.34125 0
M  V30 8312 C 805.743 0.108073 2.10823 0
M  V30 8313 O 805.091 -0.910366 2.09582 0
M  V30 8314 C 805.301 2.65445 2.26583 0
M  V30 8315 C 806.649 3.11664 2.88359 0
M  V30 8316 O 807.673 2.66006 2.36896 0
M  V30 8317 O 806.532 3.90974 3.81839 0
M  V30 8318 H 803.626 0.566262 0.602724 0
M  V30 8319 H 806.172 1.58667 0.601903 0
M  V30 8320 H 804.944 3.52756 1.69348 0
M  V30 8321 H 804.567 2.51618 3.07854 0
M  V30 8322 N 805.565 -0.825799 1.34232 0
M  V30 8323 C 806.976 -1.39835 1.23706 0
M  V30 8324 C 807.327 -1.95709 -0.138649 0
M  V30 8325 O 806.452 -1.89833 -1.03886 0
M  V30 8326 C 807.047 -2.54203 2.23978 0
M  V30 8327 C 805.606 -3.07374 2.17251 0
M  V30 8328 C 804.753 -1.80232 2.10741 0
M  V30 8329 H 807.704 -0.630442 1.4564 0
M  V30 8330 H 807.725 -3.32214 1.8551 0
M  V30 8331 H 807.237 -2.13506 3.24094 0
M  V30 8332 H 805.338 -3.52583 1.20483 0
M  V30 8333 H 805.451 -3.6666 3.08379 0
M  V30 8334 H 803.815 -2.01012 1.56417 0
M  V30 8335 H 804.598 -1.41713 3.12686 0
M  V30 8336 N 807.043 -1.17915 -1.04565 0
M  V30 8337 C 808.32 -0.881187 -1.74627 0
M  V30 8338 C 808.7 0.617123 -2.01878 0
M  V30 8339 O 808.048 1.57032 -1.65991 0
M  V30 8340 C 808.258 -1.72299 -3.03503 0
M  V30 8341 C 809.606 -1.94688 -3.77335 0
M  V30 8342 O 810.63 -1.6931 -3.13389 0
M  V30 8343 O 809.489 -2.37379 -4.92253 0
M  V30 8344 H 806.583 -0.326864 -0.759664 0
M  V30 8345 H 809.129 -1.28642 -1.10676 0
M  V30 8346 H 807.901 -2.73891 -2.79462 0
M  V30 8347 H 807.524 -1.31593 -3.75192 0
M  V30 8348 N 808.521 1.23394 -0.980386 0
M  V30 8349 C 809.469 2.26872 -0.513018 0
M  V30 8350 C 810.463 1.63853 0.429948 0
M  V30 8351 O 811.669 1.77417 0.303842 0
M  V30 8352 H 808.044 0.737398 -0.147473 0
M  V30 8353 H 810.015 2.63654 -1.39746 0
M  V30 8354 C 808.764 3.47289 0.168962 0
M  V30 8355 H 808.087 3.96033 -0.547546 0
M  V30 8356 H 809.527 4.21502 0.459616 0
M  V30 8357 C 807.986 3.06425 1.40019 0
M  V30 8358 O 808.516 3.14708 2.49643 0
M  V30 8359 N 806.722 2.61339 1.27084 0
M  V30 8360 H 806.269 2.54799 0.378872 0
M  V30 8361 H 806.227 2.34364 2.09573 0
M  V30 8362 N 809.999 0.752036 1.385 0
M  V30 8363 C 811.415 0.42946 1.53713 0
M  V30 8364 C 811.615 -1.0576 1.71514 0
M  V30 8365 O 810.671 -1.84366 1.72527 0
M  V30 8366 C 811.984 1.22735 2.74511 0
M  V30 8367 C 813.532 1.21727 2.8836 0
M  V30 8368 C 814.007 1.99809 4.12117 0
M  V30 8369 N 815.498 1.97062 4.19191 0
M  V30 8370 C 816.233 2.54274 5.13938 0
M  V30 8371 N 815.729 3.20193 6.14368 0
M  V30 8372 N 817.522 2.44212 5.06277 0
M  V30 8373 H 809.673 1.71581 1.25195 0
M  V30 8374 H 811.936 0.727293 0.60807 0
M  V30 8375 H 811.642 2.28032 2.67758 0
M  V30 8376 H 811.516 0.843186 3.67655 0
M  V30 8377 H 813.903 0.172367 2.94596 0
M  V30 8378 H 813.984 1.64094 1.96232 0
M  V30 8379 H 813.628 3.0431 4.06642 0
M  V30 8380 H 813.558 1.54837 5.03322 0
M  V30 8381 H 816.049 1.49054 3.47263 0
M  V30 8382 H 816.362 3.61272 6.83156 0
M  V30 8383 H 814.707 3.24287 6.14705 0
M  V30 8384 H 817.898 1.92343 4.26757 0
M  V30 8385 H 818.071 2.89096 5.79937 0
M  V30 8386 N 811.477 -1.49425 0.500989 0
M  V30 8387 C 812.893 -1.58826 0.156951 0
M  V30 8388 C 813.093 -1.50622 -1.33848 0
M  V30 8389 O 812.149 -1.38016 -2.11442 0
M  V30 8390 C 813.462 -2.91611 0.73374 0
M  V30 8391 C 815.01 -3.05076 0.699846 0
M  V30 8392 C 815.485 -4.40479 1.2547 0
M  V30 8393 N 816.976 -4.4697 1.2154 0
M  V30 8394 C 817.711 -5.50189 1.6149 0
M  V30 8395 N 817.207 -6.60512 2.09034 0
M  V30 8396 N 819 -5.40903 1.52907 0
M  V30 8397 H 811.151 -1.53001 1.47324 0
M  V30 8398 H 813.414 -0.724765 0.61108 0
M  V30 8399 H 813.12 -3.03182 1.78251 0
M  V30 8400 H 812.994 -3.767 0.19417 0
M  V30 8401 H 815.381 -2.93134 -0.340085 0
M  V30 8402 H 815.462 -2.2167 1.27656 0
M  V30 8403 H 815.106 -4.53172 2.29341 0
M  V30 8404 H 815.036 -5.22524 0.653921 0
M  V30 8405 H 817.527 -3.67819 0.867043 0
M  V30 8406 H 817.84 -7.35372 2.37588 0
M  V30 8407 H 816.185 -6.61553 2.13008 0
M  V30 8408 H 819.376 -4.53606 1.15583 0
M  V30 8409 H 819.549 -6.21219 1.84365 0
M  V30 8410 N 812.955 -0.234822 -1.55841 0
M  V30 8411 C 814.18 0.400741 -2.03492 0
M  V30 8412 C 814.605 1.51618 -1.11327 0
M  V30 8413 O 813.963 1.81002 -0.103922 0
M  V30 8414 C 814.011 0.897184 -3.49261 0
M  V30 8415 O 813.115 2.00764 -3.60233 0
M  V30 8416 H 812.456 0.0890023 -0.658008 0
M  V30 8417 H 814.986 -0.357345 -2.01455 0
M  V30 8418 H 814.996 1.20356 -3.89844 0
M  V30 8419 H 813.671 0.0808639 -4.15821 0
M  V30 8420 H 812.248 1.70689 -3.31541 0
M  V30 8421 N 814.433 1.57553 0.0384317 0
M  V30 8422 C 815.68 1.88841 0.731116 0
M  V30 8423 C 816.008 0.83093 1.75857 0
M  V30 8424 O 815.263 -0.169248 1.94967 0
M  V30 8425 C 815.562 3.26862 1.44554 0
M  V30 8426 C 815.228 4.47472 0.554946 0
M  V30 8427 C 813.89 4.80203 0.309621 0
M  V30 8428 C 816.242 5.21165 -0.0605204 0
M  V30 8429 C 813.57 5.8402 -0.560101 0
M  V30 8430 C 815.922 6.25905 -0.91789 0
M  V30 8431 C 814.586 6.57117 -1.17277 0
M  V30 8432 H 813.856 0.691018 0.267534 0
M  V30 8433 H 816.503 1.91498 -0.00883195 0
M  V30 8434 H 814.808 3.2015 2.25856 0
M  V30 8435 H 816.505 3.48316 1.98688 0
M  V30 8436 H 813.095 4.21874 0.756304 0
M  V30 8437 H 817.279 4.96164 0.116064 0
M  V30 8438 H 812.535 6.06583 -0.765974 0
M  V30 8439 H 816.709 6.82155 -1.40136 0
M  V30 8440 H 814.336 7.37385 -1.84843 0
M  V30 8441 N 815.911 -0.310526 1.54511 0
M  V30 8442 C 817.188 -1.06593 1.64004 0
M  V30 8443 C 817.568 -2.05519 0.482216 0
M  V30 8444 O 816.916 -2.22455 -0.52212 0
M  V30 8445 C 817.126 -1.75627 3.01589 0
M  V30 8446 C 818.474 -2.28173 3.58081 0
M  V30 8447 O 819.498 -1.85674 3.03979 0
M  V30 8448 O 818.357 -3.06015 4.52788 0
M  V30 8449 H 815.451 -0.492109 0.664649 0
M  V30 8450 H 817.997 -0.309374 1.66856 0
M  V30 8451 H 816.769 -1.03743 3.77297 0
M  V30 8452 H 816.392 -2.58061 3.02473 0
M  V30 8453 N 817.389 -1.46805 -0.573248 0
M  V30 8454 C 818.635 -1.53816 -1.33088 0
M  V30 8455 C 818.99 -0.191162 -1.91448 0
M  V30 8456 O 818.283 0.801299 -1.7404 0
M  V30 8457 C 818.477 -2.58001 -2.47326 0
M  V30 8458 C 818.306 -4.027 -2.00157 0
M  V30 8459 C 817.076 -4.70319 -1.84737 0
M  V30 8460 C 819.274 -4.90211 -1.55557 0
M  V30 8461 N 817.256 -5.99598 -1.31739 0
M  V30 8462 C 818.627 -6.09389 -1.14215 0
M  V30 8463 C 820.682 -4.76784 -1.43461 0
M  V30 8464 C 819.385 -7.16625 -0.619809 0
M  V30 8465 C 821.411 -5.84101 -0.926297 0
M  V30 8466 C 820.773 -7.02458 -0.522715 0
M  V30 8467 H 816.872 -0.617642 -0.479627 0
M  V30 8468 H 819.456 -1.83471 -0.65164 0
M  V30 8469 H 817.627 -2.3024 -3.128 0
M  V30 8470 H 819.359 -2.54951 -3.14296 0
M  V30 8471 H 816.114 -4.25982 -2.06969 0
M  V30 8472 H 816.538 -6.68431 -1.07374 0
M  V30 8473 H 821.18 -3.85661 -1.73279 0
M  V30 8474 H 818.898 -8.07508 -0.309228 0
M  V30 8475 H 822.484 -5.75755 -0.836485 0
M  V30 8476 H 821.364 -7.84083 -0.135467 0
M  V30 8477 N 818.867 0.818669 -1.34668 0
M  V30 8478 C 820.092 1.61193 -1.30505 0
M  V30 8479 C 820.517 1.87734 0.117341 0
M  V30 8480 O 819.875 1.45591 1.08042 0
M  V30 8481 C 819.923 2.92733 -2.1057 0
M  V30 8482 O 819.027 3.85 -1.47813 0
M  V30 8483 H 818.368 0.490085 -0.44801 0
M  V30 8484 H 820.898 1.01701 -1.77534 0
M  V30 8485 H 820.908 3.42262 -2.22082 0
M  V30 8486 H 819.583 2.7274 -3.13984 0
M  V30 8487 H 818.16 3.43525 -1.45069 0
M  V30 8488 N 820.346 1.18468 1.03938 0
M  V30 8489 C 821.278 0.870615 2.12021 0
M  V30 8490 C 822.291 -0.132318 1.62261 0
M  V30 8491 O 823.48 0.0956901 1.78243 0
M  V30 8492 C 820.58 0.279727 3.37744 0
M  V30 8493 C 819.753 1.32863 4.16733 0
M  V30 8494 C 818.812 0.753204 5.20781 0
M  V30 8495 O 817.838 1.42825 5.5099 0
M  V30 8496 N 819.04 -0.448664 5.78764 0
M  V30 8497 H 821.805 1.80091 2.39556 0
M  V30 8498 H 819.366 1.08524 1.20142 0
M  V30 8499 H 821.358 -0.118829 4.04526 0
M  V30 8500 H 819.928 -0.554621 3.07641 0
M  V30 8501 H 819.148 1.90245 3.45254 0
M  V30 8502 H 820.436 2.03574 4.66299 0
M  V30 8503 H 819.834 -1.01481 5.56523 0
M  V30 8504 H 818.391 -0.789125 6.47005 0
M  V30 8505 N 821.824 -1.22873 0.986916 0
M  V30 8506 C 822.787 -2.2281 0.537442 0
M  V30 8507 C 823.787 -1.56331 -0.37646 0
M  V30 8508 O 824.977 -1.73376 -0.169247 0
M  V30 8509 C 822.109 -3.40195 -0.219082 0
M  V30 8510 H 823.302 -2.64089 1.42116 0
M  V30 8511 H 820.855 -1.35819 0.773488 0
M  V30 8512 H 821.59 -3.04381 -1.11905 0
M  V30 8513 H 821.375 -3.89657 0.437026 0
M  V30 8514 H 822.865 -4.14326 -0.521926 0
M  V30 8515 N 823.302 -0.75937 -1.38099 0
M  V30 8516 C 824.53 -0.329111 -2.04266 0
M  V30 8517 C 824.945 1.04453 -1.57274 0
M  V30 8518 O 824.302 1.66449 -0.748397 0
M  V30 8519 C 824.353 -0.349192 -3.5981 0
M  V30 8520 O 824.074 -1.66863 -4.05078 0
M  V30 8521 C 825.575 0.0942106 -4.432 0
M  V30 8522 H 822.795 -0.13971 -0.656294 0
M  V30 8523 H 825.339 -1.02984 -1.76677 0
M  V30 8524 H 823.494 0.302846 -3.86214 0
M  V30 8525 H 823.908 -1.59877 -4.9954 0
M  V30 8526 H 825.382 0.0290004 -5.51992 0
M  V30 8527 H 825.859 1.1429 -4.24069 0
M  V30 8528 H 826.465 -0.529171 -4.21995 0
M  V30 8529 N 824.78 1.49157 -0.508906 0
M  V30 8530 C 826.191 1.86593 -0.0630975 0
M  V30 8531 C 826.542 1.42051 1.35337 0
M  V30 8532 O 825.667 0.801866 2.00995 0
M  V30 8533 C 826.262 3.38629 -0.107729 0
M  V30 8534 C 824.821 3.75336 0.282776 0
M  V30 8535 C 823.968 2.7317 -0.4768 0
M  V30 8536 H 826.919 1.41362 -0.72128 0
M  V30 8537 H 826.94 3.74271 0.685689 0
M  V30 8538 H 826.452 3.71017 -1.13876 0
M  V30 8539 H 824.553 3.48558 1.31675 0
M  V30 8540 H 824.666 4.79081 -0.0421728 0
M  V30 8541 H 823.03 2.54591 0.0743552 0
M  V30 8542 H 823.813 3.08403 -1.50807 0
M  V30 8543 N 826.258 0.243083 1.55714 0
M  V30 8544 C 827.483 -0.389944 2.03701 0
M  V30 8545 C 827.908 -1.51025 1.12129 0
M  V30 8546 O 827.266 -1.80944 0.11352 0
M  V30 8547 C 827.314 -0.878649 3.49731 0
M  V30 8548 O 826.418 -1.98851 3.61292 0
M  V30 8549 H 825.759 -0.0855115 0.658471 0
M  V30 8550 H 828.289 0.368023 2.01263 0
M  V30 8551 H 828.299 -1.18287 3.90477 0
M  V30 8552 H 826.974 -0.0588107 4.15858 0
M  V30 8553 H 825.551 -1.68928 3.32442 0
M  V30 8554 N 827.736 -1.57571 -0.0300757 0
M  V30 8555 C 828.684 -2.0758 -1.04944 0
M  V30 8556 C 829.678 -0.989384 -1.37505 0
M  V30 8557 O 830.884 -1.17427 -1.36422 0
M  V30 8558 H 827.259 -0.662419 -0.355956 0
M  V30 8559 H 829.23 -2.92268 -0.601848 0
M  V30 8560 C 827.979 -2.5698 -2.34215 0
M  V30 8561 H 827.302 -3.40193 -2.10021 0
M  V30 8562 H 828.742 -2.95682 -3.03888 0
M  V30 8563 C 827.201 -1.47059 -3.03109 0
M  V30 8564 O 827.731 -0.83625 -3.92899 0
M  V30 8565 N 825.937 -1.20538 -2.64422 0
M  V30 8566 H 825.484 -1.72305 -1.9149 0
M  V30 8567 H 825.442 -0.472045 -3.10836 0
M  V30 8568 N 829.214 0.302327 -1.54673 0
M  V30 8569 C 830.439 1.06103 -1.78205 0
M  V30 8570 C 830.864 1.80204 -0.53926 0
M  V30 8571 O 830.222 1.73975 0.510142 0
M  V30 8572 C 830.27 2.01829 -2.98827 0
M  V30 8573 O 829.374 3.10108 -2.71858 0
M  V30 8574 H 828.715 0.30487 -0.589873 0
M  V30 8575 H 831.245 0.340153 -2.01753 0
M  V30 8576 H 831.255 2.44319 -3.2676 0
M  V30 8577 H 829.93 1.473 -3.88942 0
M  V30 8578 H 828.507 2.72142 -2.54937 0
M  V30 8579 N 830.692 1.47107 0.565454 0
M  V30 8580 C 831.655 1.58535 1.65527 0
M  V30 8581 C 832.655 0.461081 1.54048 0
M  V30 8582 O 833.845 0.725911 1.58355 0
M  V30 8583 C 830.977 1.52204 3.05036 0
M  V30 8584 H 832.17 2.55676 1.56747 0
M  V30 8585 H 829.723 1.35174 0.78471 0
M  V30 8586 H 830.458 0.564071 3.19357 0
M  V30 8587 H 830.243 2.3379 3.14777 0
M  V30 8588 H 831.733 1.63322 3.84338 0
M  V30 8589 N 832.17 -0.811516 1.35101 0
M  V30 8590 C 833.416 -1.57068 1.28287 0
M  V30 8591 C 833.749 -1.93667 -0.143808 0
M  V30 8592 O 833.024 -1.60953 -1.09199 0
M  V30 8593 C 833.307 -2.86259 2.18466 0
M  V30 8594 C 833.16 -2.56168 3.69727 0
M  V30 8595 C 834.479 -3.87924 2.07852 0
M  V30 8596 H 831.598 -0.569869 0.467353 0
M  V30 8597 H 834.24 -0.934023 1.65457 0
M  V30 8598 H 832.39 -3.4059 1.86898 0
M  V30 8599 H 834.062 -2.08059 4.11715 0
M  V30 8600 H 832.305 -1.89436 3.90252 0
M  V30 8601 H 832.976 -3.48344 4.28206 0
M  V30 8602 H 835.452 -3.4298 2.35593 0
M  V30 8603 H 834.328 -4.76106 2.73157 0
M  V30 8604 H 834.589 -4.2923 1.05896 0
M  V30 8605 N 833.648 -1.19017 -1.03309 0
M  V30 8606 C 834.611 -0.926076 -2.09658 0
M  V30 8607 C 835.611 0.0917077 -1.60538 0
M  V30 8608 O 836.801 -0.142574 -1.73616 0
M  V30 8609 C 833.933 -0.390958 -3.38651 0
M  V30 8610 H 835.126 -1.86923 -2.3452 0
M  V30 8611 H 832.679 -1.00325 -1.19853 0
M  V30 8612 H 833.414 0.558446 -3.19456 0
M  V30 8613 H 833.199 -1.12474 -3.75622 0
M  V30 8614 H 834.689 -0.225131 -4.16993 0
M  V30 8615 N 835.127 1.22348 -0.993418 0
M  V30 8616 C 836.057 2.26584 -0.564088 0
M  V30 8617 C 837.038 1.65102 0.409298 0
M  V30 8618 O 838.223 1.91872 0.299819 0
M  V30 8619 C 835.353 3.47087 0.121554 0
M  V30 8620 C 834.307 4.21009 -0.770429 0
M  V30 8621 C 833.633 5.34678 0.0481586 0
M  V30 8622 C 834.933 4.79636 -2.06752 0
M  V30 8623 H 836.627 2.62749 -1.43538 0
M  V30 8624 H 834.173 1.26303 -0.691628 0
M  V30 8625 H 836.126 4.19166 0.433303 0
M  V30 8626 H 834.85 3.1002 1.0274 0
M  V30 8627 H 833.509 3.50764 -1.06583 0
M  V30 8628 H 833.157 4.93852 0.954933 0
M  V30 8629 H 832.857 5.85061 -0.545641 0
M  V30 8630 H 834.381 6.09573 0.353991 0
M  V30 8631 H 835.795 5.43654 -1.81969 0
M  V30 8632 H 834.192 5.4036 -2.61019 0
M  V30 8633 H 835.262 3.99659 -2.74592 0
M  V30 8634 N 836.605 0.766683 1.37694 0
M  V30 8635 C 837.833 0.339939 2.04088 0
M  V30 8636 C 838.248 -1.03617 1.57826 0
M  V30 8637 O 837.605 -1.6605 0.757214 0
M  V30 8638 C 837.656 0.368269 3.59619 0
M  V30 8639 O 837.377 1.69009 4.04188 0
M  V30 8640 C 838.878 -0.0707053 4.43244 0
M  V30 8641 H 836.098 0.143189 0.655544 0
M  V30 8642 H 838.642 1.03919 1.76128 0
M  V30 8643 H 836.797 -0.282359 3.8637 0
M  V30 8644 H 837.211 1.62523 4.98685 0
M  V30 8645 H 838.685 0.000273538 5.52 0
M  V30 8646 H 839.162 -1.1204 4.24669 0
M  V30 8647 H 839.768 0.551543 4.21709 0
M  V30 8648 N 838.083 -1.48885 0.516809 0
M  V30 8649 C 839.015 -2.27357 -0.290061 0
M  V30 8650 C 840.028 -1.34558 -0.916406 0
M  V30 8651 O 841.217 -1.59715 -0.797073 0
M  V30 8652 C 838.317 -3.07496 -1.42476 0
M  V30 8653 C 837.49 -4.27982 -0.902793 0
M  V30 8654 C 836.549 -4.90038 -1.91701 0
M  V30 8655 O 835.575 -5.49643 -1.47922 0
M  V30 8656 N 836.777 -4.811 -3.24843 0
M  V30 8657 H 839.542 -2.97244 0.382884 0
M  V30 8658 H 837.103 -1.58064 0.35032 0
M  V30 8659 H 839.095 -3.45882 -2.10113 0
M  V30 8660 H 837.665 -2.40115 -2.00159 0
M  V30 8661 H 836.885 -3.94167 -0.0508272 0
M  V30 8662 H 838.173 -5.06003 -0.532723 0
M  V30 8663 H 837.571 -4.33801 -3.63088 0
M  V30 8664 H 836.128 -5.23625 -3.8815 0
M  V30 8665 N 839.561 -0.251338 -1.55583 0
M  V30 8666 C 840.508 0.646337 -2.21565 0
M  V30 8667 C 841.478 1.16796 -1.18102 0
M  V30 8668 O 842.663 1.22162 -1.46564 0
M  V30 8669 C 839.803 1.83557 -2.92234 0
M  V30 8670 C 838.916 1.35006 -4.10363 0
M  V30 8671 C 838.051 2.4992 -4.68736 0
M  V30 8672 C 837.09 1.98253 -5.79105 0
M  V30 8673 N 836.227 3.06551 -6.31642 0
M  V30 8674 H 841.067 0.0769881 -2.97901 0
M  V30 8675 H 838.604 0.026238 -1.47077 0
M  V30 8676 H 840.562 2.53425 -3.31408 0
M  V30 8677 H 839.192 2.37733 -2.18364 0
M  V30 8678 H 838.244 0.545274 -3.76472 0
M  V30 8679 H 839.556 0.931435 -4.90026 0
M  V30 8680 H 838.71 3.27823 -5.10507 0
M  V30 8681 H 837.449 2.95086 -3.88298 0
M  V30 8682 H 836.454 1.18822 -5.36807 0
M  V30 8683 H 837.679 1.54051 -6.61396 0
M  V30 8684 H 835.625 3.51143 -5.54107 0
M  V30 8685 H 835.542 2.69033 -7.06511 0
M  V30 8686 H 836.81 3.84499 -6.78071 0
M  V30 8687 N 841.039 1.57585 0.0217189 0
M  V30 8688 C 841.969 2.10073 1.01939 0
M  V30 8689 C 842.95 1.0049 1.37243 0
M  V30 8690 O 844.135 1.28055 1.45999 0
M  V30 8691 C 841.265 2.58618 2.31806 0
M  V30 8692 C 840.219 3.72531 2.10724 0
M  V30 8693 C 839.545 4.07309 3.46415 0
M  V30 8694 C 840.845 5.00672 1.48743 0
M  V30 8695 H 842.539 2.9368 0.582432 0
M  V30 8696 H 840.085 1.41277 0.278715 0
M  V30 8697 H 842.038 2.9396 3.01936 0
M  V30 8698 H 840.762 1.72104 2.77575 0
M  V30 8699 H 839.421 3.37549 1.43025 0
M  V30 8700 H 839.069 3.17851 3.89846 0
M  V30 8701 H 838.769 4.84042 3.33132 0
M  V30 8702 H 840.293 4.45192 4.17895 0
M  V30 8703 H 841.707 5.33925 2.088 0
M  V30 8704 H 840.104 5.82065 1.46013 0
M  V30 8705 H 841.174 4.82769 0.45408 0
M  V30 8706 N 842.517 -0.29412 1.54831 0
M  V30 8707 C 843.766 -1.02614 1.73647 0
M  V30 8708 C 844.079 -1.88193 0.533162 0
M  V30 8709 O 845.285 -2.64713 0.603275 0
M  V30 8710 C 843.741 -1.87417 3.07251 0
M  V30 8711 C 843.349 -1.06806 4.35082 0
M  V30 8712 C 845.093 -2.60176 3.35423 0
M  V30 8713 C 843 -1.90926 5.59733 0
M  V30 8714 H 841.93 -0.386834 0.647206 0
M  V30 8715 H 844.581 -0.282789 1.81308 0
M  V30 8716 H 842.963 -2.65765 2.93572 0
M  V30 8717 H 844.137 -0.330226 4.59615 0
M  V30 8718 H 842.452 -0.455979 4.13896 0
M  V30 8719 H 845.049 -3.23476 4.25755 0
M  V30 8720 H 845.392 -3.29365 2.54606 0
M  V30 8721 H 845.925 -1.88871 3.50103 0
M  V30 8722 H 842.664 -1.26194 6.43238 0
M  V30 8723 H 842.184 -2.62363 5.39375 0
M  V30 8724 H 843.863 -2.48807 5.97247 0
M  V30 8725 N 843.995 -1.47404 -0.557645 0
M  V30 8726 C 845.223 -1.57622 -1.34026 0
M  V30 8727 C 845.638 -0.226256 -1.87439 0
M  V30 8728 O 844.995 0.78043 -1.64971 0
M  V30 8729 C 845.046 -2.60111 -2.51047 0
M  V30 8730 O 844.767 -3.89866 -1.99841 0
M  V30 8731 C 846.268 -2.80508 -3.43264 0
M  V30 8732 H 843.488 -0.532271 -0.40857 0
M  V30 8733 H 846.032 -1.93019 -0.675555 0
M  V30 8734 H 844.187 -2.27648 -3.13457 0
M  V30 8735 H 844.601 -4.45864 -2.76234 0
M  V30 8736 H 846.075 -3.56084 -4.21792 0
M  V30 8737 H 846.552 -1.88314 -3.9678 0
M  V30 8738 H 847.158 -3.14166 -2.86671 0
M  V30 8739 N 845.473 0.80434 -1.35529 0
M  V30 8740 C 846.722 1.55665 -1.28263 0
M  V30 8741 C 847.035 1.95096 0.140352 0
M  V30 8742 O 848.241 2.69422 0.335303 0
M  V30 8743 C 846.697 2.80935 -2.24952 0
M  V30 8744 C 846.305 2.48733 -3.72607 0
M  V30 8745 C 848.049 3.5894 -2.26632 0
M  V30 8746 C 845.956 3.70308 -4.61114 0
M  V30 8747 H 844.886 0.584301 -0.476559 0
M  V30 8748 H 847.537 0.88395 -1.60806 0
M  V30 8749 H 845.919 3.49927 -1.85383 0
M  V30 8750 H 847.093 1.87733 -4.20824 0
M  V30 8751 H 845.408 1.83969 -3.73557 0
M  V30 8752 H 848.005 4.49244 -2.89973 0
M  V30 8753 H 848.348 3.96433 -1.27069 0
M  V30 8754 H 848.881 2.96912 -2.64742 0
M  V30 8755 H 845.62 3.37922 -5.61684 0
M  V30 8756 H 845.14 4.30526 -4.17621 0
M  V30 8757 H 846.819 4.37511 -4.76648 0
M  V30 8758 N 846.951 1.19563 1.02676 0
M  V30 8759 C 848.367 0.948304 1.28372 0
M  V30 8760 C 848.567 -0.378096 1.97921 0
M  V30 8761 O 847.623 -1.1091 2.26838 0
M  V30 8762 C 848.936 2.12381 2.12873 0
M  V30 8763 C 850.484 2.16366 2.26174 0
M  V30 8764 C 850.959 3.33374 3.14048 0
M  V30 8765 N 852.45 3.33323 3.21636 0
M  V30 8766 C 853.185 4.20504 3.89825 0
M  V30 8767 N 852.681 5.17845 4.60227 0
M  V30 8768 N 854.474 4.08375 3.86246 0
M  V30 8769 H 846.625 2.04899 0.559485 0
M  V30 8770 H 848.888 0.89606 0.309484 0
M  V30 8771 H 848.594 3.08383 1.69094 0
M  V30 8772 H 848.468 2.09621 3.1359 0
M  V30 8773 H 850.855 1.20933 2.69182 0
M  V30 8774 H 850.936 2.23179 1.25 0
M  V30 8775 H 850.58 4.29087 2.71747 0
M  V30 8776 H 850.51 3.23798 4.15286 0
M  V30 8777 H 853.001 2.62863 2.71498 0
M  V30 8778 H 853.314 5.80712 5.09896 0
M  V30 8779 H 851.659 5.21791 4.59085 0
M  V30 8780 H 854.85 3.31606 3.30386 0
M  V30 8781 H 855.023 4.76532 4.39114 0
M  V30 8782 N 848.429 -1.21819 0.999893 0
M  V30 8783 C 849.377 -2.26027 0.549047 0
M  V30 8784 C 850.371 -1.64516 -0.403826 0
M  V30 8785 O 851.577 -1.77878 -0.275578 0
M  V30 8786 H 847.952 -0.734958 0.159185 0
M  V30 8787 H 849.923 -2.61398 1.43923 0
M  V30 8788 C 848.672 -3.47514 -0.11369 0
M  V30 8789 H 847.995 -3.95112 0.610482 0
M  V30 8790 H 849.435 -4.22179 -0.3925 0
M  V30 8791 C 847.894 -3.08614 -1.35126 0
M  V30 8792 O 848.424 -3.1864 -2.44605 0
M  V30 8793 N 846.63 -2.63327 -1.22911 0
M  V30 8794 H 846.177 -2.55369 -0.338288 0
M  V30 8795 H 846.135 -2.37668 -2.05818 0
M  V30 8796 N 849.908 -0.773975 -1.37286 0
M  V30 8797 C 850.84 -0.119938 -2.28886 0
M  V30 8798 C 851.853 0.661822 -1.48741 0
M  V30 8799 O 853.042 0.499548 -1.71367 0
M  V30 8800 C 850.142 0.853703 -3.27971 0
M  V30 8801 C 849.315 0.125286 -4.37221 0
M  V30 8802 C 848.374 1.01261 -5.16365 0
M  V30 8803 O 847.4 0.475565 -5.6721 0
M  V30 8804 N 848.602 2.33864 -5.31308 0
M  V30 8805 H 851.367 -0.906702 -2.85655 0
M  V30 8806 H 848.928 -0.626519 -1.49286 0
M  V30 8807 H 850.92 1.4508 -3.77801 0
M  V30 8808 H 849.49 1.54142 -2.71954 0
M  V30 8809 H 848.71 -0.652742 -3.88758 0
M  V30 8810 H 849.998 -0.377959 -5.07394 0
M  V30 8811 H 849.396 2.79929 -4.91585 0
M  V30 8812 H 847.953 2.88575 -5.84438 0
M  V30 8813 N 851.386 1.48609 -0.524698 0
M  V30 8814 C 852.616 2.06599 0.00741868 0
M  V30 8815 C 853.024 1.3823 1.29186 0
M  V30 8816 O 852.367 0.461962 1.77797 0
M  V30 8817 C 852.429 3.58184 0.307324 0
M  V30 8818 C 852.093 4.48391 -0.882864 0
M  V30 8819 C 853.09 4.88485 -1.77984 0
M  V30 8820 C 850.775 4.90367 -1.08837 0
M  V30 8821 C 852.769 5.69319 -2.86627 0
M  V30 8822 C 850.456 5.70972 -2.17794 0
M  V30 8823 C 851.454 6.10355 -3.06523 0
M  V30 8824 O 851.142 6.89343 -4.13596 0
M  V30 8825 H 850.874 0.675421 -0.0279846 0
M  V30 8826 H 853.428 1.92058 -0.7282 0
M  V30 8827 H 851.658 3.70818 1.09685 0
M  V30 8828 H 853.347 3.98318 0.780886 0
M  V30 8829 H 854.113 4.56682 -1.63299 0
M  V30 8830 H 849.992 4.592 -0.407035 0
M  V30 8831 H 853.536 5.99978 -3.55911 0
M  V30 8832 H 849.433 6.02188 -2.32465 0
M  V30 8833 H 850.201 7.07689 -4.1124 0
M  V30 8834 N 852.864 0.259585 1.55447 0
M  V30 8835 C 854.275 -0.241165 1.85136 0
M  V30 8836 C 854.626 -1.56634 1.18153 0
M  V30 8837 O 853.751 -2.11359 0.464351 0
M  V30 8838 C 854.346 -0.444355 3.35873 0
M  V30 8839 C 852.905 -0.889354 3.65742 0
M  V30 8840 C 852.052 0.0262474 2.77288 0
M  V30 8841 H 855.003 0.481808 1.51209 0
M  V30 8842 H 855.024 -1.28517 3.58139 0
M  V30 8843 H 854.536 0.520289 3.84597 0
M  V30 8844 H 852.637 -1.86602 3.22507 0
M  V30 8845 H 852.75 -0.737432 4.73391 0
M  V30 8846 H 851.114 -0.487361 2.49994 0
M  V30 8847 H 851.897 0.986494 3.28821 0
M  V30 8848 N 854.342 -1.57594 -0.0133615 0
M  V30 8849 C 855.305 -2.06534 -0.993799 0
M  V30 8850 C 856.305 -0.972267 -1.28077 0
M  V30 8851 O 857.495 -1.23537 -1.22818 0
M  V30 8852 C 854.627 -2.49554 -2.3224 0
M  V30 8853 H 855.82 -2.94419 -0.570741 0
M  V30 8854 H 853.373 -1.54113 -0.260546 0
M  V30 8855 H 854.108 -1.64872 -2.79263 0
M  V30 8856 H 853.893 -3.29371 -2.12737 0
M  V30 8857 H 855.383 -2.8779 -3.026 0
M  V30 8858 N 855.82 0.285905 -1.54985 0
M  V30 8859 C 856.75 1.35752 -1.89983 0
M  V30 8860 C 857.731 1.52163 -0.760295 0
M  V30 8861 O 858.916 1.65421 -1.01733 0
M  V30 8862 C 856.046 2.71925 -2.16042 0
M  V30 8863 C 855 2.70261 -3.31878 0
M  V30 8864 C 854.326 4.09864 -3.43388 0
M  V30 8865 C 855.626 2.30667 -4.68604 0
M  V30 8866 H 857.32 1.06709 -2.79738 0
M  V30 8867 H 854.866 0.511884 -1.34595 0
M  V30 8868 H 856.819 3.46992 -2.39113 0
M  V30 8869 H 855.543 3.02523 -1.23074 0
M  V30 8870 H 854.202 1.97651 -3.08755 0
M  V30 8871 H 853.85 4.37664 -2.47909 0
M  V30 8872 H 853.55 4.09648 -4.21262 0
M  V30 8873 H 855.074 4.86689 -3.68736 0
M  V30 8874 H 856.488 2.95453 -4.91305 0
M  V30 8875 H 854.885 2.41637 -5.49301 0
M  V30 8876 H 855.955 1.25793 -4.68299 0
M  V30 8877 N 857.298 1.47698 0.54982 0
M  V30 8878 C 858.714 1.3338 0.876468 0
M  V30 8879 C 858.914 0.329837 1.98782 0
M  V30 8880 O 857.97 -0.256022 2.51199 0
M  V30 8881 C 859.283 2.72903 1.26272 0
M  V30 8882 C 860.831 2.81243 1.37373 0
M  V30 8883 C 861.306 4.21423 1.79351 0
M  V30 8884 N 862.797 4.24 1.86489 0
M  V30 8885 C 863.532 5.29386 2.20313 0
M  V30 8886 N 863.028 6.4507 2.527 0
M  V30 8887 N 864.821 5.16768 2.2115 0
M  V30 8888 H 856.972 2.11603 -0.183781 0
M  V30 8889 H 859.235 0.947798 -0.0195601 0
M  V30 8890 H 858.941 3.47836 0.519889 0
M  V30 8891 H 858.815 3.05151 2.21727 0
M  V30 8892 H 861.202 2.06577 2.10737 0
M  V30 8893 H 861.283 2.52639 0.400882 0
M  V30 8894 H 860.927 4.96597 1.06555 0
M  V30 8895 H 860.857 4.47456 2.77652 0
M  V30 8896 H 863.348 3.40547 1.63817 0
M  V30 8897 H 863.661 7.21236 2.77557 0
M  V30 8898 H 862.006 6.48377 2.50263 0
M  V30 8899 H 865.197 4.25416 1.95293 0
M  V30 8900 H 865.37 5.99004 2.4718 0
M  V30 8901 N 858.776 -0.797141 1.35954 0
M  V30 8902 C 860.004 -1.5858 1.32891 0
M  V30 8903 C 860.419 -1.88578 -0.0915564 0
M  V30 8904 O 859.776 -1.49532 -1.04625 0
M  V30 8905 C 859.827 -2.91143 2.14284 0
M  V30 8906 O 859.548 -2.62442 3.50793 0
M  V30 8907 C 861.049 -3.85476 2.18914 0
M  V30 8908 H 858.269 -0.492111 0.456144 0
M  V30 8909 H 860.813 -0.98994 1.78943 0
M  V30 8910 H 858.968 -3.47219 1.71807 0
M  V30 8911 H 859.382 -3.4715 3.93175 0
M  V30 8912 H 860.856 -4.75574 2.80238 0
M  V30 8913 H 861.333 -4.22758 1.19047 0
M  V30 8914 H 861.939 -3.35334 2.61593 0
M  V30 8915 N 860.254 -1.20106 -1.0204 0
M  V30 8916 C 861.502 -1.0069 -1.75231 0
M  V30 8917 C 861.823 0.462491 -1.89436 0
M  V30 8918 O 861.093 1.33455 -1.4341 0
M  V30 8919 H 859.673 -0.369576 -0.649171 0
M  V30 8920 H 862.335 -1.51149 -1.23044 0
M  V30 8921 H 861.431 -1.46205 -2.75736 0
M  V30 8922 N 861.732 1.21287 -1.00634 0
M  V30 8923 C 862.957 1.94925 -0.708441 0
M  V30 8924 C 863.382 1.73659 0.722783 0
M  V30 8925 O 862.74 1.02429 1.49593 0
M  V30 8926 C 862.788 3.45377 -1.03667 0
M  V30 8927 O 861.892 4.12153 -0.142661 0
M  V30 8928 H 861.233 0.609338 -0.263824 0
M  V30 8929 H 863.763 1.54008 -1.34695 0
M  V30 8930 H 863.773 3.95954 -0.984086 0
M  V30 8931 H 862.448 3.6018 -2.0795 0
M  V30 8932 H 861.025 3.72048 -0.251888 0
M  V30 8933 N 863.21 0.781244 1.36873 0
M  V30 8934 C 864.457 0.349889 1.99454 0
M  V30 8935 C 864.785 -1.07621 1.62013 0
M  V30 8936 O 864.04 -1.75665 0.86258 0
M  V30 8937 C 864.339 0.45146 3.54537 0
M  V30 8938 C 864.005 1.83718 4.11775 0
M  V30 8939 C 862.667 2.21634 4.2712 0
M  V30 8940 C 865.019 2.7449 4.43063 0
M  V30 8941 C 862.347 3.49742 4.7106 0
M  V30 8942 C 864.699 4.02017 4.88431 0
M  V30 8943 C 863.363 4.39967 5.01982 0
M  V30 8944 H 862.633 0.128033 0.729855 0
M  V30 8945 H 865.28 0.997117 1.63493 0
M  V30 8946 H 863.585 -0.279288 3.90803 0
M  V30 8947 H 865.282 0.0988609 4.00878 0
M  V30 8948 H 861.872 1.53251 4.00265 0
M  V30 8949 H 866.056 2.46453 4.30783 0
M  V30 8950 H 861.312 3.79026 4.79738 0
M  V30 8951 H 865.486 4.72475 5.11605 0
M  V30 8952 H 863.113 5.39291 5.35788 0
M  V30 8953 N 864.689 -1.48329 0.532571 0
M  V30 8954 C 865.622 -2.26524 -0.2761 0
M  V30 8955 C 866.6 -1.32498 -0.942496 0
M  V30 8956 O 867.784 -1.61844 -0.966376 0
M  V30 8957 C 864.911 -3.08808 -1.39124 0
M  V30 8958 C 863.957 -4.18227 -0.835984 0
M  V30 8959 S 864.79 -5.34669 0.298186 0
M  V30 8960 C 865.946 -6.20514 -0.81937 0
M  V30 8961 H 866.179 -2.94764 0.387502 0
M  V30 8962 H 863.712 -1.51081 0.318407 0
M  V30 8963 H 865.67 -3.56792 -2.03002 0
M  V30 8964 H 864.331 -2.39976 -2.02658 0
M  V30 8965 H 863.524 -4.75435 -1.67264 0
M  V30 8966 H 863.126 -3.72996 -0.27385 0
M  V30 8967 H 865.418 -6.55371 -1.7174 0
M  V30 8968 H 866.361 -7.07525 -0.285199 0
M  V30 8969 H 866.769 -5.5366 -1.10094 0
M  V30 8970 N 866.167 -0.267825 -1.55308 0
M  V30 8971 C 867.395 0.354587 -2.03839 0
M  V30 8972 C 867.81 1.50007 -1.14644 0
M  V30 8973 O 867.167 1.81752 -0.165055 0
M  V30 8974 C 867.218 0.84254 -3.51544 0
M  V30 8975 O 866.939 -0.257318 -4.37344 0
M  V30 8976 C 868.44 1.53351 -4.15931 0
M  V30 8977 H 865.66 0.0818131 -0.665994 0
M  V30 8978 H 868.204 -0.397795 -2.00594 0
M  V30 8979 H 866.359 1.54503 -3.55257 0
M  V30 8980 H 866.773 0.116593 -5.2437 0
M  V30 8981 H 868.247 1.82643 -5.20908 0
M  V30 8982 H 868.724 2.4626 -3.63666 0
M  V30 8983 H 869.33 0.87506 -4.162 0
M  V30 8984 N 867.645 1.57599 0.00500368 0
M  V30 8985 C 868.575 2.11143 0.99705 0
M  V30 8986 C 869.556 1.0194 1.3617 0
M  V30 8987 O 870.741 1.29596 1.44632 0
M  V30 8988 C 867.871 2.61062 2.2905 0
M  V30 8989 C 866.825 3.74745 2.0676 0
M  V30 8990 C 866.151 4.10961 3.42075 0
M  V30 8991 C 867.451 5.02222 1.43424 0
M  V30 8992 H 869.145 2.94281 0.551251 0
M  V30 8993 H 866.691 1.41565 0.263715 0
M  V30 8994 H 868.644 2.97146 2.98801 0
M  V30 8995 H 867.368 1.75038 2.75734 0
M  V30 8996 H 866.027 3.39047 1.39436 0
M  V30 8997 H 865.675 3.21968 3.86453 0
M  V30 8998 H 865.375 4.87549 3.27979 0
M  V30 8999 H 866.899 4.49599 4.1315 0
M  V30 9000 H 868.313 5.36109 2.03125 0
M  V30 9001 H 866.71 5.83581 1.39831 0
M  V30 9002 H 867.78 4.83224 0.40285 0
M  V30 9003 N 869.123 -0.277682 1.55134 0
M  V30 9004 C 870.372 -1.00766 1.74726 0
M  V30 9005 C 870.685 -1.87617 0.553092 0
M  V30 9006 O 871.891 -2.64058 0.631318 0
M  V30 9007 C 870.347 -1.84147 3.09221 0
M  V30 9008 C 869.955 -1.02186 4.3619 0
M  V30 9009 C 871.699 -2.56604 3.38164 0
M  V30 9010 C 869.606 -1.84978 5.61727 0
M  V30 9011 H 868.536 -0.379948 0.651273 0
M  V30 9012 H 871.187 -0.263543 1.81598 0
M  V30 9013 H 869.569 -2.62637 2.96375 0
M  V30 9014 H 870.743 -0.281459 4.5994 0
M  V30 9015 H 869.058 -0.412054 4.14356 0
M  V30 9016 H 871.655 -3.18942 4.29162 0
M  V30 9017 H 871.998 -3.26647 2.58085 0
M  V30 9018 H 872.531 -1.85147 3.52087 0
M  V30 9019 H 869.27 -1.19365 6.4454 0
M  V30 9020 H 868.79 -2.56628 5.42128 0
M  V30 9021 H 870.469 -2.42458 5.99853 0
M  V30 9022 N 870.601 -1.47988 -0.541979 0
M  V30 9023 C 871.829 -1.59034 -1.32347 0
M  V30 9024 C 872.244 -0.246123 -1.87189 0
M  V30 9025 O 871.601 0.762889 -1.6579 0
M  V30 9026 C 871.652 -2.62759 -2.48274 0
M  V30 9027 O 871.373 -3.91963 -1.95695 0
M  V30 9028 C 872.874 -2.84133 -3.4027 0
M  V30 9029 H 870.094 -0.536574 -0.402901 0
M  V30 9030 H 872.638 -1.93725 -0.655045 0
M  V30 9031 H 870.793 -2.3096 -3.11025 0
M  V30 9032 H 871.207 -4.48769 -2.7149 0
M  V30 9033 H 872.681 -3.60538 -4.17991 0
M  V30 9034 H 873.158 -1.92512 -3.9476 0
M  V30 9035 H 873.764 -3.17188 -2.83322 0
M  V30 9036 N 872.079 0.78992 -1.36375 0
M  V30 9037 C 873.356 1.53584 -1.21126 0
M  V30 9038 C 873.736 2.10124 0.202785 0
M  V30 9039 O 873.084 1.93936 1.20835 0
M  V30 9040 C 873.294 2.63117 -2.29282 0
M  V30 9041 C 874.642 3.31013 -2.65924 0
M  V30 9042 O 875.666 2.734 -2.28321 0
M  V30 9043 O 874.525 4.35129 -3.30643 0
M  V30 9044 H 871.619 0.679366 -0.471583 0
M  V30 9045 H 874.165 0.828446 -1.48104 0
M  V30 9046 H 872.937 2.19329 -3.24053 0
M  V30 9047 H 872.56 3.41476 -2.03666 0
M  V30 9048 N 873.557 1.20646 1.01402 0
M  V30 9049 C 874.834 0.927176 1.72229 0
M  V30 9050 C 875.214 -0.563382 2.03443 0
M  V30 9051 O 874.562 -1.52576 1.70096 0
M  V30 9052 C 874.772 1.80285 2.98828 0
M  V30 9053 C 876.12 2.04624 3.72041 0
M  V30 9054 O 877.144 1.77559 3.0879 0
M  V30 9055 O 876.003 2.50347 4.85787 0
M  V30 9056 H 873.097 0.346891 0.75073 0
M  V30 9057 H 875.643 1.31532 1.07227 0
M  V30 9058 H 874.415 2.81204 2.72102 0
M  V30 9059 H 874.038 1.41495 3.71571 0
M  V30 9060 N 875.035 -1.20752 1.01276 0
M  V30 9061 C 876.263 -1.94006 0.718976 0
M  V30 9062 C 876.678 -1.74544 -0.719711 0
M  V30 9063 O 876.035 -1.05697 -1.48776 0
M  V30 9064 C 876.086 -3.46208 1.04031 0
M  V30 9065 O 875.807 -3.65031 2.42248 0
M  V30 9066 C 877.308 -4.36614 0.767032 0
M  V30 9067 H 874.528 -0.616743 0.264327 0
M  V30 9068 H 877.072 -1.53352 1.3529 0
M  V30 9069 H 875.227 -3.84756 0.451852 0
M  V30 9070 H 875.641 -4.59054 2.53712 0
M  V30 9071 H 877.115 -5.42076 1.04198 0
M  V30 9072 H 877.592 -4.38182 -0.298851 0
M  V30 9073 H 878.198 -4.03723 1.33746 0
M  V30 9074 N 876.513 -0.788492 -1.36457 0
M  V30 9075 C 877.461 -0.174192 -2.31947 0
M  V30 9076 C 878.455 0.665974 -1.5576 0
M  V30 9077 O 879.661 0.561161 -1.71029 0
M  V30 9078 H 876.036 -0.0375538 -0.751062 0
M  V30 9079 H 878.007 -0.995011 -2.81322 0
M  V30 9080 C 876.756 0.677276 -3.4104 0
M  V30 9081 H 876.079 0.0401418 -3.9978 0
M  V30 9082 H 877.519 1.07379 -4.10178 0
M  V30 9083 C 875.978 1.83512 -2.82533 0
M  V30 9084 O 876.508 2.93164 -2.74623 0
M  V30 9085 N 874.714 1.64095 -2.39836 0
M  V30 9086 H 874.261 0.749046 -2.46469 0
M  V30 9087 H 874.219 2.41726 -2.01037 0
M  V30 9088 N 877.991 1.48044 -0.54043 0
M  V30 9089 C 878.938 2.29781 0.216597 0
M  V30 9090 C 879.908 1.38021 0.924094 0
M  V30 9091 O 881.093 1.66985 0.923078 0
M  V30 9092 C 878.233 3.21623 1.2511 0
M  V30 9093 C 877.346 4.28467 0.551384 0
M  V30 9094 C 876.481 5.07477 1.56972 0
M  V30 9095 C 875.52 6.06113 0.854048 0
M  V30 9096 N 874.657 6.78143 1.81842 0
M  V30 9097 H 879.497 2.94001 -0.486578 0
M  V30 9098 H 877.034 1.44929 -0.251789 0
M  V30 9099 H 878.992 3.73279 1.8633 0
M  V30 9100 H 877.622 2.59305 1.92252 0
M  V30 9101 H 876.674 3.79997 -0.174982 0
M  V30 9102 H 877.986 4.98799 -0.0100542 0
M  V30 9103 H 877.14 5.63199 2.25592 0
M  V30 9104 H 875.879 4.37008 2.16507 0
M  V30 9105 H 874.884 5.49585 0.153838 0
M  V30 9106 H 876.109 6.78584 0.264675 0
M  V30 9107 H 874.055 6.10417 2.40265 0
M  V30 9108 H 873.972 7.44587 1.3087 0
M  V30 9109 H 875.24 7.38448 2.49628 0
M  V30 9110 N 879.47 0.276058 1.55163 0
M  V30 9111 C 880.719 -0.341098 1.98795 0
M  V30 9112 C 881.032 -1.56905 1.16791 0
M  V30 9113 O 882.238 -2.25922 1.50571 0
M  V30 9114 C 880.694 -0.658231 3.5383 0
M  V30 9115 C 880.302 0.549972 4.44611 0
M  V30 9116 C 882.046 -1.23796 4.06048 0
M  V30 9117 C 879.953 0.207373 5.91036 0
M  V30 9118 H 878.883 -0.131224 0.742493 0
M  V30 9119 H 881.534 0.380858 1.79504 0
M  V30 9120 H 879.916 -1.43911 3.68925 0
M  V30 9121 H 881.09 1.32681 4.41285 0
M  V30 9122 H 879.405 1.04661 4.03032 0
M  V30 9123 H 882.002 -1.50811 5.12991 0
M  V30 9124 H 882.345 -2.17214 3.55139 0
M  V30 9125 H 882.878 -0.519345 3.94395 0
M  V30 9126 H 879.617 1.10946 6.46043 0
M  V30 9127 H 879.137 -0.532687 5.9743 0
M  V30 9128 H 880.816 -0.200072 6.46691 0
M  V30 9129 N 880.948 -1.576 0.00335426 0
M  V30 9130 C 882.178 -1.94713 -0.690682 0
M  V30 9131 C 882.586 -0.876915 -1.67651 0
M  V30 9132 O 881.929 0.152434 -1.83066 0
M  V30 9133 C 881.991 -3.27833 -1.47532 0
M  V30 9134 C 881.655 -4.52344 -0.650704 0
M  V30 9135 C 882.652 -5.19862 0.0630537 0
M  V30 9136 C 880.337 -4.98755 -0.595687 0
M  V30 9137 C 882.331 -6.32093 0.820779 0
M  V30 9138 C 880.018 -6.10875 0.165761 0
M  V30 9139 C 881.016 -6.77401 0.872724 0
M  V30 9140 O 880.704 -7.87372 1.62174 0
M  V30 9141 H 880.436 -0.646627 -0.197104 0
M  V30 9142 H 882.99 -2.05335 0.0516082 0
M  V30 9143 H 881.22 -3.13628 -2.26217 0
M  V30 9144 H 882.909 -3.50034 -2.05501 0
M  V30 9145 H 883.675 -4.84991 0.0297223 0
M  V30 9146 H 879.554 -4.46797 -1.13549 0
M  V30 9147 H 883.098 -6.83953 1.37312 0
M  V30 9148 H 878.995 -6.45187 0.200901 0
M  V30 9149 H 879.763 -8.03905 1.5388 0
M  V30 9150 N 882.426 0.269451 -1.5528 0
M  V30 9151 C 883.651 1.02299 -1.80415 0
M  V30 9152 C 884.076 1.7902 -0.577363 0
M  V30 9153 O 883.434 1.75018 0.473125 0
M  V30 9154 C 883.482 1.95445 -3.0304 0
M  V30 9155 O 882.586 3.04271 -2.78375 0
M  V30 9156 H 881.927 0.292289 -0.596207 0
M  V30 9157 H 884.457 0.297282 -2.02429 0
M  V30 9158 H 884.467 2.37333 -3.31869 0
M  V30 9159 H 883.142 1.39017 -3.91978 0
M  V30 9160 H 881.719 2.66673 -2.60653 0
M  V30 9161 N 883.904 1.48273 0.534124 0
M  V30 9162 C 885.134 1.59503 1.31311 0
M  V30 9163 C 885.542 0.25284 1.87503 0
M  V30 9164 O 884.885 -0.767399 1.66903 0
M  V30 9165 C 884.947 2.57899 2.50456 0
M  V30 9166 C 884.611 4.03063 2.15382 0
M  V30 9167 C 885.608 4.90869 1.713 0
M  V30 9168 C 883.293 4.4857 2.26032 0
M  V30 9169 C 885.287 6.22209 1.38328 0
M  V30 9170 C 882.974 5.79932 1.92672 0
M  V30 9171 C 883.972 6.66574 1.4889 0
M  V30 9172 O 883.66 7.95492 1.15966 0
M  V30 9173 H 883.392 0.540695 0.405739 0
M  V30 9174 H 885.946 1.94794 0.651497 0
M  V30 9175 H 884.176 2.1772 3.19585 0
M  V30 9176 H 885.865 2.59008 3.12522 0
M  V30 9177 H 886.631 4.56951 1.62545 0
M  V30 9178 H 882.51 3.81321 2.59066 0
M  V30 9179 H 886.054 6.89792 1.04082 0
M  V30 9180 H 881.951 6.13386 2.01066 0
M  V30 9181 H 882.719 8.08207 1.29399 0
M  V30 9182 N 885.382 -0.782676 1.36792 0
M  V30 9183 C 886.63 -1.53778 1.31136 0
M  V30 9184 C 886.951 -1.94706 -0.107014 0
M  V30 9185 O 886.221 -1.65465 -1.04872 0
M  V30 9186 H 884.801 -0.570328 0.482426 0
M  V30 9187 H 887.463 -0.932181 1.71162 0
M  V30 9188 H 886.559 -2.44224 1.94321 0
M  V30 9189 N 886.86 -1.21182 -1.00761 0
M  V30 9190 C 888.276 -0.968607 -1.26847 0
M  V30 9191 C 888.476 0.346561 -1.98497 0
M  V30 9192 O 887.532 1.07287 -2.28573 0
M  V30 9193 C 888.845 -2.1574 -2.09467 0
M  V30 9194 C 890.393 -2.19937 -2.22703 0
M  V30 9195 C 890.868 -3.38328 -3.08704 0
M  V30 9196 N 892.359 -3.38398 -3.16293 0
M  V30 9197 C 893.094 -4.26653 -3.83086 0
M  V30 9198 N 892.59 -5.25101 -4.5193 0
M  V30 9199 N 894.383 -4.14469 -3.797 0
M  V30 9200 H 886.534 -2.05763 -0.526816 0
M  V30 9201 H 888.797 -0.90087 -0.29519 0
M  V30 9202 H 888.503 -3.11034 -1.64167 0
M  V30 9203 H 888.377 -2.14584 -3.10216 0
M  V30 9204 H 890.764 -1.25201 -2.67224 0
M  V30 9205 H 890.845 -2.25139 -1.21433 0
M  V30 9206 H 890.489 -4.33356 -2.64886 0
M  V30 9207 H 890.419 -3.30364 -4.10082 0
M  V30 9208 H 892.91 -2.67149 -2.67282 0
M  V30 9209 H 893.223 -5.8875 -5.00592 0
M  V30 9210 H 891.568 -5.29029 -4.50726 0
M  V30 9211 H 894.759 -3.3682 -3.25069 0
M  V30 9212 H 894.932 -4.83458 -4.31477 0
M  V30 9213 N 888.338 1.20213 -1.01915 0
M  V30 9214 C 889.585 1.89647 -0.709955 0
M  V30 9215 C 889.913 1.7901 0.760631 0
M  V30 9216 O 889.168 1.17028 1.56853 0
M  V30 9217 C 889.467 3.40232 -1.09438 0
M  V30 9218 C 889.133 3.7107 -2.5616 0
M  V30 9219 C 887.795 3.79196 -2.96249 0
M  V30 9220 C 890.147 3.85169 -3.51133 0
M  V30 9221 C 887.475 3.98882 -4.30244 0
M  V30 9222 C 889.827 4.06365 -4.8482 0
M  V30 9223 C 888.491 4.12722 -5.24611 0
M  V30 9224 H 887.761 0.693967 -0.259791 0
M  V30 9225 H 890.408 1.42419 -1.2802 0
M  V30 9226 H 888.713 3.89292 -0.442596 0
M  V30 9227 H 890.41 3.92257 -0.832811 0
M  V30 9228 H 887 3.65346 -2.24099 0
M  V30 9229 H 891.184 3.78243 -3.21319 0
M  V30 9230 H 886.44 4.02039 -4.60624 0
M  V30 9231 H 890.614 4.16216 -5.58334 0
M  V30 9232 H 888.241 4.27728 -6.28453 0
M  V30 9233 N 889.816 0.795718 1.36037 0
M  V30 9234 C 891.093 0.294743 1.93367 0
M  V30 9235 C 891.473 -1.21406 1.72696 0
M  V30 9236 O 890.821 -2.00849 1.08959 0
M  V30 9237 C 891.031 0.694254 3.42025 0
M  V30 9238 C 892.379 0.677566 4.19159 0
M  V30 9239 O 893.403 0.635119 3.50492 0
M  V30 9240 O 892.262 0.726127 5.41655 0
M  V30 9241 H 889.356 0.0745459 0.823633 0
M  V30 9242 H 891.902 0.878685 1.4518 0
M  V30 9243 H 890.674 1.73458 3.50753 0
M  V30 9244 H 890.297 0.0845338 3.9751 0
M  V30 9245 N 891.294 -1.47756 0.548274 0
M  V30 9246 C 892.242 -2.3158 -0.217584 0
M  V30 9247 C 893.236 -1.42372 -0.917957 0
M  V30 9248 O 894.442 -1.59184 -0.840259 0
M  V30 9249 H 890.817 -0.74671 -0.0890388 0
M  V30 9250 H 892.788 -2.94032 0.508719 0
M  V30 9251 C 891.537 -3.24834 -1.24008 0
M  V30 9252 H 890.86 -3.93435 -0.710572 0
M  V30 9253 H 892.3 -3.86336 -1.74701 0
M  V30 9254 C 890.759 -2.47724 -2.2833 0
M  V30 9255 O 891.289 -2.21522 -3.35098 0
M  V30 9256 N 889.495 -2.08891 -2.02022 0
M  V30 9257 H 889.042 -2.30401 -1.1521 0
M  V30 9258 H 889 -1.57613 -2.7204 0
M  V30 9259 N 892.772 -0.284283 -1.55015 0
M  V30 9260 C 894.018 0.330352 -2.00091 0
M  V30 9261 C 894.351 1.54814 -1.17244 0
M  V30 9262 O 893.626 1.92954 -0.244753 0
M  V30 9263 C 893.909 0.703492 -3.53161 0
M  V30 9264 C 893.762 -0.522275 -4.46758 0
M  V30 9265 C 895.081 1.53645 -4.12409 0
M  V30 9266 H 892.2 0.118599 -0.727395 0
M  V30 9267 H 894.842 -0.393054 -1.8589 0
M  V30 9268 H 892.992 1.31983 -3.65394 0
M  V30 9269 H 894.664 -1.16082 -4.46456 0
M  V30 9270 H 892.907 -1.15865 -4.1804 0
M  V30 9271 H 893.578 -0.217295 -5.51572 0
M  V30 9272 H 896.054 1.01583 -4.0351 0
M  V30 9273 H 894.93 1.76633 -5.19704 0
M  V30 9274 H 895.191 2.5204 -3.63219 0
M  V30 9275 N 894.251 1.57596 -0.0117121 0
M  V30 9276 C 895.199 2.1029 0.994035 0
M  V30 9277 C 896.193 1.02549 1.34833 0
M  V30 9278 O 897.399 1.21003 1.3326 0
M  V30 9279 H 893.774 0.671624 0.338268 0
M  V30 9280 H 895.745 2.93761 0.524147 0
M  V30 9281 C 894.494 2.63099 2.27319 0
M  V30 9282 H 893.817 3.45642 2.00927 0
M  V30 9283 H 895.257 3.03635 2.95942 0
M  V30 9284 C 893.716 1.55044 2.99104 0
M  V30 9285 O 894.246 0.940127 3.90544 0
M  V30 9286 N 892.452 1.27506 2.61133 0
M  V30 9287 H 891.999 1.77322 1.86855 0
M  V30 9288 H 891.957 0.554292 3.09475 0
M  V30 9289 N 895.729 -0.261212 1.5542 0
M  V30 9290 C 897.145 -0.609012 1.47524 0
M  V30 9291 C 897.345 -1.88986 0.699042 0
M  V30 9292 O 896.401 -2.51517 0.222628 0
M  V30 9293 C 897.714 -0.725025 2.91828 0
M  V30 9294 C 899.262 -0.818302 3.02114 0
M  V30 9295 C 899.737 -0.965996 4.47697 0
M  V30 9296 N 901.228 -1.03123 4.51575 0
M  V30 9297 C 901.963 -1.16451 5.6145 0
M  V30 9298 N 901.459 -1.26425 6.81167 0
M  V30 9299 N 903.252 -1.19655 5.49217 0
M  V30 9300 H 895.403 0.579807 2.04333 0
M  V30 9301 H 897.666 0.198072 0.927077 0
M  V30 9302 H 897.372 0.145871 3.51397 0
M  V30 9303 H 897.246 -1.60156 3.41511 0
M  V30 9304 H 899.633 -1.67966 2.42634 0
M  V30 9305 H 899.714 0.0830895 2.55665 0
M  V30 9306 H 899.358 -0.109251 5.07782 0
M  V30 9307 H 899.288 -1.88221 4.91813 0
M  V30 9308 H 901.779 -0.966072 3.65343 0
M  V30 9309 H 902.092 -1.36462 7.60656 0
M  V30 9310 H 900.437 -1.23408 6.83956 0
M  V30 9311 H 903.628 -1.11501 4.54626 0
M  V30 9312 H 903.801 -1.29698 6.34888 0
M  V30 9313 N 897.207 -1.48554 -0.526253 0
M  V30 9314 C 898.456 -1.56014 -1.27837 0
M  V30 9315 C 898.769 -0.240643 -1.94114 0
M  V30 9316 O 899.975 -0.193525 -2.70809 0
M  V30 9317 C 898.431 -2.75161 -2.31979 0
M  V30 9318 C 898.039 -4.13768 -1.71755 0
M  V30 9319 C 899.783 -2.91936 -3.08178 0
M  V30 9320 C 897.69 -5.24171 -2.7386 0
M  V30 9321 H 896.62 -0.58082 -0.480795 0
M  V30 9322 H 899.271 -1.74895 -0.555335 0
M  V30 9323 H 897.653 -2.49722 -3.07335 0
M  V30 9324 H 898.827 -4.49241 -1.02563 0
M  V30 9325 H 897.142 -4.02141 -1.08036 0
M  V30 9326 H 899.739 -3.71586 -3.84484 0
M  V30 9327 H 900.082 -2.01533 -3.64267 0
M  V30 9328 H 900.615 -3.17294 -2.39937 0
M  V30 9329 H 897.354 -6.16552 -2.22586 0
M  V30 9330 H 896.874 -4.93181 -3.41368 0
M  V30 9331 H 898.553 -5.52442 -3.36774 0
M  V30 9332 N 898.685 0.775411 -1.37205 0
M  V30 9333 C 899.648 1.8702 -1.325 0
M  V30 9334 C 900.648 1.5915 -0.229793 0
M  V30 9335 O 901.838 1.673 -0.485423 0
M  V30 9336 C 898.97 3.24085 -1.05745 0
M  V30 9337 H 900.163 1.92604 -2.29878 0
M  V30 9338 H 897.716 0.97476 -1.22181 0
M  V30 9339 H 898.451 3.24178 -0.0888371 0
M  V30 9340 H 898.236 3.45705 -1.85016 0
M  V30 9341 H 899.726 4.0416 -1.05094 0
M  V30 9342 N 900.163 1.21714 1.00117 0
M  V30 9343 C 901.409 1.03823 1.74208 0
M  V30 9344 C 901.742 -0.426733 1.89454 0
M  V30 9345 O 901.017 -1.31658 1.43166 0
M  V30 9346 C 901.3 1.74047 3.15246 0
M  V30 9347 C 901.153 3.28087 3.077 0
M  V30 9348 C 902.472 1.48614 4.14249 0
M  V30 9349 H 899.591 0.378573 0.632338 0
M  V30 9350 H 902.233 1.49942 1.16694 0
M  V30 9351 H 900.383 1.3484 3.64349 0
M  V30 9352 H 902.055 3.76686 2.6628 0
M  V30 9353 H 900.298 3.58191 2.44707 0
M  V30 9354 H 900.969 3.72392 4.07466 0
M  V30 9355 H 903.445 1.82656 3.73866 0
M  V30 9356 H 902.321 2.00257 5.11066 0
M  V30 9357 H 902.582 0.416957 4.40129 0
M  V30 9358 N 901.641 -1.19671 1.02551 0
M  V30 9359 C 902.887 -1.89548 0.721069 0
M  V30 9360 C 903.22 -1.79209 -0.748176 0
M  V30 9361 O 902.495 -1.1822 -1.54448 0
M  V30 9362 C 902.778 -3.4061 1.16861 0
M  V30 9363 C 902.631 -3.59838 2.69883 0
M  V30 9364 C 903.95 -4.33718 0.746782 0
M  V30 9365 H 901.069 -0.688315 0.263422 0
M  V30 9366 H 903.711 -1.40883 1.27483 0
M  V30 9367 H 901.861 -3.82188 0.697477 0
M  V30 9368 H 903.533 -3.27454 3.24917 0
M  V30 9369 H 901.776 -3.03005 3.10435 0
M  V30 9370 H 902.447 -4.65766 2.96253 0
M  V30 9371 H 904.923 -3.99837 1.15195 0
M  V30 9372 H 903.799 -5.38012 1.08786 0
M  V30 9373 H 904.06 -4.40704 -0.351057 0
M  V30 9374 N 903.119 -0.802921 -1.35613 0
M  V30 9375 C 904.049 -0.225131 -2.32412 0
M  V30 9376 C 905.03 0.647383 -1.57299 0
M  V30 9377 O 906.215 0.578414 -1.85386 0
M  V30 9378 C 903.345 0.630085 -3.41537 0
M  V30 9379 C 902.299 -0.143635 -4.27759 0
M  V30 9380 C 901.625 0.833046 -5.28171 0
M  V30 9381 C 902.925 -1.34054 -5.04804 0
M  V30 9382 H 904.619 -1.03385 -2.80984 0
M  V30 9383 H 902.165 -0.498593 -1.35093 0
M  V30 9384 H 904.118 1.04433 -4.08254 0
M  V30 9385 H 902.842 1.47165 -2.91565 0
M  V30 9386 H 901.501 -0.539015 -3.62616 0
M  V30 9387 H 901.149 1.67001 -4.74468 0
M  V30 9388 H 900.849 0.319697 -5.8673 0
M  V30 9389 H 902.373 1.24558 -5.97761 0
M  V30 9390 H 903.787 -1.00136 -5.64487 0
M  V30 9391 H 902.184 -1.78812 -5.72841 0
M  V30 9392 H 903.254 -2.12906 -4.35659 0
M  V30 9393 N 904.597 1.47463 -0.556102 0
M  V30 9394 C 905.545 2.31692 0.205299 0
M  V30 9395 C 906.539 1.42857 0.910394 0
M  V30 9396 O 907.745 1.59628 0.831806 0
M  V30 9397 H 904.12 0.747172 0.0850775 0
M  V30 9398 H 906.091 2.93758 -0.524305 0
M  V30 9399 C 904.84 3.25487 1.22283 0
M  V30 9400 H 904.163 3.93806 0.689697 0
M  V30 9401 H 905.603 3.87257 1.7265 0
M  V30 9402 C 904.062 2.48931 2.27013 0
M  V30 9403 O 904.592 2.23296 3.33919 0
M  V30 9404 N 902.798 2.0996 2.00911 0
M  V30 9405 H 902.345 2.31008 1.13986 0
M  V30 9406 H 902.303 1.59053 2.712 0
M  V30 9407 N 906.075 0.2925 1.54862 0
M  V30 9408 C 907.023 -0.603186 2.24643 0
M  V30 9409 C 908.017 -1.1439 1.24946 0
M  V30 9410 O 909.223 -1.09552 1.42823 0
M  V30 9411 H 905.598 -0.213105 0.721173 0
M  V30 9412 H 907.569 0.00799278 2.98399 0
M  V30 9413 C 906.318 -1.76769 2.99413 0
M  V30 9414 H 905.641 -1.36084 3.75927 0
M  V30 9415 H 907.081 -2.37066 3.51533 0
M  V30 9416 C 905.54 -2.66669 2.05886 0
M  V30 9417 O 906.07 -3.67525 1.62136 0
M  V30 9418 N 904.276 -2.34216 1.7202 0
M  V30 9419 H 903.823 -1.52246 2.07795 0
M  V30 9420 H 903.781 -2.94635 1.09717 0
M  V30 9421 N 907.553 -1.57587 0.0200696 0
M  V30 9422 C 908.83 -1.82696 -0.698677 0
M  V30 9423 C 909.21 -0.902082 -1.90855 0
M  V30 9424 O 908.558 0.0444834 -2.28457 0
M  V30 9425 C 908.768 -3.31691 -1.08546 0
M  V30 9426 C 910.116 -3.97938 -1.4809 0
M  V30 9427 O 911.14 -3.36133 -1.17869 0
M  V30 9428 O 909.999 -5.06851 -2.04364 0
M  V30 9429 H 907.093 -0.752997 -0.341942 0
M  V30 9430 H 909.639 -1.69635 0.04706 0
M  V30 9431 H 908.411 -3.90659 -0.223956 0
M  V30 9432 H 908.034 -3.49825 -1.88965 0
M  V30 9433 N 909.032 0.252966 -1.55557 0
M  V30 9434 C 910.257 1.0038 -1.8149 0
M  V30 9435 C 910.682 1.78397 -0.596318 0
M  V30 9436 O 910.04 1.7551 0.454535 0
M  V30 9437 C 910.088 1.9222 -3.05096 0
M  V30 9438 O 909.192 3.01302 -2.81587 0
M  V30 9439 H 908.533 0.285949 -0.599274 0
M  V30 9440 H 911.063 0.275795 -2.02733 0
M  V30 9441 H 911.073 2.338 -3.34368 0
M  V30 9442 H 909.748 1.34852 -3.93431 0
M  V30 9443 H 908.325 2.63894 -2.63466 0
M  V30 9444 N 910.51 1.48831 0.518367 0
M  V30 9445 C 911.756 1.57672 1.27543 0
M  V30 9446 C 912.089 0.254915 1.9252 0
M  V30 9447 O 911.364 -0.740107 1.79868 0
M  V30 9448 C 911.647 2.72345 2.35585 0
M  V30 9449 C 911.5 4.14267 1.75224 0
M  V30 9450 C 912.819 2.82726 3.37274 0
M  V30 9451 H 909.938 0.573926 0.462361 0
M  V30 9452 H 912.58 1.8105 0.576267 0
M  V30 9453 H 910.73 2.52543 2.95219 0
M  V30 9454 H 912.402 4.45539 1.19551 0
M  V30 9455 H 910.645 4.20724 1.05706 0
M  V30 9456 H 911.316 4.90345 2.53507 0
M  V30 9457 H 913.792 3.00699 2.8761 0
M  V30 9458 H 912.668 3.6467 4.10252 0
M  V30 9459 H 912.929 1.9136 3.9854 0
M  V30 9460 N 911.988 -0.768124 1.37614 0
M  V30 9461 C 913.213 -1.56239 1.36397 0
M  V30 9462 C 913.638 -1.8804 -0.0475839 0
M  V30 9463 O 912.996 -1.495 -1.02564 0
M  V30 9464 C 913.044 -2.84716 2.21289 0
M  V30 9465 O 912.148 -3.79249 1.62001 0
M  V30 9466 H 911.489 -0.473119 0.465891 0
M  V30 9467 H 914.019 -0.950415 1.81186 0
M  V30 9468 H 914.029 -3.33784 2.34632 0
M  V30 9469 H 912.704 -2.60899 3.2389 0
M  V30 9470 H 911.281 -3.37904 1.57719 0
M  V30 9471 N 913.466 -1.22244 -0.994698 0
M  V30 9472 C 914.416 -0.958244 -2.06886 0
M  V30 9473 C 915.4 0.0904481 -1.60646 0
M  V30 9474 O 916.592 -0.119837 -1.76594 0
M  V30 9475 C 913.721 -0.535944 -3.39091 0
M  V30 9476 C 912.807 -1.61927 -3.9197 0
M  V30 9477 N 913.198 -2.84659 -4.18094 0
M  V30 9478 C 911.496 -1.49053 -4.20356 0
M  V30 9479 C 912.197 -3.54697 -4.61048 0
M  V30 9480 N 911.173 -2.82164 -4.64634 0
M  V30 9481 H 914.975 -1.89056 -2.25022 0
M  V30 9482 H 912.489 -1.1197 -1.17629 0
M  V30 9483 H 914.486 -0.327997 -4.15608 0
M  V30 9484 H 913.146 0.38949 -3.22355 0
M  V30 9485 H 914.157 -3.21104 -4.06341 0
M  V30 9486 H 910.834 -0.631154 -4.12702 0
M  V30 9487 H 912.224 -4.59837 -4.89898 0
M  V30 9488 N 914.944 1.19125 -1.03184 0
M  V30 9489 C 916.172 1.92838 -0.74975 0
M  V30 9490 C 916.587 1.75667 0.691851 0
M  V30 9491 O 915.944 1.0805 1.47076 0
M  V30 9492 C 915.995 3.44509 -1.09525 0
M  V30 9493 O 915.716 3.6113 -2.48025 0
M  V30 9494 C 917.217 4.35338 -0.836397 0
M  V30 9495 H 914.437 0.61246 -0.274105 0
M  V30 9496 H 916.981 1.5118 -1.37712 0
M  V30 9497 H 915.136 3.83988 -0.513006 0
M  V30 9498 H 915.55 4.54959 -2.60984 0
M  V30 9499 H 917.024 5.4035 -1.12808 0
M  V30 9500 H 917.501 4.38602 0.229102 0
M  V30 9501 H 918.107 4.01544 -1.40152 0
M  V30 9502 N 916.422 0.810101 1.35185 0
M  V30 9503 C 917.668 0.392698 1.98962 0
M  V30 9504 C 918.001 -1.03835 1.64109 0
M  V30 9505 O 917.276 -1.721 0.9062 0
M  V30 9506 C 917.559 0.580349 3.55393 0
M  V30 9507 C 917.412 2.05658 4.00031 0
M  V30 9508 C 918.731 0.00822618 4.40099 0
M  V30 9509 H 915.85 0.144157 0.722764 0
M  V30 9510 H 918.492 1.02029 1.60281 0
M  V30 9511 H 916.642 0.0461106 3.88473 0
M  V30 9512 H 918.314 2.65348 3.77344 0
M  V30 9513 H 916.557 2.55174 3.50811 0
M  V30 9514 H 917.228 2.13875 5.08883 0
M  V30 9515 H 919.704 0.464517 4.13499 0
M  V30 9516 H 918.58 0.169414 5.48638 0
M  V30 9517 H 918.841 -1.08576 4.2856 0
M  V30 9518 N 917.9 -1.47166 0.563914 0
M  V30 9519 C 918.848 -2.31798 -0.193009 0
M  V30 9520 C 919.842 -1.43338 -0.902805 0
M  V30 9521 O 921.048 -1.60067 -0.823328 0
M  V30 9522 H 917.423 -0.747613 -0.0811139 0
M  V30 9523 H 919.394 -2.93476 0.539876 0
M  V30 9524 C 918.143 -3.26131 -1.20555 0
M  V30 9525 H 917.466 -3.94166 -0.668803 0
M  V30 9526 H 918.906 -3.88167 -1.70593 0
M  V30 9527 C 917.365 -2.50132 -2.25689 0
M  V30 9528 O 917.895 -2.25064 -3.3273 0
M  V30 9529 N 916.101 -2.11022 -1.99795 0
M  V30 9530 H 915.648 -2.3161 -1.1276 0
M  V30 9531 H 915.606 -1.60489 -2.70353 0
M  V30 9532 N 919.378 -0.300708 -1.54705 0
M  V30 9533 C 920.624 0.309111 -2.0043 0
M  V30 9534 C 920.957 1.53562 -1.1888 0
M  V30 9535 O 920.232 1.92683 -0.265205 0
M  V30 9536 C 920.515 0.665995 -3.53888 0
M  V30 9537 C 920.368 -0.56963 -4.46178 0
M  V30 9538 C 921.687 1.49262 -4.14016 0
M  V30 9539 H 918.806 0.110878 -0.728612 0
M  V30 9540 H 921.448 -0.412748 -1.85463 0
M  V30 9541 H 919.598 1.281 -3.66773 0
M  V30 9542 H 921.27 -1.20811 -4.45199 0
M  V30 9543 H 919.513 -1.20292 -4.16788 0
M  V30 9544 H 920.184 -0.275785 -5.51311 0
M  V30 9545 H 922.66 0.972979 -4.04564 0
M  V30 9546 H 921.536 1.71111 -5.21548 0
M  V30 9547 H 921.797 2.48174 -3.65872 0
M  V30 9548 N 920.856 1.57574 -0.0284266 0
M  V30 9549 C 922.267 1.79585 0.510502 0
M  V30 9550 C 922.618 0.938625 1.72291 0
M  V30 9551 O 921.743 0.14884 2.15888 0
M  V30 9552 C 922.338 3.25703 0.932912 0
M  V30 9553 C 920.897 3.48711 1.41696 0
M  V30 9554 C 920.044 2.74665 0.381356 0
M  V30 9555 H 922.995 1.56647 -0.254464 0
M  V30 9556 H 923.016 3.35376 1.79731 0
M  V30 9557 H 922.528 3.88067 0.0503036 0
M  V30 9558 H 920.629 2.91597 2.31952 0
M  V30 9559 H 920.742 4.57423 1.42481 0
M  V30 9560 H 919.106 2.40123 0.8493 0
M  V30 9561 H 919.889 3.39745 -0.492775 0
M  V30 9562 N 922.334 -0.244713 1.55689 0
M  V30 9563 C 923.58 -0.973886 1.77886 0
M  V30 9564 C 923.913 -1.8489 0.594071 0
M  V30 9565 O 923.188 -1.90182 -0.407564 0
M  V30 9566 C 923.471 -1.83255 3.09983 0
M  V30 9567 C 923.324 -0.985571 4.3887 0
M  V30 9568 C 924.643 -2.81464 3.38329 0
M  V30 9569 H 921.762 -0.352629 0.647165 0
M  V30 9570 H 924.404 -0.244243 1.88424 0
M  V30 9571 H 922.554 -2.45464 3.01131 0
M  V30 9572 H 924.226 -0.382005 4.59716 0
M  V30 9573 H 922.469 -0.29002 4.32829 0
M  V30 9574 H 923.14 -1.62022 5.27686 0
M  V30 9575 H 925.616 -2.2939 3.47159 0
M  V30 9576 H 924.492 -3.38663 4.31971 0
M  V30 9577 H 924.753 -3.58037 2.59349 0
M  V30 9578 N 923.813 -1.49104 -0.510467 0
M  V30 9579 C 925.059 -1.59322 -1.26444 0
M  V30 9580 C 925.414 -0.27219 -1.90465 0
M  V30 9581 O 924.707 0.726762 -1.77281 0
M  V30 9582 C 924.901 -2.68259 -2.36161 0
M  V30 9583 C 924.73 -4.10827 -1.82897 0
M  V30 9584 C 923.5 -4.77732 -1.64623 0
M  V30 9585 C 925.698 -4.96367 -1.34625 0
M  V30 9586 N 923.68 -6.04646 -1.06189 0
M  V30 9587 C 925.051 -6.13685 -0.882656 0
M  V30 9588 C 927.106 -4.8244 -1.2311 0
M  V30 9589 C 925.809 -7.18609 -0.315306 0
M  V30 9590 C 927.835 -5.87504 -0.677726 0
M  V30 9591 C 927.197 -7.04043 -0.224308 0
M  V30 9592 H 923.296 -0.637429 -0.453 0
M  V30 9593 H 925.88 -1.8607 -0.573237 0
M  V30 9594 H 924.051 -2.433 -3.02753 0
M  V30 9595 H 925.783 -2.68052 -3.032 0
M  V30 9596 H 922.538 -4.34377 -1.88716 0
M  V30 9597 H 922.962 -6.72383 -0.78927 0
M  V30 9598 H 927.604 -3.92663 -1.56766 0
M  V30 9599 H 925.322 -8.08093 0.0335425 0
M  V30 9600 H 928.908 -5.78785 -0.591535 0
M  V30 9601 H 927.788 -7.83952 0.197212 0
M  V30 9602 N 925.291 0.760815 -1.38019 0
M  V30 9603 C 926.223 1.88387 -1.30549 0
M  V30 9604 C 927.236 1.61319 -0.219119 0
M  V30 9605 O 928.425 1.72033 -0.476122 0
M  V30 9606 C 925.525 3.23863 -0.998291 0
M  V30 9607 C 924.698 3.78492 -2.19232 0
M  V30 9608 C 923.757 4.92468 -1.85368 0
M  V30 9609 O 922.783 5.0748 -2.57785 0
M  V30 9610 N 923.985 5.74901 -0.804319 0
M  V30 9611 H 926.75 1.95308 -2.27322 0
M  V30 9612 H 924.311 0.940423 -1.31786 0
M  V30 9613 H 926.303 3.97644 -0.7524 0
M  V30 9614 H 924.873 3.12374 -0.11877 0
M  V30 9615 H 924.093 2.96361 -2.5993 0
M  V30 9616 H 925.381 4.11722 -2.98935 0
M  V30 9617 H 924.779 5.65333 -0.203628 0
M  V30 9618 H 923.336 6.48861 -0.618301 0
M  V30 9619 N 926.769 1.22769 0.988202 0
M  V30 9620 C 927.699 1.02627 2.09738 0
M  V30 9621 C 928.68 -0.0543211 1.70013 0
M  V30 9622 O 929.865 0.108811 1.93895 0
M  V30 9623 C 926.995 0.608302 3.41931 0
M  V30 9624 C 925.949 1.63536 3.95525 0
M  V30 9625 C 925.275 1.07308 5.23822 0
M  V30 9626 C 926.575 3.02649 4.25677 0
M  V30 9627 H 928.269 1.954 2.26847 0
M  V30 9628 H 925.815 0.940888 1.09011 0
M  V30 9629 H 927.768 0.454478 4.18942 0
M  V30 9630 H 926.492 -0.355095 3.24664 0
M  V30 9631 H 925.151 1.77704 3.20651 0
M  V30 9632 H 924.799 0.100894 5.02899 0
M  V30 9633 H 924.499 1.75925 5.60646 0
M  V30 9634 H 926.023 0.930938 6.03462 0
M  V30 9635 H 927.437 2.91828 4.93467 0
M  V30 9636 H 925.834 3.68434 4.73684 0
M  V30 9637 H 926.904 3.52228 3.33262 0
M  V30 9638 N 928.247 -1.18576 1.03814 0
M  V30 9639 C 929.472 -1.92978 0.759873 0
M  V30 9640 C 929.897 -1.75514 -0.676486 0
M  V30 9641 O 929.255 -1.06359 -1.46824 0
M  V30 9642 C 929.303 -3.42507 1.12788 0
M  V30 9643 O 928.407 -4.1163 0.251886 0
M  V30 9644 H 927.748 -0.602129 0.279886 0
M  V30 9645 H 930.278 -1.50383 1.3873 0
M  V30 9646 H 930.288 -3.93206 1.08872 0
M  V30 9647 H 928.963 -3.5454 2.17427 0
M  V30 9648 H 927.54 -3.7125 0.350441 0
M  V30 9649 N 929.725 -0.817259 -1.34754 0
M  V30 9650 C 930.658 -0.180483 -2.27485 0
M  V30 9651 C 931.636 0.659792 -1.48612 0
M  V30 9652 O 932.82 0.624761 -1.77845 0
M  V30 9653 C 929.947 0.748487 -3.30326 0
M  V30 9654 C 928.993 -0.0135304 -4.26498 0
M  V30 9655 S 929.826 -1.35685 -5.18025 0
M  V30 9656 C 930.982 -0.432605 -6.24403 0
M  V30 9657 H 931.215 -0.966677 -2.81145 0
M  V30 9658 H 928.748 -0.612864 -1.41716 0
M  V30 9659 H 930.706 1.27893 -3.90069 0
M  V30 9660 H 929.367 1.50816 -2.75524 0
M  V30 9661 H 928.56 0.692454 -4.9922 0
M  V30 9662 H 928.162 -0.474344 -3.7098 0
M  V30 9663 H 930.454 0.378035 -6.76444 0
M  V30 9664 H 931.397 -1.12934 -6.99036 0
M  V30 9665 H 931.805 -0.0235533 -5.64495 0
M  V30 9666 N 931.203 1.46865 -0.571711 0
M  V30 9667 C 932.614 1.86158 -0.142181 0
M  V30 9668 C 932.965 1.47663 1.2919 0
M  V30 9669 O 932.09 0.886393 1.97413 0
M  V30 9670 C 932.685 3.37867 -0.251256 0
M  V30 9671 C 931.244 3.76198 0.123329 0
M  V30 9672 C 930.391 2.70902 -0.592232 0
M  V30 9673 H 933.342 1.38176 -0.780587 0
M  V30 9674 H 933.363 3.76842 0.526331 0
M  V30 9675 H 932.875 3.65853 -1.2951 0
M  V30 9676 H 930.976 3.53829 1.16773 0
M  V30 9677 H 931.089 4.78471 -0.24533 0
M  V30 9678 H 929.453 2.54678 -0.0336927 0
M  V30 9679 H 930.236 3.01729 -1.63751 0
M  V30 9680 N 932.681 0.308908 1.54543 0
M  V30 9681 C 933.629 -0.579326 2.2527 0
M  V30 9682 C 934.623 -1.13058 1.26152 0
M  V30 9683 O 935.829 -1.08031 1.43977 0
M  V30 9684 H 932.204 -0.205444 0.723392 0
M  V30 9685 H 934.175 0.0396415 2.98374 0
M  V30 9686 C 932.924 -1.73584 3.01271 0
M  V30 9687 H 932.247 -1.32089 3.77349 0
M  V30 9688 H 933.687 -2.33324 3.54028 0
M  V30 9689 C 932.146 -2.6447 2.08703 0
M  V30 9690 O 932.676 -3.65785 1.66025 0
M  V30 9691 N 930.882 -2.32379 1.74495 0
M  V30 9692 H 930.429 -1.50034 2.09398 0
M  V30 9693 H 930.387 -2.93454 1.12836 0
M  V30 9694 N 934.159 -1.57557 0.0367827 0
M  V30 9695 C 935.407 -1.91735 -0.63892 0
M  V30 9696 C 935.728 -0.914515 -1.72226 0
M  V30 9697 O 934.998 0.0428248 -1.95853 0
M  V30 9698 H 933.578 -0.707738 -0.23899 0
M  V30 9699 H 936.24 -1.94708 0.0863931 0
M  V30 9700 H 935.336 -2.92568 -1.08676 0
M  V30 9701 N 935.637 0.236453 -1.55816 0
M  V30 9702 C 936.862 0.98449 -1.82545 0
M  V30 9703 C 937.287 1.77755 -0.615206 0
M  V30 9704 O 936.645 1.75982 0.435895 0
M  V30 9705 C 936.693 1.88973 -3.07118 0
M  V30 9706 O 935.797 2.98298 -2.84766 0
M  V30 9707 H 935.138 0.279577 -0.602273 0
M  V30 9708 H 937.668 0.254277 -2.03014 0
M  V30 9709 H 937.678 2.3024 -3.36829 0
M  V30 9710 H 936.353 1.30671 -3.94839 0
M  V30 9711 H 934.93 2.61085 -2.6625 0
M  V30 9712 N 937.115 1.49373 0.502552 0
M  V30 9713 C 938.343 1.62488 1.28084 0
M  V30 9714 C 938.758 0.295667 1.86471 0
M  V30 9715 O 938.115 -0.718664 1.67754 0
M  V30 9716 C 938.166 2.69249 2.4122 0
M  V30 9717 O 937.887 3.97014 1.85234 0
M  V30 9718 C 939.388 2.93054 3.32617 0
M  V30 9719 H 936.608 0.547068 0.388533 0
M  V30 9720 H 939.152 1.95394 0.603452 0
M  V30 9721 H 937.307 2.39125 3.04792 0
M  V30 9722 H 937.721 4.55809 2.59496 0
M  V30 9723 H 939.195 3.71493 4.08285 0
M  V30 9724 H 939.672 2.02911 3.89517 0
M  V30 9725 H 940.278 3.24589 2.74813 0
M  V30 9726 N 938.594 -0.753485 1.38421 0
M  V30 9727 C 939.84 -1.51485 1.34834 0
M  V30 9728 C 940.173 -1.94102 -0.0615381 0
M  V30 9729 O 939.448 -1.65439 -1.02274 0
M  V30 9730 C 939.731 -2.76736 2.30411 0
M  V30 9731 C 939.584 -2.40256 3.80259 0
M  V30 9732 C 940.903 -3.7876 2.24119 0
M  V30 9733 H 938.022 -0.549534 0.491102 0
M  V30 9734 H 940.664 -0.863006 1.6927 0
M  V30 9735 H 938.814 -3.32357 2.01175 0
M  V30 9736 H 940.486 -1.90409 4.20169 0
M  V30 9737 H 938.729 -1.72714 3.97935 0
M  V30 9738 H 939.4 -3.29869 4.42595 0
M  V30 9739 H 941.876 -3.32679 2.49928 0
M  V30 9740 H 940.752 -4.64092 2.93104 0
M  V30 9741 H 941.013 -4.24352 1.24006 0
M  V30 9742 N 940.072 -1.23292 -0.981677 0
M  V30 9743 C 941.3 -1.09088 -1.75805 0
M  V30 9744 C 941.715 0.357746 -1.8538 0
M  V30 9745 O 941.072 1.24751 -1.33205 0
M  V30 9746 C 941.123 -1.70885 -3.1856 0
M  V30 9747 O 940.844 -3.10082 -3.09484 0
M  V30 9748 C 942.345 -1.62106 -4.12597 0
M  V30 9749 H 939.565 -0.38184 -0.55176 0
M  V30 9750 H 942.109 -1.63116 -1.23342 0
M  V30 9751 H 940.264 -1.20893 -3.68054 0
M  V30 9752 H 940.678 -3.40039 -3.99342 0
M  V30 9753 H 942.152 -2.10049 -5.10474 0
M  V30 9754 H 942.629 -0.579642 -4.35358 0
M  V30 9755 H 943.235 -2.11457 -3.69007 0
M  V30 9756 N 941.55 1.18024 -1.04442 0
M  V30 9757 C 942.827 1.8398 -0.664125 0
M  V30 9758 C 943.207 1.92961 0.856116 0
M  V30 9759 O 942.555 1.45839 1.75907 0
M  V30 9760 C 942.765 3.22069 -1.34433 0
M  V30 9761 C 944.113 3.98063 -1.47754 0
M  V30 9762 O 945.137 3.31523 -1.30274 0
M  V30 9763 O 943.996 5.17291 -1.76272 0
M  V30 9764 H 941.09 0.793543 -0.23285 0
M  V30 9765 H 943.636 1.25385 -1.14354 0
M  V30 9766 H 942.408 3.10458 -2.38184 0
M  V30 9767 H 942.031 3.88325 -0.853782 0
M  V30 9768 N 943.028 0.824394 1.34319 0
M  V30 9769 C 943.975 0.245282 2.29493 0
M  V30 9770 C 944.945 -0.630762 1.53657 0
M  V30 9771 O 946.13 -0.572094 1.82021 0
M  V30 9772 C 943.27 -0.585631 3.40095 0
M  V30 9773 C 942.383 0.312821 4.30866 0
M  V30 9774 C 941.518 -0.527801 5.28571 0
M  V30 9775 C 940.557 0.369946 6.10981 0
M  V30 9776 N 939.694 -0.43169 7.00772 0
M  V30 9777 H 944.534 1.06225 2.78425 0
M  V30 9778 H 942.071 0.53533 1.37013 0
M  V30 9779 H 944.029 -1.08271 4.02906 0
M  V30 9780 H 942.659 -1.3677 2.92393 0
M  V30 9781 H 941.711 0.928129 3.68904 0
M  V30 9782 H 943.023 1.00306 4.8861 0
M  V30 9783 H 942.177 -1.0893 5.96841 0
M  V30 9784 H 940.916 -1.25154 4.71368 0
M  V30 9785 H 939.921 0.943577 5.41643 0
M  V30 9786 H 941.146 1.09182 6.70266 0
M  V30 9787 H 939.092 -1.13908 6.46035 0
M  V30 9788 H 939.009 0.200133 7.55735 0
M  V30 9789 H 940.277 -0.975894 7.73367 0
M  V30 9790 N 944.506 -1.46559 0.579492 0
M  V30 9791 C 945.755 -2.01606 0.0615735 0
M  V30 9792 C 946.068 -1.45695 -1.30508 0
M  V30 9793 O 947.274 -1.92541 -1.91416 0
M  V30 9794 C 945.73 -3.59851 0.059496 0
M  V30 9795 C 945.338 -4.24757 1.42427 0
M  V30 9796 C 947.082 -4.22567 -0.404646 0
M  V30 9797 C 944.989 -5.75072 1.38009 0
M  V30 9798 H 943.919 -0.753754 0.0192491 0
M  V30 9799 H 946.57 -1.68326 0.73066 0
M  V30 9800 H 944.952 -3.90193 -0.675691 0
M  V30 9801 H 946.126 -4.06029 2.17893 0
M  V30 9802 H 944.441 -3.74121 1.82817 0
M  V30 9803 H 947.038 -5.32748 -0.456441 0
M  V30 9804 H 947.381 -3.91279 -1.42149 0
M  V30 9805 H 947.914 -3.96839 0.276376 0
M  V30 9806 H 944.653 -6.11014 2.37364 0
M  V30 9807 H 944.173 -5.96073 0.667583 0
M  V30 9808 H 945.852 -6.37724 1.09163 0
M  V30 9809 N 945.984 -0.3171 -1.54377 0
M  V30 9810 C 947.212 0.289558 -2.04864 0
M  V30 9811 C 947.627 1.46284 -1.19359 0
M  V30 9812 O 946.984 1.81135 -0.222795 0
M  V30 9813 C 947.035 0.730273 -3.54047 0
M  V30 9814 O 946.756 -0.396325 -4.36304 0
M  V30 9815 C 948.257 1.40041 -4.20599 0
M  V30 9816 H 945.477 0.0605836 -0.668259 0
M  V30 9817 H 948.021 -0.461411 -1.99227 0
M  V30 9818 H 946.176 1.43123 -3.59992 0
M  V30 9819 H 946.59 -0.0502901 -5.24476 0
M  V30 9820 H 948.064 1.65979 -5.26455 0
M  V30 9821 H 948.541 2.34565 -3.71316 0
M  V30 9822 H 949.147 0.742206 -4.18774 0
M  V30 9823 N 947.462 1.57535 -0.0451378 0
M  V30 9824 C 948.71 1.92071 0.628743 0
M  V30 9825 C 949.031 0.923635 1.71738 0
M  V30 9826 O 948.301 -0.0324376 1.95873 0
M  V30 9827 H 946.881 0.708995 0.235233 0
M  V30 9828 H 949.543 1.9466 -0.0967177 0
M  V30 9829 H 948.639 2.9314 1.07123 0
M  V30 9830 N 948.94 -0.228186 1.55939 0
M  V30 9831 C 949.89 -1.28607 1.88267 0
M  V30 9832 C 950.874 -1.42606 0.745139 0
M  V30 9833 O 952.066 -1.45533 1.00743 0
M  V30 9834 C 949.195 -2.63783 2.19712 0
M  V30 9835 C 948.281 -2.53712 3.3984 0
M  V30 9836 N 948.672 -2.13287 4.58631 0
M  V30 9837 C 946.97 -2.84686 3.43322 0
M  V30 9838 C 947.671 -2.14305 5.40785 0
M  V30 9839 N 946.647 -2.54536 4.80325 0
M  V30 9840 H 950.449 -0.964307 2.7763 0
M  V30 9841 H 947.963 -0.436769 1.56416 0
M  V30 9842 H 949.96 -3.40152 2.41044 0
M  V30 9843 H 948.62 -2.9681 1.31657 0
M  V30 9844 H 949.631 -1.84525 4.83912 0
M  V30 9845 H 946.308 -3.22129 2.65592 0
M  V30 9846 H 947.698 -1.85231 6.45863 0
M  V30 9847 N 950.418 -1.49637 -0.494624 0
M  V30 9848 C 951.643 -1.63431 -1.27691 0
M  V30 9849 C 952.068 -0.30813 -1.85559 0
M  V30 9850 O 951.426 0.725083 -1.66169 0
M  V30 9851 C 951.474 -2.71043 -2.3784 0
M  V30 9852 O 950.578 -2.3066 -3.41862 0
M  V30 9853 H 949.919 -0.546804 -0.376698 0
M  V30 9854 H 952.449 -1.95866 -0.591413 0
M  V30 9855 H 952.459 -2.93406 -2.83508 0
M  V30 9856 H 951.134 -3.67306 -1.95088 0
M  V30 9857 H 949.711 -2.18652 -3.02069 0
M  V30 9858 N 951.896 0.746133 -1.38819 0
M  V30 9859 C 953.126 1.53316 -1.38484 0
M  V30 9860 C 953.534 1.89183 0.0253332 0
M  V30 9861 O 952.877 1.5382 1.00424 0
M  V30 9862 C 952.939 2.85623 -2.18311 0
M  V30 9863 C 952.603 2.72253 -3.67052 0
M  V30 9864 C 953.6 2.41547 -4.60381 0
M  V30 9865 C 951.285 2.89472 -4.10501 0
M  V30 9866 C 953.279 2.28226 -5.9514 0
M  V30 9867 C 950.966 2.7577 -5.45338 0
M  V30 9868 C 951.964 2.45191 -6.37472 0
M  V30 9869 O 951.652 2.31561 -7.69828 0
M  V30 9870 H 951.384 0.480763 -0.475229 0
M  V30 9871 H 953.938 0.93057 -1.83111 0
M  V30 9872 H 952.168 3.481 -1.68414 0
M  V30 9873 H 953.857 3.47178 -2.10291 0
M  V30 9874 H 954.623 2.27905 -4.28117 0
M  V30 9875 H 950.502 3.12269 -3.3913 0
M  V30 9876 H 954.046 2.04279 -6.6702 0
M  V30 9877 H 949.943 2.88987 -5.77197 0
M  V30 9878 H 950.711 2.46716 -7.80432 0
M  V30 9879 N 953.375 1.23811 0.975125 0
M  V30 9880 C 954.603 1.10019 1.75224 0
M  V30 9881 C 955.018 -0.34791 1.85567 0
M  V30 9882 O 954.375 -1.24043 1.33864 0
M  V30 9883 C 954.426 1.72572 3.1765 0
M  V30 9884 O 954.147 3.11719 3.07836 0
M  V30 9885 C 955.648 1.64292 4.11732 0
M  V30 9886 H 952.868 0.38476 0.549728 0
M  V30 9887 H 955.412 1.63768 1.22476 0
M  V30 9888 H 953.567 1.22843 3.67408 0
M  V30 9889 H 953.981 3.42152 3.97533 0
M  V30 9890 H 955.455 2.12754 5.09352 0
M  V30 9891 H 955.932 0.602722 4.35045 0
M  V30 9892 H 956.538 2.13411 3.6788 0
M  V30 9893 N 954.853 -1.17469 1.05066 0
M  V30 9894 C 956.099 -1.87976 0.761113 0
M  V30 9895 C 956.432 -1.80756 -0.709995 0
M  V30 9896 O 955.707 -1.21469 -1.51906 0
M  V30 9897 C 955.99 -3.38055 1.2406 0
M  V30 9898 C 955.843 -3.54032 2.77455 0
M  V30 9899 C 957.162 -4.32036 0.838612 0
M  V30 9900 H 954.281 -0.682573 0.277963 0
M  V30 9901 H 956.923 -1.38147 1.30443 0
M  V30 9902 H 955.073 -3.80622 0.778388 0
M  V30 9903 H 956.745 -3.20489 3.3179 0
M  V30 9904 H 954.988 -2.96352 3.16793 0
M  V30 9905 H 955.659 -4.59377 3.06066 0
M  V30 9906 H 958.135 -3.97303 1.23651 0
M  V30 9907 H 957.011 -5.35583 1.20173 0
M  V30 9908 H 957.272 -4.41349 -0.257498 0
M  V30 9909 N 956.331 -0.831506 -1.3388 0
M  V30 9910 C 957.263 -0.216908 -2.28171 0
M  V30 9911 C 958.276 0.598141 -1.51414 0
M  V30 9912 O 959.465 0.426416 -1.73332 0
M  V30 9913 C 956.565 0.713831 -3.31297 0
M  V30 9914 C 955.738 -0.0602673 -4.37358 0
M  V30 9915 C 954.797 0.792696 -5.20195 0
M  V30 9916 O 953.823 0.234564 -5.68716 0
M  V30 9917 N 955.025 2.11119 -5.40748 0
M  V30 9918 H 957.79 -1.02704 -2.81553 0
M  V30 9919 H 955.351 -0.689272 -1.46495 0
M  V30 9920 H 957.343 1.28925 -3.83615 0
M  V30 9921 H 955.913 1.42469 -2.78247 0
M  V30 9922 H 955.133 -0.817041 -3.8564 0
M  V30 9923 H 956.421 -0.592822 -5.05335 0
M  V30 9924 H 955.819 2.58828 -5.03016 0
M  V30 9925 H 954.376 2.63527 -5.96151 0
M  V30 9926 N 957.809 1.4625 -0.587256 0
M  V30 9927 C 958.757 2.32076 0.156108 0
M  V30 9928 C 959.751 1.44756 0.879887 0
M  V30 9929 O 960.957 1.61356 0.797759 0
M  V30 9930 H 957.332 0.748808 0.0692098 0
M  V30 9931 H 959.303 2.9258 -0.586497 0
M  V30 9932 C 958.052 3.28008 1.15352 0
M  V30 9933 H 957.375 3.9518 0.60601 0
M  V30 9934 H 958.815 3.90832 1.64396 0
M  V30 9935 C 957.274 2.53691 2.21681 0
M  V30 9936 O 957.804 2.30329 3.29107 0
M  V30 9937 N 956.01 2.14174 1.96412 0
M  V30 9938 H 955.557 2.33374 1.09061 0
M  V30 9939 H 955.515 1.6477 2.67765 0
M  V30 9940 N 959.287 0.325282 1.54207 0
M  V30 9941 C 960.535 -0.276229 2.00203 0
M  V30 9942 C 960.856 -1.52519 1.21503 0
M  V30 9943 O 960.126 -1.93313 0.317302 0
M  V30 9944 H 958.706 -0.105059 0.739575 0
M  V30 9945 H 961.368 0.442225 1.89817 0
M  V30 9946 H 960.464 -0.531427 3.07542 0
M  V30 9947 N 960.765 -1.57509 0.0534917 0
M  V30 9948 C 961.698 -2.0723 -0.955554 0
M  V30 9949 C 962.676 -0.973313 -1.30251 0
M  V30 9950 O 963.86 -1.24541 -1.41498 0
M  V30 9951 C 960.987 -2.51473 -2.2689 0
M  V30 9952 C 960.033 -3.7263 -2.07482 0
M  V30 9953 S 960.866 -5.18177 -1.35104 0
M  V30 9954 C 962.022 -5.65736 -2.67757 0
M  V30 9955 H 962.255 -2.92494 -0.532407 0
M  V30 9956 H 959.788 -1.53581 -0.158831 0
M  V30 9957 H 961.746 -2.77626 -3.02381 0
M  V30 9958 H 960.407 -1.66511 -2.66332 0
M  V30 9959 H 959.6 -4.01515 -3.04633 0
M  V30 9960 H 959.202 -3.46756 -1.4013 0
M  V30 9961 H 961.494 -5.71463 -3.63918 0
M  V30 9962 H 962.437 -6.64914 -2.43506 0
M  V30 9963 H 962.845 -4.93475 -2.74123 0
M  V30 9964 N 962.243 0.219913 -1.56058 0
M  V30 9965 C 963.489 0.945463 -1.79412 0
M  V30 9966 C 963.822 1.83922 -0.62341 0
M  V30 9967 O 963.097 1.90806 0.377256 0
M  V30 9968 C 963.38 1.783 -3.1286 0
M  V30 9969 C 963.233 0.915626 -4.40382 0
M  V30 9970 C 964.552 2.76045 -3.42764 0
M  V30 9971 H 961.671 0.342288 -0.652693 0
M  V30 9972 H 964.313 0.214235 -1.88788 0
M  V30 9973 H 962.463 2.40642 -3.04998 0
M  V30 9974 H 964.135 0.30882 -4.60265 0
M  V30 9975 H 962.378 0.221124 -4.33236 0
M  V30 9976 H 963.049 1.53607 -5.30197 0
M  V30 9977 H 965.525 2.23838 -3.50764 0
M  V30 9978 H 964.401 3.31748 -4.37304 0
M  V30 9979 H 964.662 3.53866 -2.65012 0
M  V30 9980 N 963.721 1.49897 0.486681 0
M  V30 9981 C 964.949 1.63837 1.26353 0
M  V30 9982 C 965.364 0.315428 1.86146 0
M  V30 9983 O 964.721 -0.700831 1.68507 0
M  V30 9984 C 964.772 2.71792 2.38351 0
M  V30 9985 O 964.493 3.98956 1.81013 0
M  V30 9986 C 965.994 2.96566 3.2949 0
M  V30 9987 H 963.214 0.551158 0.382709 0
M  V30 9988 H 965.758 1.96023 0.582694 0
M  V30 9989 H 963.913 2.42344 3.02238 0
M  V30 9990 H 964.327 4.58536 2.54647 0
M  V30 9991 H 965.801 3.75803 4.04322 0
M  V30 9992 H 966.278 2.07031 3.87343 0
M  V30 9993 H 966.884 3.27485 2.71355 0
M  V30 9994 N 965.199 -0.738761 1.39212 0
M  V30 9995 C 966.445 -1.50046 1.36433 0
M  V30 9996 C 966.778 -1.94157 -0.0409474 0
M  V30 9997 O 966.053 -1.66515 -1.00514 0
M  V30 9998 C 966.336 -2.74277 2.33333 0
M  V30 9999 C 966.189 -2.36209 3.82786 0
M  V30 10000 C 967.508 -3.76361 2.28123 0
M  V30 10001 H 964.627 -0.544294 0.496903 0
M  V30 10002 H 967.269 -0.845005 1.70175 0
M  V30 10003 H 965.419 -3.30204 2.04689 0
M  V30 10004 H 967.091 -1.85942 4.22165 0
M  V30 10005 H 965.334 -1.68483 3.99745 0
M  V30 10006 H 966.005 -3.25156 4.46069 0
M  V30 10007 H 968.481 -3.30009 2.53443 0
M  V30 10008 H 967.357 -4.60957 2.9801 0
M  V30 10009 H 967.618 -4.23013 1.28499 0
M  V30 10010 N 966.677 -1.24326 -0.968545 0
M  V30 10011 C 967.64 -1.03591 -2.04454 0
M  V30 10012 C 968.64 0.0064809 -1.60799 0
M  V30 10013 O 969.83 -0.234404 -1.72616 0
M  V30 10014 C 966.962 -0.56992 -3.36102 0
M  V30 10015 H 968.155 -1.99092 -2.24282 0
M  V30 10016 H 965.708 -1.06537 -1.14366 0
M  V30 10017 H 966.443 0.388325 -3.21967 0
M  V30 10018 H 966.228 -1.32227 -3.69132 0
M  V30 10019 H 967.718 -0.445854 -4.15213 0
M  V30 10020 N 968.156 1.1691 -1.05688 0
M  V30 10021 C 969.402 1.8757 -0.771071 0
M  V30 10022 C 969.735 1.8113 0.700399 0
M  V30 10023 O 969.01 1.22273 1.5126 0
M  V30 10024 C 969.293 3.37392 -1.25851 0
M  V30 10025 C 969.146 3.52556 -2.79329 0
M  V30 10026 C 970.465 4.31585 -0.861512 0
M  V30 10027 H 967.584 0.681089 -0.281579 0
M  V30 10028 H 970.226 1.37453 -1.31174 0
M  V30 10029 H 968.376 3.80204 -0.798563 0
M  V30 10030 H 970.048 3.18725 -3.33485 0
M  V30 10031 H 968.291 2.94668 -3.1836 0
M  V30 10032 H 968.962 4.57748 -3.08498 0
M  V30 10033 H 971.438 3.96642 -1.25756 0
M  V30 10034 H 970.314 5.34939 -1.23012 0
M  V30 10035 H 970.575 4.4148 0.234089 0
M  V30 10036 N 969.634 0.838594 1.33437 0
M  V30 10037 C 970.911 0.356112 1.92331 0
M  V30 10038 C 971.291 -1.1585 1.76471 0
M  V30 10039 O 970.639 -1.97281 1.15293 0
M  V30 10040 C 970.849 0.802715 3.39643 0
M  V30 10041 C 972.197 0.810575 4.16791 0
M  V30 10042 O 973.221 0.746304 3.48294 0
M  V30 10043 O 972.08 0.898082 5.3907 0
M  V30 10044 H 969.174 0.100711 0.820845 0
M  V30 10045 H 971.72 0.924428 1.42311 0
M  V30 10046 H 970.492 1.84529 3.45057 0
M  V30 10047 H 970.115 0.210956 3.9704 0
M  V30 10048 N 971.112 -1.45937 0.595003 0
M  V30 10049 C 972.36 -2.01921 0.0851368 0
M  V30 10050 C 972.681 -1.46748 -1.28413 0
M  V30 10051 O 971.951 -0.656873 -1.84559 0
M  V30 10052 H 970.531 -0.746457 0.0284826 0
M  V30 10053 H 973.193 -1.78891 0.773561 0
M  V30 10054 H 972.289 -3.1209 0.0254002 0
M  V30 10055 N 972.59 -0.333456 -1.54032 0
M  V30 10056 C 973.54 0.543745 -2.21421 0
M  V30 10057 C 974.524 1.07396 -1.19812 0
M  V30 10058 O 975.716 1.00934 -1.45401 0
M  V30 10059 C 972.845 1.69925 -2.98296 0
M  V30 10060 C 971.931 1.18345 -4.07253 0
M  V30 10061 N 972.322 0.388098 -5.04309 0
M  V30 10062 C 970.62 1.46128 -4.21382 0
M  V30 10063 C 971.321 0.109383 -5.81597 0
M  V30 10064 N 970.297 0.69825 -5.39097 0
M  V30 10065 H 974.099 -0.0711018 -2.93814 0
M  V30 10066 H 971.613 -0.139807 -1.61797 0
M  V30 10067 H 973.61 2.33954 -3.45067 0
M  V30 10068 H 972.27 2.31747 -2.27428 0
M  V30 10069 H 973.281 0.0300645 -5.17891 0
M  V30 10070 H 969.958 2.08463 -3.61731 0
M  V30 10071 H 971.348 -0.531554 -6.69794 0
M  V30 10072 N 974.068 1.57479 -0.061844 0
M  V30 10073 C 975.298 1.97142 0.61794 0
M  V30 10074 C 975.706 0.938533 1.64281 0
M  V30 10075 O 975.049 -0.084385 1.83506 0
M  V30 10076 C 975.111 3.33083 1.35263 0
M  V30 10077 C 974.775 4.54447 0.482372 0
M  V30 10078 C 975.772 5.1927 -0.255954 0
M  V30 10079 C 973.457 5.00623 0.410167 0
M  V30 10080 C 975.451 6.28612 -1.05481 0
M  V30 10081 C 973.138 6.09839 -0.392369 0
M  V30 10082 C 974.136 6.73696 -1.12354 0
M  V30 10083 O 973.824 7.80811 -1.91285 0
M  V30 10084 H 973.556 0.653497 0.172969 0
M  V30 10085 H 976.11 2.05002 -0.127781 0
M  V30 10086 H 974.34 3.21808 2.14421 0
M  V30 10087 H 976.029 3.5742 1.92368 0
M  V30 10088 H 976.795 4.84546 -0.209703 0
M  V30 10089 H 972.674 4.50704 0.968883 0
M  V30 10090 H 976.218 6.78385 -1.62602 0
M  V30 10091 H 972.115 6.43997 -0.44022 0
M  V30 10092 H 972.883 7.9764 -1.83611 0
M  V30 10093 N 975.546 -0.211634 1.56173 0
M  V30 10094 C 976.794 -0.932704 1.7929 0
M  V30 10095 C 977.115 -1.84472 0.632076 0
M  V30 10096 O 976.385 -1.92739 -0.350519 0
M  V30 10097 H 974.965 -0.347393 0.661307 0
M  V30 10098 H 977.627 -0.22111 1.93642 0
M  V30 10099 H 976.723 -1.53365 2.71819 0
M  V30 10100 N 977.024 -1.50153 -0.478725 0
M  V30 10101 C 977.987 -1.67916 -1.56003 0
M  V30 10102 C 978.987 -0.550111 -1.51097 0
M  V30 10103 O 980.177 -0.817001 -1.53853 0
M  V30 10104 C 977.309 -1.6973 -2.95643 0
M  V30 10105 H 978.502 -2.6438 -1.41573 0
M  V30 10106 H 976.055 -1.39519 -0.704565 0
M  V30 10107 H 976.79 -0.749306 -3.15525 0
M  V30 10108 H 976.575 -2.51745 -3.00611 0
M  V30 10109 H 978.065 -1.85453 -3.74162 0
M  V30 10110 N 978.502 0.731368 -1.39602 0
M  V30 10111 C 979.748 1.49321 -1.37227 0
M  V30 10112 C 980.081 1.94176 0.0306502 0
M  V30 10113 O 979.356 1.67046 0.996294 0
M  V30 10114 C 979.639 2.73035 -2.34784 0
M  V30 10115 C 979.492 2.34176 -3.84033 0
M  V30 10116 C 980.811 3.75146 -2.30116 0
M  V30 10117 H 977.93 0.541652 -0.499783 0
M  V30 10118 H 980.572 0.835968 -1.70621 0
M  V30 10119 H 978.722 3.29114 -2.06437 0
M  V30 10120 H 980.394 1.83701 -4.23145 0
M  V30 10121 H 978.637 1.66361 -4.00633 0
M  V30 10122 H 979.308 3.22786 -4.47787 0
M  V30 10123 H 981.784 3.28661 -2.55189 0
M  V30 10124 H 980.66 4.5937 -3.00451 0
M  V30 10125 H 980.921 4.22326 -1.30741 0
M  V30 10126 N 979.98 1.24838 0.961938 0
M  V30 10127 C 980.91 1.07053 2.07514 0
M  V30 10128 C 981.891 -0.0182465 1.7009 0
M  V30 10129 O 983.076 0.149915 1.9362 0
M  V30 10130 C 980.206 0.680693 3.40564 0
M  V30 10131 C 979.16 1.71889 3.91967 0
M  V30 10132 C 978.486 1.18395 5.21428 0
M  V30 10133 C 979.786 3.1161 4.19161 0
M  V30 10134 H 981.48 2.00167 2.22651 0
M  V30 10135 H 979.026 0.963799 1.0699 0
M  V30 10136 H 980.979 0.54324 4.17884 0
M  V30 10137 H 979.703 -0.28615 3.25344 0
M  V30 10138 H 978.362 1.84465 3.16809 0
M  V30 10139 H 978.01 0.207543 5.02572 0
M  V30 10140 H 977.71 1.87778 5.56788 0
M  V30 10141 H 979.234 1.05873 6.01351 0
M  V30 10142 H 980.648 3.0223 4.87165 0
M  V30 10143 H 979.045 3.78398 4.65763 0
M  V30 10144 H 980.115 3.59218 3.25715 0
M  V30 10145 N 981.458 -1.16348 1.06306 0
M  V30 10146 C 982.421 -2.18941 0.678053 0
M  V30 10147 C 983.421 -1.58409 -0.276277 0
M  V30 10148 O 984.611 -1.74101 -0.0586435 0
M  V30 10149 C 981.743 -3.409 -0.00228684 0
M  V30 10150 H 982.936 -2.54516 1.58624 0
M  V30 10151 H 980.489 -1.30625 0.858298 0
M  V30 10152 H 981.224 -3.10881 -0.923212 0
M  V30 10153 H 981.009 -3.86089 0.683949 0
M  V30 10154 H 982.499 -4.16806 -0.257374 0
M  V30 10155 N 982.937 -0.845659 -1.3299 0
M  V30 10156 C 983.869 -0.241097 -2.27928 0
M  V30 10157 C 984.882 0.582048 -1.5204 0
M  V30 10158 O 986.071 0.408008 -1.73774 0
M  V30 10159 C 983.171 0.678652 -3.32035 0
M  V30 10160 C 982.344 -0.106652 -4.3727 0
M  V30 10161 C 981.403 0.737478 -5.21006 0
M  V30 10162 O 980.429 0.174231 -5.68933 0
M  V30 10163 N 981.631 2.05372 -5.42957 0
M  V30 10164 H 984.396 -1.05685 -2.80448 0
M  V30 10165 H 981.957 -0.704771 -1.45755 0
M  V30 10166 H 983.949 1.24849 -3.84961 0
M  V30 10167 H 982.519 1.3951 -2.79742 0
M  V30 10168 H 981.739 -0.857897 -3.84752 0
M  V30 10169 H 983.027 -0.646386 -5.04677 0
M  V30 10170 H 982.425 2.53478 -5.05733 0
M  V30 10171 H 980.982 2.5719 -5.98913 0
M  V30 10172 O 984.454 1.43385 -0.743168 0
M  V30 10173 H 985.145 1.91402 -0.297468 0
M  V30 END ATOM
M  V30 BEGIN BOND
M  V30 END BOND
M  V30 END CTAB
M  END
$$$$
