drugbank_target|P42443 Protein RecA (DB02930)
 OpenBabel12092119503D

  0  0  0     0  0            999 V3000
M  V30 BEGIN CTAB
M  V30 COUNTS 5429 5459 0 0 0
M  V30 BEGIN ATOM
M  V30 1 H -0.908 1.98254 -0.117106 0
M  V30 2 N 0 1.576 0 0
M  V30 3 C 0.933 2.03868 1.02534 0
M  V30 4 C 1.911 0.928543 1.3348 0
M  V30 5 O 3.095 1.19667 1.45644 0
M  V30 6 C 0.222 2.43627 2.35294 0
M  V30 7 C -0.732 3.65373 2.2001 0
M  V30 8 S 0.101 5.13292 1.52614 0
M  V30 9 C 1.257 5.56322 2.86805 0
M  V30 10 H 1.49 2.90518 0.631377 0
M  V30 11 H -0.977 1.52953 0.210867 0
M  V30 12 H 0.981 2.67203 3.11629 0
M  V30 13 H -0.358 1.57376 2.7183 0
M  V30 14 H -1.165 3.90944 3.18086 0
M  V30 15 H -1.563 3.418 1.51819 0
M  V30 16 H 0.729 5.58782 3.83104 0
M  V30 17 H 1.672 6.56266 2.65933 0
M  V30 18 H 2.08 4.83886 2.90714 0
M  V30 19 N 1.4781 -0.272755 1.55222 0
M  V30 20 C 2.7031 -1.02683 1.80197 0
M  V30 21 C 3.1281 -1.79142 0.573551 0
M  V30 22 O 2.4861 -1.74917 -0.476849 0
M  V30 23 C 2.5341 -1.9609 3.02624 0
M  V30 24 O 1.6381 -3.04863 2.77727 0
M  V30 25 H 0.9791 -0.293557 0.595584 0
M  V30 26 H 3.5091 -0.30159 2.02365 0
M  V30 27 H 3.5191 -2.38039 3.31363 0
M  V30 28 H 2.1941 -1.39851 3.91682 0
M  V30 29 H 0.7711 -2.67228 2.60084 0
M  V30 30 N 2.9562 -1.48159 -0.537278 0
M  V30 31 C 3.9032 -1.62138 -1.64256 0
M  V30 32 C 4.8732 -0.463668 -1.59497 0
M  V30 33 O 6.0582 -0.686241 -1.78032 0
M  V30 34 C 3.1982 -1.66028 -3.02537 0
M  V30 35 C 2.3112 -2.92855 -3.17585 0
M  V30 36 C 1.4462 -2.87952 -4.46382 0
M  V30 37 C 0.4852 -4.09516 -4.54932 0
M  V30 38 N -0.3778 -4.02733 -5.75109 0
M  V30 39 H 4.4622 -2.56529 -1.51647 0
M  V30 40 H 1.9992 -1.27224 -0.738414 0
M  V30 41 H 3.9572 -1.66265 -3.82638 0
M  V30 42 H 2.5872 -0.751331 -3.13934 0
M  V30 43 H 1.6392 -3.02395 -2.30784 0
M  V30 44 H 2.9512 -3.82822 -3.19764 0
M  V30 45 H 2.1052 -2.8655 -5.34765 0
M  V30 46 H 0.8442 -1.95702 -4.46712 0
M  V30 47 H -0.1508 -4.11201 -3.64957 0
M  V30 48 H 1.0742 -5.02917 -4.56346 0
M  V30 49 H -0.9798 -3.13299 -5.76351 0
M  V30 50 H -1.0628 -4.86397 -5.78752 0
M  V30 51 H 0.2052 -4.05379 -6.65799 0
M  V30 52 N 4.4343 0.785586 -1.36625 0
M  V30 53 C 5.7113 1.53198 -1.21613 0
M  V30 54 C 6.0913 2.10187 0.196113 0
M  V30 55 O 5.4393 1.94318 1.20219 0
M  V30 56 C 5.6493 2.62388 -2.30116 0
M  V30 57 C 6.9973 3.30167 -2.66974 0
M  V30 58 O 8.0213 2.72674 -2.29188 0
M  V30 59 O 6.8803 4.34077 -3.32023 0
M  V30 60 H 3.9743 0.677865 -0.473738 0
M  V30 61 H 6.5203 0.823739 -1.48367 0
M  V30 62 H 5.2923 2.18299 -3.24748 0
M  V30 63 H 4.9153 3.40827 -2.0475 0
M  V30 64 N 5.9124 1.20967 1.01018 0
M  V30 65 C 6.8754 0.965918 2.07853 0
M  V30 66 C 7.8754 -0.0610545 1.60684 0
M  V30 67 O 9.0654 0.175681 1.73312 0
M  V30 68 C 6.1974 0.455513 3.37843 0
M  V30 69 H 7.3904 1.91365 2.3091 0
M  V30 70 H 4.9434 1.02594 1.17916 0
M  V30 71 H 5.6784 -0.497381 3.20463 0
M  V30 72 H 5.4634 1.19622 3.73407 0
M  V30 73 H 6.9534 0.304667 4.16487 0
M  V30 74 N 7.3905 -1.2043 1.01659 0
M  V30 75 C 8.6185 -1.93777 0.725132 0
M  V30 76 C 9.0335 -1.74772 -0.714166 0
M  V30 77 O 8.3905 -1.06169 -1.4844 0
M  V30 78 C 8.4415 -3.45876 1.05129 0
M  V30 79 O 8.1625 -3.6426 2.43406 0
M  V30 80 C 9.6635 -4.36368 0.780891 0
M  V30 81 H 6.8835 -0.615901 0.266284 0
M  V30 82 H 9.4275 -1.52922 1.35776 0
M  V30 83 H 7.5825 -3.8461 0.464065 0
M  V30 84 H 7.9965 -4.58246 2.55169 0
M  V30 85 H 9.4705 -5.41743 1.05918 0
M  V30 86 H 9.9475 -4.38275 -0.284937 0
M  V30 87 H 10.5535 -4.03296 1.35027 0
M  V30 88 N 8.8686 -0.792821 -1.36206 0
M  V30 89 C 9.8156 -0.191653 -2.30003 0
M  V30 90 C 10.7856 0.666453 -1.52143 0
M  V30 91 O 11.9706 0.61442 -1.80636 0
M  V30 92 C 9.1106 0.664848 -3.38635 0
M  V30 93 C 8.2236 -0.212175 -4.31479 0
M  V30 94 C 7.3586 0.651022 -5.27196 0
M  V30 95 C 6.3976 -0.227247 -6.11678 0
M  V30 96 N 5.5346 0.595127 -6.99573 0
M  V30 97 H 10.3746 -0.996978 -2.80828 0
M  V30 98 H 7.9116 -0.503206 -1.38225 0
M  V30 99 H 9.8696 1.17645 -4.00269 0
M  V30 100 H 8.4996 1.43557 -2.89122 0
M  V30 101 H 7.5516 -0.841777 -3.70969 0
M  V30 102 H 8.8636 -0.888751 -4.90818 0
M  V30 103 H 8.0176 1.2283 -5.94136 0
M  V30 104 H 6.7566 1.36121 -4.68319 0
M  V30 105 H 5.7616 -0.816904 -5.43697 0
M  V30 106 H 6.9866 -0.93509 -6.72631 0
M  V30 107 H 4.9326 1.28955 -6.432 0
M  V30 108 H 4.8496 -0.0236952 -7.55996 0
M  V30 109 H 6.1176 1.15613 -7.70879 0
M  V30 110 N 10.3467 1.47872 -0.545128 0
M  V30 111 C 11.2567 2.33633 0.212746 0
M  V30 112 C 12.2727 1.4744 0.923983 0
M  V30 113 O 13.4487 1.80393 0.895572 0
M  V30 114 C 10.5137 3.23884 1.23693 0
M  V30 115 C 9.5747 4.25961 0.534417 0
M  V30 116 C 8.8077 5.11899 1.5098 0
M  V30 117 O 9.0307 5.00077 2.7437 0
M  V30 118 O 7.9647 5.92831 1.0409 0
M  V30 119 H 11.7907 2.99714 -0.490416 0
M  V30 120 H 9.3757 1.46235 -0.305871 0
M  V30 121 H 11.2577 3.79666 1.82843 0
M  V30 122 H 9.9327 2.60446 1.92222 0
M  V30 123 H 8.8397 3.73972 -0.0979679 0
M  V30 124 H 10.1727 4.92079 -0.109213 0
M  V30 125 N 11.8248 0.280983 1.55075 0
M  V30 126 C 13.0738 -0.334784 1.98902 0
M  V30 127 C 13.3868 -1.56534 1.17288 0
M  V30 128 O 14.5928 -2.25443 1.51287 0
M  V30 129 C 13.0488 -0.646994 3.54037 0
M  V30 130 C 12.6568 0.564085 4.44435 0
M  V30 131 C 14.4008 -1.22506 4.06439 0
M  V30 132 C 12.3078 0.226137 5.90967 0
M  V30 133 H 11.2378 -0.128866 0.742906 0
M  V30 134 H 13.8888 0.386556 1.79382 0
M  V30 135 H 12.2708 -1.42739 3.6938 0
M  V30 136 H 13.4448 1.34082 4.40861 0
M  V30 137 H 11.7598 1.0594 4.02698 0
M  V30 138 H 14.3568 -1.49182 5.13468 0
M  V30 139 H 14.6998 -2.16085 3.55827 0
M  V30 140 H 15.2328 -0.50682 3.94558 0
M  V30 141 H 11.9718 1.12996 6.45687 0
M  V30 142 H 11.4918 -0.513717 5.97596 0
M  V30 143 H 13.1708 -0.179539 6.46751 0
M  V30 144 N 13.3029 -1.57598 0.00835791 0
M  V30 145 C 14.5279 -1.95617 -0.689103 0
M  V30 146 C 14.9529 -0.883753 -1.66046 0
M  V30 147 O 14.3109 0.157352 -1.80616 0
M  V30 148 C 14.3589 -3.32736 -1.38994 0
M  V30 149 O 13.4629 -3.27631 -2.50463 0
M  V30 150 H 12.8039 -0.638379 -0.182668 0
M  V30 151 H 15.3339 -2.045 0.064036 0
M  V30 152 H 15.3439 -3.68494 -1.75147 0
M  V30 153 H 14.0189 -4.1034 -0.677778 0
M  V30 154 H 12.5959 -3.03561 -2.16576 0
M  V30 155 N 14.781 0.264519 -1.55364 0
M  V30 156 C 15.744 1.31046 -1.88042 0
M  V30 157 C 16.744 1.41943 -0.755569 0
M  V30 158 O 17.934 1.40947 -1.02369 0
M  V30 159 C 15.066 2.69067 -2.09323 0
M  V30 160 H 16.259 1.03297 -2.81549 0
M  V30 161 H 13.812 0.502989 -1.47986 0
M  V30 162 H 14.547 3.01982 -1.18226 0
M  V30 163 H 14.332 2.62542 -2.91229 0
M  V30 164 H 15.822 3.44623 -2.35848 0
M  V30 165 N 16.2591 1.48442 0.529413 0
M  V30 166 C 17.6701 1.5002 1.11134 0
M  V30 167 C 18.0211 0.27031 1.94329 0
M  V30 168 O 17.1461 -0.622507 2.07253 0
M  V30 169 C 17.7411 2.71834 2.02217 0
M  V30 170 C 16.3001 2.76283 2.55627 0
M  V30 171 C 15.4471 2.43542 1.326 0
M  V30 172 H 18.3981 1.5555 0.314641 0
M  V30 173 H 18.4191 2.50384 2.8651 0
M  V30 174 H 17.9311 3.61331 1.41639 0
M  V30 175 H 16.0321 1.90995 3.19924 0
M  V30 176 H 16.1451 3.77725 2.94721 0
M  V30 177 H 14.5091 1.94709 1.64196 0
M  V30 178 H 15.2921 3.3528 0.737734 0
M  V30 179 N 17.7372 -0.778329 1.37039 0
M  V30 180 C 18.9652 -1.56734 1.35063 0
M  V30 181 C 19.3802 -1.88686 -0.0655597 0
M  V30 182 O 18.7372 -1.5096 -1.02554 0
M  V30 183 C 18.7882 -2.88163 2.18276 0
M  V30 184 O 18.5092 -2.57583 3.54376 0
M  V30 185 C 20.0102 -3.82422 2.24206 0
M  V30 186 H 17.2302 -0.485778 0.462883 0
M  V30 187 H 19.7742 -0.965185 1.8029 0
M  V30 188 H 17.9292 -3.44818 1.76576 0
M  V30 189 H 18.3432 -3.41699 3.97922 0
M  V30 190 H 19.8172 -4.71667 2.86765 0
M  V30 191 H 20.2942 -4.21078 1.24861 0
M  V30 192 H 20.9002 -3.31697 2.6619 0
M  V30 193 N 19.2153 -1.21501 -1.00376 0
M  V30 194 C 20.4923 -0.941745 -1.71437 0
M  V30 195 C 20.8723 0.546114 -2.03914 0
M  V30 196 O 20.2203 1.51128 -1.71384 0
M  V30 197 C 20.4303 -1.82812 -2.97289 0
M  V30 198 C 21.7783 -2.07771 -3.70292 0
M  V30 199 O 22.8023 -1.80171 -3.07273 0
M  V30 200 O 21.6613 -2.54456 -4.83647 0
M  V30 201 H 18.7553 -0.353243 -0.747762 0
M  V30 202 H 21.3013 -1.32436 -1.06108 0
M  V30 203 H 20.0733 -2.83501 -2.69709 0
M  V30 204 H 19.6963 -1.4464 -3.70358 0
M  V30 205 N 20.6934 1.19889 -1.02296 0
M  V30 206 C 21.6564 2.21116 -0.603351 0
M  V30 207 C 22.6564 1.5738 0.329884 0
M  V30 208 O 23.8464 1.73802 0.117702 0
M  V30 209 C 20.9784 3.40696 0.117992 0
M  V30 210 H 22.1714 2.59754 -1.49893 0
M  V30 211 H 19.7244 1.33463 -0.813468 0
M  V30 212 H 20.4594 3.07569 1.0282 0
M  V30 213 H 20.2444 3.88188 -0.552511 0
M  V30 214 H 21.7344 4.15692 0.398696 0
M  V30 215 N 22.1715 0.800033 1.35784 0
M  V30 216 C 23.1185 0.203848 2.29898 0
M  V30 217 C 24.0885 -0.658375 1.52495 0
M  V30 218 O 25.2735 -0.604832 1.8096 0
M  V30 219 C 22.4135 -0.64688 3.38983 0
M  V30 220 C 21.5265 0.235054 4.3136 0
M  V30 221 C 20.6615 -0.623054 5.27533 0
M  V30 222 C 19.7005 0.259682 6.11549 0
M  V30 223 N 18.8375 -0.558019 6.99879 0
M  V30 224 H 23.6775 1.01186 2.80295 0
M  V30 225 H 21.2145 0.51053 1.37957 0
M  V30 226 H 23.1725 -1.15521 4.00887 0
M  V30 227 H 21.8025 -1.42021 2.89879 0
M  V30 228 H 20.8545 0.861438 3.70518 0
M  V30 229 H 22.1665 0.914768 4.9034 0
M  V30 230 H 21.3205 -1.19678 5.94779 0
M  V30 231 H 20.0595 -1.33636 4.69034 0
M  V30 232 H 19.0645 0.845726 5.43256 0
M  V30 233 H 20.2895 0.970748 6.72126 0
M  V30 234 H 18.2355 -1.25542 6.43875 0
M  V30 235 H 18.1525 0.0637872 7.55973 0
M  V30 236 H 19.4205 -1.11523 7.71481 0
M  V30 237 N 23.6496 -1.47581 0.552962 0
M  V30 238 C 24.5596 -2.33743 -0.200353 0
M  V30 239 C 25.5756 -1.47928 -0.916151 0
M  V30 240 O 26.7516 -1.80865 -0.885993 0
M  V30 241 C 23.8166 -3.24536 -1.21973 0
M  V30 242 C 22.8776 -4.26238 -0.511819 0
M  V30 243 C 22.1106 -5.12693 -1.48263 0
M  V30 244 O 22.3336 -5.01525 -2.71714 0
M  V30 245 O 21.2676 -5.93375 -1.00945 0
M  V30 246 H 25.0936 -2.9945 0.506304 0
M  V30 247 H 22.6786 -1.46071 0.313622 0
M  V30 248 H 24.5606 -3.80631 -1.80827 0
M  V30 249 H 23.2356 -2.61462 -1.90839 0
M  V30 250 H 22.1426 -3.73914 0.117799 0
M  V30 251 H 23.4756 -4.92014 0.135308 0
M  V30 252 N 25.1277 -0.289203 -1.54924 0
M  V30 253 C 26.5437 0.0645403 -1.59469 0
M  V30 254 C 26.7437 1.53419 -1.30632 0
M  V30 255 O 25.7997 2.2852 -1.074 0
M  V30 256 C 27.1127 -0.32278 -2.98963 0
M  V30 257 C 28.6607 -0.270564 -3.11828 0
M  V30 258 C 29.1357 -0.632532 -4.53611 0
M  V30 259 N 30.6267 -0.584617 -4.59496 0
M  V30 260 C 31.3617 -0.837314 -5.67254 0
M  V30 261 N 30.8577 -1.15536 -6.83098 0
M  V30 262 N 32.6507 -0.765166 -5.56868 0
M  V30 263 H 24.8017 -1.24714 -1.71931 0
M  V30 264 H 27.0647 -0.504809 -0.802416 0
M  V30 265 H 26.7707 -1.34541 -3.24948 0
M  V30 266 H 26.6447 0.32944 -3.75759 0
M  V30 267 H 29.0317 0.742805 -2.85598 0
M  V30 268 H 29.1127 -0.957242 -2.37214 0
M  V30 269 H 28.7567 -1.64365 -4.80569 0
M  V30 270 H 28.6867 0.07609 -5.26545 0
M  V30 271 H 31.1777 -0.349248 -3.76283 0
M  V30 272 H 31.4907 -1.33447 -7.61191 0
M  V30 273 H 29.8357 -1.19328 -6.84679 0
M  V30 274 H 33.0267 -0.516432 -4.65243 0
M  V30 275 H 33.1997 -0.965477 -6.40767 0
M  V30 276 N 26.6058 1.57591 -0.0167156 0
M  V30 277 C 27.8308 1.9598 0.67872 0
M  V30 278 C 28.2558 0.892546 1.65575 0
M  V30 279 O 27.6138 -0.147772 1.80697 0
M  V30 280 C 27.6618 3.33468 1.37227 0
M  V30 281 O 26.7658 3.28954 2.48722 0
M  V30 282 H 26.1068 0.639339 0.17928 0
M  V30 283 H 28.6368 2.04463 -0.0748802 0
M  V30 284 H 28.6468 3.69417 1.7319 0
M  V30 285 H 27.3218 4.10694 0.656007 0
M  V30 286 H 25.8988 3.04705 2.14963 0
M  V30 287 N 28.0839 -0.256276 1.55502 0
M  V30 288 C 29.0309 -1.31714 1.89526 0
M  V30 289 C 30.0009 -1.4828 0.748479 0
M  V30 290 O 31.1859 -1.62416 1.00128 0
M  V30 291 C 28.3259 -2.66933 2.18725 0
M  V30 292 C 27.4389 -2.58452 3.4616 0
M  V30 293 C 26.5739 -3.85961 3.64976 0
M  V30 294 C 25.6129 -3.72059 4.86044 0
M  V30 295 N 24.7499 -4.9144 5.01429 0
M  V30 296 H 29.5899 -1.01998 2.80001 0
M  V30 297 H 27.1269 -0.492413 1.38613 0
M  V30 298 H 29.0849 -3.4563 2.33657 0
M  V30 299 H 27.7149 -2.94816 1.31466 0
M  V30 300 H 26.7669 -1.71374 3.3961 0
M  V30 301 H 28.0789 -2.44085 4.34999 0
M  V30 302 H 27.2329 -4.73101 3.79816 0
M  V30 303 H 25.9719 -4.03215 2.74353 0
M  V30 304 H 24.9769 -2.83302 4.7119 0
M  V30 305 H 26.2019 -3.56309 5.78118 0
M  V30 306 H 24.1479 -5.09072 4.13741 0
M  V30 307 H 24.0649 -4.79668 5.84341 0
M  V30 308 H 25.3329 -5.80104 5.20672 0
M  V30 309 N 29.562 -1.4872 -0.521534 0
M  V30 310 C 30.525 -1.63379 -1.60748 0
M  V30 311 C 31.525 -0.50661 -1.52611 0
M  V30 312 O 32.715 -0.772601 -1.5613 0
M  V30 313 C 29.847 -1.61192 -3.00383 0
M  V30 314 H 31.04 -2.60217 -1.49087 0
M  V30 315 H 28.593 -1.37444 -0.744235 0
M  V30 316 H 29.328 -0.65863 -3.17541 0
M  V30 317 H 29.113 -2.43032 -3.07698 0
M  V30 318 H 30.603 -1.7466 -3.7932 0
M  V30 319 N 31.0401 0.771051 -1.3745 0
M  V30 320 C 32.2891 1.52491 -1.3202 0
M  V30 321 C 32.6021 1.9538 0.0927347 0
M  V30 322 O 33.8081 2.70159 0.269503 0
M  V30 323 C 32.2641 2.75366 -2.31736 0
M  V30 324 C 31.8721 2.39573 -3.78562 0
M  V30 325 C 33.6161 3.53307 -2.35318 0
M  V30 326 C 31.5231 3.58954 -4.70007 0
M  V30 327 H 30.4531 0.572506 -0.490666 0
M  V30 328 H 33.1041 0.844474 -1.62914 0
M  V30 329 H 31.4861 3.45303 -1.93861 0
M  V30 330 H 32.6601 1.77415 -4.25277 0
M  V30 331 H 30.9751 1.74805 -3.77932 0
M  V30 332 H 33.5721 4.42039 -3.00842 0
M  V30 333 H 33.9151 3.93217 -1.36698 0
M  V30 334 H 34.4481 2.90367 -2.71904 0
M  V30 335 H 31.1871 3.24125 -5.69757 0
M  V30 336 H 30.7071 4.20214 -4.27996 0
M  V30 337 H 32.3861 4.25758 -4.87175 0
M  V30 338 N 32.5182 1.22032 0.997298 0
M  V30 339 C 33.4282 1.00271 2.12092 0
M  V30 340 C 34.4442 -0.047621 1.73935 0
M  V30 341 O 35.6202 0.144136 2.00884 0
M  V30 342 C 32.6852 0.578449 3.4184 0
M  V30 343 C 31.7462 1.70189 3.94125 0
M  V30 344 C 30.9792 1.29778 5.17681 0
M  V30 345 O 31.2022 0.174676 5.70132 0
M  V30 346 O 30.1362 2.11261 5.63607 0
M  V30 347 H 33.9622 1.94398 2.3333 0
M  V30 348 H 31.5472 1.00587 1.10465 0
M  V30 349 H 33.4292 0.351998 4.19927 0
M  V30 350 H 32.1042 -0.334019 3.21972 0
M  V30 351 H 31.0112 1.98282 3.1723 0
M  V30 352 H 32.3442 2.59206 4.18417 0
M  V30 353 N 33.9963 -1.19345 1.0293 0
M  V30 354 C 35.2243 -1.92997 0.745644 0
M  V30 355 C 35.6393 -1.75519 -0.695589 0
M  V30 356 O 34.9963 -1.07737 -1.47306 0
M  V30 357 C 35.0473 -3.44741 1.08792 0
M  V30 358 O 34.7683 -3.61658 2.47256 0
M  V30 359 C 36.2693 -4.35515 0.827129 0
M  V30 360 H 33.4893 -0.613042 0.272801 0
M  V30 361 H 36.0333 -1.51473 1.3739 0
M  V30 362 H 34.1883 -3.84097 0.504832 0
M  V30 363 H 34.6023 -4.55514 2.60015 0
M  V30 364 H 36.0763 -5.40589 1.11658 0
M  V30 365 H 36.5533 -4.38552 -0.238436 0
M  V30 366 H 37.1593 -4.01841 1.39297 0
M  V30 367 N 35.4744 -0.807222 -1.35358 0
M  V30 368 C 36.4374 -0.223665 -2.28106 0
M  V30 369 C 37.4374 0.589354 -1.4961 0
M  V30 370 O 38.6274 0.407745 -1.69361 0
M  V30 371 C 35.7594 0.688149 -3.33882 0
M  V30 372 H 36.9524 -1.04169 -2.81227 0
M  V30 373 H 34.5054 -0.577921 -1.45223 0
M  V30 374 H 35.2404 1.52984 -2.85948 0
M  V30 375 H 35.0254 0.10687 -3.91954 0
M  V30 376 H 36.5154 1.09075 -4.03104 0
M  V30 377 N 36.9525 1.47285 -0.560781 0
M  V30 378 C 37.8855 2.27009 0.232821 0
M  V30 379 C 38.8635 1.34273 0.917039 0
M  V30 380 O 40.0475 1.63659 0.935315 0
M  V30 381 C 37.1745 3.11406 1.33206 0
M  V30 382 C 36.2205 4.19746 0.756019 0
M  V30 383 S 37.0535 5.34003 -0.400165 0
M  V30 384 C 38.2095 6.21964 0.700805 0
M  V30 385 H 38.4425 2.93971 -0.443683 0
M  V30 386 H 35.9755 1.50446 -0.347181 0
M  V30 387 H 37.9335 3.60601 1.96156 0
M  V30 388 H 36.5945 2.438 1.98041 0
M  V30 389 H 35.7875 4.78541 1.5816 0
M  V30 390 H 35.3895 3.73451 0.202619 0
M  V30 391 H 37.6815 6.58529 1.59202 0
M  V30 392 H 38.6245 7.07941 0.150126 0
M  V30 393 H 39.0325 5.5566 0.995083 0
M  V30 394 N 38.4306 0.297415 1.54768 0
M  V30 395 C 39.6556 -0.318435 2.04941 0
M  V30 396 C 40.0806 -1.4701 1.17345 0
M  V30 397 O 39.4386 -1.80436 0.176758 0
M  V30 398 C 39.4866 -0.755749 3.52592 0
M  V30 399 O 38.5906 -1.86088 3.68028 0
M  V30 400 H 37.9316 -0.062421 0.661059 0
M  V30 401 H 40.4616 0.438215 1.99852 0
M  V30 402 H 40.4716 -1.04552 3.94376 0
M  V30 403 H 39.1466 0.0867233 4.1581 0
M  V30 404 H 37.7236 -1.57193 3.38149 0
M  V30 405 N 39.9087 -1.5758 0.0250728 0
M  V30 406 C 40.8407 -2.06869 -0.986796 0
M  V30 407 C 41.8537 -0.991332 -1.29137 0
M  V30 408 O 43.0427 -1.26761 -1.25674 0
M  V30 409 C 40.1427 -2.47486 -2.31525 0
M  V30 410 C 39.3157 -3.78253 -2.19643 0
M  V30 411 C 38.3747 -4.05464 -3.35388 0
M  V30 412 O 37.4007 -4.75774 -3.12454 0
M  V30 413 N 38.6027 -3.55321 -4.59051 0
M  V30 414 H 41.3677 -2.94302 -0.566276 0
M  V30 415 H 38.9287 -1.6109 -0.161776 0
M  V30 416 H 40.9207 -2.62785 -3.07776 0
M  V30 417 H 39.4907 -1.65441 -2.65232 0
M  V30 418 H 38.7107 -3.7279 -1.28144 0
M  V30 419 H 39.9987 -4.63936 -2.08903 0
M  V30 420 H 39.3967 -2.98431 -4.80578 0
M  V30 421 H 37.9537 -3.75905 -5.32483 0
M  V30 422 N 41.3868 0.248026 -1.55636 0
M  V30 423 C 42.6358 0.974134 -1.76617 0
M  V30 424 C 42.9488 1.86528 -0.588796 0
M  V30 425 O 44.1548 2.62805 -0.681594 0
M  V30 426 C 42.6108 1.78213 -3.12679 0
M  V30 427 C 42.2188 0.93843 -4.38061 0
M  V30 428 C 43.9628 2.50104 -3.42999 0
M  V30 429 C 41.8698 1.74225 -5.65155 0
M  V30 430 H 40.7998 0.36745 -0.658405 0
M  V30 431 H 43.4508 0.22884 -1.82067 0
M  V30 432 H 41.8328 2.56933 -3.01333 0
M  V30 433 H 43.0068 0.193635 -4.60393 0
M  V30 434 H 41.3218 0.332905 -4.15067 0
M  V30 435 H 43.9188 3.10694 -4.3517 0
M  V30 436 H 44.2618 3.21662 -2.64271 0
M  V30 437 H 44.7948 1.78395 -3.55556 0
M  V30 438 H 41.5338 1.07043 -6.46701 0
M  V30 439 H 41.0538 2.46235 -5.46926 0
M  V30 440 H 42.7328 2.30967 -6.0437 0
M  V30 441 N 42.8649 1.48995 0.513639 0
M  V30 442 C 43.7749 1.67443 1.64317 0
M  V30 443 C 44.7909 0.556947 1.64846 0
M  V30 444 O 45.9669 0.830082 1.83498 0
M  V30 445 C 43.0319 1.72515 3.00732 0
M  V30 446 C 42.0929 2.96009 3.1093 0
M  V30 447 C 41.3259 3.00829 4.40837 0
M  V30 448 O 41.5489 2.13594 5.28898 0
M  V30 449 O 40.4829 3.93168 4.55744 0
M  V30 450 H 44.3089 2.63106 1.51687 0
M  V30 451 H 41.8939 1.32588 0.688543 0
M  V30 452 H 43.7759 1.78277 3.81831 0
M  V30 453 H 42.4509 0.800278 3.13651 0
M  V30 454 H 41.3579 2.9577 2.29065 0
M  V30 455 H 42.6909 3.87934 3.02933 0
M  V30 456 N 44.343 -0.763751 1.37857 0
M  V30 457 C 45.29 -1.87726 1.34267 0
M  V30 458 C 46.26 -1.64807 0.206879 0
M  V30 459 O 47.445 -1.86613 0.397508 0
M  V30 460 C 44.585 -3.24896 1.16346 0
M  V30 461 C 43.698 -3.59716 2.39225 0
M  V30 462 C 42.833 -4.86137 2.14114 0
M  V30 463 C 41.872 -5.13711 3.32817 0
M  V30 464 N 41.009 -6.31323 3.07206 0
M  V30 465 H 45.849 -1.90129 2.29466 0
M  V30 466 H 43.386 -0.929433 1.14017 0
M  V30 467 H 45.344 -4.04036 1.03975 0
M  V30 468 H 43.974 -3.21847 0.247909 0
M  V30 469 H 43.026 -2.75498 2.62307 0
M  V30 470 H 44.338 -3.76027 3.27728 0
M  V30 471 H 43.492 -5.73198 1.9882 0
M  V30 472 H 42.231 -4.71945 1.22961 0
M  V30 473 H 41.236 -4.25123 3.48641 0
M  V30 474 H 42.461 -5.29807 4.24832 0
M  V30 475 H 40.407 -6.18474 2.1869 0
M  V30 476 H 40.324 -6.48087 3.89254 0
M  V30 477 H 41.592 -7.213 2.95546 0
M  V30 478 N 45.8211 -1.22559 -0.990812 0
M  V30 479 C 46.7841 -0.998863 -2.0629 0
M  V30 480 C 47.7841 0.0354834 -1.60761 0
M  V30 481 O 48.9741 -0.203231 -1.7301 0
M  V30 482 C 46.1061 -0.509203 -3.37076 0
M  V30 483 H 47.2991 -1.95014 -2.27837 0
M  V30 484 H 44.8521 -1.04456 -1.16269 0
M  V30 485 H 45.5871 0.446335 -3.21214 0
M  V30 486 H 45.3721 -1.25547 -3.71457 0
M  V30 487 H 46.8621 -0.370888 -4.1595 0
M  V30 488 N 47.2992 1.18797 -1.03562 0
M  V30 489 C 48.5462 1.8865 -0.736023 0
M  V30 490 C 48.8742 1.80041 0.735889 0
M  V30 491 O 48.1292 1.19179 1.55225 0
M  V30 492 C 48.4282 3.38692 -1.14117 0
M  V30 493 C 48.0942 3.67504 -2.6125 0
M  V30 494 C 46.7562 3.75078 -3.01447 0
M  V30 495 C 49.1082 3.80293 -3.56408 0
M  V30 496 C 46.4362 3.92915 -4.35701 0
M  V30 497 C 48.7882 3.99645 -4.90374 0
M  V30 498 C 47.4522 4.05453 -5.30249 0
M  V30 499 H 46.7222 0.690321 -0.26933 0
M  V30 500 H 49.3692 1.40641 -1.29971 0
M  V30 501 H 47.6742 3.88645 -0.496202 0
M  V30 502 H 49.3712 3.91072 -0.886789 0
M  V30 503 H 45.9612 3.62223 -2.29113 0
M  V30 504 H 50.1452 3.73779 -3.26501 0
M  V30 505 H 45.4012 3.95653 -4.66121 0
M  V30 506 H 49.5752 4.08482 -5.64017 0
M  V30 507 H 47.2022 4.19027 -6.34288 0
M  V30 508 N 48.7773 0.814389 1.34928 0
M  V30 509 C 50.0253 0.397636 1.9815 0
M  V30 510 C 50.3463 -1.04069 1.64908 0
M  V30 511 O 49.6163 -1.72121 0.93548 0
M  V30 512 H 48.1963 0.144043 0.732981 0
M  V30 513 H 50.8583 1.04195 1.6471 0
M  V30 514 H 49.9543 0.509688 3.0791 0
M  V30 515 N 50.2554 -1.46986 0.568584 0
M  V30 516 C 51.2024 -2.30153 -0.172707 0
M  V30 517 C 52.1724 -1.39759 -0.897586 0
M  V30 518 O 53.3574 -1.68716 -0.891044 0
M  V30 519 C 50.4974 -3.23952 -1.1895 0
M  V30 520 C 49.6104 -4.29441 -0.469517 0
M  V30 521 C 48.7454 -5.1038 -1.47259 0
M  V30 522 C 47.7844 -6.07632 -0.738225 0
M  V30 523 N 46.9214 -6.8149 -1.68868 0
M  V30 524 H 51.7614 -2.93019 0.542596 0
M  V30 525 H 49.2984 -1.44422 0.279401 0
M  V30 526 H 51.2564 -3.76767 -1.79173 0
M  V30 527 H 49.8864 -2.62926 -1.87269 0
M  V30 528 H 48.9384 -3.79594 0.247467 0
M  V30 529 H 50.2504 -4.98689 0.105241 0
M  V30 530 H 49.4044 -5.67402 -2.14803 0
M  V30 531 H 48.1434 -4.4106 -2.08128 0
M  V30 532 H 47.1484 -5.49778 -0.0489293 0
M  V30 533 H 48.3734 -6.78966 -0.135129 0
M  V30 534 H 46.3194 -6.14891 -2.28573 0
M  V30 535 H 46.2364 -7.46948 -1.16636 0
M  V30 536 H 47.5044 -7.43078 -2.3549 0
M  V30 537 N 51.7335 -0.305618 -1.54608 0
M  V30 538 C 52.9815 0.301701 -1.99835 0
M  V30 539 C 53.3025 1.54054 -1.19551 0
M  V30 540 O 52.5725 1.93702 -0.292658 0
M  V30 541 H 51.1525 0.114468 -0.738178 0
M  V30 542 H 53.8145 -0.418016 -1.90364 0
M  V30 543 H 52.9105 0.570548 -3.06841 0
M  V30 544 N 53.2116 1.57565 -0.0334293 0
M  V30 545 C 54.4366 1.96689 0.657895 0
M  V30 546 C 54.8616 0.910057 1.64619 0
M  V30 547 O 54.2196 -0.128598 1.80843 0
M  V30 548 C 54.2676 3.34905 1.33683 0
M  V30 549 O 53.3716 3.31574 2.45219 0
M  V30 550 H 52.7126 0.641205 0.172489 0
M  V30 551 H 55.2426 2.04372 -0.0965621 0
M  V30 552 H 55.2526 3.71234 1.69262 0
M  V30 553 H 53.9276 4.11366 0.612411 0
M  V30 554 H 52.5046 3.06968 2.11719 0
M  V30 555 N 54.6897 -0.239769 1.55765 0
M  V30 556 C 55.9387 -0.964754 1.77131 0
M  V30 557 C 56.2517 -1.86213 0.59868 0
M  V30 558 O 57.4577 -2.6244 0.695522 0
M  V30 559 C 55.9137 -1.76552 3.1362 0
M  V30 560 C 55.5217 -0.915185 4.38553 0
M  V30 561 C 57.2657 -2.48281 3.44321 0
M  V30 562 C 55.1727 -1.71225 5.66071 0
M  V30 563 H 54.1027 -0.363953 0.660344 0
M  V30 564 H 56.7537 -0.219181 1.82186 0
M  V30 565 H 55.1357 -2.55331 3.02691 0
M  V30 566 H 56.3097 -0.169217 4.60489 0
M  V30 567 H 54.6247 -0.310889 4.15238 0
M  V30 568 H 57.2217 -3.08382 4.36812 0
M  V30 569 H 57.5647 -3.20256 2.65973 0
M  V30 570 H 58.0977 -1.76507 3.56497 0
M  V30 571 H 54.8367 -1.03612 6.4726 0
M  V30 572 H 54.3567 -2.43331 5.48224 0
M  V30 573 H 56.0357 -2.27758 6.05587 0
M  V30 574 N 56.1678 -1.49265 -0.50573 0
M  V30 575 C 57.1008 -1.60183 -1.62532 0
M  V30 576 C 58.0788 -0.451107 -1.56217 0
M  V30 577 O 59.2628 -0.666016 -1.76342 0
M  V30 578 C 56.3898 -1.55238 -3.01029 0
M  V30 579 C 55.4358 -2.7545 -3.25621 0
M  V30 580 S 56.2688 -4.37174 -3.09256 0
M  V30 581 C 57.4248 -4.34866 -4.50158 0
M  V30 582 H 57.6578 -2.54894 -1.53025 0
M  V30 583 H 55.1908 -1.38098 -0.690535 0
M  V30 584 H 57.1488 -1.53071 -3.80893 0
M  V30 585 H 55.8098 -0.618238 -3.07956 0
M  V30 586 H 55.0028 -2.68197 -4.26716 0
M  V30 587 H 54.6048 -2.75005 -2.53472 0
M  V30 588 H 56.8968 -4.06295 -5.42154 0
M  V30 589 H 57.8398 -5.36223 -4.62462 0
M  V30 590 H 58.2478 -3.65007 -4.30616 0
M  V30 591 N 57.6459 0.756429 -1.3826 0
M  V30 592 C 58.5929 1.87011 -1.35261 0
M  V30 593 C 59.5629 1.64695 -0.215616 0
M  V30 594 O 60.7479 1.864 -0.407399 0
M  V30 595 C 57.8879 3.24275 -1.18068 0
M  V30 596 C 57.0009 3.58442 -2.41129 0
M  V30 597 C 56.1359 4.84994 -2.16689 0
M  V30 598 C 55.1749 5.11939 -3.35537 0
M  V30 599 N 54.3119 6.29685 -3.10549 0
M  V30 600 H 59.1519 1.8891 -2.30472 0
M  V30 601 H 56.6889 0.923373 -1.14509 0
M  V30 602 H 58.6469 4.03479 -1.06116 0
M  V30 603 H 57.2769 3.21711 -0.264973 0
M  V30 604 H 56.3289 2.74103 -2.63764 0
M  V30 605 H 57.6409 3.74283 -3.29717 0
M  V30 606 H 56.7949 5.72135 -2.01857 0
M  V30 607 H 55.5339 4.71286 -1.25462 0
M  V30 608 H 54.5389 4.23268 -3.50891 0
M  V30 609 H 55.7639 5.27546 -4.27635 0
M  V30 610 H 53.7099 6.17306 -2.21967 0
M  V30 611 H 53.6269 6.46014 -3.92686 0
M  V30 612 H 54.8949 7.19722 -2.99367 0
M  V30 613 N 59.124 1.23083 0.984299 0
M  V30 614 C 60.054 1.03292 2.09411 0
M  V30 615 C 61.035 -0.048923 1.7003 0
M  V30 616 O 62.22 0.114967 1.93859 0
M  V30 617 C 59.35 0.619155 3.41736 0
M  V30 618 C 58.304 1.64791 3.95004 0
M  V30 619 C 57.63 1.0897 5.23478 0
M  V30 620 C 58.93 3.03999 4.24714 0
M  V30 621 H 60.624 1.96119 2.26225 0
M  V30 622 H 58.17 0.944344 1.08711 0
M  V30 623 H 60.123 0.467777 4.18796 0
M  V30 624 H 58.847 -0.344786 3.24775 0
M  V30 625 H 57.506 1.78721 3.20085 0
M  V30 626 H 57.154 0.11686 5.02864 0
M  V30 627 H 56.854 1.77704 5.60085 0
M  V30 628 H 58.378 0.950093 6.03163 0
M  V30 629 H 59.792 2.93393 4.92538 0
M  V30 630 H 58.189 3.69936 4.72512 0
M  V30 631 H 59.259 3.53285 3.32142 0
M  V30 632 N 60.6021 -1.18246 1.0419 0
M  V30 633 C 61.8501 -1.87886 0.744543 0
M  V30 634 C 62.1711 -1.8082 -0.730006 0
M  V30 635 O 61.4411 -1.22736 -1.52685 0
M  V30 636 H 60.0211 -0.695556 0.272417 0
M  V30 637 H 62.6831 -1.43494 1.31892 0
M  V30 638 H 61.7791 -2.9389 1.05049 0
M  V30 639 N 62.0802 -0.821533 -1.34494 0
M  V30 640 C 63.0432 -0.247847 -2.27856 0
M  V30 641 C 64.0432 0.573453 -1.50227 0
M  V30 642 O 65.2332 0.389759 -1.69784 0
M  V30 643 C 62.3652 0.652698 -3.34593 0
M  V30 644 H 63.5582 -1.07146 -2.80107 0
M  V30 645 H 61.1112 -0.593291 -1.44602 0
M  V30 646 H 61.8462 1.49943 -2.87555 0
M  V30 647 H 61.6312 0.065292 -3.92046 0
M  V30 648 H 63.1212 1.04793 -4.04238 0
M  V30 649 N 63.5583 1.46682 -0.576371 0
M  V30 650 C 64.4683 2.34032 0.163141 0
M  V30 651 C 65.4843 1.49367 0.892501 0
M  V30 652 O 66.6603 1.82252 0.857106 0
M  V30 653 C 63.7253 3.26435 1.16795 0
M  V30 654 C 62.7863 4.26998 0.443944 0
M  V30 655 C 62.0193 5.14986 1.40088 0
M  V30 656 O 62.2423 5.05785 2.637 0
M  V30 657 O 61.1763 5.94906 0.914917 0
M  V30 658 H 65.0023 2.98607 -0.55388 0
M  V30 659 H 62.5873 1.45554 -0.336821 0
M  V30 660 H 64.4693 3.83459 1.74748 0
M  V30 661 H 63.1443 2.64465 1.86655 0
M  V30 662 H 62.0513 3.7368 -0.177271 0
M  V30 663 H 63.3843 4.91736 -0.213566 0
M  V30 664 N 65.0364 0.313813 1.54444 0
M  V30 665 C 66.2614 -0.296681 2.05267 0
M  V30 666 C 66.6864 -1.45757 1.18897 0
M  V30 667 O 66.0444 -1.80239 0.195886 0
M  V30 668 C 66.0924 -0.71831 3.53373 0
M  V30 669 O 65.1964 -1.82175 3.69981 0
M  V30 670 H 64.5374 -0.0554061 0.661684 0
M  V30 671 H 67.0674 0.459387 1.99376 0
M  V30 672 H 67.0774 -1.00364 3.95463 0
M  V30 673 H 65.7524 0.130821 4.15694 0
M  V30 674 H 64.3294 -1.53598 3.39797 0
M  V30 675 N 66.5145 -1.57545 0.0417849 0
M  V30 676 C 67.4615 -2.10977 -0.935805 0
M  V30 677 C 68.4315 -1.01486 -1.31491 0
M  V30 678 O 69.6165 -1.2898 -1.40602 0
M  V30 679 C 66.7565 -2.65169 -2.2086 0
M  V30 680 C 65.8695 -3.88714 -1.88482 0
M  V30 681 C 65.0045 -4.31254 -3.1015 0
M  V30 682 C 64.0435 -5.47524 -2.7365 0
M  V30 683 N 63.1805 -5.85162 -3.87982 0
M  V30 684 H 68.0205 -2.94218 -0.473249 0
M  V30 685 H 65.5575 -1.45415 -0.221981 0
M  V30 686 H 67.5155 -2.94685 -2.95325 0
M  V30 687 H 66.1455 -1.8474 -2.64709 0
M  V30 688 H 65.1975 -3.65849 -1.04205 0
M  V30 689 H 66.5095 -4.73245 -1.57608 0
M  V30 690 H 65.6635 -4.62273 -3.92923 0
M  V30 691 H 64.4025 -3.45516 -3.44195 0
M  V30 692 H 63.4075 -5.16187 -1.89291 0
M  V30 693 H 64.6325 -6.34971 -2.40807 0
M  V30 694 H 62.5785 -5.02377 -4.21846 0
M  V30 695 H 62.4955 -6.64362 -3.60775 0
M  V30 696 H 63.7635 -6.20791 -4.71422 0
M  V30 697 N 67.9926 0.231505 -1.5589 0
M  V30 698 C 68.9226 1.29022 -1.94617 0
M  V30 699 C 69.9036 1.4941 -0.813067 0
M  V30 700 O 71.0886 1.6176 -1.07459 0
M  V30 701 C 68.2186 2.64199 -2.25424 0
M  V30 702 C 67.1726 2.58484 -3.41131 0
M  V30 703 C 66.4986 3.97599 -3.57518 0
M  V30 704 C 67.7986 2.1413 -4.76388 0
M  V30 705 H 69.4926 0.968563 -2.83301 0
M  V30 706 H 67.0386 0.464479 -1.36303 0
M  V30 707 H 68.9916 3.38413 -2.51107 0
M  V30 708 H 67.7156 2.98032 -1.33583 0
M  V30 709 H 66.3746 1.86727 -3.15481 0
M  V30 710 H 66.0226 4.28723 -2.6307 0
M  V30 711 H 65.7226 3.94659 -4.35337 0
M  V30 712 H 67.2466 4.7349 -3.85538 0
M  V30 713 H 68.6606 2.78083 -5.01341 0
M  V30 714 H 67.0576 2.2227 -5.57419 0
M  V30 715 H 68.1276 1.09331 -4.72414 0
M  V30 716 N 69.4707 1.49531 0.497807 0
M  V30 717 C 70.7477 1.49682 1.25915 0
M  V30 718 C 71.1277 0.226339 2.09883 0
M  V30 719 O 70.4757 -0.791189 2.14365 0
M  V30 720 C 70.6857 2.77755 2.11313 0
M  V30 721 C 72.0337 3.27371 2.70395 0
M  V30 722 O 73.0577 2.78894 2.21578 0
M  V30 723 O 71.9167 4.11808 3.59272 0
M  V30 724 H 69.0107 0.599228 0.56996 0
M  V30 725 H 71.5567 1.61798 0.511816 0
M  V30 726 H 70.3287 3.61713 1.49264 0
M  V30 727 H 69.9517 2.68515 2.93233 0
M  V30 728 N 70.9488 -0.749086 1.3866 0
M  V30 729 C 72.1948 -1.51056 1.35314 0
M  V30 730 C 72.5278 -1.94121 -0.0553751 0
M  V30 731 O 71.8028 -1.65763 -1.01749 0
M  V30 732 C 72.0858 -2.76003 2.31288 0
M  V30 733 C 71.9388 -2.39047 3.8102 0
M  V30 734 C 73.2578 -3.78046 2.2532 0
M  V30 735 H 70.3768 -0.547972 0.492844 0
M  V30 736 H 73.0188 -0.857628 1.69543 0
M  V30 737 H 71.1688 -3.31716 2.02229 0
M  V30 738 H 72.8408 -1.89074 4.20771 0
M  V30 739 H 71.0838 -1.71449 3.98482 0
M  V30 740 H 71.7548 -3.28462 4.4364 0
M  V30 741 H 74.2308 -3.31884 2.50983 0
M  V30 742 H 73.1068 -4.63159 2.94576 0
M  V30 743 H 73.3678 -4.23957 1.25352 0
M  V30 744 N 72.4269 -1.23603 -0.977757 0
M  V30 745 C 73.3589 -0.977369 -2.07317 0
M  V30 746 C 74.3719 0.0495845 -1.62724 0
M  V30 747 O 75.5609 -0.186261 -1.77526 0
M  V30 748 C 72.6609 -0.451216 -3.35883 0
M  V30 749 C 71.8339 -1.53896 -4.09432 0
M  V30 750 C 70.8929 -1.01721 -5.16274 0
M  V30 751 O 69.9189 -1.70676 -5.43009 0
M  V30 752 N 71.1209 0.153594 -5.80297 0
M  V30 753 H 73.8859 -1.92047 -2.30082 0
M  V30 754 H 71.4469 -1.14497 -1.14465 0
M  V30 755 H 73.4389 -0.0871574 -4.04606 0
M  V30 756 H 72.0089 0.397368 -3.10064 0
M  V30 757 H 71.2289 -2.07566 -3.35127 0
M  V30 758 H 72.5169 -2.27037 -4.55337 0
M  V30 759 H 71.9149 0.730323 -5.60966 0
M  V30 760 H 70.4719 0.458892 -6.50183 0
M  V30 761 N 73.905 1.17692 -1.04816 0
M  V30 762 C 75.151 1.88137 -0.75711 0
M  V30 763 C 75.484 1.80604 0.713841 0
M  V30 764 O 74.759 1.21146 1.52164 0
M  V30 765 C 75.042 3.38318 -1.2334 0
M  V30 766 C 74.895 3.54622 -2.76701 0
M  V30 767 C 76.214 4.32214 -0.829415 0
M  V30 768 H 73.333 0.683163 -0.27651 0
M  V30 769 H 75.975 1.38424 -1.30149 0
M  V30 770 H 74.125 3.80787 -0.770286 0
M  V30 771 H 75.797 3.21194 -3.31107 0
M  V30 772 H 74.04 2.97026 -3.16161 0
M  V30 773 H 74.711 4.60028 -3.05088 0
M  V30 774 H 77.187 3.97565 -1.22805 0
M  V30 775 H 76.063 5.35838 -1.19033 0
M  V30 776 H 76.324 4.41294 0.266891 0
M  V30 777 N 75.3831 0.828654 1.34056 0
M  V30 778 C 76.6291 0.42008 1.98402 0
M  V30 779 C 76.9621 -1.01564 1.65525 0
M  V30 780 O 76.2371 -1.70834 0.929831 0
M  V30 781 C 76.5201 0.62927 3.54559 0
M  V30 782 C 76.3731 2.11152 3.97159 0
M  V30 783 C 77.6921 0.0688756 4.40046 0
M  V30 784 H 74.8111 0.154104 0.720709 0
M  V30 785 H 77.4531 1.04228 1.5886 0
M  V30 786 H 75.6031 0.0996418 3.88372 0
M  V30 787 H 77.2751 2.70522 3.73651 0
M  V30 788 H 75.5181 2.59985 3.47261 0
M  V30 789 H 76.1891 2.20868 5.05887 0
M  V30 790 H 78.6651 0.521458 4.1282 0
M  V30 791 H 77.5411 0.245006 5.48353 0
M  V30 792 H 77.8021 -1.0266 4.30015 0
M  V30 793 N 76.8612 -1.46375 0.584142 0
M  V30 794 C 78.0862 -2.07268 0.0740405 0
M  V30 795 C 78.5112 -1.42979 -1.22223 0
M  V30 796 O 77.8692 -0.514092 -1.73859 0
M  V30 797 C 77.9172 -3.60518 -0.0767769 0
M  V30 798 O 77.0212 -3.96533 -1.13292 0
M  V30 799 H 76.3622 -0.660961 0.0634524 0
M  V30 800 H 78.8922 -1.87991 0.807492 0
M  V30 801 H 78.9022 -4.07021 -0.282489 0
M  V30 802 H 77.5772 -4.06702 0.86986 0
M  V30 803 H 76.1542 -3.61738 -0.905553 0
M  V30 804 N 78.3393 -0.321999 -1.54275 0
M  V30 805 C 79.5673 0.283052 -2.04955 0
M  V30 806 C 79.9823 1.45904 -1.19823 0
M  V30 807 O 79.3393 1.81063 -0.228545 0
M  V30 808 C 79.3903 0.719028 -3.54277 0
M  V30 809 O 79.1113 -0.410175 -4.36176 0
M  V30 810 C 80.6123 1.38705 -4.21041 0
M  V30 811 H 77.8323 0.0584616 -0.668448 0
M  V30 812 H 80.3763 -0.467734 -1.99079 0
M  V30 813 H 78.5313 1.41979 -3.60445 0
M  V30 814 H 78.9453 -0.0669416 -5.24457 0
M  V30 815 H 80.4193 1.64306 -5.2698 0
M  V30 816 H 80.8963 2.33385 -3.72059 0
M  V30 817 H 81.5023 0.728906 -4.19007 0
M  V30 818 N 79.8174 1.5752 -0.0501392 0
M  V30 819 C 81.0654 1.9227 0.622642 0
M  V30 820 C 81.3864 0.929083 1.71444 0
M  V30 821 O 80.6564 -0.0262186 1.95882 0
M  V30 822 H 79.2364 0.709739 0.232981 0
M  V30 823 H 81.8984 1.94628 -0.102898 0
M  V30 824 H 80.9944 2.93479 1.06191 0
M  V30 825 N 81.2955 -0.223234 1.56011 0
M  V30 826 C 82.5205 -0.968978 1.83373 0
M  V30 827 C 82.9455 -1.77227 0.630254 0
M  V30 828 O 82.3035 -1.76345 -0.420959 0
M  V30 829 C 82.3515 -1.86363 3.08709 0
M  V30 830 O 81.4555 -2.95873 2.87285 0
M  V30 831 H 80.7965 -0.274461 0.604622 0
M  V30 832 H 83.3265 -0.237056 2.03222 0
M  V30 833 H 83.3365 -2.27376 3.38768 0
M  V30 834 H 82.0115 -1.27319 3.95933 0
M  V30 835 H 80.5885 -2.58818 2.68454 0
M  V30 836 N 82.7736 -1.49793 -0.48987 0
M  V30 837 C 83.7036 -1.70201 -1.59856 0
M  V30 838 C 84.6846 -0.55076 -1.60937 0
M  V30 839 O 85.8696 -0.787841 -1.77501 0
M  V30 840 C 82.9996 -1.77882 -2.98287 0
M  V30 841 C 81.9536 -2.92907 -3.12073 0
M  V30 842 C 81.2796 -2.85712 -4.51965 0
M  V30 843 C 82.5796 -4.3369 -2.91051 0
M  V30 844 H 84.2736 -2.63025 -1.43032 0
M  V30 845 H 81.8196 -1.26574 -0.686664 0
M  V30 846 H 83.7726 -1.90744 -3.75759 0
M  V30 847 H 82.4966 -0.816653 -3.16225 0
M  V30 848 H 81.1556 -2.79665 -2.37029 0
M  V30 849 H 80.8036 -1.8738 -4.66795 0
M  V30 850 H 80.5036 -3.62921 -4.62128 0
M  V30 851 H 82.0276 -3.00598 -5.31482 0
M  V30 852 H 83.4416 -4.47555 -3.58284 0
M  V30 853 H 81.8386 -5.12205 -3.12675 0
M  V30 854 H 82.9086 -4.47362 -1.87071 0
M  V30 855 N 84.2517 0.741722 -1.39055 0
M  V30 856 C 85.4767 1.53607 -1.39354 0
M  V30 857 C 85.9017 1.88096 0.0116905 0
M  V30 858 O 85.2597 1.5143 0.996924 0
M  V30 859 C 85.3077 2.80441 -2.26682 0
M  V30 860 O 84.4117 3.76088 -1.69208 0
M  V30 861 H 83.7527 0.464142 -0.474835 0
M  V30 862 H 86.2827 0.915665 -1.82967 0
M  V30 863 H 86.2927 3.29246 -2.40959 0
M  V30 864 H 84.9677 2.5467 -3.2881 0
M  V30 865 H 83.5447 3.34833 -1.64138 0
M  V30 866 N 85.7298 1.2412 0.971189 0
M  V30 867 C 86.6598 1.05508 2.08304 0
M  V30 868 C 87.6408 -0.0308864 1.70072 0
M  V30 869 O 88.8258 0.135521 1.93727 0
M  V30 870 C 85.9558 0.655365 3.4106 0
M  V30 871 C 84.9098 1.68971 3.93234 0
M  V30 872 C 84.2358 1.14516 5.22293 0
M  V30 873 C 85.5358 3.08487 4.21465 0
M  V30 874 H 87.2298 1.98507 2.24132 0
M  V30 875 H 84.7758 0.955821 1.07704 0
M  V30 876 H 86.7288 0.51217 4.18276 0
M  V30 877 H 85.4528 -0.31032 3.25122 0
M  V30 878 H 84.1118 1.82106 3.18171 0
M  V30 879 H 83.7598 0.170189 5.02712 0
M  V30 880 H 83.4598 1.83635 5.58168 0
M  V30 881 H 84.9838 1.01401 6.02121 0
M  V30 882 H 86.3978 2.98601 4.89398 0
M  V30 883 H 84.7948 3.74926 4.68562 0
M  V30 884 H 85.8648 3.56787 3.28376 0
M  V30 885 N 87.2079 -1.17134 1.05439 0
M  V30 886 C 88.4849 -1.83411 0.679699 0
M  V30 887 C 88.8649 -1.9368 -0.839726 0
M  V30 888 O 88.2129 -1.47325 -1.74664 0
M  V30 889 C 88.4229 -3.20918 1.37159 0
M  V30 890 C 89.7709 -3.96796 1.51123 0
M  V30 891 O 90.7949 -3.30406 1.3308 0
M  V30 892 O 89.6539 -5.15778 1.80651 0
M  V30 893 H 86.7479 -0.79154 0.239569 0
M  V30 894 H 89.2939 -1.24411 1.15413 0
M  V30 895 H 88.0659 -3.08428 2.40807 0
M  V30 896 H 87.6889 -3.87587 0.886674 0
M  V30 897 N 88.686 -0.835752 -1.33615 0
M  V30 898 C 89.616 -0.281739 -2.31794 0
M  V30 899 C 90.597 0.608833 -1.58831 0
M  V30 900 O 91.782 0.533035 -1.86741 0
M  V30 901 C 88.912 0.546612 -3.42971 0
M  V30 902 C 87.866 -0.247904 -4.27281 0
M  V30 903 C 87.192 0.704001 -5.30045 0
M  V30 904 C 88.492 -1.46324 -5.01385 0
M  V30 905 H 90.186 -1.10206 -2.78379 0
M  V30 906 H 87.732 -0.531388 -1.33837 0
M  V30 907 H 89.685 0.944467 -4.1068 0
M  V30 908 H 88.409 1.40011 -2.95067 0
M  V30 909 H 87.068 -0.627281 -3.61194 0
M  V30 910 H 86.716 1.55381 -4.78399 0
M  V30 911 H 86.416 0.176524 -5.87335 0
M  V30 912 H 87.94 1.09944 -6.0062 0
M  V30 913 H 89.354 -1.13871 -5.61877 0
M  V30 914 H 87.751 -1.92728 -5.6831 0
M  V30 915 H 88.821 -2.23467 -4.30338 0
M  V30 916 N 90.1641 1.46063 -0.591896 0
M  V30 917 C 91.1271 2.28854 0.125973 0
M  V30 918 C 92.1271 1.38903 0.810107 0
M  V30 919 O 93.3171 1.61186 0.66066 0
M  V30 920 C 90.4491 3.19526 1.1881 0
M  V30 921 H 91.6421 2.93802 -0.601717 0
M  V30 922 H 89.1951 1.52325 -0.350254 0
M  V30 923 H 89.9301 2.59345 1.94707 0
M  V30 924 H 89.7151 3.85766 0.701936 0
M  V30 925 H 91.2051 3.81817 1.69132 0
M  V30 926 N 91.6422 0.330177 1.54103 0
M  V30 927 C 92.5722 -0.525353 2.27513 0
M  V30 928 C 93.5532 -1.11383 1.2856 0
M  V30 929 O 94.7382 -1.13773 1.57383 0
M  V30 930 C 91.8682 -1.6831 3.03791 0
M  V30 931 C 90.8222 -1.2236 4.10137 0
M  V30 932 C 90.1482 -2.46882 4.74293 0
M  V30 933 C 91.4482 -0.333697 5.21233 0
M  V30 934 H 93.1422 0.087013 2.99274 0
M  V30 935 H 90.6882 0.0432893 1.43935 0
M  V30 936 H 92.6412 -2.28795 3.5388 0
M  V30 937 H 91.3652 -2.32216 2.29659 0
M  V30 938 H 90.0242 -0.64165 3.60941 0
M  V30 939 H 89.6722 -3.09165 3.96769 0
M  V30 940 H 89.3722 -2.16825 5.46133 0
M  V30 941 H 90.8962 -3.08117 5.27159 0
M  V30 942 H 92.3102 -0.845013 5.67038 0
M  V30 943 H 90.7072 -0.125612 5.99969 0
M  V30 944 H 91.7772 0.633724 4.80741 0
M  V30 945 N 93.1203 -1.57491 0.0584922 0
M  V30 946 C 94.3683 -1.92597 -0.612436 0
M  V30 947 C 94.6893 -0.938162 -1.70949 0
M  V30 948 O 93.9593 0.0158301 -1.95894 0
M  V30 949 H 92.5393 -0.710964 -0.229214 0
M  V30 950 H 95.2013 -1.94571 0.113218 0
M  V30 951 H 94.2973 -2.94038 -1.04633 0
M  V30 952 N 94.5984 0.214957 -1.56127 0
M  V30 953 C 95.8444 0.939762 -1.79712 0
M  V30 954 C 96.1774 1.83723 -0.629247 0
M  V30 955 O 95.4524 1.90925 0.371197 0
M  V30 956 C 95.7354 1.77306 -3.13424 0
M  V30 957 C 95.5884 0.90164 -4.40671 0
M  V30 958 C 96.9074 2.74956 -3.43638 0
M  V30 959 H 94.0264 0.340214 -0.653776 0
M  V30 960 H 96.6684 0.20824 -1.88855 0
M  V30 961 H 94.8184 2.39673 -3.0576 0
M  V30 962 H 96.4904 0.294206 -4.60361 0
M  V30 963 H 94.7334 0.207368 -4.33304 0
M  V30 964 H 95.4044 1.51923 -5.30682 0
M  V30 965 H 97.8804 2.22724 -3.51473 0
M  V30 966 H 96.7564 3.30358 -4.38355 0
M  V30 967 H 97.0174 3.53023 -2.66134 0
M  V30 968 N 96.0765 1.50051 0.48192 0
M  V30 969 C 97.3245 1.60181 1.23234 0
M  V30 970 C 97.6455 0.299176 1.92691 0
M  V30 971 O 96.9155 -0.682708 1.83619 0
M  V30 972 H 95.4955 0.590232 0.457859 0
M  V30 973 H 98.1575 1.86775 0.556881 0
M  V30 974 H 97.2535 2.40753 1.98607 0
M  V30 975 N 97.5546 -0.734337 1.39446 0
M  V30 976 C 98.8026 -1.49096 1.36436 0
M  V30 977 C 99.1236 -1.94961 -0.0388255 0
M  V30 978 O 98.3936 -1.69033 -0.990191 0
M  V30 979 H 96.9736 -0.5531 0.502085 0
M  V30 980 H 99.6356 -0.871725 1.74319 0
M  V30 981 H 98.7316 -2.37276 2.02747 0
M  V30 982 N 99.0327 -1.24633 -0.964593 0
M  V30 983 C 100.282 -1.08188 -1.7023 0
M  V30 984 C 100.595 0.37873 -1.91898 0
M  V30 985 O 101.801 0.663427 -2.6327 0
M  V30 986 C 100.257 -1.88773 -3.06419 0
M  V30 987 C 99.8647 -3.39263 -2.92582 0
M  V30 988 C 101.609 -1.80867 -3.84041 0
M  V30 989 C 99.5157 -4.1218 -4.24101 0
M  V30 990 H 98.4457 -0.401245 -0.638372 0
M  V30 991 H 101.097 -1.48742 -1.07462 0
M  V30 992 H 99.4787 -1.41035 -3.70034 0
M  V30 993 H 100.653 -3.94603 -2.37961 0
M  V30 994 H 98.9677 -3.48154 -2.28424 0
M  V30 995 H 101.565 -2.32646 -4.81435 0
M  V30 996 H 101.908 -0.774543 -4.09031 0
M  V30 997 H 102.441 -2.26301 -3.27159 0
M  V30 998 H 99.1797 -5.15965 -4.04303 0
M  V30 999 H 98.6997 -3.61626 -4.78526 0
M  V30 1000 H 100.379 -4.19349 -4.92702 0
M  V30 1001 N 100.511 1.16574 -1.06058 0
M  V30 1002 C 101.922 1.68662 -0.800632 0
M  V30 1003 C 102.273 1.84184 0.67608 0
M  V30 1004 O 101.398 1.53568 1.52466 0
M  V30 1005 C 101.993 3.06356 -1.44676 0
M  V30 1006 C 100.552 3.55575 -1.23465 0
M  V30 1007 C 99.6988 2.31616 -1.52477 0
M  V30 1008 H 102.65 1.00969 -1.22438 0
M  V30 1009 H 102.671 3.70636 -0.860788 0
M  V30 1010 H 102.183 2.95027 -2.52152 0
M  V30 1011 H 100.284 3.72167 -0.179527 0
M  V30 1012 H 100.397 4.37812 -1.94571 0
M  V30 1013 H 98.7608 2.36512 -0.945209 0
M  V30 1014 H 99.5438 2.22887 -2.61106 0
M  V30 1015 N 101.989 0.842826 1.3317 0
M  V30 1016 C 103.405 0.531128 1.50503 0
M  V30 1017 C 103.605 -0.940734 1.78192 0
M  V30 1018 O 102.661 -1.72436 1.84451 0
M  V30 1019 C 103.974 1.40789 2.65705 0
M  V30 1020 C 105.522 1.40708 2.79589 0
M  V30 1021 C 105.997 2.26878 3.97857 0
M  V30 1022 N 107.488 2.24609 4.05099 0
M  V30 1023 C 108.223 2.88019 4.95815 0
M  V30 1024 N 107.719 3.60496 5.9162 0
M  V30 1025 N 109.512 2.77469 4.88843 0
M  V30 1026 H 101.663 1.79557 1.1346 0
M  V30 1027 H 103.926 0.766267 0.558156 0
M  V30 1028 H 103.632 2.454 2.51936 0
M  V30 1029 H 103.506 1.08677 3.61205 0
M  V30 1030 H 105.893 0.368668 2.92788 0
M  V30 1031 H 105.974 1.76829 1.84838 0
M  V30 1032 H 105.618 3.3078 3.85418 0
M  V30 1033 H 105.548 1.88096 4.91861 0
M  V30 1034 H 108.039 1.71906 3.36536 0
M  V30 1035 H 108.352 4.06076 6.57512 0
M  V30 1036 H 106.697 3.64604 5.91683 0
M  V30 1037 H 109.888 2.20406 4.12963 0
M  V30 1038 H 110.061 3.2717 5.59342 0
M  V30 1039 N 103.467 -1.45747 0.599634 0
M  V30 1040 C 104.715 -2.01893 0.0915472 0
M  V30 1041 C 105.036 -1.47155 -1.27946 0
M  V30 1042 O 104.306 -0.66273 -1.84349 0
M  V30 1043 H 102.886 -0.746363 0.0308524 0
M  V30 1044 H 105.548 -1.78645 0.779237 0
M  V30 1045 H 104.644 -3.1208 0.0353086 0
M  V30 1046 N 104.945 -0.338344 -1.53925 0
M  V30 1047 C 106.361 0.0137736 -1.59594 0
M  V30 1048 C 106.561 1.49186 -1.35447 0
M  V30 1049 O 105.617 2.24987 -1.14616 0
M  V30 1050 C 106.93 -0.41773 -2.97784 0
M  V30 1051 C 108.478 -0.369633 -3.1081 0
M  V30 1052 C 108.953 -0.776524 -4.51369 0
M  V30 1053 N 110.444 -0.730506 -4.57403 0
M  V30 1054 C 111.179 -1.01736 -5.64303 0
M  V30 1055 N 110.675 -1.3721 -6.79077 0
M  V30 1056 N 112.468 -0.941942 -5.54151 0
M  V30 1057 H 104.619 -1.3012 -1.67876 0
M  V30 1058 H 106.882 -0.530082 -0.78595 0
M  V30 1059 H 106.588 -1.44811 -3.20504 0
M  V30 1060 H 106.462 0.209729 -3.76616 0
M  V30 1061 H 108.849 0.651568 -2.87817 0
M  V30 1062 H 108.93 -1.03223 -2.34049 0
M  V30 1063 H 108.574 -1.79571 -4.75096 0
M  V30 1064 H 108.504 -0.0914649 -5.26521 0
M  V30 1065 H 110.995 -0.468783 -3.74981 0
M  V30 1066 H 111.308 -1.57597 -7.5656 0
M  V30 1067 H 109.653 -1.4105 -6.80536 0
M  V30 1068 H 112.844 -0.664184 -4.63364 0
M  V30 1069 H 113.017 -1.16884 -6.37371 0
M  V30 1070 N 106.423 1.57458 -0.0668435 0
M  V30 1071 C 107.672 1.92477 0.602947 0
M  V30 1072 C 107.985 0.948419 1.71068 0
M  V30 1073 O 109.191 1.19124 2.43971 0
M  V30 1074 C 107.647 3.41903 1.12383 0
M  V30 1075 C 107.255 4.47975 0.04737 0
M  V30 1076 C 108.999 3.85931 1.76797 0
M  V30 1077 C 106.906 5.88529 0.582022 0
M  V30 1078 H 105.836 0.718387 0.22899 0
M  V30 1079 H 108.487 1.82978 -0.138276 0
M  V30 1080 H 106.869 3.46459 1.91787 0
M  V30 1081 H 108.043 4.55029 -0.726978 0
M  V30 1082 H 106.358 4.13384 -0.500243 0
M  V30 1083 H 108.955 4.88322 2.17821 0
M  V30 1084 H 109.298 3.23029 2.62599 0
M  V30 1085 H 109.831 3.83958 1.04024 0
M  V30 1086 H 106.57 6.55065 -0.238721 0
M  V30 1087 H 106.09 5.85004 1.324 0
M  V30 1088 H 107.769 6.38258 1.05999 0
M  V30 1089 N 107.901 -0.206675 1.56239 0
M  V30 1090 C 109.129 -0.945345 1.8404 0
M  V30 1091 C 109.544 -1.77336 0.647885 0
M  V30 1092 O 108.901 -1.78425 -0.383511 0
M  V30 1093 C 108.952 -1.8509 3.10522 0
M  V30 1094 O 108.673 -1.05634 4.25174 0
M  V30 1095 C 110.174 -2.70222 3.51418 0
M  V30 1096 H 107.394 -0.276372 0.61144 0
M  V30 1097 H 109.938 -0.217417 2.03341 0
M  V30 1098 H 108.093 -2.53259 2.93153 0
M  V30 1099 H 108.507 -1.67238 4.97124 0
M  V30 1100 H 109.981 -3.29438 4.42916 0
M  V30 1101 H 110.458 -3.43358 2.73864 0
M  V30 1102 H 111.064 -2.07443 3.71278 0
M  V30 1103 N 109.379 -1.50304 -0.473955 0
M  V30 1104 C 110.289 -1.7174 -1.5982 0
M  V30 1105 C 111.305 -0.600457 -1.63311 0
M  V30 1106 O 112.481 -0.878441 -1.81233 0
M  V30 1107 C 109.546 -1.80427 -2.96052 0
M  V30 1108 C 108.607 -3.04148 -3.02972 0
M  V30 1109 C 107.84 -3.12411 -4.32706 0
M  V30 1110 O 108.063 -2.27542 -5.23049 0
M  V30 1111 O 106.997 -4.05113 -4.45159 0
M  V30 1112 H 110.823 -2.67035 -1.44657 0
M  V30 1113 H 108.408 -1.34366 -0.653148 0
M  V30 1114 H 110.29 -1.88338 -3.7697 0
M  V30 1115 H 108.965 -0.883156 -3.11419 0
M  V30 1116 H 107.872 -3.0174 -2.21142 0
M  V30 1117 H 109.205 -3.95829 -2.92541 0
M  V30 1118 N 110.857 0.726932 -1.39834 0
M  V30 1119 C 112.106 1.48214 -1.36805 0
M  V30 1120 C 112.419 1.95576 0.0305291 0
M  V30 1121 O 113.625 2.7088 0.183417 0
M  V30 1122 C 112.081 2.67854 -2.40379 0
M  V30 1123 C 111.689 2.27408 -3.85992 0
M  V30 1124 C 113.433 3.45641 -2.46439 0
M  V30 1125 C 111.34 3.43819 -4.81189 0
M  V30 1126 H 110.27 0.556606 -0.508631 0
M  V30 1127 H 112.921 0.792216 -1.65518 0
M  V30 1128 H 111.303 3.3896 -2.04749 0
M  V30 1129 H 112.477 1.63795 -4.30706 0
M  V30 1130 H 110.792 1.62692 -3.83302 0
M  V30 1131 H 113.389 4.32244 -3.14753 0
M  V30 1132 H 113.732 3.88669 -1.49139 0
M  V30 1133 H 114.265 2.8157 -2.81004 0
M  V30 1134 H 111.004 3.05834 -5.79781 0
M  V30 1135 H 110.524 4.06385 -4.41148 0
M  V30 1136 H 112.203 4.10043 -5.00474 0
M  V30 1137 N 112.336 1.25143 0.95797 0
M  V30 1138 C 113.566 1.12261 1.73439 0
M  V30 1139 C 113.974 -0.326715 1.86358 0
M  V30 1140 O 113.317 -1.2367 1.35836 0
M  V30 1141 C 113.379 1.69966 3.16784 0
M  V30 1142 C 113.043 3.18936 3.27305 0
M  V30 1143 C 114.04 4.15968 3.11877 0
M  V30 1144 C 111.725 3.59083 3.51234 0
M  V30 1145 C 113.719 5.51126 3.20217 0
M  V30 1146 C 111.406 4.9438 3.5921 0
M  V30 1147 C 112.404 5.90211 3.43716 0
M  V30 1148 O 112.092 7.23046 3.51368 0
M  V30 1149 H 111.824 0.392476 0.550399 0
M  V30 1150 H 114.378 1.65927 1.21068 0
M  V30 1151 H 112.608 1.10744 3.70503 0
M  V30 1152 H 114.297 1.52232 3.76272 0
M  V30 1153 H 115.063 3.86292 2.93264 0
M  V30 1154 H 110.942 2.84989 3.62356 0
M  V30 1155 H 114.486 6.25905 3.0804 0
M  V30 1156 H 110.383 5.23723 3.77339 0
M  V30 1157 H 111.151 7.31097 3.6802 0
M  V30 1158 N 113.814 -1.1601 1.06675 0
M  V30 1159 C 115.062 -1.86264 0.784229 0
M  V30 1160 C 115.383 -1.82328 -0.691488 0
M  V30 1161 O 114.653 -1.25947 -1.50047 0
M  V30 1162 H 113.233 -0.689621 0.28711 0
M  V30 1163 H 115.895 -1.40664 1.34906 0
M  V30 1164 H 114.991 -2.91595 1.11259 0
M  V30 1165 N 115.292 -0.849877 -1.32721 0
M  V30 1166 C 116.703 -0.506188 -1.79707 0
M  V30 1167 C 117.054 0.975627 -1.70223 0
M  V30 1168 O 116.179 1.76078 -1.25799 0
M  V30 1169 C 116.774 -0.912044 -3.26293 0
M  V30 1170 C 115.333 -0.620326 -3.71253 0
M  V30 1171 C 114.48 -1.11439 -2.53922 0
M  V30 1172 H 117.431 -1.03754 -1.20087 0
M  V30 1173 H 117.452 -0.226493 -3.79825 0
M  V30 1174 H 116.964 -1.99057 -3.33164 0
M  V30 1175 H 115.065 0.447674 -3.69901 0
M  V30 1176 H 115.178 -1.18327 -4.64258 0
M  V30 1177 H 113.542 -0.534834 -2.49021 0
M  V30 1178 H 114.325 -2.19992 -2.6355 0
M  V30 1179 N 116.77 1.45427 -0.607355 0
M  V30 1180 C 117.68 2.34325 0.113463 0
M  V30 1181 C 118.696 1.51226 0.860617 0
M  V30 1182 O 119.872 1.84029 0.818255 0
M  V30 1183 C 116.937 3.28839 1.09844 0
M  V30 1184 C 115.998 4.27844 0.353271 0
M  V30 1185 C 115.231 5.17842 1.29133 0
M  V30 1186 O 115.454 5.11264 2.52913 0
M  V30 1187 O 114.388 5.96713 0.788523 0
M  V30 1188 H 118.214 2.97364 -0.617094 0
M  V30 1189 H 115.799 1.44807 -0.367619 0
M  V30 1190 H 117.681 3.8708 1.66575 0
M  V30 1191 H 116.356 2.68365 1.81003 0
M  V30 1192 H 115.263 3.7322 -0.256494 0
M  V30 1193 H 116.596 4.91173 -0.317822 0
M  V30 1194 N 118.248 0.346503 1.53744 0
M  V30 1195 C 119.473 -0.253074 2.0585 0
M  V30 1196 C 119.898 -1.43202 1.21962 0
M  V30 1197 O 119.256 -1.79783 0.234073 0
M  V30 1198 C 119.304 -0.643193 3.54817 0
M  V30 1199 O 118.408 -1.74286 3.73762 0
M  V30 1200 H 117.749 -0.0413583 0.662711 0
M  V30 1201 H 120.279 0.501574 1.98357 0
M  V30 1202 H 120.289 -0.919526 3.97503 0
M  V30 1203 H 118.964 0.218966 4.15323 0
M  V30 1204 H 117.541 -1.46356 3.42979 0
M  V30 1205 N 119.726 -1.57421 0.075193 0
M  V30 1206 C 120.974 -1.93236 -0.591974 0
M  V30 1207 C 121.295 -0.956241 -1.69944 0
M  V30 1208 O 120.565 -0.00494792 -1.95899 0
M  V30 1209 H 119.145 -0.713355 -0.22166 0
M  V30 1210 H 121.807 -1.9444 0.133848 0
M  V30 1211 H 120.903 -2.95131 -1.01509 0
M  V30 1212 N 121.204 0.198386 -1.56346 0
M  V30 1213 C 122.452 0.91747 -1.80075 0
M  V30 1214 C 122.773 1.83929 -0.647692 0
M  V30 1215 O 122.043 1.93029 0.334166 0
M  V30 1216 H 120.623 0.341774 -0.664228 0
M  V30 1217 H 123.285 0.204684 -1.93822 0
M  V30 1218 H 122.381 1.51055 -2.7311 0
M  V30 1219 N 122.682 1.50554 0.465978 0
M  V30 1220 C 123.629 1.6979 1.56333 0
M  V30 1221 C 124.599 0.539239 1.57103 0
M  V30 1222 O 125.784 0.770401 1.74555 0
M  V30 1223 C 122.924 1.80273 2.94271 0
M  V30 1224 C 122.037 3.07674 3.0325 0
M  V30 1225 C 121.172 3.08922 4.32135 0
M  V30 1226 C 120.211 4.30755 4.34875 0
M  V30 1227 N 119.348 4.29714 5.55239 0
M  V30 1228 H 124.188 2.63472 1.39235 0
M  V30 1229 H 121.725 1.30602 0.676873 0
M  V30 1230 H 123.683 1.84332 3.74269 0
M  V30 1231 H 122.313 0.900258 3.09992 0
M  V30 1232 H 121.365 3.13062 2.16094 0
M  V30 1233 H 122.677 3.97642 3.01135 0
M  V30 1234 H 121.831 3.11738 5.20485 0
M  V30 1235 H 120.57 2.16792 4.36866 0
M  V30 1236 H 119.575 4.28146 3.44922 0
M  V30 1237 H 120.8 5.24117 4.31831 0
M  V30 1238 H 118.746 3.4044 5.60746 0
M  V30 1239 H 118.663 5.13456 5.54886 0
M  V30 1240 H 119.931 4.36683 6.457 0
M  V30 1241 N 124.16 -0.719506 1.40217 0
M  V30 1242 C 125.388 -1.50864 1.41589 0
M  V30 1243 C 125.803 -1.88794 0.0145275 0
M  V30 1244 O 125.16 -1.55174 -0.960594 0
M  V30 1245 C 125.211 -2.78646 2.30302 0
M  V30 1246 O 124.932 -2.42321 3.64983 0
M  V30 1247 C 126.433 -3.72569 2.40224 0
M  V30 1248 H 123.653 -0.465709 0.48307 0
M  V30 1249 H 126.197 -0.88785 1.84221 0
M  V30 1250 H 124.352 -3.37019 1.91042 0
M  V30 1251 H 124.766 -3.24514 4.12057 0
M  V30 1252 H 126.24 -4.5908 3.06512 0
M  V30 1253 H 126.717 -4.15403 1.42608 0
M  V30 1254 H 127.323 -3.20109 2.80019 0
M  V30 1255 N 125.638 -1.25649 -0.95132 0
M  V30 1256 C 126.866 -1.13343 -1.73092 0
M  V30 1257 C 127.281 0.312434 -1.86197 0
M  V30 1258 O 126.638 1.21465 -1.36207 0
M  V30 1259 C 126.689 -1.78602 -3.14299 0
M  V30 1260 O 126.41 -3.17537 -3.01831 0
M  V30 1261 C 127.911 -1.72119 -4.08522 0
M  V30 1262 H 125.131 -0.395181 -0.542285 0
M  V30 1263 H 127.675 -1.66076 -1.19328 0
M  V30 1264 H 125.83 -1.29832 -3.64996 0
M  V30 1265 H 126.244 -3.49676 -3.90931 0
M  V30 1266 H 127.718 -2.22435 -5.052 0
M  V30 1267 H 128.195 -0.685635 -4.33815 0
M  V30 1268 H 128.801 -2.20393 -3.63741 0
M  V30 1269 N 127.117 1.15442 -1.07289 0
M  V30 1270 C 128.047 2.22312 -0.714107 0
M  V30 1271 C 129.028 1.67467 0.298155 0
M  V30 1272 O 130.213 1.93445 0.171048 0
M  V30 1273 C 127.343 3.47124 -0.110448 0
M  V30 1274 C 126.297 4.14926 -1.04979 0
M  V30 1275 C 125.623 5.33807 -0.308924 0
M  V30 1276 C 126.923 4.64762 -2.38314 0
M  V30 1277 H 128.617 2.5258 -1.6076 0
M  V30 1278 H 126.163 1.21404 -0.77441 0
M  V30 1279 H 128.116 4.21124 0.152482 0
M  V30 1280 H 126.84 3.16187 0.81812 0
M  V30 1281 H 125.499 3.42866 -1.29764 0
M  V30 1282 H 125.147 4.99126 0.623084 0
M  V30 1283 H 124.847 5.80113 -0.935036 0
M  V30 1284 H 126.371 6.10576 -0.0537771 0
M  V30 1285 H 127.785 5.30292 -2.1786 0
M  V30 1286 H 126.182 5.21728 -2.96514 0
M  V30 1287 H 127.252 3.80434 -3.00663 0
M  V30 1288 N 128.595 0.856903 1.32268 0
M  V30 1289 C 129.558 0.308171 2.27119 0
M  V30 1290 C 130.558 -0.533421 1.51695 0
M  V30 1291 O 131.748 -0.344607 1.70757 0
M  V30 1292 C 128.88 -0.563757 3.36206 0
M  V30 1293 H 130.073 1.14535 2.77167 0
M  V30 1294 H 127.626 0.631421 1.42978 0
M  V30 1295 H 128.361 -1.42266 2.91429 0
M  V30 1296 H 128.146 0.0386749 3.92081 0
M  V30 1297 H 129.636 -0.940386 4.06874 0
M  V30 1298 N 130.073 -1.45103 0.615059 0
M  V30 1299 C 131.003 -2.33339 -0.0865619 0
M  V30 1300 C 131.984 -1.4727 -0.851209 0
M  V30 1301 O 133.169 -1.76026 -0.820281 0
M  V30 1302 C 130.299 -3.30095 -1.07956 0
M  V30 1303 C 129.253 -4.25858 -0.427628 0
M  V30 1304 C 128.579 -5.12361 -1.5294 0
M  V30 1305 C 129.879 -5.18165 0.655944 0
M  V30 1306 H 131.573 -2.92254 0.650224 0
M  V30 1307 H 129.119 -1.40532 0.314138 0
M  V30 1308 H 131.072 -3.90698 -1.57901 0
M  V30 1309 H 129.796 -2.69355 -1.84703 0
M  V30 1310 H 128.455 -3.66564 0.0510292 0
M  V30 1311 H 128.103 -4.47984 -2.28734 0
M  V30 1312 H 127.803 -5.77238 -1.09865 0
M  V30 1313 H 129.327 -5.75833 -2.03098 0
M  V30 1314 H 130.741 -5.72796 0.240257 0
M  V30 1315 H 129.138 -5.91559 1.00888 0
M  V30 1316 H 130.208 -4.60144 1.52957 0
M  V30 1317 N 131.551 -0.354651 -1.53558 0
M  V30 1318 C 132.514 0.484566 -2.24019 0
M  V30 1319 C 133.514 1.01861 -1.24422 0
M  V30 1320 O 134.704 0.906097 -1.4878 0
M  V30 1321 C 131.836 1.67615 -2.96847 0
M  V30 1322 H 133.029 -0.131843 -2.9961 0
M  V30 1323 H 130.582 -0.106165 -1.55939 0
M  V30 1324 H 131.317 2.33095 -2.25471 0
M  V30 1325 H 131.102 1.30029 -3.69912 0
M  V30 1326 H 132.592 2.27114 -3.50441 0
M  V30 1327 N 133.029 1.57378 -0.0835403 0
M  V30 1328 C 134.278 1.93106 0.582498 0
M  V30 1329 C 134.591 0.96651 1.70053 0
M  V30 1330 O 135.797 1.21705 2.42693 0
M  V30 1331 C 134.253 3.43076 1.08751 0
M  V30 1332 C 133.861 4.48 -0.000146404 0
M  V30 1333 C 135.605 3.87785 1.72694 0
M  V30 1334 C 133.512 5.89113 0.519568 0
M  V30 1335 H 132.442 0.720775 0.221358 0
M  V30 1336 H 135.093 1.82821 -0.157675 0
M  V30 1337 H 133.475 3.48474 1.88101 0
M  V30 1338 H 134.649 4.54233 -0.775199 0
M  V30 1339 H 132.964 4.1283 -0.54406 0
M  V30 1340 H 135.561 4.90604 2.1263 0
M  V30 1341 H 135.904 3.25796 2.59158 0
M  V30 1342 H 136.437 3.8504 0.999457 0
M  V30 1343 H 133.176 6.54775 -0.308186 0
M  V30 1344 H 132.696 5.86376 1.26188 0
M  V30 1345 H 134.375 6.39346 0.992237 0
M  V30 1346 N 134.507 -0.190092 1.56449 0
M  V30 1347 C 135.753 -0.911052 1.81184 0
M  V30 1348 C 136.086 -1.82699 0.658396 0
M  V30 1349 O 135.361 -1.91491 -0.340775 0
M  V30 1350 C 135.644 -1.72297 3.16205 0
M  V30 1351 C 135.497 -0.831419 4.42049 0
M  V30 1352 C 136.816 -2.69454 3.47969 0
M  V30 1353 H 133.935 -0.32977 0.659106 0
M  V30 1354 H 136.577 -0.178169 1.89163 0
M  V30 1355 H 134.727 -2.34778 3.09534 0
M  V30 1356 H 136.399 -0.220929 4.60771 0
M  V30 1357 H 134.642 -0.138406 4.33579 0
M  V30 1358 H 135.313 -1.43461 5.33032 0
M  V30 1359 H 137.789 -2.17104 3.54972 0
M  V30 1360 H 136.665 -3.23342 4.43555 0
M  V30 1361 H 136.926 -3.48744 2.71717 0
M  V30 1362 N 135.985 -1.50799 -0.457987 0
M  V30 1363 C 136.948 -1.7005 -1.53674 0
M  V30 1364 C 137.948 -0.570881 -1.50325 0
M  V30 1365 O 139.138 -0.838126 -1.52712 0
M  V30 1366 C 136.27 -1.73788 -2.93276 0
M  V30 1367 H 137.463 -2.66306 -1.37917 0
M  V30 1368 H 135.016 -1.40477 -0.685271 0
M  V30 1369 H 135.751 -0.792717 -3.14462 0
M  V30 1370 H 135.536 -2.55864 -2.97113 0
M  V30 1371 H 137.026 -1.90591 -3.71571 0
M  V30 1372 N 137.463 0.71206 -1.40597 0
M  V30 1373 C 138.395 1.83704 -1.37061 0
M  V30 1374 C 139.408 1.60453 -0.275426 0
M  V30 1375 O 140.597 1.70262 -0.53602 0
M  V30 1376 C 137.697 3.20172 -1.11099 0
M  V30 1377 C 136.87 3.7059 -2.3234 0
M  V30 1378 C 135.929 4.85681 -2.02485 0
M  V30 1379 O 134.955 4.9815 -2.75382 0
M  V30 1380 N 136.157 5.71735 -1.00497 0
M  V30 1381 H 138.922 1.87235 -2.34016 0
M  V30 1382 H 136.483 0.893739 -1.34996 0
M  V30 1383 H 138.475 3.94768 -0.891064 0
M  V30 1384 H 137.045 3.11767 -0.227989 0
M  V30 1385 H 136.265 2.87085 -2.7014 0
M  V30 1386 H 137.553 4.01011 -3.13157 0
M  V30 1387 H 136.951 5.64275 -0.401298 0
M  V30 1388 H 135.508 6.463 -0.844942 0
M  V30 1389 N 138.941 1.26152 0.944643 0
M  V30 1390 C 139.904 1.07474 2.0244 0
M  V30 1391 C 140.904 0.0242064 1.60782 0
M  V30 1392 O 142.094 0.267302 1.72137 0
M  V30 1393 C 139.226 0.633956 3.34953 0
M  V30 1394 H 140.419 2.03336 2.20442 0
M  V30 1395 H 137.972 1.087 1.12312 0
M  V30 1396 H 138.707 -0.326811 3.22649 0
M  V30 1397 H 138.492 1.39247 3.66542 0
M  V30 1398 H 139.982 0.52501 4.14287 0
M  V30 1399 N 140.419 -1.14872 1.07899 0
M  V30 1400 C 141.351 -2.19425 0.662231 0
M  V30 1401 C 142.364 -1.60231 -0.288079 0
M  V30 1402 O 143.553 -1.78336 -0.076534 0
M  V30 1403 C 140.653 -3.38867 -0.0470695 0
M  V30 1404 C 139.826 -4.27597 0.920831 0
M  V30 1405 C 138.885 -5.25616 0.247805 0
M  V30 1406 O 137.911 -5.62189 0.890599 0
M  V30 1407 N 139.113 -5.71746 -1.00435 0
M  V30 1408 H 141.878 -2.55797 1.56166 0
M  V30 1409 H 139.439 -1.30042 0.964404 0
M  V30 1410 H 141.431 -4.01497 -0.50813 0
M  V30 1411 H 140.001 -3.00864 -0.848523 0
M  V30 1412 H 139.221 -3.61982 1.56087 0
M  V30 1413 H 140.509 -4.83748 1.57688 0
M  V30 1414 H 139.907 -5.44153 -1.54642 0
M  V30 1415 H 138.464 -6.36389 -1.40899 0
M  V30 1416 N 141.898 -0.863906 -1.31812 0
M  V30 1417 C 142.845 -0.313303 -2.28664 0
M  V30 1418 C 143.815 0.584868 -1.55462 0
M  V30 1419 O 145 0.517805 -1.83639 0
M  V30 1420 C 142.14 0.48441 -3.41683 0
M  V30 1421 C 141.253 -0.440594 -4.29747 0
M  V30 1422 C 140.388 0.370652 -5.29905 0
M  V30 1423 C 139.427 -0.551164 -6.09613 0
M  V30 1424 N 138.564 0.223462 -7.01744 0
M  V30 1425 H 143.404 -1.14444 -2.75148 0
M  V30 1426 H 140.941 -0.575769 -1.35364 0
M  V30 1427 H 142.899 0.962627 -4.05943 0
M  V30 1428 H 141.529 1.28029 -2.96325 0
M  V30 1429 H 140.581 -1.03724 -3.65986 0
M  V30 1430 H 141.893 -1.14767 -4.85417 0
M  V30 1431 H 141.047 0.911638 -5.99812 0
M  V30 1432 H 139.786 1.11105 -4.74876 0
M  V30 1433 H 138.791 -1.10396 -5.38603 0
M  V30 1434 H 140.016 -1.29032 -6.66729 0
M  V30 1435 H 137.962 0.946787 -6.49132 0
M  V30 1436 H 137.879 -0.424399 -7.54808 0
M  V30 1437 H 139.147 0.745876 -7.75923 0
M  V30 1438 N 143.376 1.44774 -0.622745 0
M  V30 1439 C 144.339 2.29069 0.0774015 0
M  V30 1440 C 145.339 1.4059 0.780461 0
M  V30 1441 O 146.529 1.62551 0.626322 0
M  V30 1442 C 143.661 3.21974 1.12006 0
M  V30 1443 H 144.854 2.92459 -0.663901 0
M  V30 1444 H 142.407 1.51548 -0.382486 0
M  V30 1445 H 143.142 2.63417 1.89162 0
M  V30 1446 H 142.927 3.87168 0.619951 0
M  V30 1447 H 144.417 3.85318 1.60995 0
M  V30 1448 N 144.854 0.36279 1.53368 0
M  V30 1449 C 146.102 -0.227326 2.00817 0
M  V30 1450 C 146.423 -1.49511 1.25186 0
M  V30 1451 O 145.693 -1.92482 0.364348 0
M  V30 1452 H 144.273 -0.0869923 0.741917 0
M  V30 1453 H 146.935 0.488381 1.88682 0
M  V30 1454 H 146.031 -0.456273 3.08747 0
M  V30 1455 N 146.332 -1.57332 0.0918853 0
M  V30 1456 C 147.58 -1.93853 -0.571446 0
M  V30 1457 C 147.901 -0.974212 -1.6892 0
M  V30 1458 O 147.171 -0.0257254 -1.95883 0
M  V30 1459 H 145.751 -0.715666 -0.214082 0
M  V30 1460 H 148.413 -1.94287 0.154464 0
M  V30 1461 H 147.509 -2.96191 -0.983729 0
M  V30 1462 N 147.81 0.181792 -1.56548 0
M  V30 1463 C 149.038 0.915947 -1.85521 0
M  V30 1464 C 149.453 1.76282 -0.676016 0
M  V30 1465 O 148.81 1.79012 0.355077 0
M  V30 1466 C 148.861 1.80126 -3.13427 0
M  V30 1467 O 148.582 0.988562 -4.26801 0
M  V30 1468 C 150.083 2.64597 -3.55673 0
M  V30 1469 H 147.303 0.26661 -0.61576 0
M  V30 1470 H 149.847 0.185039 -2.03661 0
M  V30 1471 H 148.002 2.48563 -2.97145 0
M  V30 1472 H 148.416 1.59308 -4.99721 0
M  V30 1473 H 149.89 3.2235 -4.48101 0
M  V30 1474 H 150.367 3.38958 -2.79292 0
M  V30 1475 H 150.973 2.0151 -3.74532 0
M  V30 1476 N 149.288 1.51039 0.449983 0
M  V30 1477 C 150.528 1.64732 1.21007 0
M  V30 1478 C 150.892 0.349865 1.88785 0
M  V30 1479 O 152.093 0.362431 2.66345 0
M  V30 1480 C 150.364 2.80902 2.20973 0
M  V30 1481 S 151.923 3.14851 3.05638 0
M  V30 1482 H 148.741 0.5805 0.410538 0
M  V30 1483 H 151.343 1.88901 0.503634 0
M  V30 1484 H 150.047 3.73627 1.69796 0
M  V30 1485 H 149.578 2.58882 2.96215 0
M  V30 1486 H 151.593 2.60306 4.22439 0
M  V30 1487 N 150.766 -0.704594 1.40972 0
M  V30 1488 C 151.729 -1.80035 1.41845 0
M  V30 1489 C 152.729 -1.57774 0.310474 0
M  V30 1490 O 153.919 -1.64613 0.56992 0
M  V30 1491 C 151.051 -3.18284 1.22098 0
M  V30 1492 H 152.244 -1.80658 2.3938 0
M  V30 1493 H 149.797 -0.911329 1.26982 0
M  V30 1494 H 150.532 -3.23306 0.253672 0
M  V30 1495 H 150.317 -3.35843 2.02366 0
M  V30 1496 H 151.807 -3.98289 1.25522 0
M  V30 1497 N 152.244 -1.26651 -0.937939 0
M  V30 1498 C 153.491 -1.12387 -1.6845 0
M  V30 1499 C 153.819 0.332208 -1.91642 0
M  V30 1500 O 153.074 1.2602 -1.49725 0
M  V30 1501 C 153.373 -1.84168 -3.06295 0
M  V30 1502 C 153.039 -3.34056 -3.02849 0
M  V30 1503 C 151.701 -3.74942 -3.01616 0
M  V30 1504 C 154.053 -4.29741 -2.9491 0
M  V30 1505 C 151.381 -5.09894 -2.90215 0
M  V30 1506 C 153.733 -5.64738 -2.8505 0
M  V30 1507 C 152.397 -6.0493 -2.82162 0
M  V30 1508 H 151.667 -0.411252 -0.616403 0
M  V30 1509 H 154.314 -1.57134 -1.09459 0
M  V30 1510 H 152.619 -1.319 -3.6893 0
M  V30 1511 H 154.316 -1.70569 -3.62915 0
M  V30 1512 H 150.906 -3.01534 -3.0459 0
M  V30 1513 H 155.09 -3.99133 -2.94969 0
M  V30 1514 H 150.346 -5.40194 -2.86358 0
M  V30 1515 H 154.52 -6.38561 -2.77872 0
M  V30 1516 H 152.147 -7.09457 -2.73084 0
M  V30 1517 N 153.722 1.14298 -1.08507 0
M  V30 1518 C 154.971 1.84708 -0.810305 0
M  V30 1519 C 155.284 1.83903 0.666271 0
M  V30 1520 O 156.49 2.50112 1.05624 0
M  V30 1521 C 154.946 3.31572 -1.39957 0
M  V30 1522 C 154.554 3.40791 -2.90801 0
M  V30 1523 C 156.298 4.07087 -1.20334 0
M  V30 1524 C 154.205 4.81872 -3.4286 0
M  V30 1525 H 153.135 0.691985 -0.299454 0
M  V30 1526 H 155.786 1.28841 -1.30661 0
M  V30 1527 H 154.168 3.87183 -0.830976 0
M  V30 1528 H 155.342 2.95225 -3.53806 0
M  V30 1529 H 153.657 2.78732 -3.0935 0
M  V30 1530 H 156.254 5.11225 -1.56693 0
M  V30 1531 H 156.597 4.16054 -0.143237 0
M  V30 1532 H 157.13 3.57779 -1.73893 0
M  V30 1533 H 153.869 4.78094 -4.48449 0
M  V30 1534 H 153.389 5.27972 -2.84615 0
M  V30 1535 H 155.068 5.50765 -3.39509 0
M  V30 1536 N 155.201 0.870884 1.31352 0
M  V30 1537 C 156.478 0.402907 1.91405 0
M  V30 1538 C 156.858 -1.11512 1.79244 0
M  V30 1539 O 156.206 -1.94411 1.2007 0
M  V30 1540 C 156.416 0.885301 3.37585 0
M  V30 1541 C 157.764 0.911971 4.14691 0
M  V30 1542 O 158.788 0.831016 3.46371 0
M  V30 1543 O 157.647 1.02927 5.3672 0
M  V30 1544 H 154.741 0.120698 0.818145 0
M  V30 1545 H 157.287 0.958857 1.40014 0
M  V30 1546 H 156.059 1.92889 3.40455 0
M  V30 1547 H 155.682 0.307714 3.96407 0
M  V30 1548 N 156.679 -1.44442 0.630414 0
M  V30 1549 C 157.642 -2.29107 -0.0652523 0
M  V30 1550 C 158.642 -1.41002 -0.772995 0
M  V30 1551 O 159.832 -1.62881 -0.617692 0
M  V30 1552 C 156.964 -3.22564 -1.10296 0
M  V30 1553 H 158.157 -2.92103 0.679401 0
M  V30 1554 H 155.71 -1.51343 0.390517 0
M  V30 1555 H 156.445 -2.64416 -1.87762 0
M  V30 1556 H 156.23 -3.87491 -0.59941 0
M  V30 1557 H 157.72 -3.86167 -1.5895 0
M  V30 1558 N 158.157 -0.370918 -1.53173 0
M  V30 1559 C 159.067 0.480823 -2.2962 0
M  V30 1560 C 160.083 1.08789 -1.35798 0
M  V30 1561 O 161.259 1.09768 -1.68858 0
M  V30 1562 C 158.324 1.60227 -3.07454 0
M  V30 1563 C 157.385 1.0222 -4.16953 0
M  V30 1564 C 156.618 2.0902 -4.91066 0
M  V30 1565 O 156.841 3.30222 -4.65091 0
M  V30 1566 O 155.775 1.71778 -5.76867 0
M  V30 1567 H 159.601 -0.141421 -3.03371 0
M  V30 1568 H 157.186 -0.135146 -1.48787 0
M  V30 1569 H 159.068 2.25417 -3.56041 0
M  V30 1570 H 157.743 2.20982 -2.36535 0
M  V30 1571 H 156.65 0.334064 -3.72605 0
M  V30 1572 H 157.983 0.459131 -4.90054 0
M  V30 1573 N 159.635 1.57281 -0.100228 0
M  V30 1574 C 160.585 2.10848 0.86759 0
M  V30 1575 C 161.569 1.02473 1.24049 0
M  V30 1576 O 162.761 1.28739 1.21471 0
M  V30 1577 C 159.89 2.69648 2.12474 0
M  V30 1578 C 158.976 3.85074 1.77704 0
M  V30 1579 N 159.367 4.92897 1.13518 0
M  V30 1580 C 157.665 3.94905 2.07282 0
M  V30 1581 C 158.366 5.73475 0.974735 0
M  V30 1582 N 157.342 5.22675 1.4937 0
M  V30 1583 H 161.144 2.91594 0.367471 0
M  V30 1584 H 158.658 1.62074 0.102829 0
M  V30 1585 H 160.655 3.06356 2.82757 0
M  V30 1586 H 159.315 1.90359 2.63047 0
M  V30 1587 H 160.326 5.11662 0.801381 0
M  V30 1588 H 157.003 3.26633 2.60033 0
M  V30 1589 H 158.393 6.70238 0.472364 0
M  V30 1590 N 161.113 -0.173488 1.56642 0
M  V30 1591 C 162.076 -1.19859 1.95362 0
M  V30 1592 C 163.076 -1.37296 0.83704 0
M  V30 1593 O 164.266 -1.34739 1.10413 0
M  V30 1594 C 161.398 -2.56405 2.24654 0
M  V30 1595 H 162.591 -0.867062 2.87092 0
M  V30 1596 H 160.144 -0.415853 1.50666 0
M  V30 1597 H 160.879 -2.94576 1.35631 0
M  V30 1598 H 160.664 -2.45115 3.06041 0
M  V30 1599 H 162.154 -3.30287 2.5554 0
M  V30 1600 N 162.591 -1.51276 -0.441967 0
M  V30 1601 C 163.521 -1.752 -1.54361 0
M  V30 1602 C 164.502 -0.601682 -1.59103 0
M  V30 1603 O 165.687 -0.843913 -1.74905 0
M  V30 1604 C 162.817 -1.87282 -2.92477 0
M  V30 1605 C 161.771 -3.02687 -3.02596 0
M  V30 1606 C 161.097 -2.99947 -4.42647 0
M  V30 1607 C 162.397 -4.4273 -2.77106 0
M  V30 1608 H 164.091 -2.67442 -1.34592 0
M  V30 1609 H 161.637 -1.28694 -0.646048 0
M  V30 1610 H 163.59 -2.02602 -3.695 0
M  V30 1611 H 162.314 -0.916844 -3.13467 0
M  V30 1612 H 160.973 -2.87065 -2.28012 0
M  V30 1613 H 160.621 -2.02136 -4.60597 0
M  V30 1614 H 160.321 -3.77439 -4.50348 0
M  V30 1615 H 161.845 -3.17354 -5.2165 0
M  V30 1616 H 163.259 -4.58727 -3.43864 0
M  V30 1617 H 161.656 -5.21893 -2.96222 0
M  V30 1618 H 162.726 -4.53087 -1.72744 0
M  V30 1619 N 164.069 0.697108 -1.41344 0
M  V30 1620 C 165.346 1.45154 -1.31109 0
M  V30 1621 C 165.726 2.11009 0.0620449 0
M  V30 1622 O 165.074 2.01571 1.07618 0
M  V30 1623 C 165.284 2.47223 -2.46337 0
M  V30 1624 C 166.632 3.1252 -2.87431 0
M  V30 1625 O 167.656 2.57547 -2.46065 0
M  V30 1626 O 166.515 4.12083 -3.58957 0
M  V30 1627 H 163.609 0.646365 -0.515889 0
M  V30 1628 H 166.155 0.727716 -1.53305 0
M  V30 1629 H 164.927 1.97204 -3.37974 0
M  V30 1630 H 164.55 3.27116 -2.2601 0
M  V30 1631 N 165.547 1.27147 0.931209 0
M  V30 1632 C 166.958 1.12044 1.49342 0
M  V30 1633 C 167.309 -0.295795 1.93957 0
M  V30 1634 O 166.434 -1.18835 1.80852 0
M  V30 1635 C 167.029 2.02781 2.71414 0
M  V30 1636 C 165.588 1.91794 3.2387 0
M  V30 1637 C 164.735 1.95543 1.96617 0
M  V30 1638 H 167.686 1.40091 0.745672 0
M  V30 1639 H 167.707 1.58156 3.46074 0
M  V30 1640 H 167.219 3.05848 2.38911 0
M  V30 1641 H 165.32 0.916992 3.6114 0
M  V30 1642 H 165.433 2.77852 3.90302 0
M  V30 1643 H 163.797 1.39722 2.12955 0
M  V30 1644 H 164.58 3.00259 1.66432 0
M  V30 1645 N 167.025 -1.13721 1.09112 0
M  V30 1646 C 168.271 -1.85198 0.826414 0
M  V30 1647 C 168.604 -1.83129 -0.646319 0
M  V30 1648 O 167.879 -1.2671 -1.47563 0
M  V30 1649 C 168.162 -3.33507 1.35812 0
M  V30 1650 C 168.015 -3.44108 2.89672 0
M  V30 1651 C 169.334 -4.28838 0.989256 0
M  V30 1652 H 166.453 -0.67243 0.301675 0
M  V30 1653 H 169.095 -1.33499 1.35197 0
M  V30 1654 H 167.245 -3.77666 0.911082 0
M  V30 1655 H 168.917 -3.08684 3.428 0
M  V30 1656 H 167.16 -2.85087 3.26967 0
M  V30 1657 H 167.831 -4.48388 3.21951 0
M  V30 1658 H 170.307 -3.92734 1.37475 0
M  V30 1659 H 169.183 -5.31051 1.38838 0
M  V30 1660 H 169.444 -4.4198 -0.102924 0
M  V30 1661 N 168.503 -0.877838 -1.30888 0
M  V30 1662 C 169.733 -0.506678 -2.00291 0
M  V30 1663 C 170.141 0.907449 -1.66018 0
M  V30 1664 O 169.484 1.60719 -0.88967 0
M  V30 1665 C 169.546 -0.59323 -3.54572 0
M  V30 1666 C 169.21 -1.97038 -4.12341 0
M  V30 1667 C 170.207 -2.93889 -4.28865 0
M  V30 1668 C 167.892 -2.27383 -4.47886 0
M  V30 1669 C 169.886 -4.19224 -4.80136 0
M  V30 1670 C 167.573 -3.52965 -4.98857 0
M  V30 1671 C 168.571 -4.48701 -5.14934 0
M  V30 1672 O 168.259 -5.72056 -5.64808 0
M  V30 1673 H 167.991 -0.1951 -0.647234 0
M  V30 1674 H 170.545 -1.18301 -1.6791 0
M  V30 1675 H 168.775 0.140057 -3.86446 0
M  V30 1676 H 170.464 -0.234372 -4.05223 0
M  V30 1677 H 171.23 -2.71756 -4.01714 0
M  V30 1678 H 167.109 -1.53639 -4.34645 0
M  V30 1679 H 170.653 -4.93956 -4.92599 0
M  V30 1680 H 166.55 -3.74939 -5.25443 0
M  V30 1681 H 167.318 -5.74337 -5.83163 0
M  V30 1682 N 169.982 1.44106 -0.638065 0
M  V30 1683 C 170.945 2.29138 0.0531013 0
M  V30 1684 C 171.945 1.41409 0.765506 0
M  V30 1685 O 173.135 1.63206 0.609046 0
M  V30 1686 C 170.267 3.23144 1.08584 0
M  V30 1687 H 171.46 2.91739 -0.694883 0
M  V30 1688 H 169.013 1.51134 -0.398538 0
M  V30 1689 H 169.748 2.65408 1.86357 0
M  V30 1690 H 169.533 3.87804 0.578852 0
M  V30 1691 H 171.023 3.87004 1.56899 0
M  V30 1692 N 171.46 0.379036 1.52974 0
M  V30 1693 C 172.876 0.0285448 1.59574 0
M  V30 1694 C 173.076 -1.45542 1.39355 0
M  V30 1695 O 172.132 -2.2187 1.20541 0
M  V30 1696 C 173.445 0.496535 2.96572 0
M  V30 1697 C 174.993 0.451909 3.0972 0
M  V30 1698 C 175.468 0.895924 4.49152 0
M  V30 1699 N 176.959 0.851522 4.55306 0
M  V30 1700 C 177.694 1.16661 5.61407 0
M  V30 1701 N 177.19 1.55166 6.752 0
M  V30 1702 N 178.983 1.08853 5.51459 0
M  V30 1703 H 171.134 1.34525 1.64367 0
M  V30 1704 H 173.397 0.550733 0.771619 0
M  V30 1705 H 173.103 1.53258 3.16552 0
M  V30 1706 H 172.977 -0.109802 3.7704 0
M  V30 1707 H 175.364 -0.575029 2.89443 0
M  V30 1708 H 175.445 1.09392 2.3123 0
M  V30 1709 H 175.089 1.92104 4.70168 0
M  V30 1710 H 175.019 0.23103 5.26093 0
M  V30 1711 H 177.51 0.568038 3.73606 0
M  V30 1712 H 177.823 1.776 7.52116 0
M  V30 1713 H 176.168 1.59044 6.76557 0
M  V30 1714 H 179.359 0.786803 4.6144 0
M  V30 1715 H 179.532 1.33742 6.34048 0
M  V30 1716 N 172.938 -1.57226 0.108567 0
M  V30 1717 C 173.901 -2.13602 -0.831082 0
M  V30 1718 C 174.901 -1.06841 -1.20173 0
M  V30 1719 O 176.091 -1.32666 -1.12895 0
M  V30 1720 C 173.223 -2.66769 -2.12243 0
M  V30 1721 H 174.416 -2.97951 -0.341317 0
M  V30 1722 H 171.969 -1.55667 -0.14057 0
M  V30 1723 H 172.704 -1.85977 -2.65675 0
M  V30 1724 H 172.489 -3.44839 -1.86625 0
M  V30 1725 H 173.979 -3.10332 -2.79435 0
M  V30 1726 N 174.416 0.165178 -1.56732 0
M  V30 1727 C 175.346 1.20651 -1.99914 0
M  V30 1728 C 176.327 1.45827 -0.875705 0
M  V30 1729 O 177.512 1.57057 -1.14223 0
M  V30 1730 C 174.642 2.54401 -2.36427 0
M  V30 1731 C 173.596 2.43782 -3.51787 0
M  V30 1732 C 172.922 3.82078 -3.7406 0
M  V30 1733 C 174.222 1.93732 -4.85041 0
M  V30 1734 H 175.916 0.847534 -2.87154 0
M  V30 1735 H 173.462 0.40625 -1.38151 0
M  V30 1736 H 175.415 3.27458 -2.65234 0
M  V30 1737 H 174.139 2.92098 -1.46103 0
M  V30 1738 H 172.798 1.73178 -3.23117 0
M  V30 1739 H 172.446 4.17179 -2.81017 0
M  V30 1740 H 172.146 3.7584 -4.51684 0
M  V30 1741 H 173.67 4.56712 -4.05274 0
M  V30 1742 H 175.084 2.56569 -5.12684 0
M  V30 1743 H 173.481 1.98428 -5.66345 0
M  V30 1744 H 174.551 0.891962 -4.76626 0
M  V30 1745 N 175.894 1.51508 0.433938 0
M  V30 1746 C 177.142 1.6402 1.18075 0
M  V30 1747 C 177.463 0.360328 1.91642 0
M  V30 1748 O 176.733 -0.623945 1.85698 0
M  V30 1749 H 175.313 0.6045 0.43885 0
M  V30 1750 H 177.975 1.88452 0.497178 0
M  V30 1751 H 177.071 2.46949 1.90847 0
M  V30 1752 N 177.372 -0.689602 1.41712 0
M  V30 1753 C 178.618 -1.45181 1.41599 0
M  V30 1754 C 178.951 -1.94181 0.0270081 0
M  V30 1755 O 178.226 -1.6993 -0.946265 0
M  V30 1756 C 178.509 -2.65945 2.42787 0
M  V30 1757 C 178.362 -2.22672 3.90816 0
M  V30 1758 C 179.681 -3.68149 2.41151 0
M  V30 1759 H 176.8 -0.526576 0.515642 0
M  V30 1760 H 179.442 -0.784947 1.73028 0
M  V30 1761 H 177.592 -3.2284 2.16116 0
M  V30 1762 H 179.264 -1.71058 4.28412 0
M  V30 1763 H 177.507 -1.54394 4.05395 0
M  V30 1764 H 178.178 -3.0935 4.57172 0
M  V30 1765 H 180.654 -3.2094 2.64834 0
M  V30 1766 H 179.53 -4.50248 3.13955 0
M  V30 1767 H 179.791 -4.18259 1.43221 0
M  V30 1768 N 178.85 -1.27639 -0.924453 0
M  V30 1769 C 179.798 -1.10485 -2.04685 0
M  V30 1770 C 180.792 -0.0270421 -1.69378 0
M  V30 1771 O 181.998 -0.185008 -1.79047 0
M  V30 1772 H 178.373 -0.340546 -0.670472 0
M  V30 1773 H 180.344 -2.05566 -2.16298 0
M  V30 1774 C 179.093 -0.772229 -3.39016 0
M  V30 1775 H 178.416 -1.59351 -3.66671 0
M  V30 1776 H 179.856 -0.692097 -4.18313 0
M  V30 1777 C 178.315 0.523554 -3.32807 0
M  V30 1778 O 178.845 1.55702 -3.70297 0
M  V30 1779 N 177.051 0.520363 -2.85903 0
M  V30 1780 H 176.598 -0.32107 -2.55591 0
M  V30 1781 H 176.556 1.38742 -2.82131 0
M  V30 1782 N 180.328 1.1314 -1.09713 0
M  V30 1783 C 181.556 1.88321 -0.856898 0
M  V30 1784 C 181.971 1.79276 0.592073 0
M  V30 1785 O 181.328 1.16142 1.40774 0
M  V30 1786 C 181.379 3.37812 -1.28706 0
M  V30 1787 O 181.1 3.46627 -2.67921 0
M  V30 1788 C 182.601 4.29952 -1.07964 0
M  V30 1789 H 179.821 0.596094 -0.308079 0
M  V30 1790 H 182.365 1.43205 -1.45988 0
M  V30 1791 H 180.52 3.805 -0.727912 0
M  V30 1792 H 180.934 4.39579 -2.8613 0
M  V30 1793 H 182.408 5.33159 -1.42986 0
M  V30 1794 H 182.885 4.39196 -0.0176577 0
M  V30 1795 H 183.491 3.93036 -1.62489 0
M  V30 1796 N 181.806 0.884767 1.30421 0
M  V30 1797 C 183.083 0.423185 1.90967 0
M  V30 1798 C 183.463 -1.09605 1.80416 0
M  V30 1799 O 182.811 -1.93126 1.22125 0
M  V30 1800 C 183.021 0.921056 3.36627 0
M  V30 1801 C 184.369 0.955903 4.137 0
M  V30 1802 O 185.393 0.867706 3.4547 0
M  V30 1803 O 184.252 1.08614 5.35598 0
M  V30 1804 H 181.346 0.129369 0.816819 0
M  V30 1805 H 183.892 0.973653 1.3899 0
M  V30 1806 H 182.664 1.96489 3.3839 0
M  V30 1807 H 182.287 0.349741 3.96059 0
M  V30 1808 N 183.284 -1.43765 0.645699 0
M  V30 1809 C 184.194 -2.34544 -0.0512957 0
M  V30 1810 C 185.21 -1.53455 -0.82022 0
M  V30 1811 O 186.386 -1.86133 -0.769176 0
M  V30 1812 C 183.451 -3.31636 -1.01087 0
M  V30 1813 C 182.512 -4.2863 -0.239712 0
M  V30 1814 C 181.745 -5.21084 -1.15358 0
M  V30 1815 O 181.968 -5.1779 -2.39269 0
M  V30 1816 O 180.902 -5.98593 -0.630038 0
M  V30 1817 H 184.728 -2.95624 0.695718 0
M  V30 1818 H 182.313 -1.43781 0.405882 0
M  V30 1819 H 184.195 -3.9136 -1.56254 0
M  V30 1820 H 182.87 -2.73069 -1.73824 0
M  V30 1821 H 181.777 -3.72408 0.355356 0
M  V30 1822 H 183.11 -4.90157 0.447936 0
M  V30 1823 N 184.763 -0.387143 -1.52771 0
M  V30 1824 C 185.693 0.440551 -2.29306 0
M  V30 1825 C 186.674 1.06535 -1.32606 0
M  V30 1826 O 187.859 1.07853 -1.61497 0
M  V30 1827 C 184.989 1.56919 -3.09829 0
M  V30 1828 C 183.943 1.07054 -4.14395 0
M  V30 1829 C 183.269 2.29109 -4.83129 0
M  V30 1830 C 184.569 0.140015 -5.22112 0
M  V30 1831 H 186.263 -0.198026 -2.98744 0
M  V30 1832 H 183.809 -0.09668 -1.43675 0
M  V30 1833 H 185.762 2.15503 -3.62128 0
M  V30 1834 H 184.486 2.23532 -2.3812 0
M  V30 1835 H 183.145 0.507247 -3.63074 0
M  V30 1836 H 182.793 2.94227 -4.0797 0
M  V30 1837 H 182.493 1.96406 -5.53804 0
M  V30 1838 H 184.017 2.88339 -5.38231 0
M  V30 1839 H 185.431 0.633978 -5.69784 0
M  V30 1840 H 183.828 -0.0971485 -6.00021 0
M  V30 1841 H 184.898 -0.811711 -4.78058 0
M  V30 1842 N 186.241 1.57166 -0.116904 0
M  V30 1843 C 187.171 2.18222 0.830759 0
M  V30 1844 C 188.152 1.12167 1.27877 0
M  V30 1845 O 189.337 1.40394 1.34176 0
M  V30 1846 C 186.467 2.77996 2.08172 0
M  V30 1847 C 185.421 3.89614 1.77157 0
M  V30 1848 C 184.747 4.36187 3.09265 0
M  V30 1849 C 186.047 5.1181 1.04151 0
M  V30 1850 H 187.741 2.97664 0.321992 0
M  V30 1851 H 185.287 1.4318 0.153434 0
M  V30 1852 H 187.24 3.19366 2.74924 0
M  V30 1853 H 185.964 1.9584 2.6137 0
M  V30 1854 H 184.623 3.48816 1.12796 0
M  V30 1855 H 184.271 3.50893 3.60393 0
M  V30 1856 H 183.971 5.11455 2.89288 0
M  V30 1857 H 185.495 4.80207 3.77139 0
M  V30 1858 H 186.909 5.50214 1.61052 0
M  V30 1859 H 185.306 5.92648 0.942762 0
M  V30 1860 H 186.376 4.84892 0.0279022 0
M  V30 1861 N 187.719 -0.156864 1.56817 0
M  V30 1862 C 188.965 -0.872416 1.83076 0
M  V30 1863 C 189.298 -1.81261 0.697001 0
M  V30 1864 O 188.573 -1.92171 -0.30008 0
M  V30 1865 C 188.856 -1.65551 3.19789 0
M  V30 1866 C 188.709 -0.737467 4.43713 0
M  V30 1867 C 190.028 -2.62012 3.53606 0
M  V30 1868 H 187.147 -0.315715 0.665953 0
M  V30 1869 H 189.789 -0.138004 1.89498 0
M  V30 1870 H 187.939 -2.28159 3.14445 0
M  V30 1871 H 189.611 -0.123143 4.61136 0
M  V30 1872 H 187.854 -0.0464067 4.33775 0
M  V30 1873 H 188.525 -1.32122 5.35955 0
M  V30 1874 H 191.001 -2.09525 3.59497 0
M  V30 1875 H 189.877 -3.13861 4.50314 0
M  V30 1876 H 190.138 -3.42902 2.79053 0
M  V30 1877 N 189.197 -1.51736 -0.425897 0
M  V30 1878 C 190.422 -1.69082 -1.20108 0
M  V30 1879 C 190.847 -0.392398 -1.83962 0
M  V30 1880 O 190.205 0.64858 -1.69302 0
M  V30 1881 C 190.253 -2.81604 -2.25237 0
M  V30 1882 O 189.357 -2.46004 -3.30992 0
M  V30 1883 H 188.698 -0.563408 -0.35138 0
M  V30 1884 H 191.228 -1.98358 -0.501512 0
M  V30 1885 H 191.238 -3.06025 -2.69838 0
M  V30 1886 H 189.913 -3.75817 -1.78142 0
M  V30 1887 H 188.49 -2.32195 -2.91787 0
M  V30 1888 N 190.675 0.682077 -1.42076 0
M  V30 1889 C 191.607 1.80755 -1.40926 0
M  V30 1890 C 192.62 1.59833 -0.309398 0
M  V30 1891 O 193.809 1.69087 -0.572014 0
M  V30 1892 C 190.909 3.17744 -1.17865 0
M  V30 1893 C 190.082 3.65578 -2.40149 0
M  V30 1894 C 189.141 4.81277 -2.12742 0
M  V30 1895 O 188.167 4.92197 -2.85887 0
M  V30 1896 N 189.369 5.69474 -1.12602 0
M  V30 1897 H 192.134 1.82229 -2.37935 0
M  V30 1898 H 189.695 0.864903 -1.36861 0
M  V30 1899 H 191.687 3.9279 -0.9746 0
M  V30 1900 H 190.257 3.11214 -0.294068 0
M  V30 1901 H 189.477 2.81291 -2.76169 0
M  V30 1902 H 190.765 3.94278 -3.21593 0
M  V30 1903 H 190.163 5.63297 -0.520899 0
M  V30 1904 H 188.72 6.44363 -0.981842 0
M  V30 1905 N 192.153 1.28127 0.917671 0
M  V30 1906 C 193.564 1.13622 1.48145 0
M  V30 1907 C 193.915 -0.275207 1.9426 0
M  V30 1908 O 193.04 -1.1691 1.82102 0
M  V30 1909 C 193.635 2.05648 2.69248 0
M  V30 1910 C 192.194 1.95219 3.21818 0
M  V30 1911 C 191.341 1.97618 1.94532 0
M  V30 1912 H 194.292 1.40874 0.730772 0
M  V30 1913 H 194.313 1.61818 3.44377 0
M  V30 1914 H 193.825 3.08365 2.35653 0
M  V30 1915 H 191.926 0.955244 3.60147 0
M  V30 1916 H 192.039 2.81976 3.87333 0
M  V30 1917 H 190.403 1.41973 2.11461 0
M  V30 1918 H 191.186 3.02007 1.63238 0
M  V30 1919 N 193.631 -1.12557 1.10312 0
M  V30 1920 C 194.908 -1.80363 0.756878 0
M  V30 1921 C 195.288 -1.97067 -0.756824 0
M  V30 1922 O 194.636 -1.54601 -1.68259 0
M  V30 1923 C 194.846 -3.14812 1.50647 0
M  V30 1924 C 196.194 -3.90029 1.67817 0
M  V30 1925 O 197.218 -3.24464 1.46974 0
M  V30 1926 O 196.077 -5.07652 2.02365 0
M  V30 1927 H 193.171 -0.780667 0.272926 0
M  V30 1928 H 195.717 -1.19404 1.20586 0
M  V30 1929 H 194.489 -2.97936 2.53672 0
M  V30 1930 H 194.112 -3.83478 1.05026 0
M  V30 1931 N 195.109 -0.891671 -1.2995 0
M  V30 1932 C 196.057 -0.353066 -2.29905 0
M  V30 1933 C 197.051 0.543509 -1.60444 0
M  V30 1934 O 198.257 0.4272 -1.74857 0
M  V30 1935 H 194.632 -0.095531 -0.745907 0
M  V30 1936 H 196.603 -1.20961 -2.72784 0
M  V30 1937 C 195.352 0.411475 -3.45257 0
M  V30 1938 H 194.675 -0.269182 -3.98893 0
M  V30 1939 H 196.115 0.753328 -4.17254 0
M  V30 1940 C 194.574 1.6111 -2.9588 0
M  V30 1941 O 195.104 2.71045 -2.96475 0
M  V30 1942 N 193.31 1.45054 -2.51809 0
M  V30 1943 H 192.857 0.556175 -2.51524 0
M  V30 1944 H 192.815 2.25453 -2.1913 0
M  V30 1945 N 196.587 1.43421 -0.653314 0
M  V30 1946 C 197.835 2.01414 -0.166415 0
M  V30 1947 C 198.156 1.51803 1.22397 0
M  V30 1948 O 197.426 0.730693 1.81763 0
M  V30 1949 H 196.006 0.744703 -0.0585319 0
M  V30 1950 H 198.668 1.75629 -0.845003 0
M  V30 1951 H 197.764 3.11734 -0.151111 0
M  V30 1952 N 198.065 0.39524 1.52563 0
M  V30 1953 C 198.975 -0.444232 2.30356 0
M  V30 1954 C 199.991 -1.06615 1.37511 0
M  V30 1955 O 201.167 -1.07067 1.70583 0
M  V30 1956 C 198.232 -1.55315 3.09964 0
M  V30 1957 C 197.293 -0.955734 4.18526 0
M  V30 1958 C 196.526 -2.01181 4.9433 0
M  V30 1959 O 196.749 -3.22781 4.70285 0
M  V30 1960 O 195.683 -1.62579 5.79527 0
M  V30 1961 H 199.509 0.189667 3.03107 0
M  V30 1962 H 197.094 0.1588 1.48554 0
M  V30 1963 H 198.976 -2.19724 3.59582 0
M  V30 1964 H 197.651 -2.17191 2.4002 0
M  V30 1965 H 196.558 -0.274743 3.7309 0
M  V30 1966 H 197.891 -0.381109 4.90722 0
M  V30 1967 N 199.544 -1.57102 0.125237 0
M  V30 1968 C 200.476 -2.12726 -0.853237 0
M  V30 1969 C 201.489 -1.07145 -1.22571 0
M  V30 1970 O 202.678 -1.34497 -1.17358 0
M  V30 1971 C 199.778 -2.61709 -2.15317 0
M  V30 1972 C 198.951 -3.91456 -1.95143 0
M  V30 1973 C 198.01 -4.25973 -3.08923 0
M  V30 1974 O 197.036 -4.94682 -2.81564 0
M  V30 1975 N 198.238 -3.83795 -4.35524 0
M  V30 1976 H 201.003 -2.97307 -0.377964 0
M  V30 1977 H 198.564 -1.61792 -0.0590011 0
M  V30 1978 H 200.556 -2.81826 -2.90441 0
M  V30 1979 H 199.126 -1.81974 -2.54174 0
M  V30 1980 H 198.346 -3.80185 -1.04177 0
M  V30 1981 H 199.634 -4.76283 -1.78976 0
M  V30 1982 H 199.032 -3.2839 -4.60626 0
M  V30 1983 H 197.589 -4.09008 -5.07499 0
M  V30 1984 N 201.022 0.148545 -1.56898 0
M  V30 1985 C 201.985 1.16736 -1.97244 0
M  V30 1986 C 202.985 1.35947 -0.858777 0
M  V30 1987 O 204.175 1.32966 -1.12542 0
M  V30 1988 C 201.307 2.52798 -2.28705 0
M  V30 1989 H 202.5 0.821279 -2.88435 0
M  V30 1990 H 200.053 0.391831 -1.51309 0
M  V30 1991 H 200.788 2.92381 -1.403 0
M  V30 1992 H 200.573 2.40216 -3.09901 0
M  V30 1993 H 202.063 3.26179 -2.60762 0
M  V30 1994 N 202.5 1.5196 0.417844 0
M  V30 1995 C 203.43 1.77634 1.51554 0
M  V30 1996 C 204.411 0.626918 1.58126 0
M  V30 1997 O 205.596 0.871632 1.7354 0
M  V30 1998 C 202.726 1.91911 2.8946 0
M  V30 1999 C 201.68 3.07463 2.97743 0
M  V30 2000 C 201.006 3.06951 4.37819 0
M  V30 2001 C 202.306 4.47082 2.70027 0
M  V30 2002 H 204 2.6955 1.3032 0
M  V30 2003 H 201.546 1.29706 0.625492 0
M  V30 2004 H 203.499 2.08455 3.6623 0
M  V30 2005 H 202.223 0.966598 3.11969 0
M  V30 2006 H 200.882 2.90656 2.23416 0
M  V30 2007 H 200.53 2.09438 4.57323 0
M  V30 2008 H 200.23 3.84556 4.44286 0
M  V30 2009 H 201.754 3.25613 5.16535 0
M  V30 2010 H 203.168 4.6414 3.36522 0
M  V30 2011 H 201.565 5.2654 2.87881 0
M  V30 2012 H 202.635 4.55777 1.65514 0
M  V30 2013 N 203.978 -0.674533 1.42435 0
M  V30 2014 C 204.888 -1.81751 1.48337 0
M  V30 2015 C 205.904 -1.69975 0.372099 0
M  V30 2016 O 207.08 -1.91521 0.62304 0
M  V30 2017 C 204.145 -3.17895 1.38361 0
M  V30 2018 C 203.206 -3.41625 2.59982 0
M  V30 2019 C 202.439 -4.71274 2.50473 0
M  V30 2020 O 202.662 -5.49197 1.54075 0
M  V30 2021 O 201.596 -4.96254 3.4061 0
M  V30 2022 H 205.422 -1.79728 2.44809 0
M  V30 2023 H 203.007 -0.830312 1.24202 0
M  V30 2024 H 204.889 -3.99136 1.35161 0
M  V30 2025 H 203.564 -3.20555 0.450144 0
M  V30 2026 H 202.471 -2.60231 2.68757 0
M  V30 2027 H 203.804 -3.43796 3.52229 0
M  V30 2028 N 205.456 -1.28612 -0.910864 0
M  V30 2029 C 206.705 -1.15311 -1.65488 0
M  V30 2030 C 207.018 0.296999 -1.93332 0
M  V30 2031 O 208.224 0.551168 -2.65847 0
M  V30 2032 C 206.68 -2.01599 -2.98137 0
M  V30 2033 C 206.288 -3.51367 -2.7793 0
M  V30 2034 C 208.032 -1.96993 -3.76024 0
M  V30 2035 C 205.939 -4.29797 -4.06237 0
M  V30 2036 H 204.869 -0.42796 -0.620779 0
M  V30 2037 H 207.52 -1.53166 -1.01057 0
M  V30 2038 H 205.902 -1.56603 -3.63719 0
M  V30 2039 H 207.076 -4.0434 -2.21011 0
M  V30 2040 H 205.391 -3.57529 -2.13452 0
M  V30 2041 H 207.988 -2.52856 -4.71135 0
M  V30 2042 H 208.331 -0.94733 -4.05378 0
M  V30 2043 H 208.864 -2.39973 -3.17266 0
M  V30 2044 H 205.603 -5.32648 -3.82055 0
M  V30 2045 H 205.123 -3.81596 -4.62757 0
M  V30 2046 H 206.802 -4.39869 -4.74473 0
M  V30 2047 N 206.934 1.1197 -1.10907 0
M  V30 2048 C 207.867 2.16998 -0.706192 0
M  V30 2049 C 208.845 1.59903 0.294897 0
M  V30 2050 O 210.029 1.87513 0.192636 0
M  V30 2051 C 207.156 3.38673 -0.0427664 0
M  V30 2052 C 206.202 4.14414 -1.00811 0
M  V30 2053 S 207.035 4.72079 -2.52789 0
M  V30 2054 C 208.191 5.97083 -1.87731 0
M  V30 2055 H 208.424 2.50837 -1.59587 0
M  V30 2056 H 205.957 1.23508 -0.926555 0
M  V30 2057 H 207.915 4.09142 0.333668 0
M  V30 2058 H 206.576 3.03105 0.823788 0
M  V30 2059 H 205.769 5.016 -0.491259 0
M  V30 2060 H 205.371 3.49678 -1.3267 0
M  V30 2061 H 207.663 6.66599 -1.21044 0
M  V30 2062 H 208.606 6.53403 -2.72892 0
M  V30 2063 H 209.014 5.4837 -1.33979 0
M  V30 2064 N 208.412 0.89855 1.29475 0
M  V30 2065 C 209.322 0.379974 2.31502 0
M  V30 2066 C 210.338 -0.524695 1.659 0
M  V30 2067 O 211.514 -0.414551 1.97087 0
M  V30 2068 C 208.579 -0.385138 3.44554 0
M  V30 2069 C 207.64 0.550914 4.2575 0
M  V30 2070 C 206.873 -0.177778 5.33404 0
M  V30 2071 O 207.096 -1.40189 5.52904 0
M  V30 2072 O 206.03 0.479106 5.9999 0
M  V30 2073 H 209.856 1.22639 2.77837 0
M  V30 2074 H 207.441 0.662834 1.33891 0
M  V30 2075 H 209.323 -0.817841 4.13388 0
M  V30 2076 H 207.998 -1.20763 3.0033 0
M  V30 2077 H 206.905 1.03271 3.59564 0
M  V30 2078 H 208.238 1.33979 4.73614 0
M  V30 2079 N 209.89 -1.43072 0.660911 0
M  V30 2080 C 210.82 -2.33497 -0.0122829 0
M  V30 2081 C 211.801 -1.49903 -0.803925 0
M  V30 2082 O 212.986 -1.78546 -0.763864 0
M  V30 2083 C 210.116 -3.33363 -0.973994 0
M  V30 2084 C 209.07 -4.27003 -0.291928 0
M  V30 2085 C 208.396 -5.16967 -1.36562 0
M  V30 2086 C 209.696 -5.15816 0.820462 0
M  V30 2087 H 211.39 -2.90038 0.742873 0
M  V30 2088 H 208.936 -1.39461 0.358688 0
M  V30 2089 H 210.889 -3.95524 -1.45392 0
M  V30 2090 H 209.613 -2.75095 -1.7604 0
M  V30 2091 H 208.272 -3.66217 0.167623 0
M  V30 2092 H 207.92 -4.55034 -2.14366 0
M  V30 2093 H 207.62 -5.80441 -0.914454 0
M  V30 2094 H 209.144 -5.82003 -1.84675 0
M  V30 2095 H 210.558 -5.71742 0.422366 0
M  V30 2096 H 208.955 -5.8805 1.19656 0
M  V30 2097 H 210.025 -4.55045 1.67518 0
M  V30 2098 N 211.368 -0.403325 -1.52352 0
M  V30 2099 C 212.298 0.416205 -2.29761 0
M  V30 2100 C 213.279 1.05123 -1.33728 0
M  V30 2101 O 214.464 1.06134 -1.62632 0
M  V30 2102 C 211.594 1.53624 -3.11475 0
M  V30 2103 C 210.548 1.02653 -4.15507 0
M  V30 2104 C 209.874 2.23971 -4.85532 0
M  V30 2105 C 211.174 0.08463 -5.22231 0
M  V30 2106 H 212.868 -0.229701 -2.98518 0
M  V30 2107 H 210.414 -0.111913 -1.43564 0
M  V30 2108 H 212.367 2.1165 -3.64393 0
M  V30 2109 H 211.091 2.20994 -2.40477 0
M  V30 2110 H 209.75 0.46871 -3.63591 0
M  V30 2111 H 209.398 2.89883 -4.11068 0
M  V30 2112 H 209.098 1.90521 -5.55856 0
M  V30 2113 H 210.622 2.82614 -5.41259 0
M  V30 2114 H 212.036 0.573509 -5.70424 0
M  V30 2115 H 210.433 -0.160783 -5.99885 0
M  V30 2116 H 211.503 -0.86237 -4.7717 0
M  V30 2117 N 212.846 1.57033 -0.133567 0
M  V30 2118 C 214.092 1.95976 0.521649 0
M  V30 2119 C 214.425 1.01779 1.65393 0
M  V30 2120 O 213.7 0.0576581 1.94415 0
M  V30 2121 C 213.983 3.44738 1.04057 0
M  V30 2122 C 213.836 4.49711 -0.0892897 0
M  V30 2123 C 215.155 3.95682 1.92675 0
M  V30 2124 H 212.274 0.712579 0.188149 0
M  V30 2125 H 214.916 1.88813 -0.212076 0
M  V30 2126 H 213.066 3.50973 1.66583 0
M  V30 2127 H 214.738 4.55565 -0.725152 0
M  V30 2128 H 212.981 4.27261 -0.750378 0
M  V30 2129 H 213.652 5.51099 0.315284 0
M  V30 2130 H 216.128 3.91841 1.39998 0
M  V30 2131 H 215.004 5.00262 2.25897 0
M  V30 2132 H 215.265 3.37239 2.85872 0
M  V30 2133 N 214.325 -0.140222 1.56975 0
M  V30 2134 C 215.741 -0.493088 1.51792 0
M  V30 2135 C 215.941 -1.83013 0.843116 0
M  V30 2136 O 214.997 -2.49041 0.416493 0
M  V30 2137 C 216.31 -0.497144 2.96562 0
M  V30 2138 C 217.858 -0.582186 3.07538 0
M  V30 2139 C 218.333 -0.616838 4.53827 0
M  V30 2140 N 219.824 -0.678873 4.58198 0
M  V30 2141 C 220.559 -0.726782 5.68775 0
M  V30 2142 N 220.055 -0.733623 6.88905 0
M  V30 2143 N 221.848 -0.768179 5.56826 0
M  V30 2144 H 213.999 0.736108 1.99237 0
M  V30 2145 H 216.262 0.269182 0.90898 0
M  V30 2146 H 215.968 0.417217 3.49217 0
M  V30 2147 H 215.842 -1.33263 3.52875 0
M  V30 2148 H 218.229 -1.48697 2.54899 0
M  V30 2149 H 218.31 0.280581 2.54257 0
M  V30 2150 H 217.954 0.283812 5.07106 0
M  V30 2151 H 217.884 -1.49619 5.04898 0
M  V30 2152 H 220.375 -0.68061 3.7172 0
M  V30 2153 H 220.688 -0.772215 7.68932 0
M  V30 2154 H 219.033 -0.701389 6.91452 0
M  V30 2155 H 222.224 -0.760051 4.61888 0
M  V30 2156 H 222.397 -0.80205 6.43017 0
M  V30 2157 N 215.803 -1.52179 -0.40978 0
M  V30 2158 C 217.028 -1.70347 -1.18308 0
M  V30 2159 C 217.453 -0.411887 -1.83535 0
M  V30 2160 O 216.811 0.630587 -1.6998 0
M  V30 2161 C 216.859 -2.83977 -2.22238 0
M  V30 2162 O 215.963 -2.495 -3.28365 0
M  V30 2163 H 215.304 -0.567103 -0.345384 0
M  V30 2164 H 217.834 -1.98879 -0.480445 0
M  V30 2165 H 217.844 -3.0887 -2.66577 0
M  V30 2166 H 216.519 -3.77685 -1.74146 0
M  V30 2167 H 215.096 -2.35277 -2.89308 0
M  V30 2168 N 217.281 0.66697 -1.42791 0
M  V30 2169 C 218.529 1.42417 -1.43394 0
M  V30 2170 C 218.85 1.94925 -0.0542373 0
M  V30 2171 O 218.12 1.73564 0.908415 0
M  V30 2172 H 216.7 0.528515 -0.527902 0
M  V30 2173 H 219.362 0.787562 -1.78279 0
M  V30 2174 H 218.458 2.27333 -2.13837 0
M  V30 2175 N 218.759 1.29093 0.90403 0
M  V30 2176 C 219.722 1.1386 1.98919 0
M  V30 2177 C 220.722 0.0753457 1.60623 0
M  V30 2178 O 221.912 0.321931 1.71199 0
M  V30 2179 C 219.044 0.740198 3.32767 0
M  V30 2180 H 220.237 2.10246 2.13861 0
M  V30 2181 H 217.79 1.12218 1.08797 0
M  V30 2182 H 218.525 -0.223997 3.23525 0
M  V30 2183 H 218.31 1.50838 3.61926 0
M  V30 2184 H 219.8 0.656546 4.12407 0
M  V30 2185 N 220.237 -1.11381 1.11499 0
M  V30 2186 C 221.486 -1.82494 0.858993 0
M  V30 2187 C 221.799 -1.85605 -0.617278 0
M  V30 2188 O 223.005 -2.52824 -0.989552 0
M  V30 2189 C 221.461 -3.27745 1.48699 0
M  V30 2190 C 221.069 -3.32961 2.99735 0
M  V30 2191 C 222.813 -4.03754 1.31085 0
M  V30 2192 C 220.72 -4.72612 3.55516 0
M  V30 2193 H 219.65 -0.683802 0.317696 0
M  V30 2194 H 222.301 -1.25331 1.34031 0
M  V30 2195 H 220.683 -3.84844 0.933339 0
M  V30 2196 H 221.857 -2.85741 3.61509 0
M  V30 2197 H 220.172 -2.70433 3.16631 0
M  V30 2198 H 222.769 -5.06891 1.70192 0
M  V30 2199 H 223.112 -4.15527 0.253496 0
M  V30 2200 H 223.645 -3.53043 1.83318 0
M  V30 2201 H 220.384 -4.66036 4.60967 0
M  V30 2202 H 219.904 -5.2024 2.98513 0
M  V30 2203 H 221.583 -5.4157 3.53992 0
M  V30 2204 N 221.715 -0.905404 -1.28997 0
M  V30 2205 C 222.992 -0.453513 -1.9027 0
M  V30 2206 C 223.372 1.06721 -1.82137 0
M  V30 2207 O 222.72 1.91159 -1.25182 0
M  V30 2208 C 222.93 -0.974494 -3.35119 0
M  V30 2209 C 224.278 -1.0216 -4.12127 0
M  V30 2210 O 225.302 -0.922557 -3.44046 0
M  V30 2211 O 224.161 -1.17121 -5.33802 0
M  V30 2212 H 221.255 -0.142347 -0.814657 0
M  V30 2213 H 223.801 -0.995642 -1.37423 0
M  V30 2214 H 222.573 -2.01848 -3.35221 0
M  V30 2215 H 222.196 -0.412706 -3.95452 0
M  V30 2216 N 223.193 1.4272 -0.668489 0
M  V30 2217 C 224.439 2.01923 -0.188419 0
M  V30 2218 C 224.772 1.52704 1.19979 0
M  V30 2219 O 224.047 0.726566 1.8042 0
M  V30 2220 C 224.33 3.59451 -0.216085 0
M  V30 2221 C 224.183 4.18864 -1.6393 0
M  V30 2222 C 225.502 4.37903 0.439179 0
M  V30 2223 H 222.621 0.733674 -0.0699412 0
M  V30 2224 H 225.263 1.69822 -0.852076 0
M  V30 2225 H 223.413 3.86929 0.349012 0
M  V30 2226 H 225.085 4.02362 -2.25616 0
M  V30 2227 H 223.328 3.74933 -2.18193 0
M  V30 2228 H 223.999 5.27987 -1.61039 0
M  V30 2229 H 226.475 4.16079 -0.0417878 0
M  V30 2230 H 225.351 5.47519 0.389157 0
M  V30 2231 H 225.612 4.15303 1.51577 0
M  V30 2232 N 224.671 0.411399 1.52136 0
M  V30 2233 C 225.917 -0.163888 2.02137 0
M  V30 2234 C 226.25 -1.44597 1.29636 0
M  V30 2235 O 225.525 -1.90272 0.403353 0
M  V30 2236 C 225.808 -0.40927 3.57767 0
M  V30 2237 C 225.661 0.889643 4.40914 0
M  V30 2238 C 226.98 -1.19042 4.23694 0
M  V30 2239 H 224.099 -0.0580896 0.734707 0
M  V30 2240 H 226.741 0.54531 1.82007 0
M  V30 2241 H 224.891 -1.0134 3.7505 0
M  V30 2242 H 226.563 1.52575 4.35337 0
M  V30 2243 H 224.806 1.50011 4.07037 0
M  V30 2244 H 225.477 0.672314 5.4789 0
M  V30 2245 H 227.953 -0.678942 4.10524 0
M  V30 2246 H 226.829 -1.33086 5.32522 0
M  V30 2247 H 227.09 -2.21166 3.82803 0
M  V30 2248 N 226.149 -1.5696 0.141893 0
M  V30 2249 C 227.395 -1.9625 -0.511248 0
M  V30 2250 C 227.728 -1.02654 -1.64851 0
M  V30 2251 O 227.003 -0.0679676 -1.94381 0
M  V30 2252 C 227.286 -3.45285 -1.02227 0
M  V30 2253 C 227.139 -4.49658 0.113138 0
M  V30 2254 C 228.458 -3.96698 -1.90574 0
M  V30 2255 H 225.577 -0.713567 -0.184367 0
M  V30 2256 H 228.219 -1.88698 0.222087 0
M  V30 2257 H 226.369 -3.51852 -1.64719 0
M  V30 2258 H 228.041 -4.55174 0.749302 0
M  V30 2259 H 226.284 -4.26857 0.773026 0
M  V30 2260 H 226.955 -5.51258 -0.286053 0
M  V30 2261 H 229.431 -3.92578 -1.37918 0
M  V30 2262 H 228.307 -5.01453 -2.2324 0
M  V30 2263 H 228.568 -3.3875 -2.84079 0
M  V30 2264 N 227.627 0.131896 -1.57047 0
M  V30 2265 C 228.873 0.843179 -1.84441 0
M  V30 2266 C 229.206 1.80129 -0.725749 0
M  V30 2267 O 228.481 1.92624 0.269469 0
M  V30 2268 C 228.764 1.60442 -3.22382 0
M  V30 2269 C 228.617 0.666782 -4.4483 0
M  V30 2270 C 229.936 2.56354 -3.5773 0
M  V30 2271 H 227.055 0.305081 -0.670891 0
M  V30 2272 H 229.697 0.107839 -1.89694 0
M  V30 2273 H 227.847 2.23128 -3.18035 0
M  V30 2274 H 229.519 0.0497646 -4.61273 0
M  V30 2275 H 227.762 -0.022609 -4.33794 0
M  V30 2276 H 228.433 1.23579 -5.37989 0
M  V30 2277 H 230.909 2.0378 -3.62785 0
M  V30 2278 H 229.785 3.06657 -4.5525 0
M  V30 2279 H 230.046 3.38419 -2.84473 0
M  V30 2280 N 229.106 1.52395 0.401703 0
M  V30 2281 C 230.383 1.57387 1.16141 0
M  V30 2282 C 230.763 0.359359 2.08019 0
M  V30 2283 O 230.111 -0.65326 2.18963 0
M  V30 2284 C 230.321 2.90631 1.93221 0
M  V30 2285 C 231.669 3.43904 2.49028 0
M  V30 2286 O 232.693 2.92421 2.03393 0
M  V30 2287 O 231.552 4.33823 3.32356 0
M  V30 2288 H 228.646 0.634262 0.530698 0
M  V30 2289 H 231.192 1.64725 0.407883 0
M  V30 2290 H 229.964 3.70473 1.25958 0
M  V30 2291 H 229.587 2.8662 2.75563 0
M  V30 2292 N 230.584 -0.659388 1.43143 0
M  V30 2293 C 231.809 -1.45221 1.48073 0
M  V30 2294 C 232.234 -1.87845 0.097995 0
M  V30 2295 O 231.592 -1.56985 -0.90694 0
M  V30 2296 C 231.64 -2.66748 2.42647 0
M  V30 2297 O 230.744 -3.65583 1.90848 0
M  V30 2298 H 230.085 -0.435669 0.501088 0
M  V30 2299 H 232.615 -0.807432 1.87994 0
M  V30 2300 H 232.625 -3.14637 2.59745 0
M  V30 2301 H 231.3 -2.35067 3.43098 0
M  V30 2302 H 229.877 -3.24693 1.83381 0
M  V30 2303 N 232.062 -1.29571 -0.897171 0
M  V30 2304 C 233.308 -1.17863 -1.65034 0
M  V30 2305 C 233.641 0.268729 -1.92332 0
M  V30 2306 O 232.916 1.19378 -1.53555 0
M  V30 2307 C 233.199 -1.995 -2.99786 0
M  V30 2308 C 233.052 -3.5239 -2.79538 0
M  V30 2309 C 234.371 -1.82335 -4.00552 0
M  V30 2310 H 231.49 -0.429528 -0.598895 0
M  V30 2311 H 234.132 -1.59072 -1.03905 0
M  V30 2312 H 232.282 -1.64485 -3.51962 0
M  V30 2313 H 233.954 -3.97401 -2.34244 0
M  V30 2314 H 232.197 -3.77187 -2.14273 0
M  V30 2315 H 232.868 -4.04787 -3.75302 0
M  V30 2316 H 235.344 -2.12924 -3.57495 0
M  V30 2317 H 234.22 -2.41801 -4.92771 0
M  V30 2318 H 234.481 -0.779209 -4.35179 0
M  V30 2319 N 233.54 1.10788 -1.12088 0
M  V30 2320 C 234.503 2.15207 -0.788577 0
M  V30 2321 C 235.503 1.59609 0.195317 0
M  V30 2322 O 236.693 1.74174 -0.0300193 0
M  V30 2323 C 233.825 3.4047 -0.171174 0
M  V30 2324 H 235.018 2.46116 -1.71368 0
M  V30 2325 H 232.571 1.26089 -0.923652 0
M  V30 2326 H 233.306 3.15176 0.763832 0
M  V30 2327 H 233.091 3.82109 -0.879514 0
M  V30 2328 H 234.581 4.17576 0.04496 0
M  V30 2329 N 235.018 0.912232 1.28515 0
M  V30 2330 C 235.981 0.404223 2.25607 0
M  V30 2331 C 236.981 -0.468602 1.53821 0
M  V30 2332 O 238.171 -0.271873 1.72065 0
M  V30 2333 C 235.303 -0.420653 3.38295 0
M  V30 2334 H 236.496 1.26188 2.7206 0
M  V30 2335 H 234.049 0.691495 1.40171 0
M  V30 2336 H 234.784 -1.29777 2.97201 0
M  V30 2337 H 234.569 0.204935 3.91564 0
M  V30 2338 H 236.059 -0.766971 4.10496 0
M  V30 2339 N 236.496 -1.42363 0.676048 0
M  V30 2340 C 237.426 -2.33497 0.0124832 0
M  V30 2341 C 238.407 -1.50748 -0.787981 0
M  V30 2342 O 239.592 -1.79346 -0.744884 0
M  V30 2343 C 236.722 -3.34377 -0.938582 0
M  V30 2344 C 235.676 -4.27289 -0.246622 0
M  V30 2345 C 235.002 -5.18386 -1.31071 0
M  V30 2346 C 236.302 -5.14916 0.875125 0
M  V30 2347 H 237.996 -2.89233 0.773593 0
M  V30 2348 H 235.542 -1.39073 0.37346 0
M  V30 2349 H 237.495 -3.97044 -1.41188 0
M  V30 2350 H 236.219 -2.76947 -1.73113 0
M  V30 2351 H 234.878 -3.66018 0.206456 0
M  V30 2352 H 234.526 -4.57282 -2.09528 0
M  V30 2353 H 234.226 -5.81378 -0.852839 0
M  V30 2354 H 235.75 -5.83929 -1.78492 0
M  V30 2355 H 237.164 -5.71262 0.482983 0
M  V30 2356 H 235.561 -5.86747 1.25887 0
M  V30 2357 H 236.631 -4.53242 1.72335 0
M  V30 2358 N 237.974 -0.419461 -1.51915 0
M  V30 2359 C 239.202 0.152136 -2.0634 0
M  V30 2360 C 239.617 1.37988 -1.28859 0
M  V30 2361 O 238.974 1.79243 -0.343232 0
M  V30 2362 C 239.025 0.492266 -3.58133 0
M  V30 2363 O 238.746 -0.686736 -4.32684 0
M  V30 2364 C 240.247 1.11648 -4.2901 0
M  V30 2365 H 237.467 0.0158325 -0.670813 0
M  V30 2366 H 240.011 -0.593394 -1.95702 0
M  V30 2367 H 238.166 1.18769 -3.68745 0
M  V30 2368 H 238.58 -0.400341 -5.2297 0
M  V30 2369 H 240.054 1.3046 -5.36362 0
M  V30 2370 H 240.531 2.09251 -3.86148 0
M  V30 2371 H 241.137 0.460958 -4.22795 0
M  V30 2372 N 239.452 1.56882 -0.150215 0
M  V30 2373 C 240.863 1.82995 0.370076 0
M  V30 2374 C 241.214 1.06907 1.64515 0
M  V30 2375 O 240.339 0.315369 2.1409 0
M  V30 2376 C 240.934 3.31942 0.678208 0
M  V30 2377 C 239.493 3.58625 1.14301 0
M  V30 2378 C 238.64 2.76792 0.167778 0
M  V30 2379 H 241.591 1.54209 -0.374858 0
M  V30 2380 H 241.612 3.48272 1.53254 0
M  V30 2381 H 241.124 3.87294 -0.249991 0
M  V30 2382 H 239.225 3.08664 2.08704 0
M  V30 2383 H 239.338 4.67073 1.06676 0
M  V30 2384 H 237.702 2.45972 0.661037 0
M  V30 2385 H 238.485 3.34916 -0.754069 0
M  V30 2386 N 240.93 -0.123565 1.57115 0
M  V30 2387 C 242.346 -0.476961 1.52306 0
M  V30 2388 C 242.546 -1.82109 0.86248 0
M  V30 2389 O 241.602 -2.48586 0.442884 0
M  V30 2390 C 242.915 -0.465661 2.97073 0
M  V30 2391 C 244.463 -0.549534 3.08138 0
M  V30 2392 C 244.938 -0.568669 4.54456 0
M  V30 2393 N 246.429 -0.630237 4.58892 0
M  V30 2394 C 247.164 -0.666415 5.69514 0
M  V30 2395 N 246.66 -0.660514 6.89644 0
M  V30 2396 N 248.453 -0.709077 5.5761 0
M  V30 2397 H 240.604 0.757198 1.98445 0
M  V30 2398 H 242.867 0.278808 0.906074 0
M  V30 2399 H 242.573 0.454232 3.48754 0
M  V30 2400 H 242.447 -1.29513 3.54269 0
M  V30 2401 H 244.834 -1.45985 2.56461 0
M  V30 2402 H 244.915 0.307532 2.53945 0
M  V30 2403 H 244.559 0.337581 5.06777 0
M  V30 2404 H 244.489 -1.44256 5.06456 0
M  V30 2405 H 246.98 -0.641146 3.72421 0
M  V30 2406 H 247.293 -0.690616 7.69708 0
M  V30 2407 H 245.638 -0.628012 6.92157 0
M  V30 2408 H 248.829 -0.711019 4.62668 0
M  V30 2409 H 249.002 -0.733804 6.43832 0
M  V30 2410 N 242.408 -1.52605 -0.393616 0
M  V30 2411 C 243.371 -1.76415 -1.46323 0
M  V30 2412 C 244.371 -0.634126 -1.47768 0
M  V30 2413 O 245.561 -0.902142 -1.4902 0
M  V30 2414 C 242.693 -1.8607 -2.85641 0
M  V30 2415 H 243.886 -2.71916 -1.26498 0
M  V30 2416 H 241.439 -1.43257 -0.625073 0
M  V30 2417 H 242.174 -0.925378 -3.10817 0
M  V30 2418 H 241.959 -2.68235 -2.85993 0
M  V30 2419 H 243.449 -2.06179 -3.63153 0
M  V30 2420 N 243.887 0.651787 -1.4349 0
M  V30 2421 C 244.797 1.79368 -1.5121 0
M  V30 2422 C 245.813 1.69361 -0.399093 0
M  V30 2423 O 246.989 1.90505 -0.653431 0
M  V30 2424 C 244.054 3.15653 -1.43401 0
M  V30 2425 C 243.115 3.37446 -2.65384 0
M  V30 2426 C 242.348 4.67229 -2.57939 0
M  V30 2427 O 242.571 5.46676 -1.62792 0
M  V30 2428 O 241.505 4.90773 -3.48462 0
M  V30 2429 H 245.331 1.7581 -2.47638 0
M  V30 2430 H 242.916 0.810447 -1.25507 0
M  V30 2431 H 244.798 3.96935 -1.41494 0
M  V30 2432 H 243.473 3.19798 -0.501085 0
M  V30 2433 H 242.38 2.55923 -2.72863 0
M  V30 2434 H 243.713 3.38148 -3.57654 0
M  V30 2435 N 245.365 1.30045 0.890287 0
M  V30 2436 C 246.614 1.17929 1.63633 0
M  V30 2437 C 246.927 -0.266204 1.9378 0
M  V30 2438 O 248.133 -0.508804 2.6669 0
M  V30 2439 C 246.589 2.06317 2.94892 0
M  V30 2440 C 246.197 3.55745 2.72305 0
M  V30 2441 C 247.941 2.0295 3.72843 0
M  V30 2442 C 245.848 4.36205 3.99348 0
M  V30 2443 H 244.778 0.437782 0.613892 0
M  V30 2444 H 247.429 1.54754 0.986075 0
M  V30 2445 H 245.811 1.6237 3.61182 0
M  V30 2446 H 246.985 4.07805 2.1455 0
M  V30 2447 H 245.3 3.6088 2.07737 0
M  V30 2448 H 247.897 2.60319 4.67053 0
M  V30 2449 H 248.24 1.0117 4.0382 0
M  V30 2450 H 248.773 2.4499 3.13408 0
M  V30 2451 H 245.512 5.38659 3.73533 0
M  V30 2452 H 245.032 3.8891 4.56628 0
M  V30 2453 H 246.711 4.47362 4.67415 0
M  V30 2454 N 246.843 -1.10192 1.12674 0
M  V30 2455 C 247.753 -2.20172 0.810026 0
M  V30 2456 C 248.769 -1.72821 -0.202188 0
M  V30 2457 O 249.945 -2.01369 -0.0351691 0
M  V30 2458 C 247.01 -3.45631 0.272007 0
M  V30 2459 C 246.071 -4.07704 1.34447 0
M  V30 2460 C 245.304 -5.27175 0.832029 0
M  V30 2461 O 245.527 -5.69425 -0.333284 0
M  V30 2462 O 244.461 -5.80168 1.60277 0
M  V30 2463 H 248.287 -2.49701 1.72867 0
M  V30 2464 H 245.872 -1.18977 0.903597 0
M  V30 2465 H 247.754 -4.21394 -0.0230219 0
M  V30 2466 H 246.429 -3.17723 -0.619164 0
M  V30 2467 H 245.336 -3.33614 1.6927 0
M  V30 2468 H 246.669 -4.3982 2.2095 0
M  V30 2469 N 248.321 -0.919034 -1.28029 0
M  V30 2470 C 249.569 -0.553838 -1.94363 0
M  V30 2471 C 249.89 0.906357 -1.72656 0
M  V30 2472 O 249.16 1.64143 -1.0693 0
M  V30 2473 H 247.74 -0.201834 -0.719216 0
M  V30 2474 H 250.402 -1.16954 -1.55909 0
M  V30 2475 H 249.498 -0.752758 -3.02886 0
M  V30 2476 N 249.799 1.42003 -0.683588 0
M  V30 2477 C 251.076 1.95112 -0.138075 0
M  V30 2478 C 251.456 1.62359 1.34918 0
M  V30 2479 O 250.804 0.924311 2.08971 0
M  V30 2480 C 251.014 3.46505 -0.416581 0
M  V30 2481 C 252.362 4.23254 -0.337834 0
M  V30 2482 O 253.386 3.54468 -0.35082 0
M  V30 2483 O 252.245 5.45743 -0.287596 0
M  V30 2484 H 249.339 0.826961 -0.00797996 0
M  V30 2485 H 251.885 1.51784 -0.758924 0
M  V30 2486 H 250.657 3.63582 -1.4465 0
M  V30 2487 H 250.28 3.969 0.235839 0
M  V30 2488 N 251.277 0.427512 1.51691 0
M  V30 2489 C 252.21 -0.433876 2.24037 0
M  V30 2490 C 253.188 -1.03287 1.25581 0
M  V30 2491 O 254.372 -1.07722 1.54688 0
M  V30 2492 C 251.499 -1.60385 2.98319 0
M  V30 2493 C 250.545 -1.12648 4.11355 0
M  V30 2494 S 251.378 -0.076543 5.35445 0
M  V30 2495 C 252.534 -1.25141 6.13262 0
M  V30 2496 H 252.767 0.180367 2.96752 0
M  V30 2497 H 250.3 0.211946 1.52938 0
M  V30 2498 H 252.258 -2.27462 3.41718 0
M  V30 2499 H 250.919 -2.18948 2.25213 0
M  V30 2500 H 250.112 -2.0011 4.62571 0
M  V30 2501 H 249.714 -0.534088 3.70167 0
M  V30 2502 H 252.006 -2.17162 6.41753 0
M  V30 2503 H 252.949 -0.779411 7.03797 0
M  V30 2504 H 253.357 -1.48553 5.44603 0
M  V30 2505 N 252.755 -1.56801 0.158532 0
M  V30 2506 C 254.003 -1.96102 -0.488712 0
M  V30 2507 C 254.324 -1.04498 -1.64636 0
M  V30 2508 O 253.594 -0.108783 -1.95598 0
M  V30 2509 H 252.174 -0.724102 -0.183535 0
M  V30 2510 H 254.836 -1.93457 0.236728 0
M  V30 2511 H 253.932 -3.00097 -0.857219 0
M  V30 2512 N 254.233 0.115231 -1.57178 0
M  V30 2513 C 255.51 0.852873 -1.76027 0
M  V30 2514 C 255.89 1.97892 -0.73498 0
M  V30 2515 O 255.238 2.27232 0.24036 0
M  V30 2516 C 255.448 1.36608 -3.21153 0
M  V30 2517 C 256.796 1.81692 -3.83762 0
M  V30 2518 O 257.82 1.46278 -3.24779 0
M  V30 2519 O 256.679 2.47104 -4.87444 0
M  V30 2520 H 253.773 0.405296 -0.720877 0
M  V30 2521 H 256.319 0.0986785 -1.69413 0
M  V30 2522 H 255.091 0.558357 -3.87296 0
M  V30 2523 H 254.714 2.18287 -3.3232 0
M  V30 2524 N 255.711 1.52812 0.385517 0
M  V30 2525 C 256.936 1.72207 1.15583 0
M  V30 2526 C 257.361 0.441034 1.82857 0
M  V30 2527 O 256.719 -0.603465 1.70962 0
M  V30 2528 C 256.767 2.87476 2.17692 0
M  V30 2529 O 255.871 2.54693 3.24354 0
M  V30 2530 H 255.212 0.572526 0.336319 0
M  V30 2531 H 257.742 1.99618 0.448744 0
M  V30 2532 H 257.752 3.13072 2.6163 0
M  V30 2533 H 256.427 3.80408 1.68115 0
M  V30 2534 H 255.004 2.3985 2.85529 0
M  V30 2535 N 257.189 -0.644168 1.43834 0
M  V30 2536 C 258.119 -1.76814 1.52509 0
M  V30 2537 C 259.1 -1.65823 0.379052 0
M  V30 2538 O 260.285 -1.84781 0.597466 0
M  V30 2539 C 257.415 -3.15288 1.4564 0
M  V30 2540 C 256.369 -3.41053 2.58586 0
M  V30 2541 C 255.695 -4.79421 2.36769 0
M  V30 2542 C 256.995 -3.34902 4.00797 0
M  V30 2543 H 258.689 -1.69812 2.46586 0
M  V30 2544 H 256.235 -0.815542 1.1868 0
M  V30 2545 H 258.188 -3.93681 1.50311 0
M  V30 2546 H 256.912 -3.23043 0.480725 0
M  V30 2547 H 255.571 -2.65035 2.53282 0
M  V30 2548 H 255.219 -4.83863 1.37424 0
M  V30 2549 H 254.919 -4.9762 3.12487 0
M  V30 2550 H 256.443 -5.6006 2.43238 0
M  V30 2551 H 257.857 -4.03218 4.07539 0
M  V30 2552 H 256.254 -3.64637 4.76613 0
M  V30 2553 H 257.324 -2.32928 4.25291 0
M  V30 2554 N 258.668 -1.30515 -0.883378 0
M  V30 2555 C 260.079 -1.17509 -1.45081 0
M  V30 2556 C 260.43 0.223605 -1.94922 0
M  V30 2557 O 259.555 1.12041 -1.85137 0
M  V30 2558 C 260.15 -2.12715 -2.63701 0
M  V30 2559 C 258.709 -2.03682 -3.16529 0
M  V30 2560 C 257.856 -2.02706 -1.89224 0
M  V30 2561 H 260.807 -1.42762 -0.693165 0
M  V30 2562 H 260.828 -1.70891 -3.39965 0
M  V30 2563 H 260.34 -3.14505 -2.27395 0
M  V30 2564 H 258.441 -1.05039 -3.57488 0
M  V30 2565 H 258.554 -2.92146 -3.7972 0
M  V30 2566 H 256.918 -1.4753 -2.07622 0
M  V30 2567 H 257.701 -3.06229 -1.55174 0
M  V30 2568 N 260.146 1.09593 -1.13257 0
M  V30 2569 C 261.394 1.81375 -0.891492 0
M  V30 2570 C 261.715 1.86049 0.584009 0
M  V30 2571 O 260.985 1.34481 1.42449 0
M  V30 2572 H 259.565 0.671708 -0.326828 0
M  V30 2573 H 262.227 1.3256 -1.42877 0
M  V30 2574 H 261.323 2.84612 -1.28071 0
M  V30 2575 N 261.624 0.925811 1.2754 0
M  V30 2576 C 262.554 0.440748 2.29303 0
M  V30 2577 C 263.535 -0.497971 1.62648 0
M  V30 2578 O 264.72 -0.403126 1.8997 0
M  V30 2579 C 261.85 -0.309048 3.45922 0
M  V30 2580 C 260.804 0.54166 4.24559 0
M  V30 2581 C 260.13 -0.337191 5.33636 0
M  V30 2582 C 261.43 1.80516 4.90114 0
M  V30 2583 H 263.124 1.29121 2.70126 0
M  V30 2584 H 260.67 0.622323 1.29858 0
M  V30 2585 H 262.623 -0.659315 4.1621 0
M  V30 2586 H 261.347 -1.19352 3.04011 0
M  V30 2587 H 260.006 0.874609 3.56014 0
M  V30 2588 H 259.654 -1.22056 4.87966 0
M  V30 2589 H 259.354 0.228497 5.87156 0
M  V30 2590 H 260.878 -0.683072 6.06767 0
M  V30 2591 H 262.292 1.52307 5.52698 0
M  V30 2592 H 260.689 2.3142 5.53683 0
M  V30 2593 H 261.759 2.52581 4.13921 0
M  V30 2594 N 263.102 -1.41638 0.69111 0
M  V30 2595 C 264.034 -2.29194 -0.0161523 0
M  V30 2596 C 265.047 -1.44549 -0.748955 0
M  V30 2597 O 266.236 -1.681 -0.6004 0
M  V30 2598 C 263.336 -3.22325 -1.0469 0
M  V30 2599 C 262.509 -4.35706 -0.384621 0
M  V30 2600 C 261.568 -5.09443 -1.31737 0
M  V30 2601 O 260.594 -5.63386 -0.811451 0
M  V30 2602 N 261.796 -5.16487 -2.64993 0
M  V30 2603 H 264.561 -2.90534 0.735523 0
M  V30 2604 H 262.122 -1.52742 0.53679 0
M  V30 2605 H 264.114 -3.68522 -1.67252 0
M  V30 2606 H 262.684 -2.62323 -1.70015 0
M  V30 2607 H 261.904 -3.91948 0.420804 0
M  V30 2608 H 263.192 -5.08743 0.0760765 0
M  V30 2609 H 262.59 -4.741 -3.08619 0
M  V30 2610 H 261.147 -5.66276 -3.22761 0
M  V30 2611 N 264.58 -0.43555 -1.51462 0
M  V30 2612 C 265.543 0.365137 -2.26273 0
M  V30 2613 C 266.543 0.951227 -1.29647 0
M  V30 2614 O 267.733 0.825958 -1.53374 0
M  V30 2615 C 264.865 1.51645 -3.05314 0
M  V30 2616 H 266.058 -0.290474 -2.9849 0
M  V30 2617 H 263.611 -0.188676 -1.55157 0
M  V30 2618 H 264.346 2.20816 -2.3751 0
M  V30 2619 H 264.131 1.10238 -3.76284 0
M  V30 2620 H 265.621 2.08218 -3.61987 0
M  V30 2621 N 266.058 1.56714 -0.166846 0
M  V30 2622 C 267.474 1.58473 0.189372 0
M  V30 2623 C 267.674 1.18201 1.63189 0
M  V30 2624 O 266.73 0.891528 2.36237 0
M  V30 2625 C 268.043 3.00573 -0.0873872 0
M  V30 2626 C 269.591 3.1299 -0.0252443 0
M  V30 2627 C 270.066 4.57174 -0.274934 0
M  V30 2628 N 271.557 4.62665 -0.222553 0
M  V30 2629 C 272.292 5.72072 -0.389985 0
M  V30 2630 N 271.788 6.90054 -0.616229 0
M  V30 2631 N 273.581 5.61153 -0.326202 0
M  V30 2632 H 265.732 1.8118 -1.10849 0
M  V30 2633 H 267.995 0.839525 -0.440342 0
M  V30 2634 H 267.701 3.34497 -1.0865 0
M  V30 2635 H 267.575 3.72019 0.623037 0
M  V30 2636 H 269.962 2.78895 0.96444 0
M  V30 2637 H 270.043 2.43989 -0.768309 0
M  V30 2638 H 269.687 4.91976 -1.26181 0
M  V30 2639 H 269.617 5.24328 0.48869 0
M  V30 2640 H 272.108 3.77863 -0.0531512 0
M  V30 2641 H 272.421 7.69311 -0.733559 0
M  V30 2642 H 270.766 6.91927 -0.652791 0
M  V30 2643 H 273.957 4.67859 -0.150072 0
M  V30 2644 H 274.13 6.46364 -0.460116 0
M  V30 2645 N 267.536 -0.106894 1.57237 0
M  V30 2646 C 268.466 -1.13148 2.04254 0
M  V30 2647 C 269.447 -1.42476 0.929224 0
M  V30 2648 O 270.632 -1.52709 1.19973 0
M  V30 2649 C 267.762 -2.4545 2.45706 0
M  V30 2650 C 266.716 -2.30558 3.60592 0
M  V30 2651 C 266.042 -3.67931 3.87983 0
M  V30 2652 C 267.342 -1.75597 4.91897 0
M  V30 2653 H 269.036 -0.740374 2.90101 0
M  V30 2654 H 266.582 -0.354696 1.39563 0
M  V30 2655 H 268.535 -3.17389 2.77205 0
M  V30 2656 H 267.259 -2.86475 1.56843 0
M  V30 2657 H 265.918 -1.61067 3.29322 0
M  V30 2658 H 265.566 -4.06462 2.96306 0
M  V30 2659 H 265.266 -3.58817 4.65322 0
M  V30 2660 H 266.79 -4.41356 4.21945 0
M  V30 2661 H 268.204 -2.37364 5.21854 0
M  V30 2662 H 266.601 -1.77272 5.73319 0
M  V30 2663 H 267.671 -0.714451 4.79608 0
M  V30 2664 N 269.014 -1.53014 -0.377408 0
M  V30 2665 C 269.947 -1.73382 -1.48371 0
M  V30 2666 C 270.925 -0.581879 -1.51832 0
M  V30 2667 O 272.109 -0.81307 -1.70063 0
M  V30 2668 C 269.236 -1.80192 -2.8679 0
M  V30 2669 C 268.282 -3.02056 -3.01105 0
M  V30 2670 S 269.115 -4.61811 -2.71093 0
M  V30 2671 C 270.271 -4.71453 -4.11683 0
M  V30 2672 H 270.504 -2.66946 -1.30872 0
M  V30 2673 H 268.037 -1.43453 -0.571012 0
M  V30 2674 H 269.995 -1.84802 -3.6655 0
M  V30 2675 H 268.656 -0.877008 -3.01608 0
M  V30 2676 H 267.849 -3.03396 -4.02451 0
M  V30 2677 H 267.451 -2.95498 -2.29253 0
M  V30 2678 H 269.743 -4.50781 -5.0577 0
M  V30 2679 H 270.686 -5.73487 -4.15353 0
M  V30 2680 H 271.094 -4.00189 -3.98132 0
M  V30 2681 N 270.492 0.636531 -1.44174 0
M  V30 2682 C 271.717 1.42847 -1.50364 0
M  V30 2683 C 272.142 1.87665 -0.127867 0
M  V30 2684 O 271.5 1.58408 0.88185 0
M  V30 2685 C 271.548 2.62854 -2.4686 0
M  V30 2686 O 270.652 3.62501 -1.9664 0
M  V30 2687 H 269.993 0.427642 -0.507955 0
M  V30 2688 H 272.523 0.777422 -1.89255 0
M  V30 2689 H 272.533 3.10465 -2.64718 0
M  V30 2690 H 271.208 2.29578 -3.46795 0
M  V30 2691 H 269.785 3.21735 -1.88523 0
M  V30 2692 N 271.97 1.30982 0.876444 0
M  V30 2693 C 272.902 1.13902 1.98894 0
M  V30 2694 C 273.915 0.0798815 1.62604 0
M  V30 2695 O 275.104 0.326743 1.75484 0
M  V30 2696 C 272.204 0.716699 3.31235 0
M  V30 2697 C 271.377 1.85945 3.95908 0
M  V30 2698 C 270.436 1.42426 5.06558 0
M  V30 2699 O 269.462 2.13287 5.27729 0
M  V30 2700 N 270.664 0.308025 5.79682 0
M  V30 2701 H 273.429 2.09724 2.14094 0
M  V30 2702 H 270.99 1.2323 1.05004 0
M  V30 2703 H 272.982 0.408403 4.02634 0
M  V30 2704 H 271.552 -0.149719 3.12241 0
M  V30 2705 H 270.772 2.33541 3.17573 0
M  V30 2706 H 272.06 2.62503 4.35855 0
M  V30 2707 H 271.458 -0.282241 5.64995 0
M  V30 2708 H 270.015 0.0592282 6.51773 0
M  V30 2709 N 273.449 -1.08991 1.13837 0
M  V30 2710 C 274.412 -2.13925 0.822715 0
M  V30 2711 C 275.412 -1.599 -0.1699 0
M  V30 2712 O 276.602 -1.74104 0.0577251 0
M  V30 2713 C 273.734 -3.40155 0.225318 0
M  V30 2714 H 274.927 -2.43358 1.75262 0
M  V30 2715 H 272.48 -1.24603 0.943594 0
M  V30 2716 H 273.215 -3.16352 -0.713594 0
M  V30 2717 H 273 -3.80661 0.940193 0
M  V30 2718 H 274.49 -4.17594 0.0214784 0
M  V30 2719 N 274.927 -0.932562 -1.27047 0
M  V30 2720 C 275.857 -0.452902 -2.29066 0
M  V30 2721 C 276.838 0.489338 -1.62909 0
M  V30 2722 O 278.023 0.393046 -1.90181 0
M  V30 2723 C 275.153 0.290698 -3.46081 0
M  V30 2724 C 274.107 -0.564168 -4.24265 0
M  V30 2725 C 273.433 0.308886 -5.33807 0
M  V30 2726 C 274.733 -1.83112 -4.89149 0
M  V30 2727 H 276.427 -1.30552 -2.69437 0
M  V30 2728 H 273.973 -0.629201 -1.29526 0
M  V30 2729 H 275.926 0.637233 -4.16554 0
M  V30 2730 H 274.65 1.17738 -3.0464 0
M  V30 2731 H 273.309 -0.893477 -3.55545 0
M  V30 2732 H 272.957 1.19467 -4.88607 0
M  V30 2733 H 272.657 -0.259633 -5.87026 0
M  V30 2734 H 274.181 0.650884 -6.07121 0
M  V30 2735 H 275.595 -1.55236 -5.51883 0
M  V30 2736 H 273.992 -2.34353 -5.52448 0
M  V30 2737 H 275.062 -2.54772 -4.12576 0
M  V30 2738 N 276.405 1.4127 -0.698611 0
M  V30 2739 C 277.821 1.55241 -0.370462 0
M  V30 2740 C 278.021 1.67351 1.12231 0
M  V30 2741 O 277.077 1.65363 1.90818 0
M  V30 2742 C 278.39 2.78997 -1.12165 0
M  V30 2743 C 279.938 2.92797 -1.1063 0
M  V30 2744 C 280.413 4.19445 -1.8393 0
M  V30 2745 N 281.904 4.26409 -1.80914 0
M  V30 2746 C 282.639 5.23271 -2.34467 0
M  V30 2747 N 282.135 6.26145 -2.96504 0
M  V30 2748 N 283.928 5.15232 -2.24706 0
M  V30 2749 H 276.079 1.31654 -1.66676 0
M  V30 2750 H 278.342 0.635393 -0.703548 0
M  V30 2751 H 278.048 2.76268 -2.17644 0
M  V30 2752 H 277.922 3.70606 -0.702209 0
M  V30 2753 H 280.309 2.95039 -0.0597713 0
M  V30 2754 H 280.39 2.02353 -1.56483 0
M  V30 2755 H 280.034 4.17964 -2.88563 0
M  V30 2756 H 279.964 5.08866 -1.35509 0
M  V30 2757 H 282.455 3.527 -1.35687 0
M  V30 2758 H 282.768 6.96451 -3.34927 0
M  V30 2759 H 281.113 6.26638 -3.00583 0
M  V30 2760 H 284.304 4.33789 -1.7591 0
M  V30 2761 H 284.477 5.90552 -2.66745 0
M  V30 2762 N 277.883 0.443576 1.51229 0
M  V30 2763 C 278.83 -0.364716 2.279 0
M  V30 2764 C 279.8 -1.0114 1.31757 0
M  V30 2765 O 280.985 -1.02912 1.60667 0
M  V30 2766 C 278.125 -1.45644 3.12861 0
M  V30 2767 C 277.238 -0.827269 4.24005 0
M  V30 2768 C 276.373 -1.89456 4.96266 0
M  V30 2769 C 275.412 -1.24416 5.99322 0
M  V30 2770 N 274.549 -2.25309 6.64966 0
M  V30 2771 H 279.389 0.295464 2.96532 0
M  V30 2772 H 276.926 0.157554 1.46254 0
M  V30 2773 H 278.884 -2.10076 3.6045 0
M  V30 2774 H 277.514 -2.08616 2.46331 0
M  V30 2775 H 276.566 -0.0710839 3.80334 0
M  V30 2776 H 277.878 -0.312481 4.9782 0
M  V30 2777 H 277.032 -2.61535 5.47434 0
M  V30 2778 H 275.771 -2.4431 4.22095 0
M  V30 2779 H 274.776 -0.508868 5.4744 0
M  V30 2780 H 276.001 -0.702882 6.75453 0
M  V30 2781 H 273.947 -2.79231 5.93604 0
M  V30 2782 H 273.864 -1.78739 7.34567 0
M  V30 2783 H 275.132 -2.96853 7.20763 0
M  V30 2784 N 279.361 -1.56624 0.175154 0
M  V30 2785 C 280.291 -2.21155 -0.749195 0
M  V30 2786 C 281.272 -1.16836 -1.23626 0
M  V30 2787 O 282.457 -1.45277 -1.28873 0
M  V30 2788 C 279.587 -2.8553 -1.97711 0
M  V30 2789 C 278.541 -3.95921 -1.62575 0
M  V30 2790 C 277.867 -4.47365 -2.92864 0
M  V30 2791 C 279.167 -5.15323 -0.850838 0
M  V30 2792 H 280.861 -2.98653 -0.211295 0
M  V30 2793 H 278.407 -1.43651 -0.100188 0
M  V30 2794 H 280.36 -3.2935 -2.62881 0
M  V30 2795 H 279.084 -2.05406 -2.53921 0
M  V30 2796 H 277.743 -3.52762 -0.997719 0
M  V30 2797 H 277.391 -3.64027 -3.47122 0
M  V30 2798 H 277.091 -5.21839 -2.70106 0
M  V30 2799 H 278.615 -4.93873 -3.59056 0
M  V30 2800 H 280.029 -5.55812 -1.40521 0
M  V30 2801 H 278.426 -5.95739 -0.722154 0
M  V30 2802 H 279.496 -4.84661 0.152082 0
M  V30 2803 N 280.839 0.0985539 -1.57292 0
M  V30 2804 C 282.067 0.816318 -1.90115 0
M  V30 2805 C 282.482 1.72451 -0.768509 0
M  V30 2806 O 281.839 1.80643 0.259687 0
M  V30 2807 C 281.89 1.63259 -3.22535 0
M  V30 2808 O 281.611 0.760934 -4.31441 0
M  V30 2809 C 283.112 2.45372 -3.69199 0
M  V30 2810 H 280.332 0.233595 -0.629027 0
M  V30 2811 H 282.876 0.0768229 -2.04356 0
M  V30 2812 H 281.031 2.32463 -3.09903 0
M  V30 2813 H 281.445 1.32595 -5.07463 0
M  V30 2814 H 282.919 2.98144 -4.64558 0
M  V30 2815 H 283.396 3.23677 -2.96867 0
M  V30 2816 H 284.002 1.81373 -3.84687 0
M  V30 2817 N 282.317 1.53212 0.369288 0
M  V30 2818 C 283.28 1.7872 1.43498 0
M  V30 2819 C 284.28 0.657554 1.46741 0
M  V30 2820 O 285.47 0.925736 1.47566 0
M  V30 2821 C 282.602 1.90591 2.82645 0
M  V30 2822 H 283.795 2.73894 1.22156 0
M  V30 2823 H 281.348 1.44233 0.602203 0
M  V30 2824 H 282.083 0.974709 3.09306 0
M  V30 2825 H 281.868 2.72751 2.8169 0
M  V30 2826 H 283.358 2.11931 3.59826 0
M  V30 2827 N 283.795 -0.628877 1.44509 0
M  V30 2828 C 285.044 -1.38437 1.4669 0
M  V30 2829 C 285.357 -1.95322 0.104272 0
M  V30 2830 O 286.563 -2.715 0.00362163 0
M  V30 2831 C 285.019 -2.50659 2.5826 0
M  V30 2832 C 284.627 -2.00277 4.0074 0
M  V30 2833 C 286.371 -3.27844 2.69664 0
M  V30 2834 C 284.278 -3.09854 5.0373 0
M  V30 2835 H 283.208 -0.520245 0.545766 0
M  V30 2836 H 285.859 -0.676313 1.70582 0
M  V30 2837 H 284.241 -3.2405 2.27612 0
M  V30 2838 H 285.415 -1.33736 4.40966 0
M  V30 2839 H 283.73 -1.35901 3.93599 0
M  V30 2840 H 286.327 -4.09534 3.43781 0
M  V30 2841 H 286.67 -3.77471 1.75559 0
M  V30 2842 H 287.203 -2.61543 2.99733 0
M  V30 2843 H 283.942 -2.65168 5.99472 0
M  V30 2844 H 283.462 -3.7503 4.68095 0
M  V30 2845 H 285.141 -3.74592 5.27532 0
M  V30 2846 N 285.273 -1.31445 -0.869486 0
M  V30 2847 C 286.203 -1.21727 -1.99261 0
M  V30 2848 C 287.184 -0.104359 -1.6978 0
M  V30 2849 O 288.369 -0.289038 -1.92037 0
M  V30 2850 C 285.499 -0.924317 -3.34774 0
M  V30 2851 C 284.453 -1.99685 -3.78563 0
M  V30 2852 C 283.779 -1.55658 -5.11541 0
M  V30 2853 C 285.079 -3.41003 -3.95619 0
M  V30 2854 H 286.773 -2.1569 -2.07649 0
M  V30 2855 H 284.319 -1.03839 -0.997675 0
M  V30 2856 H 286.272 -0.842934 -4.12883 0
M  V30 2857 H 284.996 0.0509793 -3.2656 0
M  V30 2858 H 283.655 -2.06813 -3.02694 0
M  V30 2859 H 283.303 -0.569132 -4.9977 0
M  V30 2860 H 283.003 -2.27409 -5.41811 0
M  V30 2861 H 284.527 -1.48928 -5.92159 0
M  V30 2862 H 285.941 -3.36547 -4.64122 0
M  V30 2863 H 284.338 -4.10975 -4.37286 0
M  V30 2864 H 285.408 -3.81754 -2.98985 0
M  V30 2865 N 286.751 1.08385 -1.14413 0
M  V30 2866 C 287.976 1.85057 -0.936413 0
M  V30 2867 C 288.401 1.81055 0.509971 0
M  V30 2868 O 287.759 1.1958 1.36273 0
M  V30 2869 C 287.807 3.30505 -1.44217 0
M  V30 2870 O 286.911 4.07491 -0.634409 0
M  V30 2871 H 286.252 0.573425 -0.334784 0
M  V30 2872 H 288.782 1.36799 -1.52142 0
M  V30 2873 H 288.792 3.81348 -1.45043 0
M  V30 2874 H 287.467 3.32734 -2.49522 0
M  V30 2875 H 286.044 3.66368 -0.694902 0
M  V30 2876 N 288.23 0.939286 1.26551 0
M  V30 2877 C 289.177 0.446088 2.26448 0
M  V30 2878 C 290.147 -0.493234 1.58608 0
M  V30 2879 O 291.332 -0.409857 1.86346 0
M  V30 2880 C 288.472 -0.284375 3.43926 0
M  V30 2881 C 287.585 0.690399 4.26448 0
M  V30 2882 C 286.72 -0.0610712 5.31165 0
M  V30 2883 C 285.759 0.905649 6.05363 0
M  V30 2884 N 284.896 0.186055 7.01853 0
M  V30 2885 H 289.736 1.30291 2.68008 0
M  V30 2886 H 287.273 0.65371 1.31776 0
M  V30 2887 H 289.231 -0.724313 4.10864 0
M  V30 2888 H 287.861 -1.10535 3.03285 0
M  V30 2889 H 286.913 1.24885 3.59316 0
M  V30 2890 H 288.225 1.42873 4.779 0
M  V30 2891 H 287.379 -0.56038 6.04106 0
M  V30 2892 H 286.118 -0.832297 4.80546 0
M  V30 2893 H 285.123 1.4161 5.3125 0
M  V30 2894 H 286.348 1.67685 6.58072 0
M  V30 2895 H 284.294 -0.566714 6.53548 0
M  V30 2896 H 284.211 0.863752 7.51049 0
M  V30 2897 H 285.479 -0.292221 7.78952 0
M  V30 2898 N 289.708 -1.40897 0.706093 0
M  V30 2899 C 290.936 -2.05373 0.250887 0
M  V30 2900 C 291.351 -1.53172 -1.10381 0
M  V30 2901 O 290.708 -0.684305 -1.69185 0
M  V30 2902 C 290.759 -3.6088 0.211571 0
M  V30 2903 O 290.48 -4.11153 1.51276 0
M  V30 2904 C 291.981 -4.42517 -0.263346 0
M  V30 2905 H 289.201 -0.66115 0.114552 0
M  V30 2906 H 291.745 -1.80479 0.961635 0
M  V30 2907 H 289.9 -3.84777 -0.450073 0
M  V30 2908 H 290.314 -5.05279 1.40689 0
M  V30 2909 H 291.788 -5.51479 -0.239718 0
M  V30 2910 H 292.265 -4.19396 -1.30397 0
M  V30 2911 H 292.871 -4.23708 0.367677 0
M  V30 2912 N 291.186 -0.45159 -1.50991 0
M  V30 2913 C 292.434 0.109857 -2.01801 0
M  V30 2914 C 292.755 1.41958 -1.3369 0
M  V30 2915 O 292.025 1.9003 -0.475951 0
M  V30 2916 H 290.605 0.0435884 -0.745727 0
M  V30 2917 H 293.267 -0.597557 -1.85514 0
M  V30 2918 H 292.363 0.275489 -3.10882 0
M  V30 2919 N 292.664 1.56529 -0.183458 0
M  V30 2920 C 293.892 2.01623 0.464285 0
M  V30 2921 C 294.307 1.06366 1.55986 0
M  V30 2922 O 293.664 0.0665398 1.82379 0
M  V30 2923 C 293.715 3.46475 1.03139 0
M  V30 2924 O 293.436 4.38095 -0.0204675 0
M  V30 2925 C 294.937 4.0703 1.75617 0
M  V30 2926 H 292.157 0.660596 0.117704 0
M  V30 2927 H 294.701 2.02451 -0.288751 0
M  V30 2928 H 292.856 3.46383 1.73486 0
M  V30 2929 H 293.27 5.22973 0.399952 0
M  V30 2930 H 294.744 5.10271 2.10542 0
M  V30 2931 H 295.221 3.49819 2.65563 0
M  V30 2932 H 295.827 4.1086 1.09882 0
M  V30 2933 N 294.142 -0.090211 1.57342 0
M  V30 2934 C 295.105 -1.09335 2.01441 0
M  V30 2935 C 296.105 -1.32666 0.908641 0
M  V30 2936 O 297.295 -1.28697 1.174 0
M  V30 2937 C 294.427 -2.44136 2.3793 0
M  V30 2938 H 295.62 -0.713662 2.91285 0
M  V30 2939 H 293.173 -0.335404 1.52659 0
M  V30 2940 H 293.908 -2.86972 1.51055 0
M  V30 2941 H 293.693 -2.28548 3.18603 0
M  V30 2942 H 295.183 -3.16277 2.72688 0
M  V30 2943 N 295.62 -1.53406 -0.361157 0
M  V30 2944 C 296.583 -1.79479 -1.42548 0
M  V30 2945 C 297.583 -0.665327 -1.4639 0
M  V30 2946 O 298.773 -0.933549 -1.47073 0
M  V30 2947 C 295.905 -1.92087 -2.8163 0
M  V30 2948 H 297.098 -2.74538 -1.20701 0
M  V30 2949 H 294.651 -1.4455 -0.594546 0
M  V30 2950 H 295.386 -0.991099 -3.08784 0
M  V30 2951 H 295.171 -2.74241 -2.80239 0
M  V30 2952 H 296.661 -2.13836 -3.58697 0
M  V30 2953 N 297.098 0.621204 -1.44841 0
M  V30 2954 C 298.347 1.37658 -1.47422 0
M  V30 2955 C 298.66 1.95264 -0.114629 0
M  V30 2956 O 299.866 2.71494 -0.0180199 0
M  V30 2957 C 298.322 2.49285 -2.59586 0
M  V30 2958 C 297.93 1.98149 -4.01797 0
M  V30 2959 C 299.674 3.26409 -2.71399 0
M  V30 2960 C 297.581 3.07178 -5.05367 0
M  V30 2961 H 296.511 0.517344 -0.548517 0
M  V30 2962 H 299.162 0.667257 -1.70938 0
M  V30 2963 H 297.544 3.22839 -2.29328 0
M  V30 2964 H 298.718 1.31395 -4.41669 0
M  V30 2965 H 297.033 1.33812 -3.94314 0
M  V30 2966 H 299.63 4.07706 -3.45948 0
M  V30 2967 H 299.973 3.76535 -1.77559 0
M  V30 2968 H 300.506 2.5995 -3.01116 0
M  V30 2969 H 297.245 2.61985 -6.00869 0
M  V30 2970 H 296.765 3.72542 -4.70077 0
M  V30 2971 H 298.444 3.71789 -5.29511 0
M  V30 2972 N 298.576 1.31904 0.862503 0
M  V30 2973 C 299.823 1.22017 1.61611 0
M  V30 2974 C 300.151 -0.21991 1.93253 0
M  V30 2975 O 299.406 -1.17076 1.56817 0
M  V30 2976 C 299.705 2.01713 2.95037 0
M  V30 2977 C 299.371 3.51145 2.82857 0
M  V30 2978 C 298.033 3.91889 2.79243 0
M  V30 2979 C 300.385 4.46204 2.69353 0
M  V30 2980 C 297.713 5.25947 2.59993 0
M  V30 2981 C 300.065 5.80397 2.5164 0
M  V30 2982 C 298.729 6.20352 2.46413 0
M  V30 2983 H 297.999 0.44649 0.591378 0
M  V30 2984 H 300.646 1.63248 1.00111 0
M  V30 2985 H 298.951 1.53185 3.60613 0
M  V30 2986 H 300.648 1.91437 3.52353 0
M  V30 2987 H 297.238 3.1878 2.86491 0
M  V30 2988 H 301.422 4.15652 2.71196 0
M  V30 2989 H 296.678 5.5597 2.54376 0
M  V30 2990 H 300.852 6.53676 2.40169 0
M  V30 2991 H 298.479 7.24172 2.31256 0
M  V30 2992 N 300.054 -1.07777 1.14986 0
M  V30 2993 C 301.303 -1.79669 0.916617 0
M  V30 2994 C 301.616 -1.87474 -0.557917 0
M  V30 2995 O 302.822 -2.55845 -0.908617 0
M  V30 2996 C 301.278 -3.22848 1.59051 0
M  V30 2997 C 300.886 -3.23257 3.10176 0
M  V30 2998 C 302.63 -3.99379 1.43864 0
M  V30 2999 C 300.537 -4.61063 3.70372 0
M  V30 3000 H 299.467 -0.673349 0.33929 0
M  V30 3001 H 302.118 -1.21003 1.37951 0
M  V30 3002 H 300.5 -3.8168 1.0553 0
M  V30 3003 H 301.674 -2.74095 3.70417 0
M  V30 3004 H 299.989 -2.60222 3.25074 0
M  V30 3005 H 302.586 -5.0122 1.86232 0
M  V30 3006 H 302.929 -4.14511 0.385564 0
M  V30 3007 H 303.462 -3.47032 1.94457 0
M  V30 3008 H 300.201 -4.51135 4.7556 0
M  V30 3009 H 299.721 -5.1048 3.14913 0
M  V30 3010 H 301.4 -5.30034 3.71043 0
M  V30 3011 N 301.532 -0.945985 -1.26051 0
M  V30 3012 C 302.48 -0.450259 -2.282 0
M  V30 3013 C 303.474 0.47497 -1.62605 0
M  V30 3014 O 304.68 0.352653 -1.76512 0
M  V30 3015 H 301.055 -0.127081 -0.741184 0
M  V30 3016 H 303.026 -1.32422 -2.67408 0
M  V30 3017 C 301.775 0.26467 -3.46691 0
M  V30 3018 H 301.098 -0.438123 -3.97392 0
M  V30 3019 H 302.538 0.575678 -4.20074 0
M  V30 3020 C 300.997 1.48416 -3.02447 0
M  V30 3021 O 301.527 2.58227 -3.07704 0
M  V30 3022 N 299.733 1.34243 -2.57735 0
M  V30 3023 H 299.28 0.448994 -2.53657 0
M  V30 3024 H 299.238 2.15957 -2.28495 0
M  V30 3025 N 303.011 1.40521 -0.713556 0
M  V30 3026 C 303.943 2.29191 -0.0203126 0
M  V30 3027 C 304.956 1.45723 0.725864 0
M  V30 3028 O 306.145 1.69033 0.573581 0
M  V30 3029 C 303.245 3.2395 0.995486 0
M  V30 3030 C 302.418 4.36262 0.315256 0
M  V30 3031 C 301.477 5.11474 1.23616 0
M  V30 3032 O 300.503 5.64606 0.721719 0
M  V30 3033 N 301.705 5.20638 2.56743 0
M  V30 3034 H 304.47 2.89327 -0.781652 0
M  V30 3035 H 302.031 1.51869 -0.561022 0
M  V30 3036 H 304.023 3.71137 1.61368 0
M  V30 3037 H 302.593 2.64995 1.6582 0
M  V30 3038 H 301.813 3.91228 -0.483106 0
M  V30 3039 H 303.101 5.08558 -0.157004 0
M  V30 3040 H 302.499 4.7895 3.01037 0
M  V30 3041 H 301.056 5.71339 3.13712 0
M  V30 3042 N 304.489 0.459591 1.5075 0
M  V30 3043 C 305.735 -0.0994966 2.02556 0
M  V30 3044 C 306.068 -1.40399 1.3417 0
M  V30 3045 O 305.343 -1.88892 0.463683 0
M  V30 3046 C 305.626 -0.295242 3.58888 0
M  V30 3047 C 305.479 1.02947 4.37861 0
M  V30 3048 C 306.798 -1.05502 4.27267 0
M  V30 3049 H 303.917 -0.034686 0.736183 0
M  V30 3050 H 306.559 0.602938 1.8018 0
M  V30 3051 H 304.709 -0.893563 3.78084 0
M  V30 3052 H 306.381 1.66348 4.30263 0
M  V30 3053 H 304.624 1.62885 4.02058 0
M  V30 3054 H 305.295 0.846281 5.45474 0
M  V30 3055 H 307.771 -0.547993 4.12476 0
M  V30 3056 H 306.647 -1.16077 5.36486 0
M  V30 3057 H 306.908 -2.08875 3.89645 0
M  V30 3058 N 305.967 -1.56429 0.191757 0
M  V30 3059 C 307.383 -1.58754 -0.164137 0
M  V30 3060 C 307.583 -1.20782 -1.61288 0
M  V30 3061 O 306.639 -0.928999 -2.34789 0
M  V30 3062 C 307.952 -3.00396 0.135195 0
M  V30 3063 C 309.5 -3.1291 0.0750351 0
M  V30 3064 C 309.975 -4.56679 0.347632 0
M  V30 3065 N 311.466 -4.62252 0.296131 0
M  V30 3066 C 312.201 -5.71379 0.480948 0
M  V30 3067 N 311.697 -6.88986 0.725933 0
M  V30 3068 N 313.49 -5.60563 0.415435 0
M  V30 3069 H 305.641 -1.79393 1.13718 0
M  V30 3070 H 307.904 -0.832414 0.453643 0
M  V30 3071 H 307.61 -3.32726 1.13958 0
M  V30 3072 H 307.484 -3.72963 -0.563773 0
M  V30 3073 H 309.871 -2.80394 -0.919948 0
M  V30 3074 H 309.952 -2.42736 0.807029 0
M  V30 3075 H 309.596 -4.89907 1.33992 0
M  V30 3076 H 309.526 -5.25039 -0.405212 0
M  V30 3077 H 312.017 -3.7773 0.113259 0
M  V30 3078 H 312.33 -7.68046 0.855857 0
M  V30 3079 H 310.675 -6.90801 0.762788 0
M  V30 3080 H 313.866 -4.67561 0.224486 0
M  V30 3081 H 314.039 -6.45551 0.562889 0
M  V30 3082 N 307.445 0.0818655 -1.57387 0
M  V30 3083 C 308.355 1.11642 -2.06333 0
M  V30 3084 C 309.371 1.43033 -0.99083 0
M  V30 3085 O 310.547 1.53411 -1.30488 0
M  V30 3086 C 307.612 2.41342 -2.48907 0
M  V30 3087 C 306.673 2.17014 -3.7041 0
M  V30 3088 C 305.906 3.4053 -4.10944 0
M  V30 3089 O 306.129 4.4927 -3.51444 0
M  V30 3090 O 305.063 3.29336 -5.03807 0
M  V30 3091 H 308.889 0.730657 -2.9478 0
M  V30 3092 H 306.474 0.295301 -1.46452 0
M  V30 3093 H 308.356 3.17691 -2.76858 0
M  V30 3094 H 307.031 2.79319 -1.63593 0
M  V30 3095 H 305.938 1.38403 -3.47556 0
M  V30 3096 H 307.271 1.83923 -4.56545 0
M  V30 3097 N 308.923 1.53595 0.353017 0
M  V30 3098 C 309.87 1.80919 1.43308 0
M  V30 3099 C 310.84 0.654288 1.5267 0
M  V30 3100 O 312.025 0.897759 1.6836 0
M  V30 3101 C 309.165 2.01605 2.80089 0
M  V30 3102 C 308.278 3.29321 2.79593 0
M  V30 3103 C 307.413 3.40125 4.0803 0
M  V30 3104 C 306.452 4.61826 4.01725 0
M  V30 3105 N 305.589 4.69716 5.21834 0
M  V30 3106 H 310.429 2.73074 1.19308 0
M  V30 3107 H 307.966 1.35263 0.578131 0
M  V30 3108 H 309.924 2.11586 3.59565 0
M  V30 3109 H 308.554 1.12772 3.0246 0
M  V30 3110 H 307.606 3.28229 1.92276 0
M  V30 3111 H 308.918 4.18884 2.70809 0
M  V30 3112 H 308.072 3.49488 4.95927 0
M  V30 3113 H 306.811 2.48601 4.19582 0
M  V30 3114 H 305.816 4.52552 3.12213 0
M  V30 3115 H 307.041 5.54705 3.91764 0
M  V30 3116 H 304.987 3.81097 5.33948 0
M  V30 3117 H 304.904 5.53202 5.1527 0
M  V30 3118 H 306.172 4.83376 6.11529 0
M  V30 3119 N 310.401 -0.613514 1.45168 0
M  V30 3120 C 311.65 -1.36874 1.4815 0
M  V30 3121 C 311.963 -1.952 0.124982 0
M  V30 3122 O 313.169 -2.71481 0.0324176 0
M  V30 3123 C 311.625 -2.47905 2.60904 0
M  V30 3124 C 311.233 -1.96016 4.02842 0
M  V30 3125 C 312.977 -3.24965 2.73126 0
M  V30 3126 C 310.884 -3.04494 5.06988 0
M  V30 3127 H 309.814 -0.514428 0.551253 0
M  V30 3128 H 312.465 -0.658182 1.7129 0
M  V30 3129 H 310.847 -3.21618 2.31037 0
M  V30 3130 H 312.021 -1.29051 4.4236 0
M  V30 3131 H 310.336 -1.31719 3.95018 0
M  V30 3132 H 312.933 -4.05865 3.48106 0
M  V30 3133 H 313.276 -3.75588 1.79553 0
M  V30 3134 H 313.809 -2.5835 3.0249 0
M  V30 3135 H 310.548 -2.58795 6.0225 0
M  V30 3136 H 310.068 -3.70044 4.72046 0
M  V30 3137 H 311.747 -3.68976 5.31475 0
M  V30 3138 N 311.879 -1.3236 -0.855495 0
M  V30 3139 C 313.127 -1.22629 -1.60644 0
M  V30 3140 C 313.448 0.212136 -1.93843 0
M  V30 3141 O 312.718 1.13666 -1.59552 0
M  V30 3142 H 311.298 -0.450882 -0.595579 0
M  V30 3143 H 313.96 -1.65871 -1.02337 0
M  V30 3144 H 313.056 -1.80832 -2.54374 0
M  V30 3145 N 313.357 1.07166 -1.15556 0
M  V30 3146 C 314.603 1.80065 -0.932984 0
M  V30 3147 C 314.936 1.86586 0.53845 0
M  V30 3148 O 314.211 1.35098 1.39924 0
M  V30 3149 C 314.494 3.25022 -1.55025 0
M  V30 3150 C 314.347 3.26634 -3.09242 0
M  V30 3151 C 315.666 4.22341 -1.2376 0
M  V30 3152 H 312.785 0.653697 -0.340366 0
M  V30 3153 H 315.427 1.25389 -1.4275 0
M  V30 3154 H 313.577 3.71712 -1.12972 0
M  V30 3155 H 315.249 2.88173 -3.60214 0
M  V30 3156 H 313.492 2.65539 -3.43033 0
M  V30 3157 H 314.163 4.28854 -3.47546 0
M  V30 3158 H 316.639 3.8405 -1.60139 0
M  V30 3159 H 315.515 5.22053 -1.69564 0
M  V30 3160 H 315.776 4.41828 -0.154938 0
M  V30 3161 N 314.835 0.952656 1.25548 0
M  V30 3162 C 315.768 0.415525 2.24385 0
M  V30 3163 C 316.746 -0.502046 1.54655 0
M  V30 3164 O 317.93 -0.436875 1.83368 0
M  V30 3165 C 315.057 -0.401734 3.36309 0
M  V30 3166 C 314.103 0.455949 4.24056 0
M  V30 3167 S 314.936 1.88698 5.01152 0
M  V30 3168 C 316.092 1.07809 6.16545 0
M  V30 3169 H 316.325 1.25315 2.69599 0
M  V30 3170 H 313.858 0.756587 1.34592 0
M  V30 3171 H 315.816 -0.867329 4.01233 0
M  V30 3172 H 314.477 -1.21416 2.89684 0
M  V30 3173 H 313.67 -0.170776 5.03711 0
M  V30 3174 H 313.272 0.856675 3.64056 0
M  V30 3175 H 315.564 0.325816 6.76716 0
M  V30 3176 H 316.507 1.84849 6.83547 0
M  V30 3177 H 316.915 0.60909 5.61204 0
M  V30 3178 N 316.313 -1.40141 0.720998 0
M  V30 3179 C 317.543 -2.04798 0.27226 0
M  V30 3180 C 317.951 -1.54442 -1.09289 0
M  V30 3181 O 317.294 -0.698342 -1.69908 0
M  V30 3182 C 317.356 -3.59048 0.18027 0
M  V30 3183 C 317.02 -4.32317 1.48159 0
M  V30 3184 C 318.017 -4.59902 2.42458 0
M  V30 3185 C 315.702 -4.71125 1.74202 0
M  V30 3186 C 317.696 -5.25288 3.61042 0
M  V30 3187 C 315.383 -5.36242 2.93066 0
M  V30 3188 C 316.381 -5.63254 3.86308 0
M  V30 3189 O 316.069 -6.27024 5.03086 0
M  V30 3190 H 315.801 -0.665419 0.119139 0
M  V30 3191 H 318.355 -1.80436 0.981432 0
M  V30 3192 H 316.585 -3.82251 -0.58489 0
M  V30 3193 H 318.274 -4.05221 -0.234618 0
M  V30 3194 H 319.04 -4.30379 2.23604 0
M  V30 3195 H 314.919 -4.49466 1.02477 0
M  V30 3196 H 318.463 -5.46289 4.33837 0
M  V30 3197 H 314.36 -5.65185 3.11826 0
M  V30 3198 H 315.128 -6.4552 5.03235 0
M  V30 3199 N 317.792 -0.46758 -1.50504 0
M  V30 3200 C 319.04 0.0884469 -2.01906 0
M  V30 3201 C 319.361 1.40532 -1.35188 0
M  V30 3202 O 318.631 1.89515 -0.496079 0
M  V30 3203 H 317.211 0.0356765 -0.746148 0
M  V30 3204 H 319.873 -0.6172 -1.84869 0
M  V30 3205 H 318.969 0.2425 -3.11156 0
M  V30 3206 N 319.27 1.56325 -0.20005 0
M  V30 3207 C 320.218 2.20666 0.735482 0
M  V30 3208 C 321.212 1.17934 1.21605 0
M  V30 3209 O 322.418 1.36068 1.17837 0
M  V30 3210 H 318.793 0.70725 0.255542 0
M  V30 3211 H 320.764 2.9792 0.169166 0
M  V30 3212 C 319.513 2.88391 1.94232 0
M  V30 3213 H 318.836 3.67185 1.58161 0
M  V30 3214 H 320.276 3.3684 2.57517 0
M  V30 3215 C 318.735 1.89692 2.78421 0
M  V30 3216 O 319.265 1.40032 3.76502 0
M  V30 3217 N 317.471 1.57813 2.44015 0
M  V30 3218 H 317.018 1.9839 1.64314 0
M  V30 3219 H 316.976 0.920325 3.00628 0
M  V30 3220 N 320.748 -0.0735177 1.57428 0
M  V30 3221 C 322.159 -0.625551 1.75908 0
M  V30 3222 C 322.51 -1.78 0.825261 0
M  V30 3223 O 321.635 -2.16398 0.00893964 0
M  V30 3224 C 322.23 -1.14155 3.18989 0
M  V30 3225 C 320.789 -1.63946 3.38819 0
M  V30 3226 C 319.936 -0.558151 2.71625 0
M  V30 3227 H 322.887 0.152647 1.57964 0
M  V30 3228 H 322.908 -2.0104 3.23053 0
M  V30 3229 H 322.42 -0.301116 3.8693 0
M  V30 3230 H 320.521 -2.50321 2.7599 0
M  V30 3231 H 320.634 -1.71759 4.47253 0
M  V30 3232 H 318.998 -1.00278 2.34129 0
M  V30 3233 H 319.781 0.272071 3.4222 0
M  V30 3234 N 322.226 -1.5378 -0.344866 0
M  V30 3235 C 323.136 -1.84667 -1.4469 0
M  V30 3236 C 324.152 -0.736704 -1.57635 0
M  V30 3237 O 325.328 -1.02888 -1.73136 0
M  V30 3238 C 322.393 -2.04869 -2.79696 0
M  V30 3239 C 321.454 -3.28731 -2.76106 0
M  V30 3240 C 320.687 -3.4796 -4.04673 0
M  V30 3241 O 320.91 -2.71052 -5.01883 0
M  V30 3242 O 319.844 -4.41383 -4.09224 0
M  V30 3243 H 323.67 -2.78334 -1.21506 0
M  V30 3244 H 321.255 -1.39418 -0.536921 0
M  V30 3245 H 323.137 -2.19609 -3.59652 0
M  V30 3246 H 321.812 -1.14391 -3.02814 0
M  V30 3247 H 320.719 -3.19396 -1.94774 0
M  V30 3248 H 322.052 -4.19198 -2.57941 0
M  V30 3249 N 323.704 0.605807 -1.45491 0
M  V30 3250 C 324.932 1.39136 -1.5313 0
M  V30 3251 C 325.347 1.88082 -0.164507 0
M  V30 3252 O 324.704 1.62316 0.834247 0
M  V30 3253 C 324.755 2.59463 -2.51716 0
M  V30 3254 O 324.476 2.12551 -3.83084 0
M  V30 3255 C 325.977 3.52301 -2.6907 0
M  V30 3256 H 323.197 0.425849 -0.51855 0
M  V30 3257 H 325.741 0.73865 -1.90694 0
M  V30 3258 H 323.896 3.20772 -2.17219 0
M  V30 3259 H 324.31 2.90744 -4.36541 0
M  V30 3260 H 325.784 4.33271 -3.42024 0
M  V30 3261 H 326.261 4.02757 -1.75167 0
M  V30 3262 H 326.867 2.96845 -3.04571 0
M  V30 3263 N 325.182 1.32811 0.848464 0
M  V30 3264 C 326.41 1.26739 1.63538 0
M  V30 3265 C 326.825 -0.163484 1.88091 0
M  V30 3266 O 326.182 -1.10258 1.45429 0
M  V30 3267 C 326.233 2.03013 2.99112 0
M  V30 3268 O 325.954 3.40518 2.75643 0
M  V30 3269 C 327.455 2.04038 3.93552 0
M  V30 3270 H 324.675 0.437024 0.509167 0
M  V30 3271 H 327.219 1.75033 1.05753 0
M  V30 3272 H 325.374 1.58426 3.53525 0
M  V30 3273 H 325.788 3.79635 3.61908 0
M  V30 3274 H 327.262 2.61877 4.85926 0
M  V30 3275 H 327.739 1.0282 4.26995 0
M  V30 3276 H 328.345 2.486 3.45077 0
M  V30 3277 N 326.66 -1.06551 1.16123 0
M  V30 3278 C 327.888 -1.83005 0.965237 0
M  V30 3279 C 328.303 -1.82423 -0.486542 0
M  V30 3280 O 327.66 -1.24152 -1.33763 0
M  V30 3281 C 327.711 -3.29733 1.48183 0
M  V30 3282 O 327.432 -3.30416 2.87674 0
M  V30 3283 C 328.933 -4.22926 1.32848 0
M  V30 3284 H 326.153 -0.577118 0.342309 0
M  V30 3285 H 328.697 -1.3445 1.54089 0
M  V30 3286 H 326.852 -3.75609 0.948517 0
M  V30 3287 H 327.266 -4.22149 3.11272 0
M  V30 3288 H 328.74 -5.23916 1.73827 0
M  V30 3289 H 329.217 -4.38346 0.273692 0
M  V30 3290 H 329.823 -3.82894 1.85127 0
M  V30 3291 N 328.138 -0.959301 -1.25041 0
M  V30 3292 C 329.386 -0.615393 -1.92503 0
M  V30 3293 C 329.707 0.850969 -1.75452 0
M  V30 3294 O 328.977 1.60658 -1.12098 0
M  V30 3295 H 327.557 -0.224613 -0.712431 0
M  V30 3296 H 330.219 -1.21855 -1.5211 0
M  V30 3297 H 329.315 -0.848738 -3.00338 0
M  V30 3298 N 329.616 1.39756 -0.72842 0
M  V30 3299 C 330.864 2.00248 -0.272946 0
M  V30 3300 C 331.185 1.58077 1.14178 0
M  V30 3301 O 330.455 0.826014 1.77634 0
M  V30 3302 H 329.035 0.740554 -0.0979247 0
M  V30 3303 H 331.697 1.70903 -0.936912 0
M  V30 3304 H 330.793 3.10495 -0.316142 0
M  V30 3305 N 331.094 0.475555 1.50254 0
M  V30 3306 C 332.51 0.12997 1.5907 0
M  V30 3307 C 332.71 -1.36385 1.48328 0
M  V30 3308 O 331.766 -2.13754 1.34407 0
M  V30 3309 C 333.079 0.684139 2.92814 0
M  V30 3310 C 334.627 0.647965 3.0622 0
M  V30 3311 C 335.102 1.17975 4.42545 0
M  V30 3312 N 336.593 1.13936 4.48969 0
M  V30 3313 C 337.328 1.52129 5.52851 0
M  V30 3314 N 336.824 1.97793 6.63965 0
M  V30 3315 N 338.617 1.43704 5.4342 0
M  V30 3316 H 330.768 1.44706 1.55479 0
M  V30 3317 H 333.031 0.598691 0.735033 0
M  V30 3318 H 332.737 1.73079 3.06164 0
M  V30 3319 H 332.611 0.130204 3.76975 0
M  V30 3320 H 334.998 -0.38979 2.92514 0
M  V30 3321 H 335.079 1.23876 2.23805 0
M  V30 3322 H 334.723 2.21616 4.57 0
M  V30 3323 H 334.653 0.565138 5.23559 0
M  V30 3324 H 337.144 0.804488 3.69238 0
M  V30 3325 H 337.457 2.25072 7.39299 0
M  V30 3326 H 335.802 2.01749 6.65073 0
M  V30 3327 H 338.993 1.07867 4.55502 0
M  V30 3328 H 339.166 1.73794 6.24259 0
M  V30 3329 N 332.573 -1.56217 0.208337 0
M  V30 3330 C 333.536 -2.18455 -0.693557 0
M  V30 3331 C 334.536 -1.14268 -1.13135 0
M  V30 3332 O 335.726 -1.39577 -1.0423 0
M  V30 3333 C 332.858 -2.79727 -1.94848 0
M  V30 3334 H 334.051 -2.99519 -0.15114 0
M  V30 3335 H 331.604 -1.56245 -0.041287 0
M  V30 3336 H 332.339 -2.02497 -2.53309 0
M  V30 3337 H 332.124 -3.56009 -1.64316 0
M  V30 3338 H 333.614 -3.27475 -2.59133 0
M  V30 3339 N 334.051 0.0651679 -1.57465 0
M  V30 3340 C 334.981 1.07693 -2.07182 0
M  V30 3341 C 335.962 1.39962 -0.966673 0
M  V30 3342 O 337.147 1.49475 -1.2398 0
M  V30 3343 C 334.277 2.3885 -2.52127 0
M  V30 3344 C 333.231 2.20917 -3.66579 0
M  V30 3345 C 332.557 3.57515 -3.97601 0
M  V30 3346 C 333.857 1.62493 -4.9638 0
M  V30 3347 H 335.551 0.663199 -2.91962 0
M  V30 3348 H 333.097 0.317569 -1.40455 0
M  V30 3349 H 335.05 3.09928 -2.85522 0
M  V30 3350 H 333.774 2.82215 -1.64384 0
M  V30 3351 H 332.433 1.52279 -3.33477 0
M  V30 3352 H 332.081 3.98463 -3.06979 0
M  V30 3353 H 331.781 3.46353 -4.74672 0
M  V30 3354 H 333.305 4.30013 -4.33499 0
M  V30 3355 H 334.719 2.23445 -5.27963 0
M  V30 3356 H 333.116 1.62009 -5.77818 0
M  V30 3357 H 334.186 0.587041 -4.81333 0
M  V30 3358 N 335.529 1.53961 0.336706 0
M  V30 3359 C 336.476 1.82428 1.41381 0
M  V30 3360 C 337.446 0.670444 1.51968 0
M  V30 3361 O 338.631 0.915565 1.67398 0
M  V30 3362 C 335.771 2.04564 2.77934 0
M  V30 3363 C 334.884 3.32267 2.76084 0
M  V30 3364 C 334.019 3.44434 4.04399 0
M  V30 3365 C 333.058 4.66061 3.96804 0
M  V30 3366 N 332.195 4.75224 5.16823 0
M  V30 3367 H 337.035 2.74324 1.16405 0
M  V30 3368 H 334.572 1.35869 0.563752 0
M  V30 3369 H 336.53 2.15388 3.57301 0
M  V30 3370 H 335.16 1.15974 3.01247 0
M  V30 3371 H 334.212 3.3025 1.88784 0
M  V30 3372 H 335.524 4.21733 2.66351 0
M  V30 3373 H 334.678 3.54728 4.92192 0
M  V30 3374 H 333.417 2.53037 4.16921 0
M  V30 3375 H 332.422 4.55838 3.07396 0
M  V30 3376 H 333.647 5.58829 3.85858 0
M  V30 3377 H 331.593 3.86739 5.29876 0
M  V30 3378 H 331.51 5.58636 5.09374 0
M  V30 3379 H 332.778 4.89835 6.06367 0
M  V30 3380 N 337.007 -0.598083 1.45811 0
M  V30 3381 C 338.254 -1.35681 1.50323 0
M  V30 3382 C 338.582 -1.9393 0.148739 0
M  V30 3383 O 337.837 -1.76094 -0.853787 0
M  V30 3384 C 338.136 -2.51669 2.53766 0
M  V30 3385 C 337.802 -2.11508 3.98215 0
M  V30 3386 C 336.464 -2.0027 4.37545 0
M  V30 3387 C 338.816 -1.80308 4.89018 0
M  V30 3388 C 336.144 -1.56067 5.65562 0
M  V30 3389 C 338.496 -1.37589 6.17456 0
M  V30 3390 C 337.16 -1.24916 6.55708 0
M  V30 3391 H 336.43 -0.496492 0.550069 0
M  V30 3392 H 339.077 -0.675052 1.79207 0
M  V30 3393 H 337.382 -3.25225 2.18486 0
M  V30 3394 H 339.079 -3.09895 2.54492 0
M  V30 3395 H 335.669 -2.21185 3.67117 0
M  V30 3396 H 339.853 -1.87884 4.59362 0
M  V30 3397 H 335.109 -1.44886 5.93985 0
M  V30 3398 H 339.283 -1.12495 6.87254 0
M  V30 3399 H 336.91 -0.904386 7.54801 0
M  V30 3400 N 338.485 -1.33259 -0.841409 0
M  V30 3401 C 339.715 -1.2742 -1.62628 0
M  V30 3402 C 340.123 0.157604 -1.88542 0
M  V30 3403 O 339.466 1.10938 -1.46419 0
M  V30 3404 C 339.528 -1.97797 -3.00194 0
M  V30 3405 C 339.192 -3.47109 -2.97261 0
M  V30 3406 C 340.189 -4.42358 -2.73159 0
M  V30 3407 C 337.874 -3.89247 -3.17478 0
M  V30 3408 C 339.868 -5.77718 -2.69296 0
M  V30 3409 C 337.555 -5.24713 -3.13241 0
M  V30 3410 C 338.553 -6.1876 -2.89181 0
M  V30 3411 O 338.241 -7.51745 -2.84843 0
M  V30 3412 H 337.973 -0.440436 -0.512827 0
M  V30 3413 H 340.527 -1.76153 -1.05638 0
M  V30 3414 H 338.757 -1.43652 -3.59028 0
M  V30 3415 H 340.446 -1.8549 -3.61038 0
M  V30 3416 H 341.212 -4.11127 -2.57294 0
M  V30 3417 H 337.091 -3.16456 -3.35226 0
M  V30 3418 H 340.635 -6.51097 -2.50436 0
M  V30 3419 H 336.532 -5.55569 -3.28654 0
M  V30 3420 H 337.3 -7.61262 -3.00702 0
M  V30 3421 N 339.963 1.05934 -1.16686 0
M  V30 3422 C 340.926 2.11669 -0.879144 0
M  V30 3423 C 341.926 1.60294 0.127445 0
M  V30 3424 O 343.116 1.7389 -0.103865 0
M  V30 3425 C 340.248 3.39438 -0.315425 0
M  V30 3426 H 341.441 2.38626 -1.81653 0
M  V30 3427 H 338.994 1.22058 -0.976299 0
M  V30 3428 H 339.729 3.18132 0.629468 0
M  V30 3429 H 339.514 3.78034 -1.04079 0
M  V30 3430 H 341.004 4.17391 -0.132189 0
M  V30 3431 N 341.441 0.965919 1.2453 0
M  V30 3432 C 342.666 0.643971 1.97149 0
M  V30 3433 C 343.091 -0.779487 1.71189 0
M  V30 3434 O 342.449 -1.5288 0.974553 0
M  V30 3435 C 342.497 0.922557 3.48599 0
M  V30 3436 O 341.601 0.00707672 4.12399 0
M  V30 3437 H 340.942 0.243647 0.617683 0
M  V30 3438 H 343.472 1.29558 1.58353 0
M  V30 3439 H 343.482 0.853373 3.98976 0
M  V30 3440 H 342.157 1.95996 3.66822 0
M  V30 3441 H 340.734 0.12943 3.72675 0
M  V30 3442 N 342.919 -1.39368 0.735821 0
M  V30 3443 C 344.165 -2.00794 0.284544 0
M  V30 3444 C 344.498 -1.58255 -1.12557 0
M  V30 3445 O 343.773 -0.811819 -1.76748 0
M  V30 3446 C 344.056 -3.58011 0.387337 0
M  V30 3447 C 343.909 -4.10566 1.83728 0
M  V30 3448 C 345.228 -4.395 -0.22975 0
M  V30 3449 H 342.347 -0.729501 0.104866 0
M  V30 3450 H 344.989 -1.65564 0.93213 0
M  V30 3451 H 343.139 -3.88154 -0.164006 0
M  V30 3452 H 344.811 -3.91139 2.44556 0
M  V30 3453 H 343.054 -3.64095 2.35833 0
M  V30 3454 H 343.725 -5.19702 1.86047 0
M  V30 3455 H 346.201 -4.15406 0.240257 0
M  V30 3456 H 345.077 -5.48752 -0.127485 0
M  V30 3457 H 345.338 -4.22062 -1.3159 0
M  V30 3458 N 344.397 -0.483516 -1.5 0
M  V30 3459 C 345.813 -0.138404 -1.58999 0
M  V30 3460 C 346.013 1.35597 -1.4905 0
M  V30 3461 O 345.069 2.13039 -1.35539 0
M  V30 3462 C 346.382 -0.699658 -2.92447 0
M  V30 3463 C 347.93 -0.664195 -3.05872 0
M  V30 3464 C 348.405 -1.20321 -4.41913 0
M  V30 3465 N 349.896 -1.16315 -4.48358 0
M  V30 3466 C 350.631 -1.55058 -5.52037 0
M  V30 3467 N 350.127 -2.01311 -6.62907 0
M  V30 3468 N 351.92 -1.46584 -5.42651 0
M  V30 3469 H 344.071 -1.45529 -1.5471 0
M  V30 3470 H 346.334 -0.60258 -0.731848 0
M  V30 3471 H 346.04 -1.747 -3.05242 0
M  V30 3472 H 345.914 -0.150194 -3.76901 0
M  V30 3473 H 348.301 0.374272 -2.92717 0
M  V30 3474 H 348.382 -1.25061 -2.23144 0
M  V30 3475 H 348.026 -2.24037 -4.55818 0
M  V30 3476 H 347.956 -0.592896 -5.23252 0
M  V30 3477 H 350.447 -0.824058 -3.68806 0
M  V30 3478 H 350.76 -2.2899 -7.38095 0
M  V30 3479 H 349.105 -2.05273 -6.63994 0
M  V30 3480 H 352.296 -1.10281 -4.54924 0
M  V30 3481 H 352.469 -1.77103 -6.23329 0
M  V30 3482 N 345.875 1.56104 -0.216619 0
M  V30 3483 C 346.805 2.23063 0.690296 0
M  V30 3484 C 347.786 1.20072 1.20485 0
M  V30 3485 O 348.971 1.48643 1.24976 0
M  V30 3486 C 346.101 2.90672 1.90072 0
M  V30 3487 C 345.055 4.00092 1.5202 0
M  V30 3488 C 344.381 4.54972 2.80899 0
M  V30 3489 C 345.681 5.17398 0.71391 0
M  V30 3490 H 347.375 2.99109 0.132038 0
M  V30 3491 H 344.921 1.43866 0.0620664 0
M  V30 3492 H 346.874 3.36204 2.54057 0
M  V30 3493 H 345.598 2.12066 2.48386 0
M  V30 3494 H 344.257 3.55283 0.903839 0
M  V30 3495 H 343.905 3.73102 3.37348 0
M  V30 3496 H 343.605 5.28817 2.56176 0
M  V30 3497 H 345.129 5.0322 3.45836 0
M  V30 3498 H 346.543 5.59342 1.25735 0
M  V30 3499 H 344.94 5.97444 0.563951 0
M  V30 3500 H 346.01 4.84088 -0.280527 0
M  V30 3501 N 347.353 -0.0568162 1.57498 0
M  V30 3502 C 348.63 -0.786954 1.79071 0
M  V30 3503 C 349.01 -1.95028 0.80792 0
M  V30 3504 O 348.358 -2.27968 -0.155858 0
M  V30 3505 C 348.568 -1.24594 3.26002 0
M  V30 3506 C 349.916 -1.67323 3.90241 0
M  V30 3507 O 350.94 -1.34124 3.29984 0
M  V30 3508 O 349.799 -2.28842 4.9628 0
M  V30 3509 H 346.893 -0.378262 0.735423 0
M  V30 3510 H 349.439 -0.035734 1.69662 0
M  V30 3511 H 348.211 -0.41423 3.89101 0
M  V30 3512 H 347.834 -2.05803 3.40192 0
M  V30 3513 N 348.832 -1.54138 -0.328536 0
M  V30 3514 C 350.078 -1.7236 -1.06865 0
M  V30 3515 C 350.411 -0.493231 -1.87832 0
M  V30 3516 O 349.686 0.5098 -1.877 0
M  V30 3517 C 349.969 -2.99621 -1.99747 0
M  V30 3518 C 349.822 -4.32899 -1.22143 0
M  V30 3519 C 351.141 -3.22615 -2.99345 0
M  V30 3520 H 348.26 -0.627151 -0.387105 0
M  V30 3521 H 350.902 -1.86827 -0.345767 0
M  V30 3522 H 349.052 -2.87418 -2.61387 0
M  V30 3523 H 350.724 -4.56978 -0.630017 0
M  V30 3524 H 348.967 -4.30628 -0.523628 0
M  V30 3525 H 349.638 -5.18154 -1.90318 0
M  V30 3526 H 352.114 -3.34248 -2.47826 0
M  V30 3527 H 350.99 -4.13027 -3.61524 0
M  V30 3528 H 351.251 -2.3961 -3.71536 0
M  V30 3529 N 350.31 0.590341 -1.46126 0
M  V30 3530 C 351.726 0.912917 -1.30912 0
M  V30 3531 C 351.926 1.99616 -0.274893 0
M  V30 3532 O 350.982 2.50397 0.325197 0
M  V30 3533 C 352.295 1.3375 -2.69317 0
M  V30 3534 C 353.843 1.45077 -2.77348 0
M  V30 3535 C 354.318 1.90904 -4.16317 0
M  V30 3536 N 355.809 1.9811 -4.18696 0
M  V30 3537 C 356.544 2.34828 -5.23109 0
M  V30 3538 N 356.04 2.70393 -6.37856 0
M  V30 3539 N 357.833 2.35317 -5.10473 0
M  V30 3540 H 349.984 -0.125358 -2.1203 0
M  V30 3541 H 352.247 0.00658481 -0.947977 0
M  V30 3542 H 351.953 0.615614 -3.4627 0
M  V30 3543 H 351.827 2.30058 -2.9892 0
M  V30 3544 H 354.214 2.16353 -2.00687 0
M  V30 3545 H 354.295 0.4704 -2.51438 0
M  V30 3546 H 353.939 1.20209 -4.9347 0
M  V30 3547 H 353.869 2.89886 -4.39629 0
M  V30 3548 H 356.36 1.73146 -3.359 0
M  V30 3549 H 356.673 2.97341 -7.13308 0
M  V30 3550 H 355.018 2.68048 -6.41229 0
M  V30 3551 H 358.209 2.0695 -4.19868 0
M  V30 3552 H 358.382 2.63605 -5.9196 0
M  V30 3553 N 351.788 1.33704 0.83433 0
M  V30 3554 C 352.735 1.24335 1.94447 0
M  V30 3555 C 353.705 0.120991 1.65659 0
M  V30 3556 O 354.89 0.300035 1.88426 0
M  V30 3557 C 352.03 0.993124 3.30501 0
M  V30 3558 C 351.143 2.20217 3.71657 0
M  V30 3559 C 350.278 1.88572 4.96602 0
M  V30 3560 C 349.317 3.05683 5.30306 0
M  V30 3561 N 348.454 2.73997 6.46429 0
M  V30 3562 H 353.294 2.1928 2.01792 0
M  V30 3563 H 350.831 1.09035 0.987404 0
M  V30 3564 H 352.789 0.828467 4.08892 0
M  V30 3565 H 351.419 0.0803902 3.227 0
M  V30 3566 H 350.471 2.47642 2.88752 0
M  V30 3567 H 351.783 3.07752 3.92543 0
M  V30 3568 H 350.937 1.68776 5.82752 0
M  V30 3569 H 349.676 0.982799 4.77695 0
M  V30 3570 H 348.681 3.26088 4.42659 0
M  V30 3571 H 349.906 3.96737 5.51159 0
M  V30 3572 H 347.852 1.86268 6.28999 0
M  V30 3573 H 347.769 3.55064 6.67432 0
M  V30 3574 H 349.037 2.57679 7.35678 0
M  V30 3575 N 353.266 -1.05314 1.17247 0
M  V30 3576 C 354.515 -1.77685 0.954521 0
M  V30 3577 C 354.828 -1.88616 -0.518025 0
M  V30 3578 O 356.034 -2.57714 -0.854144 0
M  V30 3579 C 354.49 -3.19402 1.65863 0
M  V30 3580 C 354.098 -3.16605 3.16963 0
M  V30 3581 C 355.842 -3.96237 1.52303 0
M  V30 3582 C 353.749 -4.53103 3.80068 0
M  V30 3583 H 352.679 -0.666 0.353496 0
M  V30 3584 H 355.33 -1.1805 1.40486 0
M  V30 3585 H 353.712 -3.79355 1.13602 0
M  V30 3586 H 354.886 -2.66176 3.76148 0
M  V30 3587 H 353.201 -2.53268 3.30521 0
M  V30 3588 H 355.798 -4.97157 1.96822 0
M  V30 3589 H 356.141 -4.136 0.473401 0
M  V30 3590 H 356.674 -3.42829 2.01775 0
M  V30 3591 H 353.413 -4.40946 4.85023 0
M  V30 3592 H 352.933 -5.03686 3.2567 0
M  V30 3593 H 354.612 -5.22045 3.82202 0
M  V30 3594 N 354.744 -0.972509 -1.24016 0
M  V30 3595 C 355.992 -0.635776 -1.91839 0
M  V30 3596 C 356.313 0.832312 -1.76345 0
M  V30 3597 O 355.583 1.5946 -1.13795 0
M  V30 3598 H 354.163 -0.232157 -0.710009 0
M  V30 3599 H 356.825 -1.23462 -1.50809 0
M  V30 3600 H 355.921 -0.880545 -2.99421 0
M  V30 3601 N 356.222 1.38976 -0.743202 0
M  V30 3602 C 357.154 2.29096 -0.0689228 0
M  V30 3603 C 358.167 1.47229 0.694791 0
M  V30 3604 O 359.356 1.70212 0.537597 0
M  V30 3605 C 356.456 3.25988 0.926548 0
M  V30 3606 C 355.629 4.36833 0.222647 0
M  V30 3607 C 354.688 5.13981 1.12739 0
M  V30 3608 O 353.714 5.6601 0.601795 0
M  V30 3609 N 354.916 5.25966 2.45641 0
M  V30 3610 H 357.681 2.87604 -0.842846 0
M  V30 3611 H 355.242 1.50645 -0.593109 0
M  V30 3612 H 357.234 3.74476 1.5346 0
M  V30 3613 H 355.804 2.68453 1.60162 0
M  V30 3614 H 355.024 3.90116 -0.565983 0
M  V30 3615 H 356.312 5.0811 -0.264841 0
M  V30 3616 H 355.71 4.85228 2.9081 0
M  V30 3617 H 354.267 5.77865 3.01522 0
M  V30 3618 N 357.7 0.491464 1.49741 0
M  V30 3619 C 359.111 0.0413169 1.86654 0
M  V30 3620 C 359.462 -1.36985 1.40462 0
M  V30 3621 O 358.587 -2.01917 0.778354 0
M  V30 3622 C 359.182 0.0682023 3.38731 0
M  V30 3623 C 357.741 -0.32656 3.74981 0
M  V30 3624 C 356.888 0.444888 2.73708 0
M  V30 3625 H 359.839 0.704733 1.42194 0
M  V30 3626 H 359.86 -0.729322 3.73445 0
M  V30 3627 H 359.372 1.09539 3.72321 0
M  V30 3628 H 357.473 -1.35734 3.46997 0
M  V30 3629 H 357.586 -0.013741 4.79098 0
M  V30 3630 H 355.95 -0.104062 2.54487 0
M  V30 3631 H 356.733 1.47197 3.10142 0
M  V30 3632 N 359.178 -1.55987 0.224894 0
M  V30 3633 C 360.406 -2.02784 -0.410665 0
M  V30 3634 C 360.821 -1.10464 -1.53112 0
M  V30 3635 O 360.178 -0.114871 -1.82138 0
M  V30 3636 C 360.229 -3.49087 -0.939165 0
M  V30 3637 O 359.95 -4.37887 0.136614 0
M  V30 3638 C 361.451 -4.11543 -1.64763 0
M  V30 3639 H 358.671 -0.663484 -0.100148 0
M  V30 3640 H 361.215 -2.01614 0.342326 0
M  V30 3641 H 359.37 -3.50861 -1.64242 0
M  V30 3642 H 359.784 -5.23849 -0.261155 0
M  V30 3643 H 361.258 -5.15673 -1.96939 0
M  V30 3644 H 361.735 -3.56736 -2.56195 0
M  V30 3645 H 362.341 -4.13629 -0.989503 0
M  V30 3646 N 360.656 0.0484629 -1.57525 0
M  V30 3647 C 361.603 1.05504 -2.05275 0
M  V30 3648 C 362.573 1.37084 -0.937927 0
M  V30 3649 O 363.758 1.47754 -1.2072 0
M  V30 3650 C 360.898 2.35676 -2.52093 0
M  V30 3651 C 360.011 2.10423 -3.77288 0
M  V30 3652 C 359.146 3.34327 -4.12794 0
M  V30 3653 C 358.185 3.04542 -5.30962 0
M  V30 3654 N 357.322 4.20841 -5.61994 0
M  V30 3655 H 362.162 0.640885 -2.91027 0
M  V30 3656 H 359.699 0.304854 -1.43906 0
M  V30 3657 H 361.657 3.11709 -2.77297 0
M  V30 3658 H 360.287 2.7485 -1.69285 0
M  V30 3659 H 359.339 1.24976 -3.59284 0
M  V30 3660 H 360.651 1.84438 -4.63448 0
M  V30 3661 H 359.805 4.1874 -4.39024 0
M  V30 3662 H 358.544 3.63408 -3.25247 0
M  V30 3663 H 357.549 2.18528 -5.04505 0
M  V30 3664 H 358.774 2.76758 -6.20146 0
M  V30 3665 H 356.72 4.4991 -4.77406 0
M  V30 3666 H 356.637 3.98212 -6.42622 0
M  V30 3667 H 357.905 5.06184 -5.92789 0
M  V30 3668 N 362.134 1.5431 0.320358 0
M  V30 3669 C 363.38 1.72924 1.05949 0
M  V30 3670 C 363.713 0.503185 1.87568 0
M  V30 3671 O 362.988 -0.499839 1.87968 0
M  V30 3672 C 363.271 3.00676 1.98156 0
M  V30 3673 C 363.124 4.3354 1.19845 0
M  V30 3674 C 364.443 3.24198 2.9763 0
M  V30 3675 H 361.562 0.629195 0.383774 0
M  V30 3676 H 364.204 1.87008 0.335854 0
M  V30 3677 H 362.354 2.888 2.59859 0
M  V30 3678 H 364.026 4.57305 0.605773 0
M  V30 3679 H 362.269 4.309 0.500784 0
M  V30 3680 H 362.94 5.19156 1.87567 0
M  V30 3681 H 365.416 3.35557 2.4605 0
M  V30 3682 H 364.292 4.14938 3.59329 0
M  V30 3683 H 364.553 2.41577 3.7026 0
M  V30 3684 N 363.613 -0.582584 1.46437 0
M  V30 3685 C 364.861 -1.33814 1.51453 0
M  V30 3686 C 365.182 -1.94277 0.167792 0
M  V30 3687 O 364.452 -1.78566 -0.805677 0
M  V30 3688 H 363.032 -0.496838 0.557818 0
M  V30 3689 H 365.694 -0.682281 1.82568 0
M  V30 3690 H 364.79 -2.14479 2.26728 0
M  V30 3691 N 365.091 -1.34144 -0.827227 0
M  V30 3692 C 366.039 -1.25364 -1.95925 0
M  V30 3693 C 367.033 -0.152608 -1.68711 0
M  V30 3694 O 368.239 -0.317311 -1.77181 0
M  V30 3695 H 364.614 -0.389342 -0.643364 0
M  V30 3696 H 366.585 -2.21045 -2.00454 0
M  V30 3697 C 365.334 -1.02158 -3.32354 0
M  V30 3698 H 364.657 -1.86111 -3.5384 0
M  V30 3699 H 366.097 -1.00048 -4.12027 0
M  V30 3700 C 364.556 0.275244 -3.35774 0
M  V30 3701 O 365.086 1.27806 -3.80826 0
M  V30 3702 N 363.292 0.306853 -2.88975 0
M  V30 3703 H 362.839 -0.509777 -2.52506 0
M  V30 3704 H 362.797 1.17432 -2.91646 0
M  V30 3705 N 366.569 1.04691 -1.17803 0
M  V30 3706 C 367.846 1.7472 -0.879328 0
M  V30 3707 C 368.226 2.01812 0.619271 0
M  V30 3708 O 367.574 1.65824 1.57209 0
M  V30 3709 C 367.784 3.03686 -1.71976 0
M  V30 3710 C 369.132 3.77542 -1.94286 0
M  V30 3711 O 370.156 3.13569 -1.68976 0
M  V30 3712 O 369.015 4.92506 -2.36855 0
M  V30 3713 H 366.109 0.760011 -0.326056 0
M  V30 3714 H 368.655 1.10813 -1.28525 0
M  V30 3715 H 367.427 2.79754 -2.73594 0
M  V30 3716 H 367.05 3.75332 -1.31194 0
M  V30 3717 N 368.047 0.979072 1.23499 0
M  V30 3718 C 369.01 0.523244 2.23147 0
M  V30 3719 C 370.01 -0.386406 1.56088 0
M  V30 3720 O 371.2 -0.180283 1.73265 0
M  V30 3721 C 368.332 -0.240739 3.40049 0
M  V30 3722 H 369.525 1.40432 2.64989 0
M  V30 3723 H 367.078 0.764824 1.36309 0
M  V30 3724 H 367.813 -1.13841 3.03662 0
M  V30 3725 H 367.598 0.412207 3.89927 0
M  V30 3726 H 369.088 -0.548297 4.13985 0
M  V30 3727 N 369.525 -1.3858 0.750561 0
M  V30 3728 C 370.771 -2.00481 0.305825 0
M  V30 3729 C 371.104 -1.5944 -1.10872 0
M  V30 3730 O 370.379 -0.83052 -1.75877 0
M  V30 3731 C 370.662 -3.5758 0.425287 0
M  V30 3732 C 370.515 -4.08594 1.88072 0
M  V30 3733 C 371.834 -4.39719 -0.183122 0
M  V30 3734 H 368.953 -0.728348 0.112598 0
M  V30 3735 H 371.595 -1.64566 0.949638 0
M  V30 3736 H 369.745 -3.88306 -0.122828 0
M  V30 3737 H 371.417 -3.88523 2.48691 0
M  V30 3738 H 369.66 -3.61574 2.39681 0
M  V30 3739 H 370.331 -5.177 1.91548 0
M  V30 3740 H 372.807 -4.15128 0.284303 0
M  V30 3741 H 371.683 -5.48856 -0.0692757 0
M  V30 3742 H 371.944 -4.23434 -1.27106 0
M  V30 3743 N 371.003 -0.499398 -1.49478 0
M  V30 3744 C 371.966 0.268838 -2.27618 0
M  V30 3745 C 372.966 0.895383 -1.33565 0
M  V30 3746 O 374.156 0.760164 -1.56739 0
M  V30 3747 C 371.288 1.38559 -3.11471 0
M  V30 3748 H 372.481 -0.416812 -2.96989 0
M  V30 3749 H 370.034 -0.254313 -1.54217 0
M  V30 3750 H 370.769 2.10544 -2.46661 0
M  V30 3751 H 370.554 0.941797 -3.80621 0
M  V30 3752 H 372.044 1.92678 -3.70493 0
M  V30 3753 N 372.481 1.55866 -0.233164 0
M  V30 3754 C 373.429 2.22176 0.68851 0
M  V30 3755 C 374.423 1.20487 1.19076 0
M  V30 3756 O 375.629 1.38536 1.14925 0
M  V30 3757 H 372.004 0.712511 0.240483 0
M  V30 3758 H 373.975 2.98212 0.105935 0
M  V30 3759 C 372.724 2.92446 1.88071 0
M  V30 3760 H 372.047 3.70458 1.50337 0
M  V30 3761 H 373.487 3.42226 2.50314 0
M  V30 3762 C 371.946 1.95555 2.74335 0
M  V30 3763 O 372.476 1.47986 3.73447 0
M  V30 3764 N 370.682 1.62953 2.40613 0
M  V30 3765 H 370.229 2.01831 1.60069 0
M  V30 3766 H 370.187 0.983886 2.98609 0
M  V30 3767 N 373.959 -0.0401083 1.57549 0
M  V30 3768 C 375.187 -0.745196 1.93014 0
M  V30 3769 C 375.602 -1.6948 0.831984 0
M  V30 3770 O 374.959 -1.81482 -0.192463 0
M  V30 3771 C 375.01 -1.51176 3.28372 0
M  V30 3772 O 374.731 -0.600284 4.33968 0
M  V30 3773 C 376.232 -2.315 3.78051 0
M  V30 3774 H 373.452 -0.210088 0.637263 0
M  V30 3775 H 375.996 -0.000924689 2.045 0
M  V30 3776 H 374.151 -2.20801 3.18317 0
M  V30 3777 H 374.565 -1.13669 5.12035 0
M  V30 3778 H 376.039 -2.80697 4.75303 0
M  V30 3779 H 376.516 -3.12436 3.08675 0
M  V30 3780 H 377.122 -1.66971 3.91153 0
M  V30 3781 N 375.437 -1.54477 -0.31217 0
M  V30 3782 C 376.683 -1.73483 -1.0503 0
M  V30 3783 C 377.016 -0.513125 -1.87298 0
M  V30 3784 O 376.291 0.489864 -1.8823 0
M  V30 3785 C 376.574 -3.01723 -1.96558 0
M  V30 3786 C 376.427 -4.3417 -1.17545 0
M  V30 3787 C 377.746 -3.25772 -2.95907 0
M  V30 3788 H 374.865 -0.631222 -0.380432 0
M  V30 3789 H 377.507 -1.87184 -0.325932 0
M  V30 3790 H 375.657 -2.90174 -2.58324 0
M  V30 3791 H 377.329 -4.5762 -0.581513 0
M  V30 3792 H 375.572 -4.31159 -0.477925 0
M  V30 3793 H 376.243 -5.20143 -1.84811 0
M  V30 3794 H 378.719 -3.36857 -2.44267 0
M  V30 3795 H 377.595 -4.16838 -3.57123 0
M  V30 3796 H 377.856 -2.43537 -3.68974 0
M  V30 3797 N 376.915 0.57481 -1.46744 0
M  V30 3798 C 377.862 1.68329 -1.57905 0
M  V30 3799 C 378.832 1.60625 -0.422927 0
M  V30 3800 O 380.017 1.79721 -0.640711 0
M  V30 3801 C 377.157 3.06665 -1.58274 0
M  V30 3802 C 376.27 3.24935 -2.84678 0
M  V30 3803 C 375.405 4.53566 -2.76499 0
M  V30 3804 C 374.444 4.65207 -3.97806 0
M  V30 3805 N 373.581 5.85172 -3.87967 0
M  V30 3806 H 378.421 1.58127 -2.52587 0
M  V30 3807 H 375.958 0.770552 -1.25303 0
M  V30 3808 H 377.916 3.86745 -1.56473 0
M  V30 3809 H 376.546 3.15745 -0.671194 0
M  V30 3810 H 375.598 2.38405 -2.96424 0
M  V30 3811 H 376.91 3.29403 -3.7456 0
M  V30 3812 H 376.064 5.41885 -2.72848 0
M  V30 3813 H 374.803 4.51548 -1.8427 0
M  V30 3814 H 373.808 3.75304 -4.0178 0
M  V30 3815 H 375.033 4.68997 -4.9114 0
M  V30 3816 H 372.979 5.84137 -2.98529 0
M  V30 3817 H 372.896 5.90943 -4.71511 0
M  V30 3818 H 374.164 6.759 -3.88303 0
M  V30 3819 N 378.394 1.34581 0.820102 0
M  V30 3820 C 379.643 1.26437 1.57151 0
M  V30 3821 C 379.956 -0.163111 1.94919 0
M  V30 3822 O 381.162 -0.366722 2.69012 0
M  V30 3823 C 379.618 2.21658 2.83541 0
M  V30 3824 C 379.226 3.69679 2.53065 0
M  V30 3825 C 380.97 2.22428 3.61561 0
M  V30 3826 C 378.877 4.56761 3.75664 0
M  V30 3827 H 377.807 0.469707 0.589823 0
M  V30 3828 H 380.458 1.59763 0.902656 0
M  V30 3829 H 378.84 1.81287 3.52067 0
M  V30 3830 H 380.014 4.18605 1.92631 0
M  V30 3831 H 378.329 3.71384 1.88316 0
M  V30 3832 H 380.926 2.8471 4.52597 0
M  V30 3833 H 381.269 1.22434 3.97889 0
M  V30 3834 H 381.802 2.61259 2.99981 0
M  V30 3835 H 378.541 5.57702 3.44454 0
M  V30 3836 H 378.061 4.12568 4.35371 0
M  V30 3837 H 379.74 4.71509 4.43044 0
M  V30 3838 N 379.872 -1.04064 1.18357 0
M  V30 3839 C 380.819 -2.12077 0.910603 0
M  V30 3840 C 381.789 -1.65421 -0.15 0
M  V30 3841 O 382.974 -1.90797 -0.0103614 0
M  V30 3842 C 380.114 -3.42252 0.442472 0
M  V30 3843 C 379.227 -4.0252 1.5685 0
M  V30 3844 C 378.362 -5.20657 1.05309 0
M  V30 3845 C 377.401 -5.72955 2.1538 0
M  V30 3846 N 376.538 -6.8238 1.65233 0
M  V30 3847 H 381.378 -2.34764 1.83548 0
M  V30 3848 H 378.915 -1.15157 0.915279 0
M  V30 3849 H 380.873 -4.16921 0.152534 0
M  V30 3850 H 379.503 -3.19712 -0.445428 0
M  V30 3851 H 378.555 -3.25178 1.97391 0
M  V30 3852 H 379.867 -4.37362 2.39824 0
M  V30 3853 H 379.021 -6.0244 0.717677 0
M  V30 3854 H 377.76 -4.87318 0.19293 0
M  V30 3855 H 376.765 -4.89793 2.49766 0
M  V30 3856 H 377.99 -6.08337 3.01832 0
M  V30 3857 H 375.936 -6.50917 0.815064 0
M  V30 3858 H 375.853 -7.16286 2.41805 0
M  V30 3859 H 377.121 -7.67788 1.34619 0
M  V30 3860 N 381.35 -0.985608 -1.22978 0
M  V30 3861 C 382.578 -0.675582 -1.95559 0
M  V30 3862 C 382.993 0.758413 -1.72897 0
M  V30 3863 O 382.35 1.51094 -1.02357 0
M  V30 3864 C 382.401 -0.96293 -3.48439 0
M  V30 3865 O 382.122 -2.34057 -3.70336 0
M  V30 3866 C 383.623 -0.669585 -4.38214 0
M  V30 3867 H 380.843 -0.250523 -0.622478 0
M  V30 3868 H 383.387 -1.3184 -1.56328 0
M  V30 3869 H 381.542 -0.366033 -3.85667 0
M  V30 3870 H 381.956 -2.43424 -4.64591 0
M  V30 3871 H 383.43 -0.920967 -5.44263 0
M  V30 3872 H 383.907 0.396383 -4.37408 0
M  V30 3873 H 384.513 -1.2472 -4.06602 0
M  V30 3874 N 382.828 1.3818 -0.7579 0
M  V30 3875 C 384.074 2.00316 -0.316453 0
M  V30 3876 C 384.407 1.60026 1.10025 0
M  V30 3877 O 383.682 0.839835 1.75434 0
M  V30 3878 C 383.965 3.57349 -0.444245 0
M  V30 3879 C 383.818 4.07591 -1.90236 0
M  V30 3880 C 385.137 4.3981 0.1598 0
M  V30 3881 H 382.256 0.727741 -0.116459 0
M  V30 3882 H 384.898 1.6406 -0.958352 0
M  V30 3883 H 383.048 3.88365 0.102233 0
M  V30 3884 H 384.72 3.87199 -2.50748 0
M  V30 3885 H 382.963 3.60297 -2.41595 0
M  V30 3886 H 383.634 5.16677 -1.94291 0
M  V30 3887 H 386.11 4.14971 -0.306314 0
M  V30 3888 H 384.986 5.48885 0.0401675 0
M  V30 3889 H 385.247 4.24102 1.24859 0
M  V30 3890 N 384.306 0.507319 1.49211 0
M  V30 3891 C 385.253 -0.267728 2.29242 0
M  V30 3892 C 386.223 -0.954609 1.35928 0
M  V30 3893 O 387.408 -0.960046 1.64887 0
M  V30 3894 C 384.548 -1.32243 3.18756 0
M  V30 3895 C 383.661 -0.64669 4.27132 0
M  V30 3896 C 382.796 -1.68238 5.03855 0
M  V30 3897 C 381.835 -0.98885 6.0406 0
M  V30 3898 N 380.972 -1.96903 6.73924 0
M  V30 3899 H 385.812 0.420968 2.95012 0
M  V30 3900 H 383.349 0.219443 1.45454 0
M  V30 3901 H 385.307 -1.94599 3.69036 0
M  V30 3902 H 383.937 -1.97981 2.54958 0
M  V30 3903 H 382.989 0.0902926 3.80293 0
M  V30 3904 H 384.301 -0.101058 4.98698 0
M  V30 3905 H 383.455 -2.38081 5.58034 0
M  V30 3906 H 382.194 -2.26187 4.32077 0
M  V30 3907 H 381.199 -0.276222 5.49106 0
M  V30 3908 H 382.424 -0.415767 6.77826 0
M  V30 3909 H 380.37 -2.53803 6.04913 0
M  V30 3910 H 380.287 -1.47423 7.41487 0
M  V30 3911 H 381.555 -2.66015 7.32705 0
M  V30 3912 N 385.784 -1.5574 0.241426 0
M  V30 3913 C 386.732 -2.22538 -0.676718 0
M  V30 3914 C 387.726 -1.21117 -1.18436 0
M  V30 3915 O 388.932 -1.39144 -1.14188 0
M  V30 3916 H 385.307 -0.713776 -0.236701 0
M  V30 3917 H 387.278 -2.98264 -0.0901187 0
M  V30 3918 C 386.027 -2.93439 -1.86518 0
M  V30 3919 H 385.35 -3.7125 -1.4837 0
M  V30 3920 H 386.79 -3.43549 -2.48495 0
M  V30 3921 C 385.249 -1.97008 -2.73294 0
M  V30 3922 O 385.779 -1.49965 -3.72657 0
M  V30 3923 N 383.985 -1.64227 -2.39745 0
M  V30 3924 H 383.532 -2.02677 -1.58996 0
M  V30 3925 H 383.49 -0.999708 -2.98083 0
M  V30 3926 N 387.262 0.0317525 -1.57568 0
M  V30 3927 C 388.209 1.0332 -2.06382 0
M  V30 3928 C 389.179 1.36082 -0.952414 0
M  V30 3929 O 390.364 1.46466 -1.2228 0
M  V30 3930 C 387.504 2.32989 -2.54578 0
M  V30 3931 C 386.617 2.0641 -3.79498 0
M  V30 3932 C 385.752 3.2993 -4.16317 0
M  V30 3933 C 384.791 2.98893 -5.34162 0
M  V30 3934 N 383.928 4.14857 -5.66426 0
M  V30 3935 H 388.768 0.609982 -2.9169 0
M  V30 3936 H 386.305 0.289573 -1.44222 0
M  V30 3937 H 388.263 3.0875 -2.80587 0
M  V30 3938 H 386.893 2.73039 -1.7219 0
M  V30 3939 H 385.945 1.21158 -3.6059 0
M  V30 3940 H 387.257 1.79513 -4.65378 0
M  V30 3941 H 386.411 4.1406 -4.4344 0
M  V30 3942 H 385.15 3.59938 -3.29083 0
M  V30 3943 H 384.155 2.13164 -5.06795 0
M  V30 3944 H 385.38 2.70165 -6.23047 0
M  V30 3945 H 383.326 4.44821 -4.82151 0
M  V30 3946 H 383.243 3.91374 -6.4681 0
M  V30 3947 H 384.511 4.99868 -5.98124 0
M  V30 3948 N 388.74 1.54641 0.303973 0
M  V30 3949 C 389.986 1.74038 1.04109 0
M  V30 3950 C 390.319 0.523051 1.87024 0
M  V30 3951 O 389.594 -0.479874 1.88487 0
M  V30 3952 C 389.877 3.02761 1.94955 0
M  V30 3953 C 389.73 4.34787 1.1524 0
M  V30 3954 C 391.049 3.27336 2.94175 0
M  V30 3955 H 388.168 0.63323 0.377079 0
M  V30 3956 H 390.81 1.87354 0.316001 0
M  V30 3957 H 388.96 2.9154 2.56782 0
M  V30 3958 H 390.632 4.57922 0.557236 0
M  V30 3959 H 388.875 4.31407 0.455053 0
M  V30 3960 H 389.546 5.21116 1.8205 0
M  V30 3961 H 392.022 3.38148 2.42477 0
M  V30 3962 H 390.898 4.18726 3.54908 0
M  V30 3963 H 391.159 2.45491 3.67677 0
M  V30 3964 N 390.218 -0.567019 1.47046 0
M  V30 3965 C 391.181 -1.65696 1.58359 0
M  V30 3966 C 392.181 -1.54097 0.459441 0
M  V30 3967 O 393.371 -1.58432 0.724225 0
M  V30 3968 C 390.503 -3.05197 1.51879 0
M  V30 3969 H 391.696 -1.57019 2.5551 0
M  V30 3970 H 389.249 -0.786148 1.3509 0
M  V30 3971 H 389.984 -3.19417 0.560673 0
M  V30 3972 H 389.769 -3.15025 2.33455 0
M  V30 3973 H 391.259 -3.84511 1.62913 0
M  V30 3974 N 391.696 -1.35014 -0.812953 0
M  V30 3975 C 392.659 -1.27292 -1.90602 0
M  V30 3976 C 393.659 -0.185817 -1.59723 0
M  V30 3977 O 394.849 -0.439102 -1.68575 0
M  V30 3978 C 391.981 -0.967676 -3.26877 0
M  V30 3979 H 393.174 -2.24479 -1.9887 0
M  V30 3980 H 390.727 -1.19446 -1.00808 0
M  V30 3981 H 391.462 0.0005954 -3.243 0
M  V30 3982 H 391.247 -1.75412 -3.50675 0
M  V30 3983 H 392.737 -0.939085 -4.06904 0
M  V30 3984 N 393.175 1.03435 -1.18907 0
M  V30 3985 C 394.586 1.58195 -0.991523 0
M  V30 3986 C 394.937 1.90801 0.457081 0
M  V30 3987 O 394.062 1.70272 1.33553 0
M  V30 3988 C 394.657 2.87432 -1.79355 0
M  V30 3989 C 393.216 3.38785 -1.64017 0
M  V30 3990 C 392.363 2.12292 -1.78402 0
M  V30 3991 H 395.314 0.860299 -1.33359 0
M  V30 3992 H 395.335 3.58096 -1.28638 0
M  V30 3993 H 394.847 2.63669 -2.84781 0
M  V30 3994 H 392.948 3.67547 -0.611536 0
M  V30 3995 H 393.061 4.12186 -2.44212 0
M  V30 3996 H 391.425 2.23901 -1.2141 0
M  V30 3997 H 392.208 1.90977 -2.85277 0
M  V30 3998 N 394.653 0.992116 1.22453 0
M  V30 3999 C 395.9 0.667534 1.91181 0
M  V30 4000 C 396.228 -0.800317 1.77271 0
M  V30 4001 O 395.483 -1.59421 1.13505 0
M  V30 4002 C 395.782 1.01832 3.42586 0
M  V30 4003 C 395.448 2.47831 3.76684 0
M  V30 4004 C 394.11 2.87729 3.85701 0
M  V30 4005 C 396.462 3.42466 3.92895 0
M  V30 4006 C 393.79 4.21252 4.08367 0
M  V30 4007 C 396.142 4.75648 4.17064 0
M  V30 4008 C 394.806 5.15288 4.24305 0
M  V30 4009 H 394.076 0.244268 0.699581 0
M  V30 4010 H 396.723 1.24816 1.45235 0
M  V30 4011 H 395.028 0.355769 3.90181 0
M  V30 4012 H 396.725 0.745228 3.94014 0
M  V30 4013 H 393.315 2.15905 3.70247 0
M  V30 4014 H 397.499 3.12814 3.85307 0
M  V30 4015 H 392.755 4.51554 4.122 0
M  V30 4016 H 396.929 5.48924 4.2855 0
M  V30 4017 H 394.556 6.18769 4.41621 0
M  V30 4018 N 396.131 -1.37776 0.765217 0
M  V30 4019 C 397.078 -2.30342 0.145274 0
M  V30 4020 C 398.048 -1.5077 -0.696971 0
M  V30 4021 O 399.233 -1.79362 -0.650689 0
M  V30 4022 C 396.373 -3.37227 -0.732939 0
M  V30 4023 C 395.486 -4.31819 0.125199 0
M  V30 4024 C 394.621 -5.25777 -0.757107 0
M  V30 4025 C 393.66 -6.12012 0.103963 0
M  V30 4026 N 392.797 -6.98232 -0.735953 0
M  V30 4027 H 397.637 -2.8278 0.940195 0
M  V30 4028 H 395.174 -1.39211 0.475255 0
M  V30 4029 H 397.132 -3.97818 -1.25686 0
M  V30 4030 H 395.762 -2.86171 -1.49353 0
M  V30 4031 H 394.814 -3.7259 0.766865 0
M  V30 4032 H 396.126 -4.92509 0.789683 0
M  V30 4033 H 395.28 -5.91541 -1.34776 0
M  V30 4034 H 394.019 -4.65481 -1.45529 0
M  V30 4035 H 393.024 -5.45233 0.707197 0
M  V30 4036 H 394.249 -6.74379 0.799381 0
M  V30 4037 H 392.195 -6.40472 -1.41887 0
M  V30 4038 H 392.112 -7.55891 -0.128624 0
M  V30 4039 H 393.38 -7.68393 -1.31121 0
M  V30 4040 N 397.609 -0.515225 -1.4894 0
M  V30 4041 C 398.519 0.259774 -2.33157 0
M  V30 4042 C 399.535 0.953501 -1.45548 0
M  V30 4043 O 400.711 0.931735 -1.78552 0
M  V30 4044 C 397.776 1.30193 -3.21326 0
M  V30 4045 C 396.837 0.620129 -4.24797 0
M  V30 4046 C 396.07 1.61263 -5.08753 0
M  V30 4047 O 396.293 2.84389 -4.94448 0
M  V30 4048 O 395.227 1.16013 -5.90614 0
M  V30 4049 H 399.053 -0.429932 -3.00641 0
M  V30 4050 H 396.638 -0.276346 -1.46822 0
M  V30 4051 H 398.52 1.90455 -3.75905 0
M  V30 4052 H 397.195 1.97431 -2.56521 0
M  V30 4053 H 396.102 -0.0226019 -3.74093 0
M  V30 4054 H 397.435 -0.0100493 -4.92199 0
M  V30 4055 N 399.087 1.5561 -0.249682 0
M  V30 4056 C 400.333 1.99306 0.374841 0
M  V30 4057 C 400.666 1.13767 1.57387 0
M  V30 4058 O 399.941 0.201711 1.93451 0
M  V30 4059 C 400.224 3.51507 0.781986 0
M  V30 4060 C 400.077 4.4781 -0.422629 0
M  V30 4061 C 401.396 4.08884 1.62793 0
M  V30 4062 H 398.515 0.724572 0.134773 0
M  V30 4063 H 401.157 1.86719 -0.351549 0
M  V30 4064 H 399.307 3.62363 1.4009 0
M  V30 4065 H 400.979 4.48931 -1.06108 0
M  V30 4066 H 399.222 4.20518 -1.06524 0
M  V30 4067 H 399.893 5.51919 -0.0943766 0
M  V30 4068 H 402.369 4.01147 1.10547 0
M  V30 4069 H 401.245 5.1564 1.88166 0
M  V30 4070 H 401.506 3.57515 2.60068 0
M  V30 4071 N 400.565 -0.0233959 1.57583 0
M  V30 4072 C 401.475 -1.03907 2.10334 0
M  V30 4073 C 402.491 -1.39257 1.04323 0
M  V30 4074 O 403.667 -1.48462 1.36091 0
M  V30 4075 C 400.732 -2.31938 2.57693 0
M  V30 4076 C 399.793 -2.03117 3.78209 0
M  V30 4077 C 399.026 -3.25043 4.233 0
M  V30 4078 O 399.249 -4.35916 3.67876 0
M  V30 4079 O 398.183 -3.10411 5.15683 0
M  V30 4080 H 402.009 -0.620748 2.97288 0
M  V30 4081 H 399.594 -0.240743 1.47448 0
M  V30 4082 H 401.476 -3.07196 2.88458 0
M  V30 4083 H 400.151 -2.73055 1.73847 0
M  V30 4084 H 399.058 -1.25408 3.52454 0
M  V30 4085 H 400.391 -1.66852 4.63056 0
M  V30 4086 N 402.043 -1.548 -0.295768 0
M  V30 4087 C 402.973 -1.89115 -1.36959 0
M  V30 4088 C 403.954 -0.75059 -1.52644 0
M  V30 4089 O 405.139 -1.00678 -1.66065 0
M  V30 4090 C 402.269 -2.14307 -2.73295 0
M  V30 4091 C 401.223 -3.30151 -2.72368 0
M  V30 4092 C 400.549 -3.40772 -4.12042 0
M  V30 4093 C 401.849 -4.67126 -2.33646 0
M  V30 4094 H 403.543 -2.79053 -1.08488 0
M  V30 4095 H 401.089 -1.34266 -0.520443 0
M  V30 4096 H 403.042 -2.36898 -3.48507 0
M  V30 4097 H 401.766 -1.21145 -3.03301 0
M  V30 4098 H 400.425 -3.0749 -1.99613 0
M  V30 4099 H 400.073 -2.45117 -4.39234 0
M  V30 4100 H 399.773 -4.18645 -4.12322 0
M  V30 4101 H 401.297 -3.6563 -4.89027 0
M  V30 4102 H 402.711 -4.89414 -2.98575 0
M  V30 4103 H 401.108 -5.47751 -2.45129 0
M  V30 4104 H 402.178 -4.67489 -1.28772 0
M  V30 4105 N 403.521 0.559213 -1.47345 0
M  V30 4106 C 404.484 1.64854 -1.59235 0
M  V30 4107 C 405.484 1.53851 -0.467607 0
M  V30 4108 O 406.674 1.58045 -0.732617 0
M  V30 4109 C 403.806 3.04388 -1.53496 0
M  V30 4110 H 404.999 1.55662 -2.56339 0
M  V30 4111 H 402.552 0.778973 -1.35505 0
M  V30 4112 H 403.287 3.19115 -0.577604 0
M  V30 4113 H 403.072 3.13783 -2.35123 0
M  V30 4114 H 404.562 3.83642 -1.6495 0
M  V30 4115 N 404.999 1.35443 0.805782 0
M  V30 4116 C 405.929 1.31095 1.93226 0
M  V30 4117 C 406.91 0.185244 1.69088 0
M  V30 4118 O 408.095 0.380332 1.90439 0
M  V30 4119 C 405.225 1.08299 3.29983 0
M  V30 4120 C 404.179 2.17519 3.68605 0
M  V30 4121 C 403.505 1.79887 5.03532 0
M  V30 4122 C 404.805 3.5949 3.78898 0
M  V30 4123 H 406.499 2.25352 1.97122 0
M  V30 4124 H 404.045 1.0848 0.946996 0
M  V30 4125 H 405.998 1.03897 4.08391 0
M  V30 4126 H 404.722 0.104885 3.26432 0
M  V30 4127 H 403.381 2.2102 2.92482 0
M  V30 4128 H 403.029 0.80693 4.96485 0
M  V30 4129 H 402.729 2.53001 5.30344 0
M  V30 4130 H 404.253 1.77011 5.84379 0
M  V30 4131 H 405.667 3.58307 4.47536 0
M  V30 4132 H 404.064 4.31371 4.1718 0
M  V30 4133 H 405.134 3.95584 2.80431 0
M  V30 4134 N 406.477 -1.02803 1.19454 0
M  V30 4135 C 407.723 -1.76478 0.999171 0
M  V30 4136 C 408.056 -1.88456 -0.468828 0
M  V30 4137 O 407.331 -1.40198 -1.34814 0
M  V30 4138 C 407.614 -3.19044 1.66981 0
M  V30 4139 C 407.467 -3.14932 3.21151 0
M  V30 4140 C 408.786 -4.17456 1.39349 0
M  V30 4141 H 405.905 -0.640614 0.364393 0
M  V30 4142 H 408.547 -1.20005 1.47305 0
M  V30 4143 H 406.697 -3.67263 1.2669 0
M  V30 4144 H 408.369 -2.74605 3.70661 0
M  V30 4145 H 406.612 -2.52625 3.52652 0
M  V30 4146 H 407.283 -4.1566 3.63223 0
M  V30 4147 H 409.759 -3.77842 1.74283 0
M  V30 4148 H 408.635 -5.154 1.88823 0
M  V30 4149 H 408.896 -4.40949 0.318813 0
M  V30 4150 N 407.956 -0.998596 -1.21925 0
M  V30 4151 C 409.186 -0.695276 -1.94549 0
M  V30 4152 C 409.594 0.745079 -1.73911 0
M  V30 4153 O 408.937 1.51507 -1.03881 0
M  V30 4154 C 408.999 -0.928485 -3.47303 0
M  V30 4155 C 408.663 -2.35443 -3.91683 0
M  V30 4156 C 409.66 -3.33428 -3.98901 0
M  V30 4157 C 407.345 -2.69038 -4.24174 0
M  V30 4158 C 409.339 -4.63079 -4.37992 0
M  V30 4159 C 407.026 -3.98906 -4.62944 0
M  V30 4160 C 408.024 -4.95738 -4.69822 0
M  V30 4161 O 407.712 -6.23285 -5.07711 0
M  V30 4162 H 407.444 -0.255902 -0.625692 0
M  V30 4163 H 409.998 -1.33767 -1.5587 0
M  V30 4164 H 408.228 -0.228917 -3.86022 0
M  V30 4165 H 409.917 -0.619539 -4.01144 0
M  V30 4166 H 410.683 -3.08807 -3.73983 0
M  V30 4167 H 406.562 -1.94367 -4.18022 0
M  V30 4168 H 410.106 -5.38658 -4.43275 0
M  V30 4169 H 406.003 -4.23314 -4.87314 0
M  V30 4170 H 406.771 -6.27306 -5.25766 0
M  V30 4171 N 409.434 1.37368 -0.772513 0
M  V30 4172 C 410.682 1.99279 -0.336516 0
M  V30 4173 C 411.003 1.6163 1.09091 0
M  V30 4174 O 410.273 0.882109 1.74916 0
M  V30 4175 H 408.853 0.737063 -0.121435 0
M  V30 4176 H 411.515 1.67836 -0.990809 0
M  V30 4177 H 410.611 3.09332 -0.414763 0
M  V30 4178 N 410.912 0.523116 1.48665 0
M  V30 4179 C 411.859 -0.243398 2.29513 0
M  V30 4180 C 412.829 -0.940139 1.36933 0
M  V30 4181 O 414.014 -0.942503 1.65896 0
M  V30 4182 C 411.154 -1.28855 3.20141 0
M  V30 4183 C 410.267 -0.60135 4.27794 0
M  V30 4184 C 409.402 -1.62884 5.05611 0
M  V30 4185 C 408.441 -0.924726 6.05075 0
M  V30 4186 N 407.578 -1.89744 6.75975 0
M  V30 4187 H 412.418 0.452234 2.94549 0
M  V30 4188 H 409.955 0.234858 1.45213 0
M  V30 4189 H 411.913 -1.90674 3.71079 0
M  V30 4190 H 410.543 -1.95266 2.57043 0
M  V30 4191 H 409.595 0.130623 3.80176 0
M  V30 4192 H 410.907 -0.0481585 4.98777 0
M  V30 4193 H 410.061 -2.32149 5.60528 0
M  V30 4194 H 408.8 -2.21592 4.34452 0
M  V30 4195 H 407.805 -0.217966 5.49368 0
M  V30 4196 H 409.03 -0.343851 6.78229 0
M  V30 4197 H 406.976 -2.47373 6.07571 0
M  V30 4198 H 406.893 -1.3955 7.43009 0
M  V30 4199 H 408.161 -2.58229 7.35485 0
M  V30 4200 N 412.39 -1.55475 0.257931 0
M  V30 4201 C 413.638 -1.98813 -0.363009 0
M  V30 4202 C 413.959 -1.14757 -1.57657 0
M  V30 4203 O 413.229 -0.232956 -1.9451 0
M  V30 4204 H 411.809 -0.734308 -0.137113 0
M  V30 4205 H 414.471 -1.9156 0.359281 0
M  V30 4206 H 413.567 -3.04941 -0.664634 0
M  V30 4207 N 413.868 0.0150385 -1.57593 0
M  V30 4208 C 415.115 0.703001 -1.89906 0
M  V30 4209 C 415.443 1.74604 -0.856944 0
M  V30 4210 O 414.698 1.95197 0.140287 0
M  V30 4211 C 414.997 1.39686 -3.28972 0
M  V30 4212 C 414.663 0.488457 -4.48246 0
M  V30 4213 C 413.325 0.2383 -4.8061 0
M  V30 4214 C 415.677 -0.137881 -5.21018 0
M  V30 4215 C 413.005 -0.646738 -5.83125 0
M  V30 4216 C 415.357 -1.0107 -6.24474 0
M  V30 4217 C 414.021 -1.27019 -6.55303 0
M  V30 4218 H 413.291 0.257246 -0.694914 0
M  V30 4219 H 415.938 -0.037259 -1.91464 0
M  V30 4220 H 414.243 2.21079 -3.23468 0
M  V30 4221 H 415.94 1.93495 -3.51227 0
M  V30 4222 H 412.53 0.693593 -4.22951 0
M  V30 4223 H 416.714 0.0423953 -4.96282 0
M  V30 4224 H 411.97 -0.855937 -6.05379 0
M  V30 4225 H 416.144 -1.50247 -6.79999 0
M  V30 4226 H 413.771 -1.95769 -7.3456 0
M  V30 4227 N 415.346 1.54954 0.287554 0
M  V30 4228 C 416.623 1.65569 1.04146 0
M  V30 4229 C 417.003 0.512672 2.0478 0
M  V30 4230 O 416.351 -0.489038 2.23205 0
M  V30 4231 C 416.561 3.04163 1.71131 0
M  V30 4232 C 417.909 3.61429 2.22832 0
M  V30 4233 O 418.933 3.06702 1.81141 0
M  V30 4234 O 417.792 4.57281 2.9926 0
M  V30 4235 H 414.886 0.671881 0.482188 0
M  V30 4236 H 417.432 1.67297 0.28457 0
M  V30 4237 H 416.204 3.78796 0.981303 0
M  V30 4238 H 415.827 3.06271 2.53543 0
M  V30 4239 N 416.824 -0.551391 1.4764 0
M  V30 4240 C 417.756 -1.67333 1.56628 0
M  V30 4241 C 418.769 -1.56398 0.452045 0
M  V30 4242 O 419.958 -1.6325 0.721926 0
M  V30 4243 C 417.058 -3.05841 1.45994 0
M  V30 4244 C 416.231 -3.42472 2.72088 0
M  V30 4245 C 415.29 -4.60168 2.55209 0
M  V30 4246 O 414.316 -4.64458 3.2904 0
M  V30 4247 N 415.518 -5.57024 1.63416 0
M  V30 4248 H 418.283 -1.60066 2.53375 0
M  V30 4249 H 415.844 -0.738169 1.44093 0
M  V30 4250 H 417.836 -3.8242 1.32428 0
M  V30 4251 H 416.406 -3.07302 0.573071 0
M  V30 4252 H 415.626 -2.55284 3.00373 0
M  V30 4253 H 416.914 -3.63723 3.55785 0
M  V30 4254 H 416.312 -5.56319 1.02594 0
M  V30 4255 H 414.869 -6.32906 1.558 0
M  V30 4256 N 418.302 -1.35869 -0.798587 0
M  V30 4257 C 419.232 -1.32118 -1.92528 0
M  V30 4258 C 420.213 -0.194209 -1.68988 0
M  V30 4259 O 421.398 -0.390426 -1.90235 0
M  V30 4260 C 418.528 -1.10047 -3.29404 0
M  V30 4261 C 417.482 -2.19471 -3.67446 0
M  V30 4262 C 416.808 -1.82555 -5.02571 0
M  V30 4263 C 418.108 -3.61495 -3.76987 0
M  V30 4264 H 419.802 -2.26394 -1.95924 0
M  V30 4265 H 417.348 -1.08981 -0.94123 0
M  V30 4266 H 419.301 -1.06061 -4.07835 0
M  V30 4267 H 418.025 -0.122195 -3.26371 0
M  V30 4268 H 416.684 -2.22568 -2.91306 0
M  V30 4269 H 416.332 -0.833249 -4.9605 0
M  V30 4270 H 416.032 -2.5581 -5.28995 0
M  V30 4271 H 417.556 -1.80108 -5.83432 0
M  V30 4272 H 418.97 -3.60676 -4.4563 0
M  V30 4273 H 417.367 -4.33577 -4.14887 0
M  V30 4274 H 418.437 -3.97065 -2.78329 0
M  V30 4275 N 419.78 1.02168 -1.19998 0
M  V30 4276 C 421.005 1.79833 -1.03319 0
M  V30 4277 C 421.43 1.83504 0.413281 0
M  V30 4278 O 420.788 1.26635 1.29743 0
M  V30 4279 C 420.836 3.22396 -1.61533 0
M  V30 4280 O 419.94 4.03555 -0.849519 0
M  V30 4281 H 419.281 0.554872 -0.364709 0
M  V30 4282 H 421.811 1.28542 -1.59179 0
M  V30 4283 H 421.821 3.73124 -1.65054 0
M  V30 4284 H 420.496 3.19039 -2.66809 0
M  V30 4285 H 419.073 3.62169 -0.888129 0
M  V30 4286 N 421.258 1.00505 1.21394 0
M  V30 4287 C 422.535 0.603277 1.86064 0
M  V30 4288 C 422.915 -0.919095 1.90042 0
M  V30 4289 O 422.263 -1.80607 1.39977 0
M  V30 4290 C 422.473 1.23772 3.26315 0
M  V30 4291 C 423.821 1.34586 4.02705 0
M  V30 4292 O 424.845 1.19304 3.35626 0
M  V30 4293 O 423.704 1.59169 5.22807 0
M  V30 4294 H 420.798 0.206634 0.800769 0
M  V30 4295 H 423.344 1.1017 1.29076 0
M  V30 4296 H 422.116 2.27848 3.18121 0
M  V30 4297 H 421.739 0.725648 3.90922 0
M  V30 4298 N 422.737 -1.36956 0.779787 0
M  V30 4299 C 423.667 -2.32761 0.185651 0
M  V30 4300 C 424.648 -1.56177 -0.673989 0
M  V30 4301 O 425.833 -1.84378 -0.609797 0
M  V30 4302 C 422.963 -3.40418 -0.687964 0
M  V30 4303 C 421.917 -4.27941 0.0710102 0
M  V30 4304 C 421.243 -5.26681 -0.922573 0
M  V30 4305 C 422.543 -5.07006 1.25467 0
M  V30 4306 H 424.237 -2.82698 0.986008 0
M  V30 4307 H 421.783 -1.3592 0.475592 0
M  V30 4308 H 423.736 -4.06423 -1.11348 0
M  V30 4309 H 422.46 -2.89025 -1.52093 0
M  V30 4310 H 421.119 -3.63478 0.47739 0
M  V30 4311 H 420.767 -4.71565 -1.7503 0
M  V30 4312 H 420.467 -5.86103 -0.419237 0
M  V30 4313 H 421.991 -5.9556 -1.34686 0
M  V30 4314 H 423.405 -5.66105 0.905401 0
M  V30 4315 H 421.802 -5.75793 1.69063 0
M  V30 4316 H 422.872 -4.3921 2.05481 0
M  V30 4317 N 424.215 -0.530993 -1.48385 0
M  V30 4318 C 425.461 0.00274135 -2.028 0
M  V30 4319 C 425.794 1.33838 -1.40716 0
M  V30 4320 O 425.069 1.86465 -0.553277 0
M  V30 4321 C 425.352 0.123676 -3.59888 0
M  V30 4322 C 425.205 -1.2372 -4.3245 0
M  V30 4323 C 426.524 0.849967 -4.31814 0
M  V30 4324 H 423.643 -0.000477758 -0.737 0
M  V30 4325 H 426.285 -0.688217 -1.77098 0
M  V30 4326 H 424.435 0.712157 -3.81917 0
M  V30 4327 H 426.107 -1.86687 -4.21836 0
M  V30 4328 H 424.35 -1.81882 -3.93829 0
M  V30 4329 H 425.021 -1.10557 -5.40815 0
M  V30 4330 H 427.497 0.350572 -4.14621 0
M  V30 4331 H 426.373 0.903486 -5.41413 0
M  V30 4332 H 426.634 1.90047 -3.99167 0
M  V30 4333 N 425.693 1.55336 -0.266172 0
M  V30 4334 C 426.941 1.99003 0.35246 0
M  V30 4335 C 427.262 1.15591 1.57047 0
M  V30 4336 O 426.532 0.243268 1.94384 0
M  V30 4337 H 425.112 0.735025 0.133217 0
M  V30 4338 H 427.774 1.91367 -0.369434 0
M  V30 4339 H 426.87 3.05289 0.648453 0
M  V30 4340 N 427.171 -0.0066808 1.57599 0
M  V30 4341 C 428.101 -0.999296 2.11036 0
M  V30 4342 C 429.082 -1.36278 1.01795 0
M  V30 4343 O 430.267 -1.4477 1.29442 0
M  V30 4344 C 427.397 -2.29328 2.60818 0
M  V30 4345 C 426.351 -2.07159 3.74525 0
M  V30 4346 C 425.677 -3.42512 4.10596 0
M  V30 4347 C 426.977 -1.43959 5.02069 0
M  V30 4348 H 428.671 -0.554382 2.94223 0
M  V30 4349 H 426.217 -0.265221 1.41536 0
M  V30 4350 H 428.17 -2.99117 2.96828 0
M  V30 4351 H 426.894 -2.7592 1.74745 0
M  V30 4352 H 425.553 -1.39797 3.38899 0
M  V30 4353 H 425.201 -3.86795 3.21556 0
M  V30 4354 H 424.901 -3.28498 4.87199 0
M  V30 4355 H 426.425 -4.13628 4.4916 0
M  V30 4356 H 427.839 -2.03696 5.35893 0
M  V30 4357 H 426.236 -1.40452 5.83432 0
M  V30 4358 H 427.306 -0.407992 4.83181 0
M  V30 4359 N 428.649 -1.55105 -0.279332 0
M  V30 4360 C 429.612 -1.86783 -1.32834 0
M  V30 4361 C 430.612 -0.74199 -1.42657 0
M  V30 4362 O 431.802 -1.0102 -1.41918 0
M  V30 4363 C 428.934 -2.06746 -2.71052 0
M  V30 4364 H 430.127 -2.8055 -1.05979 0
M  V30 4365 H 427.68 -1.47499 -0.517087 0
M  V30 4366 H 428.415 -1.15339 -3.03097 0
M  V30 4367 H 428.2 -2.88711 -2.65309 0
M  V30 4368 H 429.69 -2.32549 -3.46858 0
M  V30 4369 N 430.127 0.543554 -1.4793 0
M  V30 4370 C 431.09 1.63156 -1.60975 0
M  V30 4371 C 432.09 1.53346 -0.483899 0
M  V30 4372 O 433.28 1.5726 -0.749339 0
M  V30 4373 C 430.412 3.02743 -1.56716 0
M  V30 4374 H 431.605 1.52934 -2.57975 0
M  V30 4375 H 429.158 0.764557 -1.36324 0
M  V30 4376 H 429.893 3.18484 -0.611418 0
M  V30 4377 H 429.678 3.11272 -2.38438 0
M  V30 4378 H 431.168 3.81871 -1.6901 0
M  V30 4379 N 431.605 1.3629 0.791371 0
M  V30 4380 C 432.882 1.20962 1.53712 0
M  V30 4381 C 433.262 -0.205021 2.10102 0
M  V30 4382 O 432.61 -1.21042 1.93807 0
M  V30 4383 C 432.82 2.29002 2.63361 0
M  V30 4384 C 434.168 2.65572 3.31295 0
M  V30 4385 O 435.192 2.2803 2.73643 0
M  V30 4386 O 434.051 3.3018 4.35481 0
M  V30 4387 H 431.145 0.47086 0.679867 0
M  V30 4388 H 433.691 1.48016 0.830021 0
M  V30 4389 H 432.463 3.2382 2.19674 0
M  V30 4390 H 432.086 2.03303 3.41692 0
M  V30 4391 N 433.083 -1.0153 1.20538 0
M  V30 4392 C 434.016 -2.09759 0.898695 0
M  V30 4393 C 434.994 -1.61909 -0.149733 0
M  V30 4394 O 436.178 -1.88486 -0.0230293 0
M  V30 4395 C 433.305 -3.36913 0.347512 0
M  V30 4396 C 432.351 -4.03655 1.37713 0
M  V30 4397 S 433.184 -4.47402 2.94265 0
M  V30 4398 C 434.34 -5.77756 2.40726 0
M  V30 4399 H 434.573 -2.3545 1.81523 0
M  V30 4400 H 432.106 -1.14665 1.03399 0
M  V30 4401 H 434.064 -4.10484 0.0360518 0
M  V30 4402 H 432.725 -3.09291 -0.547546 0
M  V30 4403 H 431.918 -4.9514 0.940872 0
M  V30 4404 H 431.52 -3.36313 1.63614 0
M  V30 4405 H 433.812 -6.52994 1.80569 0
M  V30 4406 H 434.755 -6.2618 3.30612 0
M  V30 4407 H 435.163 -5.34081 1.82806 0
M  V30 4408 N 434.561 -1.01147 -1.20859 0
M  V30 4409 C 435.838 -0.613136 -1.85742 0
M  V30 4410 C 436.218 0.909004 -1.90526 0
M  V30 4411 O 435.566 1.79862 -1.40932 0
M  V30 4412 C 435.776 -1.255 -3.25654 0
M  V30 4413 C 437.124 -1.3672 -4.01986 0
M  V30 4414 O 438.148 -1.21082 -3.34989 0
M  V30 4415 O 437.007 -1.6194 -5.21956 0
M  V30 4416 H 434.101 -0.210878 -0.799662 0
M  V30 4417 H 436.647 -1.10853 -1.2849 0
M  V30 4418 H 435.419 -2.29532 -3.16908 0
M  V30 4419 H 435.042 -0.746369 -3.90532 0
M  V30 4420 N 436.039 1.36541 -0.78704 0
M  V30 4421 C 437.288 1.98552 -0.35494 0
M  V30 4422 C 437.601 1.63171 1.07864 0
M  V30 4423 O 438.807 2.18399 1.61289 0
M  V30 4424 C 437.263 3.55136 -0.583671 0
M  V30 4425 C 436.871 3.99444 -2.02851 0
M  V30 4426 C 438.615 4.2395 -0.215957 0
M  V30 4427 C 436.522 5.48796 -2.20403 0
M  V30 4428 H 435.452 0.742888 -0.128972 0
M  V30 4429 H 438.103 1.5587 -0.968337 0
M  V30 4430 H 436.485 3.95875 0.0994046 0
M  V30 4431 H 437.659 3.6991 -2.74779 0
M  V30 4432 H 435.974 3.43459 -2.35425 0
M  V30 4433 H 438.571 5.33709 -0.325405 0
M  V30 4434 H 438.914 4.07827 0.835646 0
M  V30 4435 H 439.447 3.88565 -0.852175 0
M  V30 4436 H 436.186 5.69864 -3.23937 0
M  V30 4437 H 435.706 5.79964 -1.52977 0
M  V30 4438 H 437.385 6.14986 -2.01002 0
M  V30 4439 N 437.518 0.538854 1.48102 0
M  V30 4440 C 438.767 0.0059532 2.01699 0
M  V30 4441 C 439.08 -1.34476 1.42041 0
M  V30 4442 O 440.286 -1.96653 1.87189 0
M  V30 4443 C 438.742 -0.0397627 3.59878 0
M  V30 4444 C 438.35 1.30659 4.28523 0
M  V30 4445 C 440.094 -0.521024 4.2129 0
M  V30 4446 C 438.001 1.22098 5.78659 0
M  V30 4447 H 436.931 -0.00154456 0.753998 0
M  V30 4448 H 439.582 0.683963 1.70277 0
M  V30 4449 H 437.964 -0.783037 3.88181 0
M  V30 4450 H 439.138 2.06613 4.11883 0
M  V30 4451 H 437.453 1.7243 3.79021 0
M  V30 4452 H 440.05 -0.603184 5.31287 0
M  V30 4453 H 440.393 -1.52885 3.8721 0
M  V30 4454 H 440.926 0.166834 3.9745 0
M  V30 4455 H 437.665 2.20424 6.17328 0
M  V30 4456 H 437.185 0.50295 5.97688 0
M  V30 4457 H 438.864 0.915345 6.40492 0
M  V30 4458 N 438.996 -1.55193 0.274407 0
M  V30 4459 C 439.943 -2.225 -0.613374 0
M  V30 4460 C 440.913 -1.19823 -1.15029 0
M  V30 4461 O 442.098 -1.48362 -1.19973 0
M  V30 4462 C 439.238 -2.94927 -1.79199 0
M  V30 4463 C 438.351 -4.12322 -1.28899 0
M  V30 4464 C 437.486 -4.72394 -2.42934 0
M  V30 4465 C 436.525 -5.81984 -1.89634 0
M  V30 4466 N 435.662 -6.36123 -2.9714 0
M  V30 4467 H 440.502 -2.97982 -0.032756 0
M  V30 4468 H 438.039 -1.47099 -0.00440146 0
M  V30 4469 H 439.997 -3.35134 -2.48478 0
M  V30 4470 H 438.627 -2.2187 -2.34465 0
M  V30 4471 H 437.679 -3.7724 -0.489327 0
M  V30 4472 H 438.991 -4.91355 -0.858587 0
M  V30 4473 H 438.145 -5.15317 -3.20208 0
M  V30 4474 H 436.884 -3.92636 -2.8929 0
M  V30 4475 H 435.889 -5.38511 -1.1084 0
M  V30 4476 H 437.114 -6.6361 -1.44215 0
M  V30 4477 H 435.06 -5.59259 -3.42878 0
M  V30 4478 H 434.977 -7.10427 -2.58515 0
M  V30 4479 H 436.245 -6.83704 -3.74391 0
M  V30 4480 N 440.474 -0.00167713 -1.576 0
M  V30 4481 C 441.421 0.989195 -2.08527 0
M  V30 4482 C 442.391 1.34031 -0.981065 0
M  V30 4483 O 443.576 1.43839 -1.2536 0
M  V30 4484 C 440.716 2.27537 -2.59463 0
M  V30 4485 C 439.829 1.98314 -3.83791 0
M  V30 4486 C 438.964 3.21025 -4.23222 0
M  V30 4487 C 438.003 2.87495 -5.40382 0
M  V30 4488 N 437.14 4.02749 -5.75098 0
M  V30 4489 H 441.98 0.547973 -2.92919 0
M  V30 4490 H 439.517 0.258917 -1.44803 0
M  V30 4491 H 441.475 3.02729 -2.87073 0
M  V30 4492 H 440.105 2.69325 -1.77943 0
M  V30 4493 H 439.157 1.13482 -3.63078 0
M  V30 4494 H 440.469 1.69601 -4.69081 0
M  V30 4495 H 439.623 4.04561 -4.52123 0
M  V30 4496 H 438.362 3.52877 -3.36644 0
M  V30 4497 H 437.367 2.02367 -5.11202 0
M  V30 4498 H 438.592 2.56889 -6.28637 0
M  V30 4499 H 436.538 4.34494 -4.91478 0
M  V30 4500 H 436.455 3.77566 -6.54966 0
M  V30 4501 H 437.723 4.87068 -6.08592 0
M  V30 4502 N 441.952 1.55251 0.271103 0
M  V30 4503 C 442.915 1.87484 1.31842 0
M  V30 4504 C 443.915 0.749545 1.42262 0
M  V30 4505 O 445.105 1.01771 1.4138 0
M  V30 4506 C 442.237 2.0818 2.69951 0
M  V30 4507 H 443.43 2.81108 1.0449 0
M  V30 4508 H 440.983 1.47771 0.509258 0
M  V30 4509 H 441.718 1.16944 3.02481 0
M  V30 4510 H 441.503 2.90114 2.63774 0
M  V30 4511 H 442.993 2.34385 3.4562 0
M  V30 4512 N 443.43 -0.535701 1.48216 0
M  V30 4513 C 444.678 -1.28928 1.55634 0
M  V30 4514 C 444.999 -1.93645 0.229514 0
M  V30 4515 O 444.269 -1.81038 -0.74846 0
M  V30 4516 H 442.849 -0.47884 0.573342 0
M  V30 4517 H 445.511 -0.623853 1.84646 0
M  V30 4518 H 444.607 -2.07157 2.33436 0
M  V30 4519 N 444.908 -1.36708 -0.784132 0
M  V30 4520 C 446.133 -1.34565 -1.5782 0
M  V30 4521 C 446.558 0.0695257 -1.87971 0
M  V30 4522 O 445.916 1.04302 -1.48293 0
M  V30 4523 C 445.964 -2.17952 -2.87279 0
M  V30 4524 O 445.068 -1.57563 -3.81114 0
M  V30 4525 H 444.409 -0.460337 -0.478524 0
M  V30 4526 H 446.939 -1.80064 -0.971495 0
M  V30 4527 H 446.949 -2.30721 -3.365 0
M  V30 4528 H 445.624 -3.20823 -2.64661 0
M  V30 4529 H 444.201 -1.53764 -3.39722 0
M  V30 4530 N 446.386 1.0089 -1.21074 0
M  V30 4531 C 447.633 1.74607 -1.0256 0
M  V30 4532 C 447.961 1.89426 0.44136 0
M  V30 4533 O 447.216 1.42266 1.34384 0
M  V30 4534 C 447.515 3.16335 -1.66334 0
M  V30 4535 C 447.181 3.21474 -3.16173 0
M  V30 4536 C 445.843 3.22583 -3.57062 0
M  V30 4537 C 448.195 3.19025 -4.12156 0
M  V30 4538 C 445.523 3.18925 -4.92446 0
M  V30 4539 C 447.875 3.16909 -5.47496 0
M  V30 4540 C 446.539 3.16326 -5.87787 0
M  V30 4541 H 445.809 0.638933 -0.375294 0
M  V30 4542 H 448.456 1.18274 -1.50611 0
M  V30 4543 H 446.761 3.75876 -1.10566 0
M  V30 4544 H 448.458 3.72083 -1.49516 0
M  V30 4545 H 445.048 3.2135 -2.83605 0
M  V30 4546 H 449.232 3.17332 -3.81595 0
M  V30 4547 H 444.488 3.16809 -5.22917 0
M  V30 4548 H 448.662 3.13968 -6.21609 0
M  V30 4549 H 446.289 3.13246 -6.92662 0
M  V30 4550 N 447.864 1.01787 1.20321 0
M  V30 4551 C 449.094 0.72614 1.93419 0
M  V30 4552 C 449.502 -0.717317 1.75075 0
M  V30 4553 O 448.845 -1.49836 1.06278 0
M  V30 4554 C 448.907 0.983621 3.45782 0
M  V30 4555 C 448.571 2.41645 3.87888 0
M  V30 4556 C 449.568 3.39732 3.93545 0
M  V30 4557 C 447.253 2.75752 4.19841 0
M  V30 4558 C 449.247 4.69988 4.30569 0
M  V30 4559 C 446.934 4.06221 4.56539 0
M  V30 4560 C 447.932 5.0315 4.61876 0
M  V30 4561 O 447.62 6.31284 4.97731 0
M  V30 4562 H 447.352 0.265824 0.621541 0
M  V30 4563 H 449.906 1.3623 1.53722 0
M  V30 4564 H 448.136 0.290301 3.85609 0
M  V30 4565 H 449.825 0.683279 4.00108 0
M  V30 4566 H 450.591 3.14718 3.69022 0
M  V30 4567 H 446.47 2.00993 4.14877 0
M  V30 4568 H 450.014 5.45642 4.3465 0
M  V30 4569 H 445.911 4.31013 4.80518 0
M  V30 4570 H 446.679 6.35591 5.15719 0
M  V30 4571 N 449.342 -1.36122 0.79427 0
M  V30 4572 C 450.567 -2.03891 0.379871 0
M  V30 4573 C 450.992 -1.59488 -0.997251 0
M  V30 4574 O 450.35 -0.765652 -1.64339 0
M  V30 4575 C 450.398 -3.57687 0.457442 0
M  V30 4576 O 449.502 -4.08931 -0.5338 0
M  V30 4577 H 448.843 -0.6443 0.160541 0
M  V30 4578 H 451.373 -1.73976 1.07673 0
M  V30 4579 H 451.383 -4.06721 0.322792 0
M  V30 4580 H 450.058 -3.89357 1.46199 0
M  V30 4581 H 448.635 -3.71154 -0.360409 0
M  V30 4582 N 450.82 -0.546701 -1.47814 0
M  V30 4583 C 452.05 -0.0232519 -2.06587 0
M  V30 4584 C 452.458 1.2712 -1.40133 0
M  V30 4585 O 451.801 1.77091 -0.488305 0
M  V30 4586 C 451.863 0.254117 -3.58601 0
M  V30 4587 C 451.527 -0.949331 -4.47031 0
M  V30 4588 C 452.524 -1.85216 -4.85789 0
M  V30 4589 C 450.209 -1.16104 -4.88697 0
M  V30 4590 C 452.203 -2.95047 -5.65001 0
M  V30 4591 C 449.89 -2.26247 -5.67676 0
M  V30 4592 C 450.888 -3.1555 -6.05737 0
M  V30 4593 O 450.576 -4.23784 -6.83127 0
M  V30 4594 H 450.308 -0.0380082 -0.674931 0
M  V30 4595 H 452.862 -0.756631 -1.90956 0
M  V30 4596 H 451.092 1.04168 -3.72406 0
M  V30 4597 H 452.781 0.72167 -3.99433 0
M  V30 4598 H 453.547 -1.70061 -4.54207 0
M  V30 4599 H 449.426 -0.475159 -4.58545 0
M  V30 4600 H 452.97 -3.64778 -5.94628 0
M  V30 4601 H 448.867 -2.41379 -5.98671 0
M  V30 4602 H 449.635 -4.21701 -7.01506 0
M  V30 4603 N 452.299 1.55045 -0.282633 0
M  V30 4604 C 453.547 1.99365 0.331334 0
M  V30 4605 C 453.868 1.1725 1.55812 0
M  V30 4606 O 453.138 0.263871 1.94115 0
M  V30 4607 H 451.718 0.736397 0.125414 0
M  V30 4608 H 454.38 1.90964 -0.389711 0
M  V30 4609 H 453.476 3.0596 0.616036 0
M  V30 4610 N 453.777 0.010035 1.57597 0
M  V30 4611 C 455.054 -0.710296 1.82248 0
M  V30 4612 C 455.434 -1.91426 0.889911 0
M  V30 4613 O 454.782 -2.28424 -0.0590292 0
M  V30 4614 C 454.992 -1.10655 3.30993 0
M  V30 4615 C 456.34 -1.50621 3.96987 0
M  V30 4616 O 457.364 -1.20007 3.35375 0
M  V30 4617 O 456.223 -2.07587 5.05539 0
M  V30 4618 H 453.317 -0.34673 0.750804 0
M  V30 4619 H 455.863 0.0362578 1.69661 0
M  V30 4620 H 454.635 -0.248826 3.90508 0
M  V30 4621 H 454.258 -1.91189 3.48615 0
M  V30 4622 N 455.255 -1.55392 -0.262866 0
M  V30 4623 C 456.165 -1.92077 -1.34698 0
M  V30 4624 C 457.181 -0.819227 -1.53508 0
M  V30 4625 O 458.357 -1.11921 -1.67439 0
M  V30 4626 C 455.422 -2.19407 -2.68443 0
M  V30 4627 C 454.483 -3.42905 -2.58292 0
M  V30 4628 C 453.716 -3.68921 -3.85659 0
M  V30 4629 O 453.939 -2.97275 -4.8681 0
M  V30 4630 O 452.873 -4.62455 -3.85252 0
M  V30 4631 H 456.699 -2.84384 -1.06581 0
M  V30 4632 H 454.284 -1.42069 -0.462264 0
M  V30 4633 H 456.166 -2.38365 -3.47506 0
M  V30 4634 H 454.841 -1.30282 -2.96325 0
M  V30 4635 H 453.748 -3.29272 -1.7757 0
M  V30 4636 H 455.081 -4.32282 -2.35358 0
M  V30 4637 N 456.733 0.527833 -1.48498 0
M  V30 4638 C 458.149 0.856571 -1.34666 0
M  V30 4639 C 458.349 1.98271 -0.35931 0
M  V30 4640 O 457.405 2.51551 0.218703 0
M  V30 4641 C 458.718 1.22207 -2.74747 0
M  V30 4642 C 460.266 1.33183 -2.83251 0
M  V30 4643 C 460.741 1.73075 -4.24039 0
M  V30 4644 N 462.232 1.80174 -4.26722 0
M  V30 4645 C 462.967 2.1243 -5.32598 0
M  V30 4646 N 462.463 2.43096 -6.4875 0
M  V30 4647 N 464.256 2.13454 -5.19994 0
M  V30 4648 H 456.407 -0.215174 -2.11307 0
M  V30 4649 H 458.67 -0.0336281 -0.947403 0
M  V30 4650 H 458.376 0.468195 -3.4857 0
M  V30 4651 H 458.25 2.17173 -3.08409 0
M  V30 4652 H 460.637 2.07647 -2.09683 0
M  V30 4653 H 460.718 0.363333 -2.53206 0
M  V30 4654 H 460.362 0.991712 -4.98124 0
M  V30 4655 H 460.292 2.70979 -4.51529 0
M  V30 4656 H 462.783 1.58744 -3.42942 0
M  V30 4657 H 463.096 2.6682 -7.25277 0
M  V30 4658 H 461.441 2.40611 -6.52021 0
M  V30 4659 H 464.632 1.88956 -4.28268 0
M  V30 4660 H 464.805 2.38261 -6.02608 0
M  V30 4661 N 458.211 1.37122 0.776871 0
M  V30 4662 C 459.46 1.31373 1.53049 0
M  V30 4663 C 459.773 -0.101016 1.95339 0
M  V30 4664 O 460.979 -0.280953 2.70042 0
M  V30 4665 C 459.435 2.30567 2.76346 0
M  V30 4666 C 459.043 3.77543 2.41175 0
M  V30 4667 C 460.787 2.33818 3.54301 0
M  V30 4668 C 458.694 4.68481 3.60943 0
M  V30 4669 H 457.624 0.488234 0.574581 0
M  V30 4670 H 460.275 1.62554 0.851372 0
M  V30 4671 H 458.657 1.92396 3.46121 0
M  V30 4672 H 459.831 4.24521 1.79216 0
M  V30 4673 H 458.146 3.77187 1.76405 0
M  V30 4674 H 460.743 2.98965 4.4331 0
M  V30 4675 H 461.086 1.3503 3.93793 0
M  V30 4676 H 461.619 2.7067 2.91518 0
M  V30 4677 H 458.358 5.68378 3.26537 0
M  V30 4678 H 457.878 4.2621 4.22025 0
M  V30 4679 H 459.557 4.85366 4.27819 0
M  V30 4680 N 459.689 -1.00246 1.21608 0
M  V30 4681 C 460.937 -1.73717 1.0328 0
M  V30 4682 C 461.258 -1.90102 -0.434318 0
M  V30 4683 O 460.528 -1.45376 -1.31311 0
M  V30 4684 H 459.108 -0.643613 0.379172 0
M  V30 4685 H 461.77 -1.20787 1.52959 0
M  V30 4686 H 460.866 -2.73535 1.50283 0
M  V30 4687 N 461.167 -1.02423 -1.1978 0
M  V30 4688 C 462.099 -0.559152 -2.22275 0
M  V30 4689 C 463.112 0.36251 -1.58713 0
M  V30 4690 O 464.301 0.159641 -1.77785 0
M  V30 4691 C 461.401 0.205094 -3.38279 0
M  V30 4692 C 460.574 -0.720361 -4.31427 0
M  V30 4693 C 459.633 -0.00234368 -5.262 0
M  V30 4694 O 458.659 -0.627378 -5.65732 0
M  V30 4695 N 459.861 1.26996 -5.66438 0
M  V30 4696 H 462.626 -1.44064 -2.62804 0
M  V30 4697 H 460.187 -0.902692 -1.34399 0
M  V30 4698 H 462.179 0.694868 -3.9869 0
M  V30 4699 H 460.749 0.987947 -2.96578 0
M  V30 4700 H 459.969 -1.39031 -3.68869 0
M  V30 4701 H 461.257 -1.3495 -4.90577 0
M  V30 4702 H 460.655 1.79858 -5.36347 0
M  V30 4703 H 459.212 1.70432 -6.29123 0
M  V30 4704 N 462.645 1.35699 -0.801477 0
M  V30 4705 C 463.893 1.9852 -0.37871 0
M  V30 4706 C 464.214 1.63907 1.05638 0
M  V30 4707 O 463.484 0.919013 1.73006 0
M  V30 4708 H 462.064 0.734322 -0.137042 0
M  V30 4709 H 464.726 1.65697 -1.02619 0
M  V30 4710 H 463.822 3.08382 -0.480284 0
M  V30 4711 N 464.123 0.554532 1.47522 0
M  V30 4712 C 465.07 -0.19466 2.29978 0
M  V30 4713 C 466.04 -0.910882 1.38896 0
M  V30 4714 O 467.225 -0.907102 1.67858 0
M  V30 4715 C 464.365 -1.22035 3.22802 0
M  V30 4716 C 463.478 -0.510474 4.28973 0
M  V30 4717 C 462.613 -1.52123 5.08952 0
M  V30 4718 C 461.652 -0.796173 6.069 0
M  V30 4719 N 460.789 -1.75363 6.79847 0
M  V30 4720 H 465.629 0.51461 2.93523 0
M  V30 4721 H 463.166 0.265607 1.44682 0
M  V30 4722 H 465.124 -1.8276 3.7504 0
M  V30 4723 H 463.754 -1.89769 2.61127 0
M  V30 4724 H 462.806 0.211234 3.79813 0
M  V30 4725 H 464.118 0.0576503 4.98767 0
M  V30 4726 H 463.272 -2.20207 5.65326 0
M  V30 4727 H 462.011 -2.12327 4.39054 0
M  V30 4728 H 461.016 -0.101388 5.49707 0
M  V30 4729 H 462.241 -0.199911 6.78806 0
M  V30 4730 H 460.187 -2.3443 6.12682 0
M  V30 4731 H 460.104 -1.23759 7.45801 0
M  V30 4732 H 461.372 -2.4257 7.40797 0
M  V30 4733 N 465.601 -1.54893 0.290851 0
M  V30 4734 C 466.511 -2.26812 -0.59945 0
M  V30 4735 C 467.527 -1.29963 -1.15696 0
M  V30 4736 O 468.703 -1.62928 -1.18391 0
M  V30 4737 C 465.768 -2.98716 -1.75982 0
M  V30 4738 C 464.829 -4.1108 -1.2374 0
M  V30 4739 C 464.062 -4.79546 -2.34246 0
M  V30 4740 O 464.285 -4.47309 -3.53936 0
M  V30 4741 O 463.219 -5.67165 -2.01512 0
M  V30 4742 H 467.045 -3.03696 -0.0163561 0
M  V30 4743 H 464.63 -1.49289 0.0576755 0
M  V30 4744 H 466.512 -3.43851 -2.43607 0
M  V30 4745 H 465.187 -2.24737 -2.3297 0
M  V30 4746 H 464.094 -3.70367 -0.527163 0
M  V30 4747 H 465.427 -4.87007 -0.71307 0
M  V30 4748 N 467.08 -0.0183926 -1.57589 0
M  V30 4749 C 468.027 0.967022 -2.09565 0
M  V30 4750 C 468.997 1.32983 -0.995225 0
M  V30 4751 O 470.182 1.42501 -1.26878 0
M  V30 4752 C 467.322 2.24772 -2.61861 0
M  V30 4753 C 466.435 1.94232 -3.85873 0
M  V30 4754 C 465.57 3.16518 -4.26603 0
M  V30 4755 C 464.609 2.81748 -5.43401 0
M  V30 4756 N 463.746 3.96626 -5.79338 0
M  V30 4757 H 468.586 0.516874 -2.93483 0
M  V30 4758 H 466.123 0.243544 -1.4507 0
M  V30 4759 H 468.081 2.99667 -2.90268 0
M  V30 4760 H 466.711 2.67423 -1.8079 0
M  V30 4761 H 465.763 1.09625 -3.64262 0
M  V30 4762 H 467.075 1.64616 -4.70853 0
M  V30 4763 H 466.229 3.99743 -4.56389 0
M  V30 4764 H 464.968 3.49286 -3.40368 0
M  V30 4765 H 463.973 1.96933 -5.1332 0
M  V30 4766 H 465.198 2.50207 -6.31327 0
M  V30 4767 H 463.144 4.29257 -4.96059 0
M  V30 4768 H 463.061 3.70598 -6.58933 0
M  V30 4769 H 464.329 4.80586 -6.13724 0
M  V30 4770 N 468.558 1.5553 0.254621 0
M  V30 4771 C 469.786 1.81046 1.00149 0
M  V30 4772 C 470.201 0.593047 1.79244 0
M  V30 4773 O 469.558 -0.438196 1.77161 0
M  V30 4774 C 469.609 3.04684 1.94551 0
M  V30 4775 O 469.33 4.21725 1.18658 0
M  V30 4776 C 470.831 3.42943 2.80901 0
M  V30 4777 H 468.051 0.602653 0.295044 0
M  V30 4778 H 470.595 2.02576 0.279842 0
M  V30 4779 H 468.75 2.85226 2.62154 0
M  V30 4780 H 469.164 4.91746 1.82445 0
M  V30 4781 H 470.638 4.32576 3.42902 0
M  V30 4782 H 471.115 2.63176 3.51617 0
M  V30 4783 H 471.721 3.64724 2.18762 0
M  V30 4784 N 470.036 -0.519951 1.48776 0
M  V30 4785 C 471.285 -1.27175 1.56555 0
M  V30 4786 C 471.598 -1.9401 0.248869 0
M  V30 4787 O 472.804 -2.70725 0.205004 0
M  V30 4788 C 471.26 -2.30811 2.76142 0
M  V30 4789 C 470.868 -1.7 4.14493 0
M  V30 4790 C 472.612 -3.06937 2.9324 0
M  V30 4791 C 470.519 -2.71635 5.25327 0
M  V30 4792 H 469.449 -0.478329 0.582853 0
M  V30 4793 H 472.1 -0.547916 1.75129 0
M  V30 4794 H 470.482 -3.06274 2.51023 0
M  V30 4795 H 471.656 -1.00658 4.49672 0
M  V30 4796 H 469.971 -1.06331 4.02595 0
M  V30 4797 H 472.568 -3.82905 3.73213 0
M  V30 4798 H 472.911 -3.63409 2.03075 0
M  V30 4799 H 473.444 -2.38589 3.18308 0
M  V30 4800 H 470.183 -2.1997 6.1749 0
M  V30 4801 H 469.703 -3.39275 4.94624 0
M  V30 4802 H 471.382 -3.34429 5.53865 0
M  V30 4803 N 471.514 -1.37532 -0.769588 0
M  V30 4804 C 472.477 -1.33292 -1.86456 0
M  V30 4805 C 473.477 -0.236537 -1.59051 0
M  V30 4806 O 474.667 -0.492511 -1.67093 0
M  V30 4807 C 471.799 -1.07118 -3.23633 0
M  V30 4808 H 472.992 -2.30692 -1.91628 0
M  V30 4809 H 470.545 -1.22593 -0.969572 0
M  V30 4810 H 471.28 -0.102578 -3.24138 0
M  V30 4811 H 471.065 -1.86479 -3.44917 0
M  V30 4812 H 472.555 -1.06806 -4.03711 0
M  V30 4813 N 472.992 0.995999 -1.22138 0
M  V30 4814 C 474.222 1.76809 -1.06874 0
M  V30 4815 C 474.63 1.85265 0.383866 0
M  V30 4816 O 473.973 1.31969 1.27789 0
M  V30 4817 C 474.035 3.2186 -1.60144 0
M  V30 4818 C 473.699 3.36958 -3.0872 0
M  V30 4819 C 474.696 3.2452 -4.0618 0
M  V30 4820 C 472.381 3.62109 -3.48112 0
M  V30 4821 C 474.375 3.37013 -5.41019 0
M  V30 4822 C 472.062 3.74243 -4.831 0
M  V30 4823 C 473.06 3.61702 -5.79362 0
M  V30 4824 O 472.748 3.73436 -7.119 0
M  V30 4825 H 472.48 0.562207 -0.375365 0
M  V30 4826 H 475.034 1.26113 -1.62125 0
M  V30 4827 H 473.264 3.73734 -0.992981 0
M  V30 4828 H 474.953 3.80775 -1.40589 0
M  V30 4829 H 475.719 3.05004 -3.77091 0
M  V30 4830 H 471.598 3.70949 -2.73712 0
M  V30 4831 H 475.142 3.27141 -6.16137 0
M  V30 4832 H 471.039 3.93266 -5.11872 0
M  V30 4833 H 471.807 3.90328 -7.19435 0
M  V30 4834 N 474.47 1.03057 1.19235 0
M  V30 4835 C 475.719 0.72326 1.88287 0
M  V30 4836 C 476.032 -0.751333 1.80594 0
M  V30 4837 O 477.238 -1.17176 2.44912 0
M  V30 4838 C 475.694 1.24338 3.3774 0
M  V30 4839 C 475.302 2.74587 3.53986 0
M  V30 4840 C 477.046 1.01213 4.12257 0
M  V30 4841 C 474.953 3.20009 4.97341 0
M  V30 4842 H 473.883 0.266848 0.705201 0
M  V30 4843 H 476.534 1.24509 1.34795 0
M  V30 4844 H 474.916 0.649457 3.90638 0
M  V30 4845 H 476.09 3.39649 3.11408 0
M  V30 4846 H 474.405 2.9601 2.9286 0
M  V30 4847 H 477.002 1.32675 5.17978 0
M  V30 4848 H 477.345 -0.051001 4.16269 0
M  V30 4849 H 477.878 1.57014 3.65501 0
M  V30 4850 H 474.617 4.25659 4.98493 0
M  V30 4851 H 474.137 2.59676 5.40674 0
M  V30 4852 H 475.816 3.13447 5.66003 0
M  V30 4853 N 475.948 -1.35272 0.808662 0
M  V30 4854 C 476.911 -2.28082 0.226093 0
M  V30 4855 C 477.911 -1.49673 -0.587762 0
M  V30 4856 O 479.101 -1.69404 -0.405943 0
M  V30 4857 C 476.233 -3.33955 -0.684596 0
M  V30 4858 H 477.426 -2.81116 1.04469 0
M  V30 4859 H 474.979 -1.45162 0.579466 0
M  V30 4860 H 475.714 -2.86111 -1.5268 0
M  V30 4861 H 475.499 -3.91965 -0.102699 0
M  V30 4862 H 476.989 -4.03219 -1.08646 0
M  V30 4863 N 477.426 -0.562348 -1.47226 0
M  V30 4864 C 478.336 0.185466 -2.33866 0
M  V30 4865 C 479.352 0.906713 -1.48508 0
M  V30 4866 O 480.528 0.874458 -1.81425 0
M  V30 4867 C 477.593 1.19904 -3.25306 0
M  V30 4868 C 476.654 0.484669 -4.26555 0
M  V30 4869 C 475.887 1.44996 -5.13626 0
M  V30 4870 O 476.11 2.68515 -5.03245 0
M  V30 4871 O 475.044 0.971642 -5.94006 0
M  V30 4872 H 478.87 -0.525361 -2.99121 0
M  V30 4873 H 476.455 -0.322916 -1.45868 0
M  V30 4874 H 478.337 1.78399 -3.81774 0
M  V30 4875 H 477.012 1.8917 -2.62672 0
M  V30 4876 H 475.919 -0.141605 -3.73832 0
M  V30 4877 H 477.252 -0.166634 -4.91918 0
M  V30 4878 N 478.904 1.54736 -0.299062 0
M  V30 4879 C 480.32 1.59507 0.0543849 0
M  V30 4880 C 480.52 1.31606 1.52585 0
M  V30 4881 O 479.576 1.08853 2.27832 0
M  V30 4882 C 480.889 2.98751 -0.34181 0
M  V30 4883 C 482.437 3.1165 -0.290414 0
M  V30 4884 C 482.912 4.53199 -0.661402 0
M  V30 4885 N 484.403 4.59114 -0.613863 0
M  V30 4886 C 485.138 5.66709 -0.873417 0
M  V30 4887 N 484.634 6.82349 -1.19884 0
M  V30 4888 N 486.427 5.56369 -0.800608 0
M  V30 4889 H 478.578 1.71133 -1.25806 0
M  V30 4890 H 480.841 0.799186 -0.509908 0
M  V30 4891 H 480.547 3.24085 -1.36608 0
M  V30 4892 H 480.421 3.75961 0.305508 0
M  V30 4893 H 482.808 2.86066 0.724605 0
M  V30 4894 H 482.889 2.366 -0.972327 0
M  V30 4895 H 482.533 4.79513 -1.67422 0
M  V30 4896 H 482.463 5.26583 0.0425612 0
M  V30 4897 H 484.954 3.76053 -0.3732 0
M  V30 4898 H 485.267 7.60326 -1.38291 0
M  V30 4899 H 483.612 6.83906 -1.23685 0
M  V30 4900 H 486.803 4.64904 -0.546045 0
M  V30 4901 H 486.976 6.40139 -1.00626 0
M  V30 4902 N 480.382 0.0267497 1.57577 0
M  V30 4903 C 481.793 -0.512413 1.79531 0
M  V30 4904 C 482.144 -1.72391 0.936791 0
M  V30 4905 O 481.269 -2.15903 0.146543 0
M  V30 4906 C 481.864 -0.936378 3.25603 0
M  V30 4907 C 480.423 -1.42067 3.4856 0
M  V30 4908 C 479.57 -0.384278 2.74624 0
M  V30 4909 H 482.521 0.252797 1.56674 0
M  V30 4910 H 482.542 -1.80088 3.35184 0
M  V30 4911 H 482.054 -0.0544332 3.88062 0
M  V30 4912 H 480.155 -2.32262 2.9135 0
M  V30 4913 H 480.268 -1.42968 4.57271 0
M  V30 4914 H 478.632 -0.851855 2.40032 0
M  V30 4915 H 479.415 0.489159 3.39797 0
M  V30 4916 N 481.861 -1.55662 -0.24637 0
M  V30 4917 C 482.771 -1.93495 -1.32653 0
M  V30 4918 C 483.787 -0.835462 -1.5263 0
M  V30 4919 O 484.963 -1.1369 -1.66242 0
M  V30 4920 C 482.028 -2.22242 -2.66101 0
M  V30 4921 C 481.089 -3.45625 -2.54641 0
M  V30 4922 C 480.322 -3.72991 -3.81724 0
M  V30 4923 O 480.545 -3.02421 -4.8363 0
M  V30 4924 O 479.479 -4.66515 -3.80325 0
M  V30 4925 H 483.305 -2.85498 -1.03559 0
M  V30 4926 H 480.89 -1.42551 -0.44717 0
M  V30 4927 H 482.772 -2.42037 -3.44958 0
M  V30 4928 H 481.447 -1.33417 -2.94926 0
M  V30 4929 H 480.354 -3.31136 -1.74067 0
M  V30 4930 H 481.687 -4.34754 -2.3076 0
M  V30 4931 N 483.339 0.512053 -1.4905 0
M  V30 4932 C 484.272 1.63209 -1.59493 0
M  V30 4933 C 485.25 1.56407 -0.444481 0
M  V30 4934 O 486.434 1.76623 -0.658535 0
M  V30 4935 C 483.561 3.01685 -1.53961 0
M  V30 4936 C 482.607 3.26786 -2.74068 0
M  V30 4937 S 483.44 3.11107 -4.35859 0
M  V30 4938 C 484.596 4.51997 -4.32954 0
M  V30 4939 H 484.829 1.54104 -2.54243 0
M  V30 4940 H 482.362 0.696382 -1.37804 0
M  V30 4941 H 484.32 3.81538 -1.51455 0
M  V30 4942 H 482.981 3.08215 -0.605178 0
M  V30 4943 H 482.174 4.27849 -2.66386 0
M  V30 4944 H 481.776 2.54635 -2.73928 0
M  V30 4945 H 484.068 5.43871 -4.03993 0
M  V30 4946 H 485.011 4.64731 -5.34257 0
M  V30 4947 H 485.419 4.32159 -3.63178 0
M  V30 4948 N 484.817 1.37938 0.762283 0
M  V30 4949 C 485.727 1.36681 1.90671 0
M  V30 4950 C 486.743 0.265078 1.71969 0
M  V30 4951 O 487.919 0.502055 1.95042 0
M  V30 4952 C 484.984 1.18211 3.25925 0
M  V30 4953 C 484.045 2.3811 3.57214 0
M  V30 4954 C 483.278 2.20512 4.86014 0
M  V30 4955 O 483.501 1.19429 5.57757 0
M  V30 4956 O 482.435 3.08911 5.16583 0
M  V30 4957 H 486.261 2.33091 1.94685 0
M  V30 4958 H 483.846 1.18767 0.906356 0
M  V30 4959 H 485.728 1.09937 4.06807 0
M  V30 4960 H 484.403 0.248807 3.22742 0
M  V30 4961 H 483.31 2.51958 2.76529 0
M  V30 4962 H 484.643 3.30041 3.65149 0
M  V30 4963 N 486.295 -0.989507 1.22664 0
M  V30 4964 C 487.227 -2.0824 0.957542 0
M  V30 4965 C 488.24 -1.6267 -0.0651098 0
M  V30 4966 O 489.429 -1.77695 0.169312 0
M  V30 4967 C 486.529 -3.36298 0.419145 0
M  V30 4968 C 485.702 -4.10882 1.49982 0
M  V30 4969 C 484.761 -5.17221 0.967904 0
M  V30 4970 O 483.787 -5.44613 1.65487 0
M  V30 4971 N 484.989 -5.80124 -0.20896 0
M  V30 4972 H 487.754 -2.31904 1.89843 0
M  V30 4973 H 485.315 -1.15552 1.13399 0
M  V30 4974 H 487.307 -4.04671 0.0485451 0
M  V30 4975 H 485.877 -3.09671 -0.426937 0
M  V30 4976 H 485.097 -3.37092 2.04359 0
M  V30 4977 H 486.385 -4.57482 2.22682 0
M  V30 4978 H 485.783 -5.60244 -0.783818 0
M  V30 4979 H 484.34 -6.49715 -0.520913 0
M  V30 4980 N 487.773 -1.03688 -1.18687 0
M  V30 4981 C 488.683 -0.634908 -2.25845 0
M  V30 4982 C 489.699 0.337065 -1.70704 0
M  V30 4983 O 490.875 0.192943 -2.00474 0
M  V30 4984 C 487.94 -0.000180054 -3.467 0
M  V30 4985 C 487.001 -1.02067 -4.1699 0
M  V30 4986 C 486.234 -0.41614 -5.32075 0
M  V30 4987 O 486.457 0.778712 -5.65059 0
M  V30 4988 O 485.391 -1.14296 -5.90948 0
M  V30 4989 H 489.217 -1.52757 -2.62486 0
M  V30 4990 H 486.802 -0.807533 -1.25695 0
M  V30 4991 H 488.684 0.353342 -4.19916 0
M  V30 4992 H 487.359 0.866367 -3.11891 0
M  V30 4993 H 486.266 -1.42592 -3.45859 0
M  V30 4994 H 487.599 -1.85786 -4.5579 0
M  V30 4995 N 489.251 1.34841 -0.815825 0
M  V30 4996 C 490.5 1.97755 -0.396976 0
M  V30 4997 C 490.813 1.65422 1.04379 0
M  V30 4998 O 492.019 2.21771 1.5662 0
M  V30 4999 C 490.475 3.53818 -0.658869 0
M  V30 5000 C 490.083 3.95051 -2.11278 0
M  V30 5001 C 491.827 4.23397 -0.305834 0
M  V30 5002 C 489.734 5.43997 -2.31994 0
M  V30 5003 H 488.664 0.739985 -0.1447 0
M  V30 5004 H 491.315 1.53781 -1.00118 0
M  V30 5005 H 489.697 3.95997 0.0154112 0
M  V30 5006 H 490.871 3.63998 -2.82564 0
M  V30 5007 H 489.186 3.38388 -2.42657 0
M  V30 5008 H 491.783 5.32899 -0.43854 0
M  V30 5009 H 492.126 4.09508 0.748952 0
M  V30 5010 H 492.659 3.8667 -0.934403 0
M  V30 5011 H 489.398 5.62865 -3.35952 0
M  V30 5012 H 488.918 5.76589 -1.65244 0
M  V30 5013 H 490.597 6.10584 -2.14001 0
M  V30 5014 N 490.729 0.570148 1.46925 0
M  V30 5015 C 492.145 0.23087 1.57921 0
M  V30 5016 C 492.345 -1.26676 1.56702 0
M  V30 5017 O 491.401 -2.04774 1.47729 0
M  V30 5018 C 492.714 0.868973 2.8787 0
M  V30 5019 C 494.262 0.841397 3.01479 0
M  V30 5020 C 494.737 1.45881 4.34146 0
M  V30 5021 N 496.228 1.42258 4.40814 0
M  V30 5022 C 496.963 1.8698 5.42057 0
M  V30 5023 N 496.459 2.39618 6.50042 0
M  V30 5024 N 498.252 1.77972 5.33181 0
M  V30 5025 H 490.403 1.54301 1.45962 0
M  V30 5026 H 492.666 0.644224 0.69547 0
M  V30 5027 H 492.372 1.922 2.94537 0
M  V30 5028 H 492.246 0.369682 3.75384 0
M  V30 5029 H 494.633 -0.202973 2.94401 0
M  V30 5030 H 494.714 1.37858 2.15474 0
M  V30 5031 H 494.358 2.50231 4.4198 0
M  V30 5032 H 494.288 0.896958 5.18905 0
M  V30 5033 H 496.779 1.03768 3.63374 0
M  V30 5034 H 497.092 2.71633 7.23488 0
M  V30 5035 H 495.437 2.43636 6.50897 0
M  V30 5036 H 498.628 1.36617 4.4772 0
M  V30 5037 H 498.801 2.13143 6.11943 0
M  V30 5038 N 492.207 -1.54576 0.307264 0
M  V30 5039 C 493.484 -1.92377 -0.353605 0
M  V30 5040 C 493.864 -1.23517 -1.71192 0
M  V30 5041 O 493.212 -0.373101 -2.25433 0
M  V30 5042 C 493.422 -3.45928 -0.462039 0
M  V30 5043 C 494.77 -4.18278 -0.729975 0
M  V30 5044 O 495.794 -3.51997 -0.545605 0
M  V30 5045 O 494.653 -5.3563 -1.08454 0
M  V30 5046 H 491.747 -0.802747 -0.198812 0
M  V30 5047 H 494.293 -1.65929 0.355783 0
M  V30 5048 H 493.065 -3.88187 0.492592 0
M  V30 5049 H 492.688 -3.78431 -1.21965 0
M  V30 5050 N 493.685 -0.035106 -1.57561 0
M  V30 5051 C 495.101 0.321334 -1.56332 0
M  V30 5052 C 495.301 1.72509 -1.04129 0
M  V30 5053 O 494.357 2.4287 -0.690694 0
M  V30 5054 C 495.67 0.164469 -3.0025 0
M  V30 5055 C 497.218 0.236786 -3.12103 0
M  V30 5056 C 497.693 0.10864 -4.57871 0
M  V30 5057 N 499.184 0.165433 -4.62904 0
M  V30 5058 C 499.919 0.0901506 -5.73329 0
M  V30 5059 N 499.415 -0.0365606 -6.9279 0
M  V30 5060 N 501.208 0.144572 -5.61914 0
M  V30 5061 H 493.359 -0.952976 -1.89821 0
M  V30 5062 H 495.622 -0.368537 -0.873432 0
M  V30 5063 H 495.328 -0.802746 -3.42416 0
M  V30 5064 H 495.202 0.932194 -3.655 0
M  V30 5065 H 497.589 1.19446 -2.69845 0
M  V30 5066 H 497.67 -0.561419 -2.49563 0
M  V30 5067 H 497.314 -0.845644 -5.00811 0
M  V30 5068 H 497.244 0.925786 -5.18398 0
M  V30 5069 H 499.735 0.263269 -3.76982 0
M  V30 5070 H 500.048 -0.0871487 -7.72751 0
M  V30 5071 H 498.393 -0.0714256 -6.94963 0
M  V30 5072 H 501.584 0.242006 -4.67474 0
M  V30 5073 H 501.757 0.0824413 -6.47948 0
M  V30 5074 N 495.163 1.55791 0.238111 0
M  V30 5075 C 496.409 1.78297 0.966337 0
M  V30 5076 C 496.742 0.601903 1.84637 0
M  V30 5077 O 496.017 -0.399499 1.90353 0
M  V30 5078 C 496.3 3.10758 1.81939 0
M  V30 5079 C 496.153 4.39283 0.966958 0
M  V30 5080 C 497.472 3.39519 2.80027 0
M  V30 5081 H 494.591 0.648654 0.349882 0
M  V30 5082 H 497.233 1.88525 0.236253 0
M  V30 5083 H 495.383 3.02168 2.44185 0
M  V30 5084 H 497.055 4.59873 0.362514 0
M  V30 5085 H 495.298 4.32948 0.271669 0
M  V30 5086 H 495.969 5.28368 1.59784 0
M  V30 5087 H 498.445 3.48128 2.27917 0
M  V30 5088 H 497.321 4.33402 3.36829 0
M  V30 5089 H 497.582 2.60864 3.56934 0
M  V30 5090 N 496.642 -0.504142 1.49319 0
M  V30 5091 C 497.575 -1.62361 1.60356 0
M  V30 5092 C 498.553 -1.56169 0.45277 0
M  V30 5093 O 499.737 -1.76271 0.667892 0
M  V30 5094 C 496.864 -3.00864 1.55559 0
M  V30 5095 C 495.91 -3.25328 2.75797 0
M  V30 5096 S 496.743 -3.08791 4.37503 0
M  V30 5097 C 497.899 -4.49695 4.35345 0
M  V30 5098 H 498.132 -1.52753 2.55056 0
M  V30 5099 H 495.665 -0.689065 1.38171 0
M  V30 5100 H 497.623 -3.8073 1.53477 0
M  V30 5101 H 496.284 -3.0789 0.621515 0
M  V30 5102 H 495.477 -4.2643 2.68651 0
M  V30 5103 H 495.079 -2.53179 2.75275 0
M  V30 5104 H 497.371 -5.41721 4.06871 0
M  V30 5105 H 498.314 -4.61891 5.36714 0
M  V30 5106 H 498.722 -4.30227 3.65465 0
M  V30 5107 N 498.12 -1.38341 -0.754957 0
M  V30 5108 C 499.083 -1.35262 -1.85032 0
M  V30 5109 C 500.083 -0.253393 -1.58791 0
M  V30 5110 O 501.273 -0.510205 -1.66561 0
M  V30 5111 C 498.405 -1.10544 -3.22479 0
M  V30 5112 H 499.598 -2.32712 -1.8917 0
M  V30 5113 H 497.151 -1.23614 -0.956515 0
M  V30 5114 H 497.886 -0.136952 -3.24011 0
M  V30 5115 H 497.671 -1.90127 -3.4292 0
M  V30 5116 H 499.161 -1.11082 -4.02555 0
M  V30 5117 N 499.598 0.982988 -1.23187 0
M  V30 5118 C 500.561 2.05649 -1.01198 0
M  V30 5119 C 501.561 1.6078 0.0252464 0
M  V30 5120 O 502.751 1.72878 -0.214243 0
M  V30 5121 C 499.883 3.36744 -0.530656 0
M  V30 5122 H 501.076 2.2659 -1.96461 0
M  V30 5123 H 498.629 1.15602 -1.05195 0
M  V30 5124 H 499.364 3.21492 0.425873 0
M  V30 5125 H 499.149 3.7065 -1.2791 0
M  V30 5126 H 500.639 4.15705 -0.397366 0
M  V30 5127 N 501.076 1.04316 1.18135 0
M  V30 5128 C 502.325 0.74319 1.87509 0
M  V30 5129 C 502.638 -0.732136 1.81381 0
M  V30 5130 O 503.844 -1.14572 2.46141 0
M  V30 5131 C 502.3 1.27913 3.36402 0
M  V30 5132 C 501.908 2.78326 3.51053 0
M  V30 5133 C 503.652 1.0558 4.11161 0
M  V30 5134 C 501.559 3.25266 4.93919 0
M  V30 5135 H 500.489 0.274313 0.702331 0
M  V30 5136 H 503.14 1.25931 1.33467 0
M  V30 5137 H 501.522 0.690853 3.89927 0
M  V30 5138 H 502.696 3.42933 3.07788 0
M  V30 5139 H 501.011 2.991 2.89704 0
M  V30 5140 H 503.608 1.38161 5.16542 0
M  V30 5141 H 503.951 -0.00684729 4.16299 0
M  V30 5142 H 504.484 1.60882 3.63816 0
M  V30 5143 H 501.223 4.30922 4.9395 0
M  V30 5144 H 500.743 2.65396 5.3789 0
M  V30 5145 H 502.422 3.19433 5.62647 0
M  V30 5146 N 502.554 -1.34406 0.822964 0
M  V30 5147 C 503.97 -1.51275 0.508727 0
M  V30 5148 C 504.17 -1.76776 -0.967083 0
M  V30 5149 O 503.226 -1.81871 -1.75155 0
M  V30 5150 C 504.539 -2.67765 1.36829 0
M  V30 5151 C 506.087 -2.81647 1.36542 0
M  V30 5152 C 506.562 -4.01181 2.20947 0
M  V30 5153 N 508.053 -4.08388 2.18571 0
M  V30 5154 C 508.788 -5.00036 2.80627 0
M  V30 5155 N 508.284 -5.96906 3.51674 0
M  V30 5156 N 510.077 -4.92908 2.70181 0
M  V30 5157 H 502.228 -1.16113 1.77852 0
M  V30 5158 H 504.491 -0.56947 0.757897 0
M  V30 5159 H 504.197 -2.55551 2.41633 0
M  V30 5160 H 504.071 -3.62779 1.03303 0
M  V30 5161 H 506.458 -2.93303 0.325163 0
M  V30 5162 H 506.539 -1.87443 1.74066 0
M  V30 5163 H 506.183 -3.90286 3.25022 0
M  V30 5164 H 506.113 -4.94599 1.80774 0
M  V30 5165 H 508.604 -3.39051 1.66891 0
M  V30 5166 H 508.917 -6.63468 3.96271 0
M  V30 5167 H 507.262 -5.9703 3.5578 0
M  V30 5168 H 510.453 -4.1619 2.14251 0
M  V30 5169 H 510.626 -5.64137 3.18831 0
M  V30 5170 N 504.032 -0.577932 -1.46621 0
M  V30 5171 C 504.995 0.147805 -2.28723 0
M  V30 5172 C 505.995 0.823325 -1.38123 0
M  V30 5173 O 507.185 0.676011 -1.60548 0
M  V30 5174 C 504.317 1.21853 -3.18378 0
M  V30 5175 H 505.51 -0.573654 -2.94362 0
M  V30 5176 H 503.063 -0.335703 -1.52652 0
M  V30 5177 H 503.798 1.97173 -2.57475 0
M  V30 5178 H 503.583 0.738714 -3.85078 0
M  V30 5179 H 505.073 1.72768 -3.80186 0
M  V30 5180 N 505.51 1.54411 -0.315457 0
M  V30 5181 C 506.758 2.00023 0.288971 0
M  V30 5182 C 507.079 1.20529 1.5329 0
M  V30 5183 O 506.349 0.304986 1.93511 0
M  V30 5184 H 504.929 0.738891 0.109766 0
M  V30 5185 H 507.591 1.90094 -0.430129 0
M  V30 5186 H 506.687 3.07198 0.550999 0
M  V30 5187 N 506.988 0.0434614 1.5754 0
M  V30 5188 C 507.936 -0.951465 2.1225 0
M  V30 5189 C 508.93 -1.3274 1.05245 0
M  V30 5190 O 510.136 -1.30795 1.23663 0
M  V30 5191 H 506.511 -0.324667 0.678303 0
M  V30 5192 H 508.482 -0.464855 2.94757 0
M  V30 5193 C 507.231 -2.21972 2.67626 0
M  V30 5194 H 506.554 -1.93923 3.4962 0
M  V30 5195 H 507.994 -2.89765 3.09536 0
M  V30 5196 C 506.453 -2.95919 1.61038 0
M  V30 5197 O 506.983 -3.8857 1.01862 0
M  V30 5198 N 505.189 -2.58511 1.32741 0
M  V30 5199 H 504.736 -1.83244 1.81051 0
M  V30 5200 H 504.694 -3.08296 0.616531 0
M  V30 5201 N 508.466 -1.55915 -0.229846 0
M  V30 5202 C 509.429 -1.90914 -1.26824 0
M  V30 5203 C 510.429 -0.786999 -1.40225 0
M  V30 5204 O 511.619 -1.05484 -1.38632 0
M  V30 5205 C 508.751 -2.15264 -2.64337 0
M  V30 5206 H 509.944 -2.8378 -0.969998 0
M  V30 5207 H 507.497 -1.49069 -0.4699 0
M  V30 5208 H 508.232 -1.24923 -2.99274 0
M  V30 5209 H 508.017 -2.97005 -2.55989 0
M  V30 5210 H 509.507 -2.43467 -3.39284 0
M  V30 5211 N 509.944 0.496216 -1.49584 0
M  V30 5212 C 511.192 1.24756 -1.58998 0
M  V30 5213 C 511.513 1.92968 -0.280775 0
M  V30 5214 O 510.783 1.82959 0.700198 0
M  V30 5215 H 509.363 0.463471 -0.585836 0
M  V30 5216 H 512.025 0.574678 -1.86235 0
M  V30 5217 H 511.121 2.00895 -2.38847 0
M  V30 5218 N 511.423 1.38739 0.74761 0
M  V30 5219 C 512.333 1.38696 1.89211 0
M  V30 5220 C 513.349 0.283303 1.71678 0
M  V30 5221 O 514.525 0.522713 1.94498 0
M  V30 5222 C 511.59 1.21662 3.24653 0
M  V30 5223 C 510.651 2.41886 3.54669 0
M  V30 5224 C 509.884 2.25655 4.83648 0
M  V30 5225 O 510.107 1.25339 5.56459 0
M  V30 5226 O 509.041 3.14372 5.13277 0
M  V30 5227 H 512.867 2.35143 1.92202 0
M  V30 5228 H 510.452 1.19721 0.893708 0
M  V30 5229 H 512.334 1.14246 4.05618 0
M  V30 5230 H 511.009 0.283024 3.2246 0
M  V30 5231 H 509.916 2.54877 2.73841 0
M  V30 5232 H 511.249 3.33895 3.61628 0
M  V30 5233 N 512.901 -0.976442 1.23707 0
M  V30 5234 C 513.864 -2.0511 1.02287 0
M  V30 5235 C 514.864 -1.60791 -0.0167195 0
M  V30 5236 O 516.054 -1.72761 0.223408 0
M  V30 5237 C 513.186 -3.36458 0.548507 0
M  V30 5238 H 514.379 -2.25545 1.9766 0
M  V30 5239 H 511.932 -1.15042 1.05806 0
M  V30 5240 H 512.667 -3.21713 -0.408818 0
M  V30 5241 H 512.452 -3.69967 1.29874 0
M  V30 5242 H 513.942 -4.15489 0.419406 0
M  V30 5243 N 514.379 -1.04941 -1.1758 0
M  V30 5244 C 515.79 -0.784501 -1.69418 0
M  V30 5245 C 516.141 0.693625 -1.8353 0
M  V30 5246 O 515.266 1.53925 -1.52106 0
M  V30 5247 C 515.861 -1.41746 -3.07723 0
M  V30 5248 C 514.42 -1.20066 -3.56737 0
M  V30 5249 C 513.567 -1.5026 -2.33061 0
M  V30 5250 H 516.518 -1.21469 -1.02133 0
M  V30 5251 H 516.539 -0.825381 -3.7144 0
M  V30 5252 H 516.051 -2.49325 -2.9742 0
M  V30 5253 H 514.152 -0.144006 -3.72322 0
M  V30 5254 H 514.265 -1.90384 -4.39648 0
M  V30 5255 H 512.629 -0.922598 -2.37403 0
M  V30 5256 H 513.412 -2.58967 -2.25368 0
M  V30 5257 N 515.857 1.33968 -0.830081 0
M  V30 5258 C 516.82 2.27694 -0.26235 0
M  V30 5259 C 517.82 1.50589 0.563876 0
M  V30 5260 O 519.01 1.70028 0.378941 0
M  V30 5261 C 516.142 3.35002 0.63138 0
M  V30 5262 H 517.335 2.79419 -1.08928 0
M  V30 5263 H 514.888 1.44221 -0.602486 0
M  V30 5264 H 515.623 2.88504 1.48109 0
M  V30 5265 H 515.408 3.92079 0.0403276 0
M  V30 5266 H 516.898 4.04897 1.02217 0
M  V30 5267 N 517.335 0.585699 1.46312 0
M  V30 5268 C 518.265 -0.133556 2.33118 0
M  V30 5269 C 519.246 -0.880707 1.45525 0
M  V30 5270 O 520.431 -0.855579 1.74337 0
M  V30 5271 C 517.561 -1.14585 3.27853 0
M  V30 5272 C 516.515 -0.513341 4.2491 0
M  V30 5273 C 515.841 -1.63231 5.09175 0
M  V30 5274 C 517.141 0.551413 5.19381 0
M  V30 5275 H 518.835 0.59121 2.93505 0
M  V30 5276 H 516.381 0.285761 1.41136 0
M  V30 5277 H 518.334 -1.65741 3.87438 0
M  V30 5278 H 517.058 -1.90093 2.65579 0
M  V30 5279 H 515.717 -0.0228349 3.66593 0
M  V30 5280 H 515.365 -2.37713 4.43285 0
M  V30 5281 H 515.065 -1.21473 5.74907 0
M  V30 5282 H 516.589 -2.14658 5.71624 0
M  V30 5283 H 518.003 0.124804 5.73164 0
M  V30 5284 H 516.4 0.889486 5.93471 0
M  V30 5285 H 517.47 1.43655 4.63132 0
M  V30 5286 N 518.813 -1.54241 0.323641 0
M  V30 5287 C 519.776 -2.22997 -0.529602 0
M  V30 5288 C 520.776 -1.22345 -1.04347 0
M  V30 5289 O 521.966 -1.46924 -0.935889 0
M  V30 5290 C 519.098 -2.93409 -1.73562 0
M  V30 5291 H 520.291 -2.99815 0.0714518 0
M  V30 5292 H 517.844 -1.56121 0.0747258 0
M  V30 5293 H 518.579 -2.20729 -2.37591 0
M  V30 5294 H 518.364 -3.67217 -1.37456 0
M  V30 5295 H 519.854 -3.45794 -2.34128 0
M  V30 5296 N 520.291 -0.0518155 -1.57515 0
M  V30 5297 C 521.702 0.483787 -1.80323 0
M  V30 5298 C 522.053 1.70879 -0.964099 0
M  V30 5299 O 521.178 2.15643 -0.180872 0
M  V30 5300 C 521.773 0.884459 -3.27052 0
M  V30 5301 C 520.332 1.36504 -3.50776 0
M  V30 5302 C 519.479 0.340539 -2.75201 0
M  V30 5303 H 522.43 -0.277691 -1.56252 0
M  V30 5304 H 522.451 1.74733 -3.38007 0
M  V30 5305 H 521.963 -0.00731093 -3.88099 0
M  V30 5306 H 520.064 2.27598 -2.95009 0
M  V30 5307 H 520.177 1.35675 -4.59488 0
M  V30 5308 H 518.541 0.81356 -2.41357 0
M  V30 5309 H 519.324 -0.543156 -3.38976 0
M  V30 5310 N 521.769 1.56035 0.221574 0
M  V30 5311 C 522.732 1.91584 1.2581 0
M  V30 5312 C 523.732 0.794425 1.39805 0
M  V30 5313 O 524.922 1.06217 1.38071 0
M  V30 5314 C 522.054 2.16663 2.63192 0
M  V30 5315 H 523.247 2.8429 0.954935 0
M  V30 5316 H 520.8 1.49316 0.461988 0
M  V30 5317 H 521.535 1.26508 2.98607 0
M  V30 5318 H 521.32 2.98358 2.5441 0
M  V30 5319 H 522.81 2.45262 3.37988 0
M  V30 5320 N 523.247 -0.488276 1.49845 0
M  V30 5321 C 524.658 -1.06955 1.53028 0
M  V30 5322 C 525.009 -1.9351 0.323797 0
M  V30 5323 O 524.134 -2.08891 -0.565116 0
M  V30 5324 C 524.729 -1.94643 2.77307 0
M  V30 5325 C 523.288 -2.4791 2.83227 0
M  V30 5326 C 522.435 -1.25833 2.47106 0
M  V30 5327 H 525.386 -0.271626 1.56358 0
M  V30 5328 H 525.407 -2.79496 2.5819 0
M  V30 5329 H 524.919 -1.31621 3.65099 0
M  V30 5330 H 523.02 -3.14535 1.99745 0
M  V30 5331 H 523.133 -2.84193 3.85709 0
M  V30 5332 H 521.497 -1.58764 1.99163 0
M  V30 5333 H 522.28 -0.644993 3.37186 0
M  V30 5334 N 524.725 -1.39134 -0.740242 0
M  V30 5335 C 525.688 -1.37217 -1.83587 0
M  V30 5336 C 526.688 -0.270221 -1.58513 0
M  V30 5337 O 527.878 -0.527843 -1.6601 0
M  V30 5338 C 525.01 -1.13959 -3.21288 0
M  V30 5339 H 526.203 -2.34705 -1.86691 0
M  V30 5340 H 523.756 -1.24622 -0.94335 0
M  V30 5341 H 524.491 -0.17131 -3.23847 0
M  V30 5342 H 524.276 -1.93754 -3.40884 0
M  V30 5343 H 525.766 -1.15346 -4.01354 0
M  V30 5344 N 526.204 0.969867 -1.24223 0
M  V30 5345 C 527.167 2.04564 -1.03373 0
M  V30 5346 C 528.167 1.60798 0.00819206 0
M  V30 5347 O 529.357 1.72641 -0.232567 0
M  V30 5348 C 526.489 3.36163 -0.566343 0
M  V30 5349 H 527.682 2.24494 -1.98853 0
M  V30 5350 H 525.235 1.1448 -1.06415 0
M  V30 5351 H 525.97 3.21925 0.391751 0
M  V30 5352 H 525.755 3.69273 -1.31834 0
M  V30 5353 H 527.245 4.1526 -0.441435 0
M  V30 5354 N 527.682 1.05563 1.17022 0
M  V30 5355 C 529.093 0.793475 1.69 0
M  V30 5356 C 529.444 -0.683882 1.83895 0
M  V30 5357 O 528.569 -1.53116 1.5292 0
M  V30 5358 C 529.164 1.43376 3.06967 0
M  V30 5359 C 527.723 1.21956 3.56095 0
M  V30 5360 C 526.87 1.51494 2.3226 0
M  V30 5361 H 529.821 1.22008 1.01487 0
M  V30 5362 H 529.842 0.845068 3.70997 0
M  V30 5363 H 529.354 2.50899 2.96093 0
M  V30 5364 H 527.455 0.163749 3.7224 0
M  V30 5365 H 527.568 1.92713 4.38633 0
M  V30 5366 H 525.932 0.935175 2.3691 0
M  V30 5367 H 526.715 2.60159 2.23992 0
M  V30 5368 N 529.16 -1.33526 0.837174 0
M  V30 5369 C 530.07 -2.33023 0.271568 0
M  V30 5370 C 531.086 -1.63272 -0.601514 0
M  V30 5371 O 532.262 -1.94939 -0.506038 0
M  V30 5372 C 529.327 -3.42382 -0.545448 0
M  V30 5373 C 528.388 -4.27857 0.351709 0
M  V30 5374 C 527.621 -5.31994 -0.426409 0
M  V30 5375 O 527.844 -5.45763 -1.65828 0
M  V30 5376 O 526.778 -6.01572 0.1987 0
M  V30 5377 H 530.604 -2.83256 1.09545 0
M  V30 5378 H 528.189 -1.36837 0.599655 0
M  V30 5379 H 530.071 -4.09122 -1.00979 0
M  V30 5380 H 528.746 -2.94369 -1.34641 0
M  V30 5381 H 527.653 -3.6399 0.863853 0
M  V30 5382 H 528.986 -4.79349 1.1174 0
M  V30 5383 N 530.638 -0.59345 -1.46 0
M  V30 5384 C 531.601 0.123538 -2.28867 0
M  V30 5385 C 532.601 0.808628 -1.38989 0
M  V30 5386 O 533.791 0.658945 -1.61256 0
M  V30 5387 C 530.923 1.1847 -3.19653 0
M  V30 5388 H 532.116 -0.604843 -2.93737 0
M  V30 5389 H 529.669 -0.351875 -1.52288 0
M  V30 5390 H 530.404 1.94431 -2.59552 0
M  V30 5391 H 530.189 0.69783 -3.8584 0
M  V30 5392 H 531.679 1.68726 -3.81997 0
M  V30 5393 N 532.116 1.54067 -0.331816 0
M  V30 5394 C 533.079 2.23275 0.517768 0
M  V30 5395 C 534.079 1.22897 1.03697 0
M  V30 5396 O 535.269 1.47419 0.928084 0
M  V30 5397 C 532.401 2.94326 1.72004 0
M  V30 5398 H 533.594 2.99773 -0.0873507 0
M  V30 5399 H 531.147 1.56079 -0.0830042 0
M  V30 5400 H 531.882 2.21986 2.36417 0
M  V30 5401 H 531.667 3.67941 1.35507 0
M  V30 5402 H 533.157 3.47031 2.32291 0
M  V30 5403 N 533.594 0.0601682 1.57485 0
M  V30 5404 C 534.504 -0.926121 2.15546 0
M  V30 5405 C 535.52 -1.33532 1.11558 0
M  V30 5406 O 536.696 -1.4104 1.4377 0
M  V30 5407 C 533.761 -2.17952 2.69625 0
M  V30 5408 C 532.822 -1.82783 3.88444 0
M  V30 5409 C 532.055 -3.02148 4.39935 0
M  V30 5410 O 532.278 -4.15803 3.90466 0
M  V30 5411 O 531.212 -2.82639 5.31412 0
M  V30 5412 H 535.038 -0.462289 3.00161 0
M  V30 5413 H 532.623 -0.162246 1.48516 0
M  V30 5414 H 534.505 -2.91474 3.04337 0
M  V30 5415 H 533.18 -2.63456 1.88077 0
M  V30 5416 H 532.087 -1.06549 3.58606 0
M  V30 5417 H 533.42 -1.42072 4.7125 0
M  V30 5418 N 535.072 -1.5615 -0.213296 0
M  V30 5419 C 536.035 -1.92249 -1.24792 0
M  V30 5420 C 537.035 -0.801828 -1.39382 0
M  V30 5421 O 538.225 -1.06948 -1.37506 0
M  V30 5422 C 535.357 -2.18056 -2.62039 0
M  V30 5423 H 536.55 -2.84793 -0.939845 0
M  V30 5424 H 534.103 -1.49559 -0.454062 0
M  V30 5425 H 534.838 -1.2809 -2.97932 0
M  V30 5426 H 534.623 -2.99703 -2.52825 0
M  V30 5427 H 536.113 -2.47051 -3.36683 0
M  V30 5428 O 536.589 0.35868 -1.57467 0
M  V30 5429 H 537.28 1.00907 -1.6534 0
M  V30 END ATOM
M  V30 BEGIN BOND
M  V30 END BOND
M  V30 END CTAB
M  END
$$$$
