drugbank_target|Q96G91 P2Y purinoceptor 11 (DB00171)
 OpenBabel12092121023D

  0  0  0     0  0            999 V3000
M  V30 BEGIN CTAB
M  V30 COUNTS 5720 5799 0 0 0
M  V30 BEGIN ATOM
M  V30 1 H -0.908 1.98254 -0.117106 0
M  V30 2 N 0 1.576 0 0
M  V30 3 C 0.933 2.03868 1.02534 0
M  V30 4 C 1.911 0.928543 1.3348 0
M  V30 5 O 3.095 1.19667 1.45644 0
M  V30 6 C 0.222 2.43627 2.35294 0
M  V30 7 C -0.732 3.65373 2.2001 0
M  V30 8 S 0.101 5.13292 1.52614 0
M  V30 9 C 1.257 5.56322 2.86805 0
M  V30 10 H 1.49 2.90518 0.631377 0
M  V30 11 H -0.977 1.52953 0.210867 0
M  V30 12 H 0.981 2.67203 3.11629 0
M  V30 13 H -0.358 1.57376 2.7183 0
M  V30 14 H -1.165 3.90944 3.18086 0
M  V30 15 H -1.563 3.418 1.51819 0
M  V30 16 H 0.729 5.58782 3.83104 0
M  V30 17 H 1.672 6.56266 2.65933 0
M  V30 18 H 2.08 4.83886 2.90714 0
M  V30 19 N 1.4781 -0.272755 1.55222 0
M  V30 20 C 2.4411 -1.32041 1.87344 0
M  V30 21 C 3.4411 -1.42342 0.74803 0
M  V30 22 O 4.6311 -1.41488 1.0162 0
M  V30 23 C 1.7631 -2.70173 2.07893 0
M  V30 24 H 2.9561 -1.04789 2.80997 0
M  V30 25 H 0.5091 -0.51083 1.47717 0
M  V30 26 H 1.2441 -3.02605 1.16622 0
M  V30 27 H 1.0291 -2.64082 2.89833 0
M  V30 28 H 2.5191 -3.45869 2.34017 0
M  V30 29 N 2.9562 -1.48159 -0.537278 0
M  V30 30 C 3.9192 -1.61665 -1.62472 0
M  V30 31 C 4.9192 -0.490395 -1.5314 0
M  V30 32 O 6.1092 -0.755998 -1.5694 0
M  V30 33 C 3.2412 -1.57997 -3.02076 0
M  V30 34 H 4.4342 -2.58621 -1.51839 0
M  V30 35 H 1.9872 -1.36647 -0.758771 0
M  V30 36 H 2.7222 -0.624913 -3.18222 0
M  V30 37 H 2.5072 -2.39755 -3.10258 0
M  V30 38 H 3.9972 -1.70627 -3.81151 0
M  V30 39 N 4.4343 0.785586 -1.36625 0
M  V30 40 C 5.3823 1.91978 -1.31329 0
M  V30 41 C 6.3763 1.68162 -0.204416 0
M  V30 42 O 7.5823 1.76122 -0.371645 0
M  V30 43 H 3.9573 0.631087 -0.408942 0
M  V30 44 H 5.9283 1.93562 -2.27104 0
M  V30 45 C 4.6773 3.29055 -1.12329 0
M  V30 46 H 4.0003 3.4795 -1.96903 0
M  V30 47 H 5.4403 4.08756 -1.12671 0
M  V30 48 C 3.8993 3.36461 0.171861 0
M  V30 49 O 4.4293 3.84576 1.16035 0
M  V30 50 N 2.6353 2.89782 0.217846 0
M  V30 51 H 2.1823 2.50819 -0.587183 0
M  V30 52 H 2.1403 2.95119 1.08408 0
M  V30 53 N 5.9124 1.20967 1.01018 0
M  V30 54 C 7.1584 1.02526 1.74975 0
M  V30 55 C 7.4914 -0.4408 1.89131 0
M  V30 56 O 6.7664 -1.32718 1.42184 0
M  V30 57 C 7.0494 1.71699 3.1653 0
M  V30 58 C 6.9024 3.25791 3.10129 0
M  V30 59 C 8.2214 1.45531 4.15342 0
M  V30 60 H 5.3404 0.373863 0.635134 0
M  V30 61 H 7.9824 1.49071 1.17805 0
M  V30 62 H 6.1324 1.32128 3.65341 0
M  V30 63 H 7.8044 3.74697 2.69072 0
M  V30 64 H 6.0474 3.56363 2.47362 0
M  V30 65 H 6.7184 3.69353 4.10222 0
M  V30 66 H 9.1944 1.79872 3.75213 0
M  V30 67 H 8.0704 1.96453 5.1254 0
M  V30 68 H 8.3314 0.384237 4.40427 0
M  V30 69 N 7.3905 -1.2043 1.01659 0
M  V30 70 C 8.6155 -1.94318 0.724942 0
M  V30 71 C 9.0405 -1.74266 -0.708034 0
M  V30 72 O 8.3985 -1.03694 -1.48719 0
M  V30 73 C 8.4465 -3.44486 1.06591 0
M  V30 74 O 7.5505 -4.12017 0.177599 0
M  V30 75 H 6.8915 -0.60708 0.26898 0
M  V30 76 H 9.4215 -1.52861 1.35995 0
M  V30 77 H 9.4315 -3.95106 1.01762 0
M  V30 78 H 8.1065 -3.58404 2.10997 0
M  V30 79 H 6.6835 -3.71821 0.283421 0
M  V30 80 N 8.8686 -0.792821 -1.36206 0
M  V30 81 C 10.1166 -0.366062 -1.98757 0
M  V30 82 C 10.4376 1.0668 -1.63231 0
M  V30 83 O 9.7076 1.73587 -0.907978 0
M  V30 84 H 8.2876 -0.132364 -0.735179 0
M  V30 85 H 10.9496 -1.01562 -1.66347 0
M  V30 86 H 10.0456 -0.460638 -3.08682 0
M  V30 87 N 10.3467 1.47872 -0.545128 0
M  V30 88 C 11.3097 2.28337 0.198717 0
M  V30 89 C 12.3097 1.36255 0.853888 0
M  V30 90 O 13.4997 1.59003 0.711606 0
M  V30 91 C 10.6317 3.15585 1.28915 0
M  V30 92 H 11.8247 2.95567 -0.507941 0
M  V30 93 H 9.3777 1.53362 -0.301616 0
M  V30 94 H 10.1127 2.53019 2.02859 0
M  V30 95 H 9.8977 3.83337 0.824309 0
M  V30 96 H 11.3877 3.76243 1.81194 0
M  V30 97 N 11.8248 0.280983 1.55075 0
M  V30 98 C 12.7718 -0.603937 2.22758 0
M  V30 99 C 13.7418 -1.1452 1.20309 0
M  V30 100 O 14.9268 -1.19343 1.48869 0
M  V30 101 C 12.0668 -1.77947 2.95684 0
M  V30 102 C 11.1798 -1.2715 4.12864 0
M  V30 103 C 10.3148 -2.4093 4.7342 0
M  V30 104 C 9.3538 -1.87165 5.82783 0
M  V30 105 N 8.4908 -2.94441 6.37377 0
M  V30 106 H 13.3308 -0.020124 2.97993 0
M  V30 107 H 10.8678 0.00183425 1.471 0
M  V30 108 H 12.8258 -2.47055 3.36184 0
M  V30 109 H 11.4558 -2.33522 2.22861 0
M  V30 110 H 10.5078 -0.473331 3.77444 0
M  V30 111 H 11.8198 -0.837751 4.91715 0
M  V30 112 H 10.9738 -3.18021 5.1667 0
M  V30 113 H 9.7128 -2.87623 3.93859 0
M  V30 114 H 8.7178 -1.08556 5.38976 0
M  V30 115 H 9.9428 -1.41401 6.64216 0
M  V30 116 H 7.8888 -3.40505 5.60707 0
M  V30 117 H 7.8058 -2.55501 7.11516 0
M  V30 118 H 9.0738 -3.71489 6.85285 0
M  V30 119 N 13.3029 -1.57598 0.00835791 0
M  V30 120 C 14.5279 -1.95617 -0.689103 0
M  V30 121 C 14.9529 -0.883753 -1.66046 0
M  V30 122 O 14.3109 0.157352 -1.80616 0
M  V30 123 C 14.3589 -3.32736 -1.38994 0
M  V30 124 O 13.4629 -3.27631 -2.50463 0
M  V30 125 H 12.8039 -0.638379 -0.182668 0
M  V30 126 H 15.3339 -2.045 0.064036 0
M  V30 127 H 15.3439 -3.68494 -1.75147 0
M  V30 128 H 14.0189 -4.1034 -0.677778 0
M  V30 129 H 12.5959 -3.03561 -2.16576 0
M  V30 130 N 14.781 0.264519 -1.55364 0
M  V30 131 C 16.021 1.00254 -1.78125 0
M  V30 132 C 16.385 1.83187 -0.575017 0
M  V30 133 O 17.586 2.60029 -0.681042 0
M  V30 134 C 15.857 1.85478 -3.05504 0
M  V30 135 S 17.416 2.6543 -3.49417 0
M  V30 136 H 14.234 0.337522 -0.625779 0
M  V30 137 H 16.836 0.272111 -1.93597 0
M  V30 138 H 15.54 1.23491 -3.9138 0
M  V30 139 H 15.071 2.62827 -2.92721 0
M  V30 140 H 17.086 3.87958 -3.09359 0
M  V30 141 N 16.2591 1.48442 0.529413 0
M  V30 142 C 17.6701 1.5002 1.11134 0
M  V30 143 C 18.0211 0.27031 1.94329 0
M  V30 144 O 17.1461 -0.622507 2.07253 0
M  V30 145 C 17.7411 2.71834 2.02217 0
M  V30 146 C 16.3001 2.76283 2.55627 0
M  V30 147 C 15.4471 2.43542 1.326 0
M  V30 148 H 18.3981 1.5555 0.314641 0
M  V30 149 H 18.4191 2.50384 2.8651 0
M  V30 150 H 17.9311 3.61331 1.41639 0
M  V30 151 H 16.0321 1.90995 3.19924 0
M  V30 152 H 16.1451 3.77725 2.94721 0
M  V30 153 H 14.5091 1.94709 1.64196 0
M  V30 154 H 15.2921 3.3528 0.737734 0
M  V30 155 N 17.7372 -0.778329 1.37039 0
M  V30 156 C 18.7002 -1.87301 1.32102 0
M  V30 157 C 19.7002 -1.59198 0.226405 0
M  V30 158 O 20.8902 -1.67403 0.481861 0
M  V30 159 C 18.0222 -3.24309 1.05055 0
M  V30 160 H 19.2152 -1.93093 2.29467 0
M  V30 161 H 16.7682 -0.977358 1.21973 0
M  V30 162 H 17.5032 -3.24196 0.0819373 0
M  V30 163 H 17.2882 -3.46098 1.84279 0
M  V30 164 H 18.7782 -4.04382 1.04234 0
M  V30 165 N 19.2153 -1.21501 -1.00376 0
M  V30 166 C 20.1633 -0.972442 -2.11297 0
M  V30 167 C 21.1573 0.080731 -1.69208 0
M  V30 168 O 22.3633 -0.0707666 -1.79861 0
M  V30 169 H 18.7383 -0.297218 -0.690772 0
M  V30 170 H 20.7093 -1.91394 -2.28934 0
M  V30 171 C 19.4583 -0.555065 -3.43241 0
M  V30 172 H 18.7813 -1.35709 -3.76062 0
M  V30 173 H 20.2213 -0.424664 -4.21868 0
M  V30 174 C 18.6803 0.734147 -3.28804 0
M  V30 175 O 19.2103 1.78937 -3.59645 0
M  V30 176 N 17.4163 0.701133 -2.82015 0
M  V30 177 H 16.9633 -0.157874 -2.57116 0
M  V30 178 H 16.9213 1.56403 -2.72737 0
M  V30 179 N 20.6934 1.19889 -1.02296 0
M  V30 180 C 21.9404 1.8942 -0.715972 0
M  V30 181 C 22.2684 1.79251 0.754944 0
M  V30 182 O 21.5234 1.17526 1.56481 0
M  V30 183 C 21.8224 3.39883 -1.10518 0
M  V30 184 C 21.4884 3.70254 -2.57337 0
M  V30 185 C 20.1504 3.78254 -2.97452 0
M  V30 186 C 22.5024 3.84052 -3.52354 0
M  V30 187 C 19.8304 3.97514 -4.31509 0
M  V30 188 C 22.1824 4.04824 -4.86108 0
M  V30 189 C 20.8464 4.11054 -5.25919 0
M  V30 190 H 20.1164 0.693138 -0.261993 0
M  V30 191 H 22.7634 1.42012 -1.28472 0
M  V30 192 H 21.0684 3.8915 -0.454953 0
M  V30 193 H 22.7654 3.9199 -0.845261 0
M  V30 194 H 19.3554 3.64632 -2.25258 0
M  V30 195 H 23.5394 3.77221 -3.22518 0
M  V30 196 H 18.7954 4.00574 -4.61898 0
M  V30 197 H 22.9694 4.14442 -5.59653 0
M  V30 198 H 20.5964 4.2573 -6.29808 0
M  V30 199 N 22.1715 0.800033 1.35784 0
M  V30 200 C 23.1015 0.220184 2.3246 0
M  V30 201 C 24.0825 -0.65073 1.57161 0
M  V30 202 O 25.2675 -0.582359 1.85263 0
M  V30 203 C 22.3975 -0.637353 3.41402 0
M  V30 204 C 21.3515 0.134531 4.27789 0
M  V30 205 C 20.6775 -0.844285 5.27992 0
M  V30 206 C 21.9775 1.32979 5.05088 0
M  V30 207 H 23.6715 1.02787 2.81203 0
M  V30 208 H 21.2175 0.495717 1.35199 0
M  V30 209 H 23.1705 -1.05302 4.08031 0
M  V30 210 H 21.8945 -1.47785 2.91251 0
M  V30 211 H 20.5535 0.531296 3.6273 0
M  V30 212 H 20.2015 -1.68011 4.74111 0
M  V30 213 H 19.9015 -0.332184 5.8666 0
M  V30 214 H 21.4255 -1.2583 5.97494 0
M  V30 215 H 22.8395 0.98934 5.64699 0
M  V30 216 H 21.2365 1.77593 5.7322 0
M  V30 217 H 22.3065 2.11978 4.36111 0
M  V30 218 N 23.6496 -1.47581 0.552962 0
M  V30 219 C 24.6126 -2.28439 -0.186605 0
M  V30 220 C 25.6126 -1.36706 -0.84665 0
M  V30 221 O 26.8026 -1.59378 -0.703164 0
M  V30 222 C 23.9346 -3.16264 -1.2724 0
M  V30 223 H 25.1276 -2.95294 0.523609 0
M  V30 224 H 22.6806 -1.532 0.309745 0
M  V30 225 H 23.4156 -2.54091 -2.01514 0
M  V30 226 H 23.2006 -3.83769 -0.803968 0
M  V30 227 H 24.6906 -3.77198 -1.79196 0
M  V30 228 N 25.1277 -0.289203 -1.54924 0
M  V30 229 C 26.0907 0.579144 -2.21762 0
M  V30 230 C 27.0907 1.07047 -1.1999 0
M  V30 231 O 28.2807 0.968384 -1.44803 0
M  V30 232 C 25.4127 1.80055 -2.8947 0
M  V30 233 H 26.6057 -0.00464908 -2.999 0
M  V30 234 H 24.1587 -0.0399306 -1.56249 0
M  V30 235 H 24.8937 2.42449 -2.15381 0
M  V30 236 H 24.6787 1.45602 -3.64064 0
M  V30 237 H 26.1687 2.41773 -3.40493 0
M  V30 238 N 26.6058 1.57591 -0.0167156 0
M  V30 239 C 27.5688 2.08393 0.954204 0
M  V30 240 C 28.5688 0.996531 1.26198 0
M  V30 241 O 29.7588 1.25858 1.20438 0
M  V30 242 C 26.8908 2.5394 2.27436 0
M  V30 243 H 28.0838 2.95455 0.514451 0
M  V30 244 H 25.6368 1.54582 0.231089 0
M  V30 245 H 26.3718 1.70171 2.76066 0
M  V30 246 H 26.1568 3.33371 2.06412 0
M  V30 247 H 27.6468 2.93512 2.97053 0
M  V30 248 N 28.0839 -0.256276 1.55502 0
M  V30 249 C 29.3609 -1.00789 1.67633 0
M  V30 250 C 29.7409 -2.03706 0.553826 0
M  V30 251 O 29.0889 -2.24145 -0.443969 0
M  V30 252 C 29.2989 -1.64968 3.07549 0
M  V30 253 C 30.6469 -2.15505 3.65845 0
M  V30 254 O 31.6709 -1.74925 3.1029 0
M  V30 255 O 30.5299 -2.89986 4.63217 0
M  V30 256 H 27.6239 -0.468553 0.681459 0
M  V30 257 H 30.1699 -0.250806 1.67836 0
M  V30 258 H 28.9419 -0.904785 3.80696 0
M  V30 259 H 28.5649 -2.47321 3.11317 0
M  V30 260 N 29.562 -1.4872 -0.521534 0
M  V30 261 C 30.839 -1.4766 -1.2828 0
M  V30 262 C 31.219 -0.19292 -2.10217 0
M  V30 263 O 30.567 0.825193 -2.13079 0
M  V30 264 C 30.777 -2.74358 -2.15705 0
M  V30 265 C 32.125 -3.23028 -2.75569 0
M  V30 266 O 33.149 -2.75333 -2.25987 0
M  V30 267 O 32.008 -4.0604 -3.65778 0
M  V30 268 H 29.102 -0.590085 -0.579421 0
M  V30 269 H 31.648 -1.60963 -0.537492 0
M  V30 270 H 30.42 -3.59292 -1.54999 0
M  V30 271 H 30.043 -2.63816 -2.97467 0
M  V30 272 N 31.0401 0.771051 -1.3745 0
M  V30 273 C 31.9871 1.88435 -1.3327 0
M  V30 274 C 32.9571 1.64914 -0.198136 0
M  V30 275 O 34.1421 1.86821 -0.387606 0
M  V30 276 C 31.2821 3.25509 -1.14622 0
M  V30 277 C 30.3951 3.60979 -2.37314 0
M  V30 278 C 29.5301 4.87265 -2.11533 0
M  V30 279 C 28.5691 5.15469 -3.30088 0
M  V30 280 N 27.7061 6.32944 -3.03853 0
M  V30 281 H 32.5461 1.91344 -2.28455 0
M  V30 282 H 30.0831 0.935466 -1.13523 0
M  V30 283 H 32.0411 4.04582 -1.01831 0
M  V30 284 H 30.6711 3.21974 -0.230837 0
M  V30 285 H 29.7231 2.76885 -2.60842 0
M  V30 286 H 31.0351 3.77759 -3.25729 0
M  V30 287 H 30.1891 5.74244 -1.95777 0
M  V30 288 H 28.9281 4.7259 -1.20457 0
M  V30 289 H 27.9331 4.26966 -3.46382 0
M  V30 290 H 29.1581 5.32052 -4.22016 0
M  V30 291 H 27.1041 6.19625 -2.15407 0
M  V30 292 H 27.0211 6.50143 -3.85812 0
M  V30 293 H 28.2891 7.22857 -2.91716 0
M  V30 294 N 32.5182 1.22032 0.997298 0
M  V30 295 C 33.4482 1.01065 2.10495 0
M  V30 296 C 34.4292 -0.0669542 1.69968 0
M  V30 297 O 35.6142 0.0943987 1.9397 0
M  V30 298 C 32.7442 0.582874 3.42374 0
M  V30 299 C 31.6982 1.60592 3.96729 0
M  V30 300 C 31.0242 1.03412 5.24605 0
M  V30 301 C 32.3242 2.99478 4.27914 0
M  V30 302 H 34.0182 1.93708 2.28292 0
M  V30 303 H 31.5642 0.932761 1.09707 0
M  V30 304 H 33.5172 0.423332 4.19268 0
M  V30 305 H 32.2412 -0.379213 3.24391 0
M  V30 306 H 30.9002 1.75316 3.21963 0
M  V30 307 H 30.5482 0.063518 5.0296 0
M  V30 308 H 30.2482 1.71754 5.61938 0
M  V30 309 H 31.7722 0.886066 6.04137 0
M  V30 310 H 33.1862 2.88153 4.95622 0
M  V30 311 H 31.5832 3.64903 4.76409 0
M  V30 312 H 32.6532 3.49742 3.3587 0
M  V30 313 N 33.9963 -1.19345 1.0293 0
M  V30 314 C 35.2213 -1.93538 0.745511 0
M  V30 315 C 35.6463 -1.75007 -0.689511 0
M  V30 316 O 35.0043 -1.05265 -1.47611 0
M  V30 317 C 35.0523 -3.43336 1.10239 0
M  V30 318 O 34.1563 -4.11806 0.221289 0
M  V30 319 H 33.4973 -0.604193 0.275404 0
M  V30 320 H 36.0273 -1.5141 1.37609 0
M  V30 321 H 36.0373 -3.94004 1.05947 0
M  V30 322 H 34.7123 -3.56146 2.14786 0
M  V30 323 H 33.2893 -3.715 0.322842 0
M  V30 324 N 35.4744 -0.807222 -1.35358 0
M  V30 325 C 36.7224 -0.387122 -1.98358 0
M  V30 326 C 37.0434 1.04942 -1.64354 0
M  V30 327 O 36.3134 1.72615 -0.926339 0
M  V30 328 H 34.8934 -0.140154 -0.733734 0
M  V30 329 H 37.5554 -1.0332 -1.6526 0
M  V30 330 H 36.6514 -0.493352 -3.08176 0
M  V30 331 N 36.9525 1.47285 -0.560781 0
M  V30 332 C 38.1995 2.02464 -0.038062 0
M  V30 333 C 38.5275 1.43474 1.31322 0
M  V30 334 O 37.7825 0.581311 1.86867 0
M  V30 335 C 38.0815 3.57258 0.100784 0
M  V30 336 C 37.7475 4.35184 -1.18007 0
M  V30 337 C 36.4095 4.56194 -1.53103 0
M  V30 338 C 38.7615 4.80098 -2.02867 0
M  V30 339 C 36.0895 5.19367 -2.729 0
M  V30 340 C 38.4415 5.44593 -3.21871 0
M  V30 341 C 37.1055 5.63835 -3.57276 0
M  V30 342 H 36.3755 0.740869 -0.0139279 0
M  V30 343 H 39.0225 1.76916 -0.733012 0
M  V30 344 H 37.3275 3.81819 0.878724 0
M  V30 345 H 39.0245 3.97606 0.520639 0
M  V30 346 H 35.6145 4.19113 -0.8968 0
M  V30 347 H 39.7985 4.63642 -1.7706 0
M  V30 348 H 35.0545 5.32459 -3.00496 0
M  V30 349 H 39.2285 5.78358 -3.87911 0
M  V30 350 H 36.8555 6.12557 -4.50197 0
M  V30 351 N 38.4306 0.297415 1.54768 0
M  V30 352 C 39.3626 -0.613881 2.20826 0
M  V30 353 C 40.3756 -1.10032 1.19987 0
M  V30 354 O 41.5646 -1.01839 1.46598 0
M  V30 355 C 38.6646 -1.852 2.83821 0
M  V30 356 C 37.8376 -1.50865 4.10559 0
M  V30 357 C 36.8966 -2.60154 4.57391 0
M  V30 358 O 35.9226 -2.25398 5.2267 0
M  V30 359 N 37.1246 -3.90629 4.29406 0
M  V30 360 H 39.8896 -0.048389 2.99661 0
M  V30 361 H 37.4506 0.11946 1.61459 0
M  V30 362 H 39.4426 -2.57652 3.12086 0
M  V30 363 H 38.0126 -2.32597 2.08847 0
M  V30 364 H 37.2326 -0.616925 3.89343 0
M  V30 365 H 38.5206 -1.25458 4.9309 0
M  V30 366 H 37.9186 -4.21677 3.77101 0
M  V30 367 H 36.4756 -4.59391 4.62388 0
M  V30 368 N 39.9087 -1.5758 0.0250728 0
M  V30 369 C 41.1567 -1.91255 -0.653151 0
M  V30 370 C 41.4777 -0.901691 -1.729 0
M  V30 371 O 40.7477 0.0573785 -1.95816 0
M  V30 372 H 39.3277 -0.705942 -0.244243 0
M  V30 373 H 41.9897 -1.94767 0.0719209 0
M  V30 374 H 41.0857 -2.91752 -1.10847 0
M  V30 375 N 41.3868 0.248026 -1.55636 0
M  V30 376 C 42.6638 0.998988 -1.68165 0
M  V30 377 C 43.0438 2.03409 -0.564621 0
M  V30 378 O 42.3918 2.24378 0.432076 0
M  V30 379 C 42.6018 1.63334 -3.0842 0
M  V30 380 C 43.9498 2.13562 -3.66983 0
M  V30 381 O 44.9738 1.73277 -3.11213 0
M  V30 382 O 43.8328 2.87526 -4.64749 0
M  V30 383 H 40.9268 0.464933 -0.683935 0
M  V30 384 H 43.4728 0.241902 -1.67967 0
M  V30 385 H 42.2448 0.884583 -3.8117 0
M  V30 386 H 41.8678 2.45666 -3.12624 0
M  V30 387 N 42.8649 1.48995 0.513639 0
M  V30 388 C 44.1119 1.57843 1.26854 0
M  V30 389 C 44.4399 0.259501 1.92761 0
M  V30 390 O 43.6949 -0.75159 1.80692 0
M  V30 391 C 43.9939 2.67756 2.36731 0
M  V30 392 C 43.6599 4.09669 1.88368 0
M  V30 393 C 42.3219 4.48291 1.74896 0
M  V30 394 C 44.6739 4.98537 1.52021 0
M  V30 395 C 42.0019 5.73568 1.23438 0
M  V30 396 C 44.3539 6.24319 1.0202 0
M  V30 397 C 43.0179 6.61783 0.871778 0
M  V30 398 H 42.2879 0.577587 0.464192 0
M  V30 399 H 44.9349 1.82778 0.571366 0
M  V30 400 H 43.2399 2.36743 3.12185 0
M  V30 401 H 44.9369 2.71813 2.9482 0
M  V30 402 H 41.5269 3.79176 1.99808 0
M  V30 403 H 45.7109 4.69363 1.61281 0
M  V30 404 H 40.9669 6.01304 1.10648 0
M  V30 405 H 45.1409 6.92566 0.729722 0
M  V30 406 H 42.7679 7.5874 0.470852 0
M  V30 407 N 44.343 -0.763751 1.37857 0
M  V30 408 C 45.273 -1.89103 1.36975 0
M  V30 409 C 46.254 -1.68439 0.237152 0
M  V30 410 O 47.439 -1.8918 0.438713 0
M  V30 411 C 44.569 -3.26496 1.18395 0
M  V30 412 C 43.523 -3.61741 2.28751 0
M  V30 413 C 42.849 -4.97762 1.95286 0
M  V30 414 C 44.149 -3.67665 3.70972 0
M  V30 415 H 45.843 -1.90099 2.31307 0
M  V30 416 H 43.389 -0.91319 1.11341 0
M  V30 417 H 45.342 -4.05003 1.16406 0
M  V30 418 H 44.066 -3.25955 0.205215 0
M  V30 419 H 42.725 -2.85547 2.29909 0
M  V30 420 H 42.373 -4.93769 0.959221 0
M  V30 421 H 42.073 -5.22313 2.69189 0
M  V30 422 H 43.597 -5.7866 1.94898 0
M  V30 423 H 45.011 -4.36307 3.719 0
M  V30 424 H 43.408 -4.03718 4.43995 0
M  V30 425 H 44.478 -2.68134 4.0402 0
M  V30 426 N 45.8211 -1.22559 -0.990812 0
M  V30 427 C 47.0671 -1.06303 -1.73411 0
M  V30 428 C 47.4221 0.397442 -1.8825 0
M  V30 429 O 46.7151 1.29062 -1.41611 0
M  V30 430 C 46.9091 -1.71011 -3.13831 0
M  V30 431 C 46.7381 -3.232 -3.12685 0
M  V30 432 C 45.5081 -3.92314 -3.18461 0
M  V30 433 C 47.7061 -4.20107 -2.96673 0
M  V30 434 N 45.6881 -5.31571 -3.07091 0
M  V30 435 C 47.0591 -5.46208 -2.93354 0
M  V30 436 C 49.1141 -4.10973 -2.8108 0
M  V30 437 C 47.8171 -6.64225 -2.76039 0
M  V30 438 C 49.8431 -5.28642 -2.65126 0
M  V30 439 C 49.2051 -6.53663 -2.62496 0
M  V30 440 H 45.3041 -0.443441 -0.644115 0
M  V30 441 H 47.8881 -1.55131 -1.17654 0
M  V30 442 H 46.0591 -1.2473 -3.67827 0
M  V30 443 H 47.7911 -1.47828 -3.76735 0
M  V30 444 H 44.5461 -3.43326 -3.26227 0
M  V30 445 H 44.9701 -6.0455 -3.0471 0
M  V30 446 H 49.6121 -3.15098 -2.8191 0
M  V30 447 H 47.3301 -7.60246 -2.73954 0
M  V30 448 H 50.9161 -5.23407 -2.54039 0
M  V30 449 H 49.7961 -7.43182 -2.50302 0
M  V30 450 N 47.2992 1.18797 -1.03562 0
M  V30 451 C 48.7102 1.70322 -0.764676 0
M  V30 452 C 49.0612 1.82708 0.714996 0
M  V30 453 O 48.1862 1.50299 1.55689 0
M  V30 454 C 48.7812 3.09356 -1.38145 0
M  V30 455 C 47.3402 3.58114 -1.15895 0
M  V30 456 C 46.4872 2.34798 -1.4753 0
M  V30 457 H 49.4382 1.03543 -1.20268 0
M  V30 458 H 49.4592 3.72378 -0.781977 0
M  V30 459 H 48.9712 3.00309 -2.45837 0
M  V30 460 H 47.0722 3.72464 -0.100544 0
M  V30 461 H 47.1852 4.4184 -1.8524 0
M  V30 462 H 45.5492 2.38464 -0.894829 0
M  V30 463 H 46.3322 2.28375 -2.56319 0
M  V30 464 N 48.7773 0.814389 1.34928 0
M  V30 465 C 50.0263 0.394871 1.97797 0
M  V30 466 C 50.3393 -1.04555 1.65311 0
M  V30 467 O 51.5453 -1.56856 2.21604 0
M  V30 468 C 50.0013 0.655103 3.53888 0
M  V30 469 C 49.6093 2.10858 3.95276 0
M  V30 470 C 51.3533 0.301329 4.23429 0
M  V30 471 C 49.2603 2.31415 5.44244 0
M  V30 472 H 48.1903 0.143913 0.740139 0
M  V30 473 H 50.8413 0.999544 1.53888 0
M  V30 474 H 49.2233 -0.0196253 3.95995 0
M  V30 475 H 50.3973 2.82176 3.64298 0
M  V30 476 H 48.7123 2.42297 3.38646 0
M  V30 477 H 51.3093 0.432869 5.32945 0
M  V30 478 H 51.6523 -0.75331 4.09428 0
M  V30 479 H 52.1853 0.930288 3.86769 0
M  V30 480 H 48.9243 3.35353 5.63222 0
M  V30 481 H 48.4443 1.6463 5.76764 0
M  V30 482 H 50.1233 2.13352 6.10811 0
M  V30 483 N 50.2554 -1.46986 0.568584 0
M  V30 484 C 51.1854 -2.32946 -0.160753 0
M  V30 485 C 52.1664 -1.44487 -0.897631 0
M  V30 486 O 53.3514 -1.73327 -0.875867 0
M  V30 487 C 50.4814 -3.26494 -1.18403 0
M  V30 488 C 49.4354 -4.24282 -0.562895 0
M  V30 489 C 48.7614 -5.07236 -1.69163 0
M  V30 490 C 50.0614 -5.19989 0.490761 0
M  V30 491 H 51.7554 -2.94175 0.556916 0
M  V30 492 H 49.3014 -1.4146 0.26927 0
M  V30 493 H 51.2544 -3.85477 -1.70251 0
M  V30 494 H 49.9784 -2.63343 -1.93179 0
M  V30 495 H 48.6374 -3.66541 -0.0656164 0
M  V30 496 H 48.2854 -4.4048 -2.42871 0
M  V30 497 H 47.9854 -5.7345 -1.28174 0
M  V30 498 H 49.5094 -5.6908 -2.21314 0
M  V30 499 H 50.9234 -5.73271 0.0579047 0
M  V30 500 H 49.3204 -5.94469 0.820165 0
M  V30 501 H 50.3904 -4.64777 1.3824 0
M  V30 502 N 51.7335 -0.305618 -1.54608 0
M  V30 503 C 52.9795 0.302746 -2.00528 0
M  V30 504 C 53.3125 1.53184 -1.19367 0
M  V30 505 O 52.5875 1.92598 -0.271321 0
M  V30 506 C 52.8705 0.654756 -3.54097 0
M  V30 507 C 52.7235 -0.583793 -4.45995 0
M  V30 508 C 54.0425 1.47947 -4.14487 0
M  V30 509 H 51.1615 0.108564 -0.72896 0
M  V30 510 H 53.8035 -0.418634 -1.85331 0
M  V30 511 H 51.9535 1.26935 -3.67178 0
M  V30 512 H 53.6255 -1.22224 -4.44814 0
M  V30 513 H 51.8685 -1.21615 -4.16404 0
M  V30 514 H 52.5395 -0.293287 -5.5122 0
M  V30 515 H 55.0155 0.96013 -4.04871 0
M  V30 516 H 53.8915 1.69454 -5.22088 0
M  V30 517 H 54.1525 2.47011 -3.66658 0
M  V30 518 N 53.2116 1.57565 -0.0334293 0
M  V30 519 C 54.4576 1.92262 0.645226 0
M  V30 520 C 54.7906 0.910543 1.71531 0
M  V30 521 O 54.0656 -0.066099 1.94388 0
M  V30 522 C 54.3486 3.37422 1.2577 0
M  V30 523 C 54.2016 4.49369 0.196891 0
M  V30 524 C 55.5206 3.82628 2.17449 0
M  V30 525 H 52.6396 0.699171 0.233085 0
M  V30 526 H 55.2816 1.89779 -0.0915694 0
M  V30 527 H 53.4316 3.39669 1.88566 0
M  V30 528 H 55.1036 4.59254 -0.433962 0
M  V30 529 H 53.3466 4.31168 -0.477137 0
M  V30 530 H 54.0176 5.47978 0.665124 0
M  V30 531 H 56.4936 3.82145 1.64634 0
M  V30 532 H 55.3696 4.84883 2.57254 0
M  V30 533 H 55.6306 3.18376 3.0674 0
M  V30 534 N 54.6897 -0.239769 1.55765 0
M  V30 535 C 55.5997 -1.31831 1.94056 0
M  V30 536 C 56.6157 -1.52275 0.841925 0
M  V30 537 O 57.7917 -1.65759 1.14394 0
M  V30 538 C 54.8567 -2.65156 2.23368 0
M  V30 539 C 53.9177 -2.53173 3.46701 0
M  V30 540 C 53.1507 -3.8014 3.74606 0
M  V30 541 O 53.3737 -4.82343 3.04469 0
M  V30 542 O 52.3077 -3.78344 4.68123 0
M  V30 543 H 56.1337 -1.02347 2.85935 0
M  V30 544 H 53.7187 -0.441123 1.42739 0
M  V30 545 H 55.6007 -3.43929 2.43497 0
M  V30 546 H 54.2757 -2.94358 1.34666 0
M  V30 547 H 53.1827 -1.72662 3.31871 0
M  V30 548 H 54.5157 -2.28915 4.35728 0
M  V30 549 N 56.1678 -1.49265 -0.50573 0
M  V30 550 C 57.4148 -1.58513 -1.26015 0
M  V30 551 C 57.7428 -0.26972 -1.92621 0
M  V30 552 O 56.9978 0.741997 -1.81088 0
M  V30 553 C 57.2968 -2.69008 -2.35308 0
M  V30 554 C 56.9628 -4.10662 -1.86192 0
M  V30 555 C 55.6248 -4.49212 -1.72516 0
M  V30 556 C 57.9768 -4.99336 -1.49375 0
M  V30 557 C 55.3048 -5.74214 -1.20394 0
M  V30 558 C 57.6568 -6.24852 -0.987072 0
M  V30 559 C 56.3208 -6.62236 -0.836669 0
M  V30 560 H 55.5908 -0.580041 -0.461122 0
M  V30 561 H 58.2378 -1.83078 -0.561665 0
M  V30 562 H 56.5428 -2.38396 -3.10926 0
M  V30 563 H 58.2398 -2.73373 -2.93374 0
M  V30 564 H 54.8298 -3.8023 -1.97795 0
M  V30 565 H 59.0138 -4.70212 -1.5879 0
M  V30 566 H 54.2698 -6.01883 -1.07458 0
M  V30 567 H 58.4438 -6.92944 -0.692983 0
M  V30 568 H 56.0708 -7.58979 -0.430607 0
M  V30 569 N 57.6459 0.756429 -1.3826 0
M  V30 570 C 58.5759 1.88374 -1.37976 0
M  V30 571 C 59.5569 1.68311 -0.246082 0
M  V30 572 O 60.7419 1.88944 -0.44874 0
M  V30 573 C 57.8719 3.25864 -1.20125 0
M  V30 574 C 56.8259 3.60523 -2.30666 0
M  V30 575 C 56.1519 4.9672 -1.97923 0
M  V30 576 C 57.4519 3.65692 -3.72916 0
M  V30 577 H 59.1459 1.88869 -2.32312 0
M  V30 578 H 56.6919 0.907272 -1.11824 0
M  V30 579 H 58.6449 4.0438 -1.18552 0
M  V30 580 H 57.3689 3.25841 -0.222498 0
M  V30 581 H 56.0279 2.84324 -2.3142 0
M  V30 582 H 55.6759 4.93253 -0.985393 0
M  V30 583 H 55.3759 5.20878 -2.71955 0
M  V30 584 H 56.8999 5.77618 -1.97964 0
M  V30 585 H 58.3139 4.34328 -3.74208 0
M  V30 586 H 56.7109 4.01358 -4.4613 0
M  V30 587 H 57.7809 2.65987 -4.05436 0
M  V30 588 N 59.124 1.23083 0.984299 0
M  V30 589 C 60.37 1.06214 1.72761 0
M  V30 590 C 60.703 -0.400584 1.90024 0
M  V30 591 O 59.978 -1.29672 1.44967 0
M  V30 592 C 60.261 1.78375 3.12817 0
M  V30 593 C 60.114 3.32296 3.03149 0
M  V30 594 C 61.433 1.54309 4.12161 0
M  V30 595 H 58.552 0.387251 0.627061 0
M  V30 596 H 61.194 1.51536 1.14616 0
M  V30 597 H 59.344 1.39848 3.62457 0
M  V30 598 H 61.016 3.8032 2.61064 0
M  V30 599 H 59.259 3.6153 2.39747 0
M  V30 600 H 59.93 3.77972 4.02295 0
M  V30 601 H 62.406 1.87791 3.71314 0
M  V30 602 H 61.282 2.07281 5.08258 0
M  V30 603 H 61.543 0.477572 4.39513 0
M  V30 604 N 60.6021 -1.18246 1.0419 0
M  V30 605 C 61.5651 -2.20128 0.638452 0
M  V30 606 C 62.5651 -1.57885 -0.304805 0
M  V30 607 O 63.7551 -1.73967 -0.0900369 0
M  V30 608 C 60.8871 -3.4084 -0.0637751 0
M  V30 609 H 62.0801 -2.57336 1.54007 0
M  V30 610 H 59.6331 -1.32152 0.834598 0
M  V30 611 H 60.3681 -3.09166 -0.979136 0
M  V30 612 H 60.1531 -3.8726 0.614198 0
M  V30 613 H 61.6431 -4.16274 -0.332512 0
M  V30 614 N 62.0802 -0.821533 -1.34494 0
M  V30 615 C 63.3262 -0.409552 -1.98622 0
M  V30 616 C 63.6592 1.0244 -1.64984 0
M  V30 617 O 62.9342 1.71325 -0.920758 0
M  V30 618 C 63.2172 -0.610458 -3.54888 0
M  V30 619 C 63.0702 -2.09043 -3.98273 0
M  V30 620 C 64.3892 -0.0455379 -4.40076 0
M  V30 621 H 61.5082 -0.15028 -0.721516 0
M  V30 622 H 64.1502 -1.03384 -1.59411 0
M  V30 623 H 62.3002 -0.079044 -3.8842 0
M  V30 624 H 63.9722 -2.68537 -3.75081 0
M  V30 625 H 62.2152 -2.58139 -3.48635 0
M  V30 626 H 62.8862 -2.18182 -5.07051 0
M  V30 627 H 65.3622 -0.499557 -4.1309 0
M  V30 628 H 64.2382 -0.215922 -5.48475 0
M  V30 629 H 64.4992 1.04939 -4.29465 0
M  V30 630 N 63.5583 1.46682 -0.576371 0
M  V30 631 C 64.5213 2.28707 0.150239 0
M  V30 632 C 65.5213 1.38035 0.824794 0
M  V30 633 O 66.7113 1.60476 0.677719 0
M  V30 634 C 63.8433 3.18248 1.22192 0
M  V30 635 H 65.0363 2.94423 -0.570521 0
M  V30 636 H 62.5893 1.52688 -0.334078 0
M  V30 637 H 63.3243 2.57265 1.97447 0
M  V30 638 H 63.1093 3.85 0.742812 0
M  V30 639 H 64.5993 3.80001 1.73172 0
M  V30 640 N 65.0364 0.313813 1.54444 0
M  V30 641 C 66.2614 -0.296681 2.05267 0
M  V30 642 C 66.6864 -1.45757 1.18897 0
M  V30 643 O 66.0444 -1.80239 0.195886 0
M  V30 644 C 66.0924 -0.71831 3.53373 0
M  V30 645 O 65.1964 -1.82175 3.69981 0
M  V30 646 H 64.5374 -0.0554061 0.661684 0
M  V30 647 H 67.0674 0.459387 1.99376 0
M  V30 648 H 67.0774 -1.00364 3.95463 0
M  V30 649 H 65.7524 0.130821 4.15694 0
M  V30 650 H 64.3294 -1.53598 3.39797 0
M  V30 651 N 66.5145 -1.57545 0.0417849 0
M  V30 652 C 67.4625 -2.12148 -0.953723 0
M  V30 653 C 68.4565 -1.05104 -1.32852 0
M  V30 654 O 69.6625 -1.23524 -1.30927 0
M  V30 655 H 66.0375 -0.677957 -0.325389 0
M  V30 656 H 68.0085 -2.94707 -0.467991 0
M  V30 657 C 66.7575 -2.6739 -2.22257 0
M  V30 658 H 66.0805 -3.49413 -1.94295 0
M  V30 659 H 67.5205 -3.09227 -2.90094 0
M  V30 660 C 65.9795 -1.60723 -2.96091 0
M  V30 661 O 66.5095 -1.01449 -3.88679 0
M  V30 662 N 64.7155 -1.32466 -2.58652 0
M  V30 663 H 64.2625 -1.80856 -1.83437 0
M  V30 664 H 64.2205 -0.61325 -3.08361 0
M  V30 665 N 67.9926 0.231505 -1.5589 0
M  V30 666 C 69.2406 0.955461 -1.78088 0
M  V30 667 C 69.5616 1.85262 -0.608533 0
M  V30 668 O 68.8316 1.92277 0.375035 0
M  V30 669 H 67.4116 0.355787 -0.656829 0
M  V30 670 H 70.0736 0.245751 -1.93344 0
M  V30 671 H 69.1696 1.56814 -2.69844 0
M  V30 672 N 69.4707 1.49531 0.497807 0
M  V30 673 C 70.4007 1.6935 1.60757 0
M  V30 674 C 71.3817 0.542218 1.61227 0
M  V30 675 O 72.5667 0.778417 1.77917 0
M  V30 676 C 69.6967 1.76298 2.99226 0
M  V30 677 C 68.6507 2.91248 3.13622 0
M  V30 678 C 67.9767 2.83312 4.53474 0
M  V30 679 C 69.2767 4.3214 2.93346 0
M  V30 680 H 70.9707 2.62263 1.44425 0
M  V30 681 H 68.5167 1.26208 0.693367 0
M  V30 682 H 70.4697 1.88749 3.76765 0
M  V30 683 H 69.1937 0.799871 3.16654 0
M  V30 684 H 67.8527 2.78404 2.38509 0
M  V30 685 H 67.5007 1.84902 4.67782 0
M  V30 686 H 67.2007 3.60465 4.64046 0
M  V30 687 H 68.7247 2.97775 5.33069 0
M  V30 688 H 70.1387 4.45649 3.60652 0
M  V30 689 H 68.5357 5.1054 3.15387 0
M  V30 690 H 69.6057 4.46363 1.89441 0
M  V30 691 N 70.9488 -0.749086 1.3866 0
M  V30 692 C 71.9118 -1.84457 1.36045 0
M  V30 693 C 72.9118 -1.58682 0.260122 0
M  V30 694 O 74.1018 -1.66343 0.517261 0
M  V30 695 C 71.2338 -3.22008 1.11911 0
M  V30 696 H 72.4268 -1.88182 2.33512 0
M  V30 697 H 69.9798 -0.951266 1.24019 0
M  V30 698 H 70.7148 -3.2395 0.150686 0
M  V30 699 H 70.4998 -3.42111 1.91579 0
M  V30 700 H 71.9898 -4.0208 1.12788 0
M  V30 701 N 72.4269 -1.23603 -0.977757 0
M  V30 702 C 73.3569 -1.04401 -2.0886 0
M  V30 703 C 74.3379 0.0399052 -1.70053 0
M  V30 704 O 75.5229 -0.125246 -1.93796 0
M  V30 705 C 72.6529 -0.637269 -3.41403 0
M  V30 706 C 71.6069 -1.66883 -3.94124 0
M  V30 707 C 70.9329 -1.11745 -5.22893 0
M  V30 708 C 72.2329 -3.06247 -4.23096 0
M  V30 709 H 73.9269 -1.97316 -2.25182 0
M  V30 710 H 71.4729 -0.950096 -1.08209 0
M  V30 711 H 73.4259 -0.48998 -4.18542 0
M  V30 712 H 72.1499 0.327557 -3.24953 0
M  V30 713 H 70.8089 -1.80416 -3.19133 0
M  V30 714 H 70.4569 -0.143527 -5.02795 0
M  V30 715 H 70.1569 -1.80672 -5.59134 0
M  V30 716 H 71.6809 -0.982067 -6.02651 0
M  V30 717 H 73.0949 -2.96001 -4.90975 0
M  V30 718 H 71.4919 -3.72436 -4.70544 0
M  V30 719 H 72.5619 -3.55041 -3.30263 0
M  V30 720 N 73.905 1.17692 -1.04816 0
M  V30 721 C 75.135 1.91508 -0.775128 0
M  V30 722 C 75.543 1.76844 0.67253 0
M  V30 723 O 74.886 1.10057 1.47082 0
M  V30 724 C 74.948 3.43167 -1.0713 0
M  V30 725 C 74.612 3.81612 -2.51438 0
M  V30 726 C 75.609 3.84772 -3.49638 0
M  V30 727 C 73.294 4.12687 -2.86348 0
M  V30 728 C 75.288 4.18469 -4.80794 0
M  V30 729 C 72.975 4.46053 -4.17708 0
M  V30 730 C 73.973 4.48921 -5.14741 0
M  V30 731 O 73.661 4.81504 -6.43746 0
M  V30 732 H 73.393 0.614575 -0.281555 0
M  V30 733 H 75.947 1.50206 -1.40098 0
M  V30 734 H 74.177 3.84745 -0.388342 0
M  V30 735 H 75.866 3.98239 -0.784883 0
M  V30 736 H 76.632 3.60893 -3.24008 0
M  V30 737 H 72.511 4.09627 -2.11486 0
M  V30 738 H 76.055 4.20623 -5.56527 0
M  V30 739 H 71.952 4.69393 -4.43103 0
M  V30 740 H 72.72 4.99377 -6.4851 0
M  V30 741 N 75.3831 0.828654 1.34056 0
M  V30 742 C 76.7991 0.515135 1.51058 0
M  V30 743 C 76.9991 -0.959581 1.77184 0
M  V30 744 O 76.0551 -1.74382 1.82612 0
M  V30 745 C 77.3681 1.37963 2.67183 0
M  V30 746 C 78.9161 1.37735 2.81066 0
M  V30 747 C 79.3911 2.22645 4.00241 0
M  V30 748 N 80.8821 2.203 4.07458 0
M  V30 749 C 81.6171 2.82744 4.98842 0
M  V30 750 N 81.1131 3.54201 5.9541 0
M  V30 751 N 82.9061 2.72268 4.91759 0
M  V30 752 H 75.0571 1.78343 1.15358 0
M  V30 753 H 77.3201 0.760304 0.566252 0
M  V30 754 H 77.0261 2.42714 2.54525 0
M  V30 755 H 76.9001 1.0484 3.62338 0
M  V30 756 H 79.2871 0.337593 2.93163 0
M  V30 757 H 79.3681 1.74859 1.86703 0
M  V30 758 H 79.0121 3.26674 3.88905 0
M  V30 759 H 78.9421 1.82869 4.93829 0
M  V30 760 H 81.4331 1.68327 3.38341 0
M  V30 761 H 81.7461 3.9908 6.61782 0
M  V30 762 H 80.0911 3.58308 5.95517 0
M  V30 763 H 83.2821 2.16014 4.15278 0
M  V30 764 H 83.4551 3.21219 5.62781 0
M  V30 765 N 76.8612 -1.46375 0.584142 0
M  V30 766 C 78.1082 -2.02378 0.0702675 0
M  V30 767 C 78.4362 -1.45545 -1.29023 0
M  V30 768 O 77.6912 -0.610967 -1.85918 0
M  V30 769 C 77.9902 -3.57373 -0.0439342 0
M  V30 770 C 77.6562 -4.33252 1.24915 0
M  V30 771 C 76.3182 -4.53701 1.60341 0
M  V30 772 C 78.6702 -4.7681 2.1048 0
M  V30 773 C 75.9982 -5.1496 2.81128 0
M  V30 774 C 78.3502 -5.39404 3.30494 0
M  V30 775 C 77.0142 -5.5808 3.66201 0
M  V30 776 H 76.2842 -0.740554 0.0257127 0
M  V30 777 H 78.9312 -1.75727 0.761065 0
M  V30 778 H 77.2362 -3.83169 -0.817869 0
M  V30 779 H 78.9332 -3.98384 -0.457318 0
M  V30 780 H 75.5232 -4.17633 0.963364 0
M  V30 781 H 79.7072 -4.60766 1.84414 0
M  V30 782 H 74.9632 -5.27611 3.08928 0
M  V30 783 H 79.1372 -5.72114 3.97063 0
M  V30 784 H 76.7642 -6.05318 4.59885 0
M  V30 785 N 78.3393 -0.321999 -1.54275 0
M  V30 786 C 79.5643 0.285791 -2.05422 0
M  V30 787 C 79.9893 1.45124 -1.19669 0
M  V30 788 O 79.3473 1.80132 -0.205441 0
M  V30 789 C 79.3953 0.69956 -3.53749 0
M  V30 790 O 78.4993 1.8021 -3.70942 0
M  V30 791 H 77.8403 0.0518962 -0.661969 0
M  V30 792 H 80.3703 -0.469954 -1.9913 0
M  V30 793 H 80.3803 0.982649 -3.9599 0
M  V30 794 H 79.0553 -0.152864 -4.15619 0
M  V30 795 H 77.6323 1.51794 -3.40607 0
M  V30 796 N 79.8174 1.5752 -0.0501392 0
M  V30 797 C 81.0664 1.91827 0.623328 0
M  V30 798 C 81.3794 0.930222 1.72065 0
M  V30 799 O 82.5854 1.1653 2.4522 0
M  V30 800 C 81.0414 3.40692 1.16003 0
M  V30 801 C 80.6494 4.479 0.0948811 0
M  V30 802 C 82.3934 3.84034 1.80881 0
M  V30 803 C 80.3004 5.87879 0.644411 0
M  V30 804 H 79.2304 0.715918 0.236596 0
M  V30 805 H 81.8814 1.83115 -0.118861 0
M  V30 806 H 80.2634 3.44405 1.9545 0
M  V30 807 H 81.4374 4.55775 -0.678675 0
M  V30 808 H 79.7524 4.13892 -0.45637 0
M  V30 809 H 82.3494 4.85984 2.22988 0
M  V30 810 H 82.6924 3.20225 2.6601 0
M  V30 811 H 83.2254 3.82833 1.0809 0
M  V30 812 H 79.9644 6.55282 -0.169229 0
M  V30 813 H 79.4844 5.83567 1.38598 0
M  V30 814 H 81.1634 6.37098 1.12763 0
M  V30 815 N 81.2955 -0.223234 1.56011 0
M  V30 816 C 82.7115 -0.572856 1.48965 0
M  V30 817 C 82.9115 -1.87225 0.74492 0
M  V30 818 O 81.9675 -2.50899 0.283896 0
M  V30 819 C 83.2805 -0.653646 2.9351 0
M  V30 820 C 84.8285 -0.744386 3.0402 0
M  V30 821 C 85.3035 -0.856535 4.49919 0
M  V30 822 N 86.7945 -0.9208 4.53955 0
M  V30 823 C 87.5295 -1.02726 5.64123 0
M  V30 824 N 87.0255 -1.09777 6.84047 0
M  V30 825 N 88.8185 -1.06226 5.51971 0
M  V30 826 H 80.9695 0.629462 2.02858 0
M  V30 827 H 83.2325 0.220621 0.921971 0
M  V30 828 H 82.9385 0.231518 3.50937 0
M  V30 829 H 82.8125 -1.51781 3.45315 0
M  V30 830 H 85.1995 -1.61999 2.46658 0
M  V30 831 H 85.2805 0.14541 2.55386 0
M  V30 832 H 84.9245 0.0146069 5.07898 0
M  V30 833 H 84.8545 -1.76172 4.96257 0
M  V30 834 H 87.3455 -0.876694 3.6759 0
M  V30 835 H 87.6585 -1.17872 7.63758 0
M  V30 836 H 86.0035 -1.06693 6.86762 0
M  V30 837 H 89.1945 -1.00382 4.5721 0
M  V30 838 H 89.3675 -1.14177 6.37862 0
M  V30 839 N 82.7736 -1.49793 -0.48987 0
M  V30 840 C 83.7206 -1.67281 -1.59014 0
M  V30 841 C 84.6906 -0.514177 -1.57941 0
M  V30 842 O 85.8756 -0.742533 -1.75759 0
M  V30 843 C 83.0156 -1.75569 -2.97102 0
M  V30 844 C 82.1286 -3.0281 -3.08107 0
M  V30 845 C 81.2636 -3.02008 -4.36995 0
M  V30 846 C 80.3026 -4.23782 -4.41673 0
M  V30 847 N 79.4396 -4.20826 -5.62005 0
M  V30 848 H 84.2796 -2.61224 -1.43409 0
M  V30 849 H 81.8166 -1.29508 -0.697565 0
M  V30 850 H 83.7746 -1.78354 -3.77155 0
M  V30 851 H 82.4046 -0.850827 -3.11385 0
M  V30 852 H 81.4566 -3.09584 -2.21047 0
M  V30 853 H 82.7686 -3.92801 -3.07423 0
M  V30 854 H 81.9226 -3.03418 -5.25378 0
M  V30 855 H 80.6616 -2.09815 -4.4026 0
M  V30 856 H 79.6666 -4.22604 -3.5169 0
M  V30 857 H 80.8916 -5.17181 -4.40115 0
M  V30 858 H 78.8376 -3.31476 -5.66091 0
M  V30 859 H 78.7546 -5.04564 -5.62984 0
M  V30 860 H 80.0226 -4.26355 -6.52565 0
M  V30 861 N 84.2517 0.741722 -1.39055 0
M  V30 862 C 85.1837 1.8657 -1.33133 0
M  V30 863 C 86.1967 1.61001 -0.241329 0
M  V30 864 O 87.3857 1.7136 -0.499784 0
M  V30 865 C 84.4857 3.22457 -1.04283 0
M  V30 866 C 83.6587 3.75435 -2.24427 0
M  V30 867 C 82.7177 4.89867 -1.92138 0
M  V30 868 O 81.7437 5.03879 -2.64754 0
M  V30 869 N 82.9457 5.73738 -0.88347 0
M  V30 870 H 85.7107 1.92156 -2.29991 0
M  V30 871 H 83.2717 0.922172 -1.3307 0
M  V30 872 H 85.2637 3.9657 -0.807128 0
M  V30 873 H 83.8337 3.12181 -0.161807 0
M  V30 874 H 83.0537 2.92751 -2.6399 0
M  V30 875 H 84.3417 4.07563 -3.04581 0
M  V30 876 H 83.7397 5.64999 -0.281517 0
M  V30 877 H 82.2967 6.47947 -0.707662 0
M  V30 878 N 85.7298 1.2412 0.971189 0
M  V30 879 C 87.1458 1.00584 1.23916 0
M  V30 880 C 87.3458 -0.287481 1.99439 0
M  V30 881 O 86.4018 -1.00454 2.31658 0
M  V30 882 C 87.7148 2.21864 2.0297 0
M  V30 883 C 89.2628 2.26452 2.16076 0
M  V30 884 C 89.7378 3.47343 2.98524 0
M  V30 885 N 91.2288 3.47639 3.06107 0
M  V30 886 C 91.9638 4.37837 3.70251 0
M  V30 887 N 91.4598 5.38286 4.36142 0
M  V30 888 N 93.2528 4.25558 3.67228 0
M  V30 889 H 85.4038 2.07236 0.465499 0
M  V30 890 H 87.6668 0.909236 0.268315 0
M  V30 891 H 87.3728 3.15771 1.54861 0
M  V30 892 H 87.2468 2.23698 3.03709 0
M  V30 893 H 89.6338 1.33078 2.6339 0
M  V30 894 H 89.7148 2.28645 1.14696 0
M  V30 895 H 89.3588 4.41029 2.51905 0
M  V30 896 H 89.2888 3.42393 4.00093 0
M  V30 897 H 91.7798 2.74966 2.59233 0
M  V30 898 H 92.0928 6.03352 4.82894 0
M  V30 899 H 90.4378 5.42176 4.34822 0
M  V30 900 H 93.6288 3.46322 3.14927 0
M  V30 901 H 93.8018 4.96054 4.16935 0
M  V30 902 N 87.2079 -1.17134 1.05439 0
M  V30 903 C 88.6189 -1.69084 0.791676 0
M  V30 904 C 88.9699 -1.83822 -0.685839 0
M  V30 905 O 88.0949 -1.52757 -1.53278 0
M  V30 906 C 88.6899 -3.07119 1.4305 0
M  V30 907 C 87.2489 -3.56225 1.21577 0
M  V30 908 C 86.3959 -2.32421 1.51247 0
M  V30 909 H 89.3469 -1.01617 1.219 0
M  V30 910 H 89.3679 -3.71087 0.84112 0
M  V30 911 H 88.8799 -2.9636 2.50584 0
M  V30 912 H 86.9809 -3.72257 0.159787 0
M  V30 913 H 87.0939 -4.38837 1.92246 0
M  V30 914 H 85.4579 -2.3701 0.932653 0
M  V30 915 H 86.2409 -2.24268 2.5992 0
M  V30 916 N 88.686 -0.835752 -1.33615 0
M  V30 917 C 89.932 -0.439817 -1.98588 0
M  V30 918 C 90.287 0.989274 -1.65019 0
M  V30 919 O 89.58 1.68168 -0.918159 0
M  V30 920 C 89.774 -0.593925 -3.52431 0
M  V30 921 C 89.603 -2.03644 -4.00948 0
M  V30 922 C 88.373 -2.67103 -4.28934 0
M  V30 923 C 90.571 -3.00479 -4.17393 0
M  V30 924 N 88.553 -4.02462 -4.6357 0
M  V30 925 C 89.924 -4.20777 -4.55353 0
M  V30 926 C 91.979 -2.96926 -3.99674 0
M  V30 927 C 90.682 -5.37994 -4.77447 0
M  V30 928 C 92.708 -4.1337 -4.22941 0
M  V30 929 C 92.07 -5.32422 -4.61201 0
M  V30 930 H 88.169 -0.209303 -0.75347 0
M  V30 931 H 90.753 -1.08316 -1.61789 0
M  V30 932 H 88.924 0.019599 -3.88395 0
M  V30 933 H 90.656 -0.169738 -4.04344 0
M  V30 934 H 87.411 -2.18259 -4.20309 0
M  V30 935 H 87.835 -4.72232 -4.85104 0
M  V30 936 H 92.477 -2.06015 -3.69212 0
M  V30 937 H 90.195 -6.29451 -5.06771 0
M  V30 938 H 93.781 -4.12034 -4.10754 0
M  V30 939 H 92.661 -6.21027 -4.78848 0
M  V30 940 N 90.1641 1.46063 -0.591896 0
M  V30 941 C 91.1141 2.27458 0.157172 0
M  V30 942 C 92.0981 1.3641 0.853301 0
M  V30 943 O 93.2901 1.60517 0.74588 0
M  V30 944 C 90.4191 3.22956 1.16423 0
M  V30 945 C 89.5051 4.2149 0.469742 0
M  V30 946 N 89.8961 5.03519 -0.479839 0
M  V30 947 C 88.1941 4.40161 0.719319 0
M  V30 948 C 88.8951 5.74904 -0.886591 0
M  V30 949 N 87.8711 5.43097 -0.233731 0
M  V30 950 H 91.6731 2.88272 -0.572392 0
M  V30 951 H 89.1871 1.57024 -0.414375 0
M  V30 952 H 91.1841 3.79986 1.71513 0
M  V30 953 H 89.8441 2.63701 1.89451 0
M  V30 954 H 90.8551 5.1078 -0.855823 0
M  V30 955 H 87.5321 3.92046 1.43548 0
M  V30 956 H 88.9221 6.50844 -1.66888 0
M  V30 957 N 91.6422 0.330177 1.54103 0
M  V30 958 C 93.0532 -0.15652 1.86043 0
M  V30 959 C 93.4042 -1.51086 1.2517 0
M  V30 960 O 92.5292 -2.09023 0.560217 0
M  V30 961 C 93.1242 -0.290784 3.3755 0
M  V30 962 C 91.6832 -0.721705 3.69416 0
M  V30 963 C 90.8302 0.152622 2.7688 0
M  V30 964 H 93.7812 0.550237 1.48856 0
M  V30 965 H 93.8022 -1.12058 3.63625 0
M  V30 966 H 93.3142 0.695068 3.81825 0
M  V30 967 H 91.4152 -1.71706 3.30678 0
M  V30 968 H 91.5282 -0.520869 4.7626 0
M  V30 969 H 89.8922 -0.372894 2.51956 0
M  V30 970 H 90.6752 1.13536 3.23982 0
M  V30 971 N 93.1203 -1.57491 0.0584922 0
M  V30 972 C 94.0833 -2.1085 -0.898617 0
M  V30 973 C 95.0833 -1.02964 -1.23511 0
M  V30 974 O 96.2733 -1.29007 -1.17059 0
M  V30 975 C 93.4053 -2.59881 -2.20623 0
M  V30 976 H 94.5983 -2.96715 -0.435936 0
M  V30 977 H 92.1513 -1.55141 -0.190023 0
M  V30 978 H 92.8863 -1.77431 -2.71457 0
M  V30 979 H 92.6713 -3.38727 -1.97501 0
M  V30 980 H 94.1613 -3.01285 -2.89166 0
M  V30 981 N 94.5984 0.214957 -1.56127 0
M  V30 982 C 95.8444 0.939762 -1.79712 0
M  V30 983 C 96.1774 1.83723 -0.629247 0
M  V30 984 O 95.4524 1.90925 0.371197 0
M  V30 985 C 95.7354 1.77306 -3.13424 0
M  V30 986 C 95.5884 0.90164 -4.40671 0
M  V30 987 C 96.9074 2.74956 -3.43638 0
M  V30 988 H 94.0264 0.340214 -0.653776 0
M  V30 989 H 96.6684 0.20824 -1.88855 0
M  V30 990 H 94.8184 2.39673 -3.0576 0
M  V30 991 H 96.4904 0.294206 -4.60361 0
M  V30 992 H 94.7334 0.207368 -4.33304 0
M  V30 993 H 95.4044 1.51923 -5.30682 0
M  V30 994 H 97.8804 2.22724 -3.51473 0
M  V30 995 H 96.7564 3.30358 -4.38355 0
M  V30 996 H 97.0174 3.53023 -2.66134 0
M  V30 997 N 96.0765 1.50051 0.48192 0
M  V30 998 C 97.3225 1.60736 1.2366 0
M  V30 999 C 97.6555 0.301786 1.91841 0
M  V30 1000 O 96.9305 -0.696025 1.8162 0
M  V30 1001 C 97.2135 2.78009 2.28874 0
M  V30 1002 C 97.0665 4.18416 1.65069 0
M  V30 1003 C 98.3855 2.90867 3.30279 0
M  V30 1004 H 95.5045 0.585031 0.448228 0
M  V30 1005 H 98.1465 1.82402 0.531946 0
M  V30 1006 H 96.2965 2.59667 2.88973 0
M  V30 1007 H 97.9685 4.48322 1.0865 0
M  V30 1008 H 96.2115 4.23177 0.954148 0
M  V30 1009 H 96.8825 4.96381 2.41474 0
M  V30 1010 H 99.3585 3.07623 2.80191 0
M  V30 1011 H 98.2345 3.74566 4.01238 0
M  V30 1012 H 98.4955 2.01021 3.93755 0
M  V30 1013 N 97.5546 -0.734337 1.39446 0
M  V30 1014 C 98.8016 -1.49391 1.36706 0
M  V30 1015 C 99.1296 -1.94465 -0.0367813 0
M  V30 1016 O 98.3846 -1.67154 -1.01774 0
M  V30 1017 C 98.6836 -2.74711 2.28623 0
M  V30 1018 C 98.3496 -2.48501 3.76242 0
M  V30 1019 C 97.0116 -2.41062 4.16464 0
M  V30 1020 C 99.3636 -2.26098 4.69606 0
M  V30 1021 C 96.6916 -2.09262 5.48112 0
M  V30 1022 C 99.0436 -1.95814 6.01531 0
M  V30 1023 C 97.7076 -1.86845 6.40816 0
M  V30 1024 H 96.9776 -0.546661 0.500243 0
M  V30 1025 H 99.6246 -0.842788 1.71957 0
M  V30 1026 H 97.9296 -3.44569 1.86492 0
M  V30 1027 H 99.6266 -3.32741 2.23796 0
M  V30 1028 H 96.2166 -2.55169 3.44364 0
M  V30 1029 H 100.401 -2.30812 4.39363 0
M  V30 1030 H 95.6566 -2.00841 5.77471 0
M  V30 1031 H 99.8306 -1.77488 6.73403 0
M  V30 1032 H 97.4576 -1.6197 7.42745 0
M  V30 1033 N 99.0327 -1.24633 -0.964593 0
M  V30 1034 C 100.258 -1.11596 -1.74818 0
M  V30 1035 C 100.683 0.32723 -1.85232 0
M  V30 1036 O 100.041 1.23695 -1.32549 0
M  V30 1037 C 100.089 -1.76397 -3.1451 0
M  V30 1038 O 99.1927 -1.03685 -3.99153 0
M  V30 1039 H 98.5337 -0.390196 -0.537255 0
M  V30 1040 H 101.064 -1.65002 -1.20977 0
M  V30 1041 H 101.074 -1.8228 -3.65018 0
M  V30 1042 H 99.7487 -2.81401 -3.06246 0
M  V30 1043 H 98.3257 -1.05611 -3.57632 0
M  V30 1044 N 100.511 1.16574 -1.06058 0
M  V30 1045 C 101.757 1.87324 -0.777022 0
M  V30 1046 C 102.09 1.81351 0.694645 0
M  V30 1047 O 101.365 1.22753 1.50871 0
M  V30 1048 C 101.648 3.36991 -1.26922 0
M  V30 1049 C 101.501 3.51667 -2.80447 0
M  V30 1050 C 102.82 4.3131 -0.87521 0
M  V30 1051 H 99.9388 0.680191 -0.28374 0
M  V30 1052 H 102.581 1.37036 -1.3161 0
M  V30 1053 H 100.731 3.79949 -0.81063 0
M  V30 1054 H 102.403 3.17664 -3.34495 0
M  V30 1055 H 100.646 2.93656 -3.19294 0
M  V30 1056 H 101.317 4.56766 -3.0995 0
M  V30 1057 H 103.793 3.9624 -1.27014 0
M  V30 1058 H 102.669 5.34545 -1.2471 0
M  V30 1059 H 102.93 4.41552 0.220071 0
M  V30 1060 N 101.989 0.842826 1.3317 0
M  V30 1061 C 102.921 0.236245 2.27979 0
M  V30 1062 C 103.934 -0.585282 1.51915 0
M  V30 1063 O 105.123 -0.411705 1.73687 0
M  V30 1064 C 102.223 -0.685717 3.3189 0
M  V30 1065 C 101.396 0.0973448 4.37292 0
M  V30 1066 C 100.455 -0.748565 5.20848 0
M  V30 1067 O 99.4809 -0.186339 5.68895 0
M  V30 1068 N 100.683 -2.06527 5.42519 0
M  V30 1069 H 103.448 1.05088 2.80672 0
M  V30 1070 H 101.009 0.701667 1.45905 0
M  V30 1071 H 103.001 -1.25669 3.84694 0
M  V30 1072 H 101.571 -1.40105 2.79445 0
M  V30 1073 H 100.791 0.849706 3.84933 0
M  V30 1074 H 102.079 0.635643 5.04814 0
M  V30 1075 H 101.477 -2.54554 5.05192 0
M  V30 1076 H 100.034 -2.58464 5.98364 0
M  V30 1077 N 103.467 -1.45747 0.599634 0
M  V30 1078 C 104.397 -2.33235 -0.111306 0
M  V30 1079 C 105.378 -1.46359 -0.866781 0
M  V30 1080 O 106.563 -1.75146 -0.838904 0
M  V30 1081 C 103.693 -3.28932 -1.11451 0
M  V30 1082 C 102.647 -4.25381 -0.472772 0
M  V30 1083 C 101.973 -5.1071 -1.58365 0
M  V30 1084 C 103.273 -5.18831 0.600948 0
M  V30 1085 H 104.967 -2.92927 0.61919 0
M  V30 1086 H 102.513 -1.40857 0.299215 0
M  V30 1087 H 104.466 -3.89002 -1.62036 0
M  V30 1088 H 103.19 -2.67381 -1.8755 0
M  V30 1089 H 101.849 -3.66598 0.0121472 0
M  V30 1090 H 101.497 -4.45533 -2.33473 0
M  V30 1091 H 101.197 -5.7604 -1.15982 0
M  V30 1092 H 102.721 -5.73647 -2.09194 0
M  V30 1093 H 104.135 -5.73019 0.179491 0
M  V30 1094 H 102.532 -5.92595 0.946076 0
M  V30 1095 H 103.602 -4.6174 1.48068 0
M  V30 1096 N 104.945 -0.338344 -1.53925 0
M  V30 1097 C 105.908 0.508299 -2.23493 0
M  V30 1098 C 106.908 1.03175 -1.23335 0
M  V30 1099 O 108.098 0.921826 -1.47811 0
M  V30 1100 C 105.23 1.70754 -2.95052 0
M  V30 1101 H 106.423 -0.100058 -2.99733 0
M  V30 1102 H 103.976 -0.0896198 -1.56043 0
M  V30 1103 H 104.711 2.35474 -2.22986 0
M  V30 1104 H 104.496 1.33946 -3.68512 0
M  V30 1105 H 105.986 2.30818 -3.48013 0
M  V30 1106 N 106.423 1.57458 -0.0668435 0
M  V30 1107 C 107.669 1.93587 0.6043 0
M  V30 1108 C 108.002 0.946722 1.69561 0
M  V30 1109 O 107.277 -0.0248516 1.94484 0
M  V30 1110 C 107.56 3.40014 1.18585 0
M  V30 1111 C 107.413 4.49685 0.101529 0
M  V30 1112 C 108.732 3.87154 2.09284 0
M  V30 1113 H 105.851 0.703958 0.218202 0
M  V30 1114 H 108.493 1.89542 -0.131804 0
M  V30 1115 H 106.643 3.43592 1.81319 0
M  V30 1116 H 108.315 4.5823 -0.531279 0
M  V30 1117 H 106.558 4.30059 -0.568487 0
M  V30 1118 H 107.229 5.49266 0.54874 0
M  V30 1119 H 109.705 3.85551 1.56491 0
M  V30 1120 H 108.581 4.90231 2.46911 0
M  V30 1121 H 108.842 3.2481 2.99918 0
M  V30 1122 N 107.901 -0.206675 1.56239 0
M  V30 1123 C 109.126 -0.949474 1.8439 0
M  V30 1124 C 109.551 -1.76549 0.649016 0
M  V30 1125 O 108.909 -1.76782 -0.402231 0
M  V30 1126 C 108.957 -1.83078 3.10668 0
M  V30 1127 O 108.061 -2.9281 2.90407 0
M  V30 1128 H 107.402 -0.268033 0.607499 0
M  V30 1129 H 109.932 -0.215488 2.03462 0
M  V30 1130 H 109.942 -2.2377 3.41161 0
M  V30 1131 H 108.617 -1.23112 3.97261 0
M  V30 1132 H 107.194 -2.55956 2.71184 0
M  V30 1133 N 109.379 -1.50304 -0.473955 0
M  V30 1134 C 110.656 -1.51667 -1.23518 0
M  V30 1135 C 111.036 -0.259701 -2.09496 0
M  V30 1136 O 110.384 0.756986 -2.15597 0
M  V30 1137 C 110.594 -2.81082 -2.06868 0
M  V30 1138 C 111.942 -3.31631 -2.65153 0
M  V30 1139 O 112.966 -2.82384 -2.17113 0
M  V30 1140 O 111.825 -4.17471 -3.52675 0
M  V30 1141 H 108.919 -0.60822 -0.560355 0
M  V30 1142 H 111.465 -1.62592 -0.486011 0
M  V30 1143 H 110.237 -3.64041 -1.4349 0
M  V30 1144 H 109.86 -2.73146 -2.88924 0
M  V30 1145 N 110.857 0.726932 -1.39834 0
M  V30 1146 C 111.787 1.85405 -1.41941 0
M  V30 1147 C 112.768 1.67751 -0.281728 0
M  V30 1148 O 113.953 1.8795 -0.488717 0
M  V30 1149 C 111.083 3.23243 -1.2701 0
M  V30 1150 C 110.037 3.55549 -2.38262 0
M  V30 1151 C 109.363 4.9241 -2.08415 0
M  V30 1152 C 110.663 3.577 -3.80589 0
M  V30 1153 H 112.357 1.83899 -2.36266 0
M  V30 1154 H 109.903 0.883349 -1.13723 0
M  V30 1155 H 111.856 4.01775 -1.27103 0
M  V30 1156 H 110.58 3.25296 -0.291564 0
M  V30 1157 H 109.239 2.79351 -2.37399 0
M  V30 1158 H 108.887 4.91052 -1.0898 0
M  V30 1159 H 108.587 5.14992 -2.82943 0
M  V30 1160 H 110.111 5.73289 -2.10171 0
M  V30 1161 H 111.525 4.26293 -3.83337 0
M  V30 1162 H 109.922 3.91804 -4.54543 0
M  V30 1163 H 110.992 2.57328 -4.10987 0
M  V30 1164 N 112.336 1.25143 0.95797 0
M  V30 1165 C 113.266 1.07711 2.07173 0
M  V30 1166 C 114.247 -0.0128462 1.70095 0
M  V30 1167 O 115.432 0.156061 1.93572 0
M  V30 1168 C 112.562 0.691503 3.40346 0
M  V30 1169 C 111.516 1.73132 3.9142 0
M  V30 1170 C 110.842 1.20049 5.21049 0
M  V30 1171 C 112.142 3.1294 4.1817 0
M  V30 1172 H 113.836 2.00873 2.22014 0
M  V30 1173 H 111.382 0.967191 1.06684 0
M  V30 1174 H 113.335 0.556505 4.17709 0
M  V30 1175 H 112.059 -0.275819 3.25433 0
M  V30 1176 H 110.718 1.8547 3.16222 0
M  V30 1177 H 110.366 0.223499 5.02503 0
M  V30 1178 H 110.066 1.89545 5.56189 0
M  V30 1179 H 111.59 1.07782 6.01012 0
M  V30 1180 H 113.004 3.03775 4.86203 0
M  V30 1181 H 111.401 3.79875 4.64559 0
M  V30 1182 H 112.471 3.6025 3.24573 0
M  V30 1183 N 113.814 -1.1601 1.06675 0
M  V30 1184 C 115.054 -1.88304 0.795037 0
M  V30 1185 C 115.418 -1.80062 -0.666466 0
M  V30 1186 O 116.619 -2.47319 -1.05293 0
M  V30 1187 C 114.89 -3.33664 1.28076 0
M  V30 1188 S 116.449 -4.23768 1.13868 0
M  V30 1189 H 113.267 -0.649928 0.288296 0
M  V30 1190 H 115.869 -1.4001 1.36445 0
M  V30 1191 H 114.573 -3.37203 2.33927 0
M  V30 1192 H 114.104 -3.87009 0.706253 0
M  V30 1193 H 116.119 -4.96148 0.0719668 0
M  V30 1194 N 115.292 -0.849877 -1.32721 0
M  V30 1195 C 116.255 -0.296122 -2.27279 0
M  V30 1196 C 117.255 0.541458 -1.5141 0
M  V30 1197 O 118.445 0.353658 -1.70572 0
M  V30 1198 C 115.577 0.581579 -3.35902 0
M  V30 1199 H 116.77 -1.13064 -2.77771 0
M  V30 1200 H 114.323 -0.62383 -1.43311 0
M  V30 1201 H 115.058 1.43809 -2.9067 0
M  V30 1202 H 114.843 -0.0178814 -3.92096 0
M  V30 1203 H 116.333 0.961951 -4.0637 0
M  V30 1204 N 116.77 1.45427 -0.607355 0
M  V30 1205 C 117.7 2.3329 0.0989352 0
M  V30 1206 C 118.681 1.46816 0.859007 0
M  V30 1207 O 119.866 1.75588 0.829604 0
M  V30 1208 C 116.996 3.29518 1.09705 0
M  V30 1209 C 115.95 4.25626 0.450206 0
M  V30 1210 C 115.276 5.11542 1.55655 0
M  V30 1211 C 116.576 5.18505 -0.628455 0
M  V30 1212 H 118.27 2.92595 -0.634716 0
M  V30 1213 H 115.816 1.40696 -0.306681 0
M  V30 1214 H 117.769 3.89855 1.59971 0
M  V30 1215 H 116.493 2.68372 1.86129 0
M  V30 1216 H 115.152 3.66586 -0.0315886 0
M  V30 1217 H 114.8 4.46765 2.31107 0
M  V30 1218 H 114.5 5.76647 1.12925 0
M  V30 1219 H 116.024 5.74748 2.06148 0
M  V30 1220 H 117.438 5.72916 -0.209877 0
M  V30 1221 H 115.835 5.92085 -0.977489 0
M  V30 1222 H 116.905 4.60948 -1.50514 0
M  V30 1223 N 118.248 0.346503 1.53744 0
M  V30 1224 C 119.476 -0.25041 2.05379 0
M  V30 1225 C 119.891 -1.43979 1.22129 0
M  V30 1226 O 119.248 -1.80677 0.257321 0
M  V30 1227 C 119.299 -0.662575 3.55376 0
M  V30 1228 O 119.02 0.479515 4.35468 0
M  V30 1229 C 120.521 -1.31989 4.23195 0
M  V30 1230 H 117.741 -0.0478198 0.669294 0
M  V30 1231 H 120.285 0.499346 1.9831 0
M  V30 1232 H 118.44 -1.36227 3.62658 0
M  V30 1233 H 118.854 0.15037 5.24284 0
M  V30 1234 H 120.328 -1.55902 5.29527 0
M  V30 1235 H 120.805 -2.27436 3.75725 0
M  V30 1236 H 121.411 -0.662154 4.20114 0
M  V30 1237 N 119.726 -1.57421 0.075193 0
M  V30 1238 C 120.656 -2.15942 -0.888324 0
M  V30 1239 C 121.637 -1.08737 -1.30806 0
M  V30 1240 O 122.822 -1.36787 -1.37851 0
M  V30 1241 C 119.952 -2.72379 -2.1547 0
M  V30 1242 C 118.906 -3.8478 -1.87425 0
M  V30 1243 C 118.232 -4.27834 -3.20721 0
M  V30 1244 C 119.532 -5.08869 -1.17684 0
M  V30 1245 H 121.226 -2.96705 -0.400799 0
M  V30 1246 H 118.772 -1.42723 -0.191342 0
M  V30 1247 H 120.725 -3.11965 -2.83295 0
M  V30 1248 H 119.449 -1.88841 -2.6647 0
M  V30 1249 H 118.108 -3.45703 -1.22004 0
M  V30 1250 H 117.756 -3.41214 -3.6957 0
M  V30 1251 H 117.456 -5.03605 -3.02746 0
M  V30 1252 H 118.98 -4.70039 -3.89738 0
M  V30 1253 H 120.394 -5.4575 -1.75584 0
M  V30 1254 H 118.791 -5.8994 -1.09956 0
M  V30 1255 H 119.861 -4.84648 -0.156453 0
M  V30 1256 N 121.204 0.198386 -1.56346 0
M  V30 1257 C 122.615 0.763358 -1.70381 0
M  V30 1258 C 122.966 1.83995 -0.681203 0
M  V30 1259 O 122.091 2.15785 0.16305 0
M  V30 1260 C 122.686 1.39143 -3.08909 0
M  V30 1261 C 121.245 1.90352 -3.2472 0
M  V30 1262 C 120.392 0.772233 -2.6633 0
M  V30 1263 H 123.343 -0.0266377 -1.58678 0
M  V30 1264 H 123.364 2.26076 -3.06055 0
M  V30 1265 H 122.876 0.607638 -3.83314 0
M  V30 1266 H 120.977 2.71461 -2.55225 0
M  V30 1267 H 121.09 2.06757 -4.3219 0
M  V30 1268 H 119.454 1.18566 -2.2542 0
M  V30 1269 H 120.237 0.00073556 -3.433 0
M  V30 1270 N 122.682 1.50554 0.465978 0
M  V30 1271 C 124.093 1.54599 1.04671 0
M  V30 1272 C 124.444 0.352488 1.93008 0
M  V30 1273 O 123.569 -0.534044 2.09707 0
M  V30 1274 C 124.164 2.80166 1.90505 0
M  V30 1275 C 122.723 2.86876 2.43678 0
M  V30 1276 C 121.87 2.48947 1.22151 0
M  V30 1277 H 124.821 1.56744 0.248384 0
M  V30 1278 H 124.842 2.62311 2.75633 0
M  V30 1279 H 124.354 3.67013 1.26186 0
M  V30 1280 H 122.455 2.04393 3.11536 0
M  V30 1281 H 122.568 3.89885 2.78436 0
M  V30 1282 H 120.932 2.01498 1.5579 0
M  V30 1283 H 121.715 3.38107 0.594866 0
M  V30 1284 N 124.16 -0.719506 1.40217 0
M  V30 1285 C 125.09 -1.8465 1.42922 0
M  V30 1286 C 126.071 -1.67599 0.29062 0
M  V30 1287 O 127.256 -1.87688 0.498677 0
M  V30 1288 C 124.386 -3.22565 1.28722 0
M  V30 1289 C 123.34 -3.54281 2.40144 0
M  V30 1290 C 122.666 -4.91298 2.11023 0
M  V30 1291 C 123.966 -3.55676 3.82481 0
M  V30 1292 H 125.66 -1.82644 2.37237 0
M  V30 1293 H 123.206 -0.877305 1.1419 0
M  V30 1294 H 125.159 -4.01095 1.29232 0
M  V30 1295 H 123.883 -3.25137 0.308811 0
M  V30 1296 H 122.542 -2.78088 2.38877 0
M  V30 1297 H 122.19 -4.90468 1.11582 0
M  V30 1298 H 121.89 -5.13485 2.8567 0
M  V30 1299 H 123.414 -5.72166 2.13209 0
M  V30 1300 H 124.828 -4.24254 3.85592 0
M  V30 1301 H 123.225 -3.89388 4.56614 0
M  V30 1302 H 124.295 -2.55144 4.12346 0
M  V30 1303 N 125.638 -1.25649 -0.95132 0
M  V30 1304 C 126.601 -1.06399 -2.03007 0
M  V30 1305 C 127.601 -0.0156794 -1.60792 0
M  V30 1306 O 128.791 -0.25817 -1.72276 0
M  V30 1307 C 125.923 -0.616184 -3.35285 0
M  V30 1308 H 127.116 -2.02164 -2.21517 0
M  V30 1309 H 124.669 -1.08103 -1.12887 0
M  V30 1310 H 125.404 0.343917 -3.22471 0
M  V30 1311 H 125.189 -1.37301 -3.67275 0
M  V30 1312 H 126.679 -0.503032 -4.14559 0
M  V30 1313 N 127.117 1.15442 -1.07289 0
M  V30 1314 C 128.08 2.18358 -0.696591 0
M  V30 1315 C 129.08 1.58637 0.262837 0
M  V30 1316 O 130.27 1.74145 0.0438809 0
M  V30 1317 C 127.402 3.4089 -0.0266151 0
M  V30 1318 H 128.595 2.53162 -1.60776 0
M  V30 1319 H 126.148 1.29893 -0.869342 0
M  V30 1320 H 126.883 3.11653 0.896822 0
M  V30 1321 H 126.668 3.85495 -0.716657 0
M  V30 1322 H 128.158 4.17009 0.222028 0
M  V30 1323 N 128.595 0.856903 1.32268 0
M  V30 1324 C 129.825 0.47475 2.01071 0
M  V30 1325 C 130.233 -0.933746 1.64553 0
M  V30 1326 O 129.576 -1.62114 0.863989 0
M  V30 1327 C 129.638 0.536746 3.55471 0
M  V30 1328 C 129.302 1.90453 4.15423 0
M  V30 1329 C 130.299 2.87029 4.33486 0
M  V30 1330 C 127.984 2.20229 4.51447 0
M  V30 1331 C 129.978 4.11532 4.86744 0
M  V30 1332 C 127.665 3.44984 5.0441 0
M  V30 1333 C 128.663 4.40452 5.22007 0
M  V30 1334 O 128.351 5.62998 5.73837 0
M  V30 1335 H 128.083 0.184778 0.650256 0
M  V30 1336 H 130.637 1.15615 1.69771 0
M  V30 1337 H 128.867 -0.20152 3.86175 0
M  V30 1338 H 130.556 0.169875 4.05544 0
M  V30 1339 H 131.322 2.6533 4.05986 0
M  V30 1340 H 127.201 1.46705 4.37034 0
M  V30 1341 H 130.745 4.86056 5.00395 0
M  V30 1342 H 126.642 3.66532 5.31342 0
M  V30 1343 H 127.41 5.64987 5.92226 0
M  V30 1344 N 130.073 -1.45103 0.615059 0
M  V30 1345 C 131.003 -2.33339 -0.0865619 0
M  V30 1346 C 131.984 -1.4727 -0.851209 0
M  V30 1347 O 133.169 -1.76026 -0.820281 0
M  V30 1348 C 130.299 -3.30095 -1.07956 0
M  V30 1349 C 129.253 -4.25858 -0.427628 0
M  V30 1350 C 128.579 -5.12361 -1.5294 0
M  V30 1351 C 129.879 -5.18165 0.655944 0
M  V30 1352 H 131.573 -2.92254 0.650224 0
M  V30 1353 H 129.119 -1.40532 0.314138 0
M  V30 1354 H 131.072 -3.90698 -1.57901 0
M  V30 1355 H 129.796 -2.69355 -1.84703 0
M  V30 1356 H 128.455 -3.66564 0.0510292 0
M  V30 1357 H 128.103 -4.47984 -2.28734 0
M  V30 1358 H 127.803 -5.77238 -1.09865 0
M  V30 1359 H 129.327 -5.75833 -2.03098 0
M  V30 1360 H 130.741 -5.72796 0.240257 0
M  V30 1361 H 129.138 -5.91559 1.00888 0
M  V30 1362 H 130.208 -4.60144 1.52957 0
M  V30 1363 N 131.551 -0.354651 -1.53558 0
M  V30 1364 C 132.781 0.239167 -2.05211 0
M  V30 1365 C 133.189 1.43879 -1.22863 0
M  V30 1366 O 132.532 1.81857 -0.259565 0
M  V30 1367 C 132.594 0.707251 -3.52474 0
M  V30 1368 C 132.258 -0.374212 -4.55465 0
M  V30 1369 C 133.255 -1.22054 -5.0537 0
M  V30 1370 C 130.94 -0.531323 -4.99482 0
M  V30 1371 C 132.934 -2.20942 -5.97882 0
M  V30 1372 C 130.621 -1.52358 -5.91802 0
M  V30 1373 C 131.619 -2.36108 -6.40892 0
M  V30 1374 O 131.307 -3.33643 -7.31394 0
M  V30 1375 H 131.039 0.0479716 -0.674296 0
M  V30 1376 H 133.593 -0.508121 -1.99016 0
M  V30 1377 H 131.823 1.50596 -3.56171 0
M  V30 1378 H 133.512 1.22285 -3.87042 0
M  V30 1379 H 134.278 -1.1103 -4.7212 0
M  V30 1380 H 130.157 0.110738 -4.60867 0
M  V30 1381 H 133.701 -2.86348 -6.36121 0
M  V30 1382 H 129.598 -1.63434 -6.24467 0
M  V30 1383 H 130.366 -3.29244 -7.4936 0
M  V30 1384 N 133.029 1.57378 -0.0835403 0
M  V30 1385 C 134.44 1.81261 0.447358 0
M  V30 1386 C 134.791 0.998331 1.68902 0
M  V30 1387 O 133.916 0.224282 2.15235 0
M  V30 1388 C 134.511 3.28767 0.818386 0
M  V30 1389 C 133.07 3.53455 1.29409 0
M  V30 1390 C 132.217 2.75831 0.285024 0
M  V30 1391 H 135.168 1.5566 -0.309115 0
M  V30 1392 H 135.189 3.41459 1.67887 0
M  V30 1393 H 134.701 3.88006 -0.0855019 0
M  V30 1394 H 132.802 2.99534 2.21608 0
M  V30 1395 H 132.915 4.62128 1.2639 0
M  V30 1396 H 131.279 2.42947 0.764767 0
M  V30 1397 H 132.062 3.37813 -0.611341 0
M  V30 1398 N 134.507 -0.190092 1.56449 0
M  V30 1399 C 135.918 -0.754312 1.70784 0
M  V30 1400 C 136.269 -1.83631 0.690951 0
M  V30 1401 O 135.394 -2.15868 -0.151604 0
M  V30 1402 C 135.989 -1.37503 3.09642 0
M  V30 1403 C 134.548 -1.88628 3.25725 0
M  V30 1404 C 133.695 -0.758098 2.66736 0
M  V30 1405 H 136.646 0.0350524 1.58661 0
M  V30 1406 H 136.667 -2.2445 3.0725 0
M  V30 1407 H 136.179 -0.587302 3.83631 0
M  V30 1408 H 134.28 -2.70103 2.56661 0
M  V30 1409 H 134.393 -2.04462 4.3328 0
M  V30 1410 H 132.757 -1.17369 2.26046 0
M  V30 1411 H 133.54 0.0174705 3.43296 0
M  V30 1412 N 135.985 -1.50799 -0.457987 0
M  V30 1413 C 136.932 -1.70617 -1.5543 0
M  V30 1414 C 137.902 -0.547562 -1.56815 0
M  V30 1415 O 139.087 -0.779647 -1.74144 0
M  V30 1416 C 136.227 -1.81831 -2.93311 0
M  V30 1417 C 135.34 -3.09278 -3.01615 0
M  V30 1418 C 134.475 -3.11209 -4.30491 0
M  V30 1419 C 133.514 -4.33055 -4.32585 0
M  V30 1420 N 132.651 -4.32652 -5.52952 0
M  V30 1421 H 137.491 -2.64207 -1.37836 0
M  V30 1422 H 135.028 -1.30959 -0.669937 0
M  V30 1423 H 136.986 -1.86314 -3.73287 0
M  V30 1424 H 135.616 -0.916685 -3.0951 0
M  V30 1425 H 134.668 -3.14203 -2.1443 0
M  V30 1426 H 135.98 -3.99233 -2.99022 0
M  V30 1427 H 135.134 -3.14494 -5.18824 0
M  V30 1428 H 133.873 -2.19106 -4.35711 0
M  V30 1429 H 132.878 -4.29969 -3.42647 0
M  V30 1430 H 134.103 -5.264 -4.29046 0
M  V30 1431 H 132.049 -3.43409 -5.58933 0
M  V30 1432 H 131.966 -5.16392 -5.52155 0
M  V30 1433 H 133.234 -4.40101 -6.43375 0
M  V30 1434 N 137.463 0.71206 -1.40597 0
M  V30 1435 C 138.413 1.81783 -1.37619 0
M  V30 1436 C 139.397 1.58896 -0.253162 0
M  V30 1437 O 140.589 1.70009 -0.492547 0
M  V30 1438 C 137.718 3.19944 -1.24462 0
M  V30 1439 C 136.804 3.48582 -2.4156 0
M  V30 1440 N 137.195 3.48016 -3.67041 0
M  V30 1441 C 135.493 3.79056 -2.35016 0
M  V30 1442 C 136.194 3.75096 -4.44609 0
M  V30 1443 N 135.17 3.94022 -3.74497 0
M  V30 1444 H 138.972 1.79683 -2.32575 0
M  V30 1445 H 136.486 0.91134 -1.34419 0
M  V30 1446 H 138.483 3.99133 -1.20411 0
M  V30 1447 H 137.143 3.23267 -0.304762 0
M  V30 1448 H 138.154 3.28782 -4.00153 0
M  V30 1449 H 134.831 3.89848 -1.49415 0
M  V30 1450 H 136.221 3.80934 -5.53479 0
M  V30 1451 N 138.941 1.26152 0.944643 0
M  V30 1452 C 140.187 1.12665 1.69346 0
M  V30 1453 C 140.542 -0.3273 1.89596 0
M  V30 1454 O 139.835 -1.23717 1.46303 0
M  V30 1455 C 140.029 1.82541 3.07268 0
M  V30 1456 C 139.858 3.34582 3.00475 0
M  V30 1457 C 138.628 4.03863 3.03681 0
M  V30 1458 C 140.826 4.30828 2.80877 0
M  V30 1459 N 138.808 5.42603 2.87151 0
M  V30 1460 C 140.179 5.5672 2.7288 0
M  V30 1461 C 142.234 4.21122 2.65633 0
M  V30 1462 C 140.937 6.74013 2.51196 0
M  V30 1463 C 142.963 5.38118 2.45323 0
M  V30 1464 C 142.325 6.62955 2.38055 0
M  V30 1465 H 138.424 0.467041 0.627214 0
M  V30 1466 H 141.008 1.59391 1.11815 0
M  V30 1467 H 139.179 1.38296 3.62945 0
M  V30 1468 H 140.911 1.61708 3.70989 0
M  V30 1469 H 137.666 3.55198 3.1326 0
M  V30 1470 H 138.09 6.15443 2.82063 0
M  V30 1471 H 142.732 3.25344 2.70021 0
M  V30 1472 H 140.45 7.6989 2.4555 0
M  V30 1473 H 144.036 5.32475 2.34439 0
M  V30 1474 H 142.916 7.51959 2.22546 0
M  V30 1475 N 140.419 -1.14872 1.07899 0
M  V30 1476 C 141.835 -1.37776 0.805606 0
M  V30 1477 C 142.035 -1.92743 -0.587555 0
M  V30 1478 O 141.091 -2.13678 -1.34528 0
M  V30 1479 C 142.404 -2.34361 1.88402 0
M  V30 1480 C 143.952 -2.48012 1.90942 0
M  V30 1481 C 144.427 -3.47893 2.97883 0
M  V30 1482 N 145.918 -3.55433 2.97021 0
M  V30 1483 C 146.653 -4.32553 3.76412 0
M  V30 1484 N 146.149 -5.12959 4.65666 0
M  V30 1485 N 147.942 -4.27697 3.64735 0
M  V30 1486 H 140.093 -0.775365 1.97742 0
M  V30 1487 H 142.356 -0.403521 0.857831 0
M  V30 1488 H 142.062 -2.01098 2.88535 0
M  V30 1489 H 141.936 -3.34206 1.74889 0
M  V30 1490 H 144.323 -2.8057 0.914579 0
M  V30 1491 H 144.404 -1.48147 2.08534 0
M  V30 1492 H 144.048 -3.16069 3.97571 0
M  V30 1493 H 143.978 -4.47527 2.77538 0
M  V30 1494 H 146.469 -2.98048 2.32326 0
M  V30 1495 H 146.782 -5.69065 5.22862 0
M  V30 1496 H 145.127 -5.12245 4.69712 0
M  V30 1497 H 148.318 -3.63949 2.94378 0
M  V30 1498 H 148.491 -4.8755 4.26848 0
M  V30 1499 N 141.898 -0.863906 -1.31812 0
M  V30 1500 C 143.128 -0.485406 -2.00817 0
M  V30 1501 C 143.536 0.925007 -1.65046 0
M  V30 1502 O 142.879 1.61653 -0.872574 0
M  V30 1503 C 142.941 -0.555589 -3.55181 0
M  V30 1504 C 142.605 -1.92654 -4.14407 0
M  V30 1505 C 143.602 -2.89324 -4.31958 0
M  V30 1506 C 141.287 -2.2262 -4.50273 0
M  V30 1507 C 143.281 -4.14108 -4.84555 0
M  V30 1508 C 140.968 -3.47654 -5.02573 0
M  V30 1509 C 141.966 -4.43214 -5.19664 0
M  V30 1510 O 141.654 -5.66033 -5.70843 0
M  V30 1511 H 141.386 -0.188224 -0.649267 0
M  V30 1512 H 143.94 -1.16514 -1.69156 0
M  V30 1513 H 142.17 0.181037 -3.86276 0
M  V30 1514 H 143.859 -0.19138 -4.05449 0
M  V30 1515 H 144.625 -2.6748 -4.04573 0
M  V30 1516 H 140.504 -1.4902 -4.3625 0
M  V30 1517 H 144.048 -4.88703 -4.9781 0
M  V30 1518 H 139.945 -3.69345 -5.29391 0
M  V30 1519 H 140.713 -5.6812 -5.89222 0
M  V30 1520 N 143.376 1.44774 -0.622745 0
M  V30 1521 C 144.624 2.01721 -0.123655 0
M  V30 1522 C 144.945 1.49172 1.25589 0
M  V30 1523 O 144.215 0.691974 1.83272 0
M  V30 1524 H 142.795 0.745777 -0.0427225 0
M  V30 1525 H 145.457 1.77382 -0.807559 0
M  V30 1526 H 144.553 3.11984 -0.0849534 0
M  V30 1527 N 144.854 0.36279 1.53368 0
M  V30 1528 C 145.764 -0.492994 2.29362 0
M  V30 1529 C 146.78 -1.09507 1.35219 0
M  V30 1530 O 147.956 -1.10662 1.68273 0
M  V30 1531 C 145.021 -1.61855 3.066 0
M  V30 1532 C 144.082 -1.04429 4.16405 0
M  V30 1533 C 143.315 -2.11621 4.89951 0
M  V30 1534 O 143.538 -3.32684 4.63333 0
M  V30 1535 O 142.472 -1.74835 5.75948 0
M  V30 1536 H 146.298 0.125331 3.03441 0
M  V30 1537 H 143.883 0.127253 1.48857 0
M  V30 1538 H 145.765 -2.27302 3.54841 0
M  V30 1539 H 144.44 -2.22233 2.3536 0
M  V30 1540 H 143.347 -0.353819 3.72423 0
M  V30 1541 H 144.68 -0.485113 4.89804 0
M  V30 1542 N 146.332 -1.57332 0.0918853 0
M  V30 1543 C 147.295 -2.12708 -0.85369 0
M  V30 1544 C 148.295 -1.05561 -1.213 0
M  V30 1545 O 149.485 -1.31461 -1.14296 0
M  V30 1546 C 146.617 -2.64503 -2.15061 0
M  V30 1547 H 147.81 -2.97573 -0.3729 0
M  V30 1548 H 145.363 -1.55509 -0.157072 0
M  V30 1549 H 146.098 -1.83149 -2.67632 0
M  V30 1550 H 145.883 -3.4284 -1.90272 0
M  V30 1551 H 147.373 -3.07351 -2.82711 0
M  V30 1552 N 147.81 0.181792 -1.56548 0
M  V30 1553 C 148.773 1.20894 -1.94724 0
M  V30 1554 C 149.773 1.37738 -0.829747 0
M  V30 1555 O 150.963 1.35323 -1.09697 0
M  V30 1556 C 148.095 2.57593 -2.23291 0
M  V30 1557 H 149.288 0.882275 -2.86629 0
M  V30 1558 H 146.841 0.423838 -1.50444 0
M  V30 1559 H 147.576 2.95291 -1.34067 0
M  V30 1560 H 147.361 2.46735 -3.04736 0
M  V30 1561 H 148.851 3.31637 -2.53785 0
M  V30 1562 N 149.288 1.51039 0.449983 0
M  V30 1563 C 150.528 1.64732 1.21007 0
M  V30 1564 C 150.892 0.349865 1.88785 0
M  V30 1565 O 152.093 0.362431 2.66345 0
M  V30 1566 C 150.364 2.80902 2.20973 0
M  V30 1567 S 151.923 3.14851 3.05638 0
M  V30 1568 H 148.741 0.5805 0.410538 0
M  V30 1569 H 151.343 1.88901 0.503634 0
M  V30 1570 H 150.047 3.73627 1.69796 0
M  V30 1571 H 149.578 2.58882 2.96215 0
M  V30 1572 H 151.593 2.60306 4.22439 0
M  V30 1573 N 150.766 -0.704594 1.40972 0
M  V30 1574 C 152.182 -1.01406 1.23244 0
M  V30 1575 C 152.382 -2.01169 0.115399 0
M  V30 1576 O 151.438 -2.47021 -0.523147 0
M  V30 1577 C 152.751 -1.54728 2.57836 0
M  V30 1578 C 154.299 -1.66658 2.64942 0
M  V30 1579 C 154.774 -2.23383 3.9983 0
M  V30 1580 N 156.265 -2.30756 4.01629 0
M  V30 1581 C 157 -2.75655 5.02794 0
M  V30 1582 N 156.496 -3.20225 6.14352 0
M  V30 1583 N 158.289 -2.75138 4.90159 0
M  V30 1584 H 150.44 -0.0435285 2.12355 0
M  V30 1585 H 152.703 -0.0818951 0.944456 0
M  V30 1586 H 152.409 -0.888832 3.40283 0
M  V30 1587 H 152.283 -2.53084 2.79693 0
M  V30 1588 H 154.67 -2.31617 1.8286 0
M  V30 1589 H 154.751 -0.668717 2.46904 0
M  V30 1590 H 154.395 -1.59043 4.82357 0
M  V30 1591 H 154.325 -3.23904 4.15203 0
M  V30 1592 H 156.816 -1.99291 3.21079 0
M  V30 1593 H 157.129 -3.53084 6.87424 0
M  V30 1594 H 155.474 -3.18156 6.17901 0
M  V30 1595 H 158.665 -2.39661 4.02095 0
M  V30 1596 H 158.838 -3.09812 5.6914 0
M  V30 1597 N 152.244 -1.26651 -0.937939 0
M  V30 1598 C 153.174 -1.10993 -2.05433 0
M  V30 1599 C 154.155 -0.0142161 -1.70094 0
M  V30 1600 O 155.34 -0.186837 -1.93299 0
M  V30 1601 C 152.47 -0.745561 -3.39203 0
M  V30 1602 C 151.424 -1.79337 -3.88616 0
M  V30 1603 C 150.75 -1.28324 -5.19073 0
M  V30 1604 C 152.05 -3.19553 -4.13138 0
M  V30 1605 H 153.744 -2.0438 -2.1879 0
M  V30 1606 H 151.29 -0.984041 -1.05131 0
M  V30 1607 H 153.243 -0.622888 -4.16771 0
M  V30 1608 H 151.967 0.22401 -3.25831 0
M  V30 1609 H 150.626 -1.90477 -3.13231 0
M  V30 1610 H 150.274 -0.303414 -5.02084 0
M  V30 1611 H 149.974 -1.98369 -5.53103 0
M  V30 1612 H 151.498 -1.1733 -5.99221 0
M  V30 1613 H 152.912 -3.11471 -4.81309 0
M  V30 1614 H 151.309 -3.87218 -4.58457 0
M  V30 1615 H 152.379 -3.65368 -3.18801 0
M  V30 1616 N 153.722 1.14298 -1.08507 0
M  V30 1617 C 154.632 2.23027 -0.727753 0
M  V30 1618 C 155.648 1.71952 0.26619 0
M  V30 1619 O 156.824 2.011 0.109882 0
M  V30 1620 C 153.889 3.46403 -0.143541 0
M  V30 1621 C 152.95 4.12413 -1.19223 0
M  V30 1622 C 152.183 5.29899 -0.635798 0
M  V30 1623 O 152.406 5.67796 0.544393 0
M  V30 1624 O 151.34 5.85717 -1.38634 0
M  V30 1625 H 155.166 2.55945 -1.63481 0
M  V30 1626 H 152.751 1.22248 -0.858817 0
M  V30 1627 H 154.633 4.21018 0.179404 0
M  V30 1628 H 153.308 3.15206 0.736659 0
M  V30 1629 H 152.215 3.39667 -1.56772 0
M  V30 1630 H 153.548 4.47718 -2.04474 0
M  V30 1631 N 155.201 0.870884 1.31352 0
M  V30 1632 C 156.617 0.562932 1.49343 0
M  V30 1633 C 156.817 -0.902725 1.80148 0
M  V30 1634 O 155.873 -1.68484 1.88067 0
M  V30 1635 C 157.186 1.46393 2.62659 0
M  V30 1636 C 158.734 1.46607 2.76542 0
M  V30 1637 C 159.209 2.35266 3.92955 0
M  V30 1638 N 160.7 2.33151 4.00243 0
M  V30 1639 C 161.435 2.98471 4.89594 0
M  V30 1640 N 160.931 3.72964 5.8384 0
M  V30 1641 N 162.724 2.87775 4.82848 0
M  V30 1642 H 154.875 1.81923 1.09626 0
M  V30 1643 H 157.138 0.777934 0.541777 0
M  V30 1644 H 156.844 2.50689 2.46674 0
M  V30 1645 H 156.718 1.16314 3.58819 0
M  V30 1646 H 159.105 0.43069 2.9194 0
M  V30 1647 H 159.186 1.8071 1.81046 0
M  V30 1648 H 158.83 3.38881 3.78315 0
M  V30 1649 H 158.76 1.98487 4.87761 0
M  V30 1650 H 161.251 1.79006 3.32814 0
M  V30 1651 H 161.564 4.19932 6.4875 0
M  V30 1652 H 159.909 3.77073 5.83816 0
M  V30 1653 H 163.1 2.29116 4.08195 0
M  V30 1654 H 163.273 3.38961 5.52277 0
M  V30 1655 N 156.679 -1.44442 0.630414 0
M  V30 1656 C 157.926 -2.02052 0.134617 0
M  V30 1657 C 158.254 -1.49576 -1.24327 0
M  V30 1658 O 157.509 -0.669806 -1.83881 0
M  V30 1659 C 157.808 -3.57332 0.0697835 0
M  V30 1660 C 157.474 -4.29058 1.38635 0
M  V30 1661 C 156.136 -4.4837 1.74694 0
M  V30 1662 C 158.488 -4.69872 2.25543 0
M  V30 1663 C 155.816 -5.05756 2.97369 0
M  V30 1664 C 158.168 -5.28616 3.47487 0
M  V30 1665 C 156.832 -5.46147 3.8377 0
M  V30 1666 H 156.102 -0.739361 0.0492598 0
M  V30 1667 H 158.749 -1.73217 0.816586 0
M  V30 1668 H 157.054 -3.85577 -0.695553 0
M  V30 1669 H 158.751 -3.99637 -0.330344 0
M  V30 1670 H 155.341 -4.14357 1.09574 0
M  V30 1671 H 159.525 -4.54666 1.98979 0
M  V30 1672 H 154.781 -5.17515 3.25558 0
M  V30 1673 H 158.955 -5.59192 4.15063 0
M  V30 1674 H 156.582 -5.9038 4.7891 0
M  V30 1675 N 158.157 -0.370918 -1.53173 0
M  V30 1676 C 159.087 0.464847 -2.28826 0
M  V30 1677 C 160.068 1.07936 -1.31468 0
M  V30 1678 O 161.253 1.0956 -1.60344 0
M  V30 1679 C 158.383 1.60196 -3.08147 0
M  V30 1680 C 157.337 1.11443 -4.13237 0
M  V30 1681 C 156.663 2.3422 -4.80672 0
M  V30 1682 C 157.963 0.195384 -5.21934 0
M  V30 1683 H 159.657 -0.166329 -2.98938 0
M  V30 1684 H 157.203 -0.0814359 -1.4377 0
M  V30 1685 H 159.156 2.19332 -3.59822 0
M  V30 1686 H 157.88 2.26045 -2.35735 0
M  V30 1687 H 156.539 0.545727 -3.62515 0
M  V30 1688 H 156.187 2.98537 -4.04827 0
M  V30 1689 H 155.887 2.02269 -5.51689 0
M  V30 1690 H 157.411 2.94032 -5.35143 0
M  V30 1691 H 158.825 0.694375 -5.69079 0
M  V30 1692 H 157.222 -0.0335027 -6.00091 0
M  V30 1693 H 158.292 -0.760961 -4.78892 0
M  V30 1694 N 159.635 1.57281 -0.100228 0
M  V30 1695 C 160.882 1.94537 0.562268 0
M  V30 1696 C 161.21 0.982315 1.67871 0
M  V30 1697 O 160.465 0.00280936 1.957 0
M  V30 1698 C 160.764 3.38305 1.15259 0
M  V30 1699 C 160.43 4.50618 0.159409 0
M  V30 1700 C 159.092 4.81066 -0.113741 0
M  V30 1701 C 161.444 5.18615 -0.518461 0
M  V30 1702 C 158.772 5.76835 -1.07137 0
M  V30 1703 C 161.124 6.15412 -1.46459 0
M  V30 1704 C 159.788 6.44262 -1.74592 0
M  V30 1705 H 159.058 0.711863 0.205748 0
M  V30 1706 H 161.705 1.90679 -0.17715 0
M  V30 1707 H 160.01 3.38766 1.96836 0
M  V30 1708 H 161.707 3.64435 1.67297 0
M  V30 1709 H 158.297 4.2689 0.382491 0
M  V30 1710 H 162.481 4.95264 -0.320581 0
M  V30 1711 H 157.737 5.975 -1.29628 0
M  V30 1712 H 161.911 6.67194 -1.99564 0
M  V30 1713 H 159.538 7.1828 -2.48953 0
M  V30 1714 N 161.113 -0.173488 1.56642 0
M  V30 1715 C 162.341 -0.906095 1.86004 0
M  V30 1716 C 162.756 -1.75921 0.685355 0
M  V30 1717 O 162.113 -1.79198 -0.345578 0
M  V30 1718 C 162.164 -1.78462 3.14378 0
M  V30 1719 O 161.885 -0.965914 4.27319 0
M  V30 1720 C 163.386 -2.62707 3.57071 0
M  V30 1721 H 160.606 -0.263341 0.617165 0
M  V30 1722 H 163.15 -0.174236 2.03756 0
M  V30 1723 H 161.305 -2.46984 2.98459 0
M  V30 1724 H 161.719 -1.56655 5.00559 0
M  V30 1725 H 163.193 -3.19969 4.49804 0
M  V30 1726 H 163.67 -3.37472 2.81086 0
M  V30 1727 H 164.276 -1.99521 3.75595 0
M  V30 1728 N 162.591 -1.51276 -0.441967 0
M  V30 1729 C 163.831 -1.65372 -1.20132 0
M  V30 1730 C 164.195 -0.359871 -1.88597 0
M  V30 1731 O 165.396 -0.376551 -2.66149 0
M  V30 1732 C 163.667 -2.8207 -2.1948 0
M  V30 1733 S 165.226 -3.16467 -3.03964 0
M  V30 1734 H 162.044 -0.582669 -0.407453 0
M  V30 1735 H 164.646 -1.89166 -0.493609 0
M  V30 1736 H 163.35 -3.74523 -1.67812 0
M  V30 1737 H 162.881 -2.6045 -2.94838 0
M  V30 1738 H 164.896 -2.62543 -4.21053 0
M  V30 1739 N 164.069 0.697108 -1.41344 0
M  V30 1740 C 165.017 1.83237 -1.43272 0
M  V30 1741 C 166.011 1.66522 -0.310947 0
M  V30 1742 O 167.217 1.73402 -0.482899 0
M  V30 1743 H 163.592 0.603802 -0.448249 0
M  V30 1744 H 165.563 1.78727 -2.38954 0
M  V30 1745 C 164.312 3.21245 -1.33029 0
M  V30 1746 H 163.635 3.34723 -2.18633 0
M  V30 1747 H 165.075 4.00763 -1.38439 0
M  V30 1748 C 163.534 3.36873 -0.0424635 0
M  V30 1749 O 164.064 3.91177 0.913421 0
M  V30 1750 N 162.27 2.90581 0.0331145 0
M  V30 1751 H 161.817 2.46577 -0.745506 0
M  V30 1752 H 161.775 3.01416 0.894199 0
M  V30 1753 N 165.547 1.27147 0.931209 0
M  V30 1754 C 166.477 1.12081 2.04842 0
M  V30 1755 C 167.458 0.0232364 1.70084 0
M  V30 1756 O 168.643 0.197085 1.93197 0
M  V30 1757 C 165.773 0.76354 3.38803 0
M  V30 1758 C 164.727 1.81396 3.87659 0
M  V30 1759 C 164.053 1.31075 5.18385 0
M  V30 1760 C 165.353 3.21739 4.11438 0
M  V30 1761 H 167.047 2.05537 2.17703 0
M  V30 1762 H 164.593 0.989603 1.04608 0
M  V30 1763 H 166.546 0.644982 4.16435 0
M  V30 1764 H 165.27 -0.206727 3.25945 0
M  V30 1765 H 163.929 1.92136 3.12217 0
M  V30 1766 H 163.577 0.330037 5.01916 0
M  V30 1767 H 163.277 2.013 5.52044 0
M  V30 1768 H 164.801 1.20506 5.98591 0
M  V30 1769 H 166.215 3.14019 4.79651 0
M  V30 1770 H 164.612 3.89644 4.56397 0
M  V30 1771 H 165.682 3.67054 3.16859 0
M  V30 1772 N 167.025 -1.13721 1.09112 0
M  V30 1773 C 167.955 -2.21148 0.749385 0
M  V30 1774 C 168.936 -1.6792 -0.271475 0
M  V30 1775 O 170.121 -1.93693 -0.140251 0
M  V30 1776 C 167.251 -3.46905 0.165659 0
M  V30 1777 C 166.205 -4.13203 1.11567 0
M  V30 1778 C 165.531 -5.33248 0.393809 0
M  V30 1779 C 166.831 -4.60912 2.45678 0
M  V30 1780 H 168.525 -2.4999 1.64758 0
M  V30 1781 H 166.071 -1.20156 0.793626 0
M  V30 1782 H 168.024 -4.21313 -0.085466 0
M  V30 1783 H 166.748 -3.17449 -0.767714 0
M  V30 1784 H 165.407 -3.40758 1.35202 0
M  V30 1785 H 165.055 -5.00054 -0.543599 0
M  V30 1786 H 164.755 -5.78552 1.02721 0
M  V30 1787 H 166.279 -6.10413 0.150908 0
M  V30 1788 H 167.693 -5.26759 2.26269 0
M  V30 1789 H 166.09 -5.16944 3.04776 0
M  V30 1790 H 167.16 -3.75603 3.06677 0
M  V30 1791 N 168.503 -0.877838 -1.30888 0
M  V30 1792 C 169.751 -0.491723 -1.96027 0
M  V30 1793 C 170.072 0.960827 -1.69685 0
M  V30 1794 O 169.342 1.67462 -1.01654 0
M  V30 1795 H 167.922 -0.17885 -0.725273 0
M  V30 1796 H 170.584 -1.11935 -1.59551 0
M  V30 1797 H 169.68 -0.656016 -3.05128 0
M  V30 1798 N 169.982 1.44106 -0.638065 0
M  V30 1799 C 171.207 2.0685 -0.150916 0
M  V30 1800 C 171.632 1.47417 1.16833 0
M  V30 1801 O 170.99 0.578264 1.71831 0
M  V30 1802 C 171.038 3.60555 -0.05708 0
M  V30 1803 O 170.142 4.00465 0.984972 0
M  V30 1804 H 169.483 0.658151 -0.0879399 0
M  V30 1805 H 172.013 1.84865 -0.876707 0
M  V30 1806 H 172.023 4.07789 0.131232 0
M  V30 1807 H 170.698 4.03193 -1.02021 0
M  V30 1808 H 169.275 3.64849 0.770672 0
M  V30 1809 N 171.46 0.379036 1.52974 0
M  V30 1810 C 172.706 -0.206727 2.01744 0
M  V30 1811 C 173.039 -1.47314 1.26539 0
M  V30 1812 O 172.314 -1.91084 0.362903 0
M  V30 1813 C 172.597 -0.485066 3.56818 0
M  V30 1814 C 172.45 0.795919 4.42702 0
M  V30 1815 C 173.769 -1.28003 4.21074 0
M  V30 1816 H 170.888 -0.0736607 0.73331 0
M  V30 1817 H 173.53 0.506581 1.83122 0
M  V30 1818 H 171.68 -1.09272 3.72816 0
M  V30 1819 H 173.352 1.43307 4.38476 0
M  V30 1820 H 171.595 1.41344 4.10127 0
M  V30 1821 H 172.266 0.555947 5.49193 0
M  V30 1822 H 174.742 -0.765867 4.08991 0
M  V30 1823 H 173.618 -1.44352 5.29579 0
M  V30 1824 H 173.879 -2.29236 3.78026 0
M  V30 1825 N 172.938 -1.57226 0.108567 0
M  V30 1826 C 174.187 -1.94008 -0.551703 0
M  V30 1827 C 174.5 -0.993442 -1.68494 0
M  V30 1828 O 175.706 -1.25551 -2.40726 0
M  V30 1829 C 174.162 -3.44763 -1.03279 0
M  V30 1830 C 173.77 -4.47943 0.0714193 0
M  V30 1831 C 175.514 -3.90483 -1.66503 0
M  V30 1832 C 173.421 -5.89865 -0.425779 0
M  V30 1833 H 172.351 -0.724206 -0.209863 0
M  V30 1834 H 175.002 -1.82547 0.186741 0
M  V30 1835 H 173.384 -3.51422 -1.82533 0
M  V30 1836 H 174.558 -4.52942 0.847365 0
M  V30 1837 H 172.873 -4.11913 0.609669 0
M  V30 1838 H 175.47 -4.93925 -2.04798 0
M  V30 1839 H 175.813 -3.29877 -2.53942 0
M  V30 1840 H 176.346 -3.86581 -0.938074 0
M  V30 1841 H 173.085 -6.54202 0.412316 0
M  V30 1842 H 172.605 -5.88309 -1.16843 0
M  V30 1843 H 174.284 -6.40844 -0.890397 0
M  V30 1844 N 174.416 0.165178 -1.56732 0
M  V30 1845 C 175.663 0.880807 -1.8234 0
M  V30 1846 C 175.991 1.81977 -0.686621 0
M  V30 1847 O 175.246 1.92971 0.325697 0
M  V30 1848 C 175.545 1.70405 -3.1416 0
M  V30 1849 C 175.211 0.913475 -4.4155 0
M  V30 1850 C 173.873 0.695303 -4.7615 0
M  V30 1851 C 176.225 0.359349 -5.1996 0
M  V30 1852 C 173.553 -0.0879947 -5.86634 0
M  V30 1853 C 175.905 -0.410893 -6.31264 0
M  V30 1854 C 174.569 -0.639808 -6.64427 0
M  V30 1855 H 173.839 0.32231 -0.667231 0
M  V30 1856 H 176.486 0.145402 -1.90947 0
M  V30 1857 H 174.791 2.50903 -3.00923 0
M  V30 1858 H 176.488 2.26091 -3.31186 0
M  V30 1859 H 173.078 1.09357 -4.14414 0
M  V30 1860 H 177.262 0.515228 -4.93618 0
M  V30 1861 H 172.518 -0.27503 -6.10781 0
M  V30 1862 H 176.692 -0.847494 -6.91224 0
M  V30 1863 H 174.319 -1.24864 -7.49875 0
M  V30 1864 N 175.894 1.51508 0.433938 0
M  V30 1865 C 177.143 1.63578 1.18005 0
M  V30 1866 C 177.456 0.359514 1.92268 0
M  V30 1867 O 178.662 0.359632 2.69108 0
M  V30 1868 C 177.118 2.88901 2.14626 0
M  V30 1869 C 176.726 4.23544 1.45995 0
M  V30 1870 C 178.47 3.10328 2.89649 0
M  V30 1871 C 176.377 5.40014 2.4112 0
M  V30 1872 H 175.307 0.609277 0.444182 0
M  V30 1873 H 177.958 1.77978 0.446773 0
M  V30 1874 H 176.34 2.68142 2.91403 0
M  V30 1875 H 177.514 4.54696 0.747532 0
M  V30 1876 H 175.829 4.08021 0.831115 0
M  V30 1877 H 178.426 3.94518 3.60915 0
M  V30 1878 H 178.769 2.23544 3.51189 0
M  V30 1879 H 179.302 3.31443 2.19978 0
M  V30 1880 H 176.041 6.29068 1.84264 0
M  V30 1881 H 175.561 5.13233 3.10406 0
M  V30 1882 H 177.24 5.72099 3.02177 0
M  V30 1883 N 177.372 -0.689602 1.41712 0
M  V30 1884 C 178.6 -1.47827 1.44758 0
M  V30 1885 C 179.015 -1.88721 0.0545703 0
M  V30 1886 O 178.372 -1.57176 -0.927463 0
M  V30 1887 C 178.423 -2.73698 2.3616 0
M  V30 1888 O 178.144 -2.34524 3.7004 0
M  V30 1889 C 179.645 -3.67389 2.48072 0
M  V30 1890 H 176.865 -0.455357 0.49284 0
M  V30 1891 H 179.409 -0.848574 1.86063 0
M  V30 1892 H 177.564 -3.32891 1.98148 0
M  V30 1893 H 177.978 -3.15701 4.18847 0
M  V30 1894 H 179.452 -4.52475 3.16181 0
M  V30 1895 H 179.929 -4.12284 1.51388 0
M  V30 1896 H 180.535 -3.14097 2.86746 0
M  V30 1897 N 178.85 -1.27639 -0.924453 0
M  V30 1898 C 180.09 -1.15407 -1.68703 0
M  V30 1899 C 180.454 0.294581 -1.89727 0
M  V30 1900 O 181.655 0.539385 -2.63333 0
M  V30 1901 C 179.926 -1.9195 -3.0148 0
M  V30 1902 S 181.485 -1.95969 -3.92609 0
M  V30 1903 H 178.303 -0.411937 -0.579507 0
M  V30 1904 H 180.905 -1.61592 -1.10038 0
M  V30 1905 H 179.609 -2.96387 -2.83871 0
M  V30 1906 H 179.14 -1.46272 -3.65196 0
M  V30 1907 H 181.155 -1.05846 -4.84779 0
M  V30 1908 N 180.328 1.1314 -1.09713 0
M  V30 1909 C 181.577 1.83838 -0.829851 0
M  V30 1910 C 181.89 1.84599 0.646728 0
M  V30 1911 O 183.096 2.51218 1.02965 0
M  V30 1912 C 181.552 3.30069 -1.43466 0
M  V30 1913 C 181.16 3.37688 -2.94399 0
M  V30 1914 C 182.904 4.05788 -1.24645 0
M  V30 1915 C 180.811 4.78209 -3.47952 0
M  V30 1916 H 179.741 0.68877 -0.306777 0
M  V30 1917 H 182.392 1.27448 -1.3202 0
M  V30 1918 H 180.774 3.8628 -0.871996 0
M  V30 1919 H 181.948 2.91456 -3.56918 0
M  V30 1920 H 180.263 2.75436 -3.12289 0
M  V30 1921 H 182.86 5.09535 -1.62107 0
M  V30 1922 H 183.203 4.15878 -0.187357 0
M  V30 1923 H 183.736 3.55915 -1.77678 0
M  V30 1924 H 180.475 4.73311 -4.53495 0
M  V30 1925 H 179.995 5.24924 -2.90198 0
M  V30 1926 H 181.674 5.47133 -3.45332 0
M  V30 1927 N 181.806 0.884767 1.30421 0
M  V30 1928 C 183.031 0.517288 2.00845 0
M  V30 1929 C 183.456 -0.886779 1.65885 0
M  V30 1930 O 182.814 -1.58768 0.875354 0
M  V30 1931 C 182.862 0.698994 3.5376 0
M  V30 1932 O 181.966 -0.255208 4.1161 0
M  V30 1933 H 181.307 0.203872 0.631927 0
M  V30 1934 H 183.837 1.19225 1.66272 0
M  V30 1935 H 183.847 0.597912 4.03595 0
M  V30 1936 H 182.522 1.72271 3.78544 0
M  V30 1937 H 181.099 -0.10784 3.72744 0
M  V30 1938 N 183.284 -1.43765 0.645699 0
M  V30 1939 C 184.214 -2.33471 -0.0370477 0
M  V30 1940 C 185.195 -1.49042 -0.819779 0
M  V30 1941 O 186.38 -1.77726 -0.782758 0
M  V30 1942 C 183.51 -3.32311 -1.0093 0
M  V30 1943 C 182.464 -4.2667 -0.337201 0
M  V30 1944 C 181.79 -5.1549 -1.42037 0
M  V30 1945 C 183.09 -5.16657 0.765706 0
M  V30 1946 H 184.784 -2.90809 0.712069 0
M  V30 1947 H 182.33 -1.39834 0.343876 0
M  V30 1948 H 184.283 -3.9396 -1.49578 0
M  V30 1949 H 183.007 -2.73213 -1.78948 0
M  V30 1950 H 181.666 -3.66374 0.128771 0
M  V30 1951 H 181.314 -4.52735 -2.1918 0
M  V30 1952 H 181.014 -5.79438 -0.975966 0
M  V30 1953 H 182.538 -5.80012 -1.90838 0
M  V30 1954 H 183.952 -5.72158 0.361702 0
M  V30 1955 H 182.349 -5.89286 1.13413 0
M  V30 1956 H 183.419 -4.56796 1.62683 0
M  V30 1957 N 184.763 -0.387143 -1.52771 0
M  V30 1958 C 185.711 0.463953 -2.27926 0
M  V30 1959 C 186.705 1.06493 -1.31741 0
M  V30 1960 O 187.911 1.00565 -1.49287 0
M  V30 1961 H 184.286 0.16837 -0.732909 0
M  V30 1962 H 186.257 -0.19141 -2.97785 0
M  V30 1963 C 185.006 1.5803 -3.09713 0
M  V30 1964 H 184.329 1.12718 -3.83581 0
M  V30 1965 H 185.769 2.15008 -3.65442 0
M  V30 1966 C 184.228 2.53509 -2.2189 0
M  V30 1967 O 184.758 3.56863 -1.84422 0
M  V30 1968 N 182.964 2.23199 -1.86093 0
M  V30 1969 H 182.511 1.39185 -2.16761 0
M  V30 1970 H 182.469 2.87333 -1.27621 0
M  V30 1971 N 186.241 1.57166 -0.116904 0
M  V30 1972 C 187.657 1.5779 0.239693 0
M  V30 1973 C 187.857 1.1295 1.66867 0
M  V30 1974 O 186.913 0.81592 2.38954 0
M  V30 1975 C 188.226 3.00699 0.00828202 0
M  V30 1976 C 189.774 3.12912 0.0743438 0
M  V30 1977 C 190.249 4.57817 -0.129348 0
M  V30 1978 N 191.74 4.63139 -0.075247 0
M  V30 1979 C 192.475 5.73023 -0.207788 0
M  V30 1980 N 191.971 6.91665 -0.396382 0
M  V30 1981 N 193.764 5.61906 -0.14751 0
M  V30 1982 H 185.915 1.84615 -1.05029 0
M  V30 1983 H 188.178 0.85311 -0.41341 0
M  V30 1984 H 187.884 3.37784 -0.979531 0
M  V30 1985 H 187.758 3.69848 0.741077 0
M  V30 1986 H 190.145 2.75686 1.05268 0
M  V30 1987 H 190.226 2.4631 -0.690297 0
M  V30 1988 H 189.87 4.95742 -1.10465 0
M  V30 1989 H 189.8 5.22507 0.655253 0
M  V30 1990 H 192.291 3.7784 0.0670898 0
M  V30 1991 H 192.604 7.71255 -0.488437 0
M  V30 1992 H 190.949 6.93654 -0.432329 0
M  V30 1993 H 194.14 4.681 -0.00115036 0
M  V30 1994 H 194.313 6.47501 -0.254247 0
M  V30 1995 N 187.719 -0.156864 1.56817 0
M  V30 1996 C 188.949 -0.885031 1.86684 0
M  V30 1997 C 189.357 -1.75696 0.701954 0
M  V30 1998 O 188.7 -1.80569 -0.337732 0
M  V30 1999 C 188.762 -1.80092 3.11138 0
M  V30 2000 C 188.426 -1.10714 4.43386 0
M  V30 2001 C 189.423 -0.465714 5.1781 0
M  V30 2002 C 187.108 -1.09959 4.90117 0
M  V30 2003 C 189.102 0.174002 6.37162 0
M  V30 2004 C 186.789 -0.456055 6.09396 0
M  V30 2005 C 187.787 0.179622 6.82764 0
M  V30 2006 O 187.475 0.812975 7.99779 0
M  V30 2007 H 187.207 -0.261813 0.623242 0
M  V30 2008 H 189.761 -0.157383 2.04796 0
M  V30 2009 H 187.991 -2.56926 2.89009 0
M  V30 2010 H 189.68 -2.40018 3.27332 0
M  V30 2011 H 190.446 -0.463427 4.82781 0
M  V30 2012 H 186.325 -1.58378 4.3294 0
M  V30 2013 H 189.869 0.670765 6.94368 0
M  V30 2014 H 185.766 -0.455975 6.43888 0
M  V30 2015 H 186.534 0.71366 8.15383 0
M  V30 2016 N 189.197 -1.51736 -0.425897 0
M  V30 2017 C 190.127 -1.76827 -1.52494 0
M  V30 2018 C 191.108 -0.618524 -1.58456 0
M  V30 2019 O 192.293 -0.862416 -1.74 0
M  V30 2020 C 189.423 -1.90374 -2.90474 0
M  V30 2021 C 188.377 -3.0588 -2.99369 0
M  V30 2022 C 187.703 -3.04625 -4.3944 0
M  V30 2023 C 189.003 -4.45644 -2.72394 0
M  V30 2024 H 190.697 -2.68855 -1.31748 0
M  V30 2025 H 188.243 -1.29372 -0.632362 0
M  V30 2026 H 190.196 -2.0651 -3.6733 0
M  V30 2027 H 188.92 -0.95004 -3.12477 0
M  V30 2028 H 187.579 -2.89467 -2.24954 0
M  V30 2029 H 187.227 -2.0701 -4.58428 0
M  V30 2030 H 186.927 -3.82195 -4.46319 0
M  V30 2031 H 188.451 -3.22869 -5.18255 0
M  V30 2032 H 189.865 -4.62348 -3.38979 0
M  V30 2033 H 188.262 -5.25006 -2.9067 0
M  V30 2034 H 189.332 -4.54893 -1.67929 0
M  V30 2035 N 190.675 0.682077 -1.42076 0
M  V30 2036 C 191.923 1.4393 -1.41876 0
M  V30 2037 C 192.244 1.94971 -0.0335599 0
M  V30 2038 O 191.514 1.72591 0.926773 0
M  V30 2039 H 190.094 0.534085 -0.522267 0
M  V30 2040 H 192.756 0.806427 -1.77434 0
M  V30 2041 H 191.852 2.29588 -2.11414 0
M  V30 2042 N 192.153 1.28127 0.917671 0
M  V30 2043 C 193.402 1.14432 1.66097 0
M  V30 2044 C 193.715 -0.307247 1.93172 0
M  V30 2045 O 194.921 -0.565259 2.65551 0
M  V30 2046 C 193.377 2.00015 2.99202 0
M  V30 2047 C 192.985 3.49889 2.79789 0
M  V30 2048 C 194.729 1.94996 3.77064 0
M  V30 2049 C 192.636 4.27636 4.08511 0
M  V30 2050 H 191.566 0.424662 0.62304 0
M  V30 2051 H 194.217 1.52628 1.01868 0
M  V30 2052 H 192.599 1.54672 3.64544 0
M  V30 2053 H 193.773 4.03162 2.23152 0
M  V30 2054 H 192.088 3.56392 2.15345 0
M  V30 2055 H 194.685 2.50354 4.72469 0
M  V30 2056 H 195.028 0.925819 4.05875 0
M  V30 2057 H 195.561 2.38287 3.18534 0
M  V30 2058 H 192.3 5.30615 3.84874 0
M  V30 2059 H 191.82 3.79137 4.64774 0
M  V30 2060 H 193.499 4.37346 4.76799 0
M  V30 2061 N 193.631 -1.12557 1.10312 0
M  V30 2062 C 194.877 -1.84311 0.846011 0
M  V30 2063 C 195.21 -1.83805 -0.626859 0
M  V30 2064 O 194.485 -1.28268 -1.46211 0
M  V30 2065 C 194.768 -3.32048 1.39341 0
M  V30 2066 C 194.621 -3.41016 2.93305 0
M  V30 2067 C 195.94 -4.27764 1.03468 0
M  V30 2068 H 193.059 -0.669192 0.30879 0
M  V30 2069 H 195.701 -1.32057 1.36605 0
M  V30 2070 H 193.851 -3.76678 0.951087 0
M  V30 2071 H 195.523 -3.05031 3.46055 0
M  V30 2072 H 193.766 -2.81603 3.29973 0
M  V30 2073 H 194.437 -4.44948 3.26689 0
M  V30 2074 H 196.913 -3.91253 1.41633 0
M  V30 2075 H 195.789 -5.29549 1.44463 0
M  V30 2076 H 196.05 -4.42064 -0.0560404 0
M  V30 2077 N 195.109 -0.891671 -1.2995 0
M  V30 2078 C 196.059 -0.334811 -2.25528 0
M  V30 2079 C 197.043 0.540553 -1.51548 0
M  V30 2080 O 198.235 0.383882 -1.72787 0
M  V30 2081 C 195.364 0.44374 -3.4042 0
M  V30 2082 C 194.45 -0.44609 -4.21747 0
M  V30 2083 N 194.841 -1.54963 -4.81477 0
M  V30 2084 C 193.139 -0.242415 -4.45341 0
M  V30 2085 C 193.84 -2.10015 -5.42465 0
M  V30 2086 N 192.816 -1.39423 -5.25416 0
M  V30 2087 H 196.618 -1.17792 -2.69262 0
M  V30 2088 H 194.132 -0.741822 -1.44467 0
M  V30 2089 H 196.129 0.859362 -4.07947 0
M  V30 2090 H 194.789 1.28421 -2.98225 0
M  V30 2091 H 195.8 -1.93244 -4.80497 0
M  V30 2092 H 192.477 0.560342 -4.13723 0
M  V30 2093 H 193.867 -3.02724 -5.9984 0
M  V30 2094 N 196.587 1.43421 -0.653314 0
M  V30 2095 C 197.998 1.85065 -0.246537 0
M  V30 2096 C 198.349 1.54688 1.2069 0
M  V30 2097 O 197.474 0.995896 1.92122 0
M  V30 2098 C 198.069 3.35922 -0.440666 0
M  V30 2099 C 196.628 3.76297 -0.0882064 0
M  V30 2100 C 195.775 2.67147 -0.743484 0
M  V30 2101 H 198.726 1.33572 -0.856979 0
M  V30 2102 H 198.747 3.79204 0.313798 0
M  V30 2103 H 198.259 3.58 -1.49858 0
M  V30 2104 H 196.36 3.5983 0.96711 0
M  V30 2105 H 196.473 4.76338 -0.513738 0
M  V30 2106 H 194.837 2.54086 -0.176712 0
M  V30 2107 H 195.62 2.92053 -1.80443 0
M  V30 2108 N 198.065 0.39524 1.52563 0
M  V30 2109 C 199.312 -0.185044 2.01653 0
M  V30 2110 C 199.64 -1.46317 1.28146 0
M  V30 2111 O 198.895 -1.9213 0.372074 0
M  V30 2112 C 199.194 -0.493444 3.53977 0
M  V30 2113 C 198.86 0.69384 4.4553 0
M  V30 2114 C 197.522 1.01954 4.70275 0
M  V30 2115 C 199.874 1.48785 4.99512 0
M  V30 2116 C 197.202 2.14069 5.46252 0
M  V30 2117 C 199.554 2.59965 5.76716 0
M  V30 2118 C 198.218 2.93037 5.99738 0
M  V30 2119 H 197.488 -0.0677123 0.7379 0
M  V30 2120 H 200.135 0.533807 1.8391 0
M  V30 2121 H 198.44 -1.29369 3.69825 0
M  V30 2122 H 200.137 -0.955163 3.89458 0
M  V30 2123 H 196.727 0.429987 4.26438 0
M  V30 2124 H 200.911 1.24946 4.80315 0
M  V30 2125 H 196.167 2.40056 5.62302 0
M  V30 2126 H 200.341 3.21887 6.17545 0
M  V30 2127 H 197.968 3.8003 6.58393 0
M  V30 2128 N 199.544 -1.57102 0.125237 0
M  V30 2129 C 200.791 -1.95407 -0.531248 0
M  V30 2130 C 201.119 -1.0089 -1.66287 0
M  V30 2131 O 200.374 -0.0339431 -1.95671 0
M  V30 2132 C 200.673 -3.40096 -1.09862 0
M  V30 2133 C 200.339 -4.50815 -0.0876989 0
M  V30 2134 C 199.001 -4.80824 0.19026 0
M  V30 2135 C 201.353 -5.17724 0.600902 0
M  V30 2136 C 198.681 -5.75058 1.163 0
M  V30 2137 C 201.033 -6.13005 1.56231 0
M  V30 2138 C 199.697 -6.41403 1.8482 0
M  V30 2139 H 198.967 -0.715046 -0.194397 0
M  V30 2140 H 201.614 -1.90373 0.207463 0
M  V30 2141 H 199.919 -3.41855 -1.91422 0
M  V30 2142 H 201.616 -3.6705 -1.61478 0
M  V30 2143 H 198.206 -4.27444 -0.314528 0
M  V30 2144 H 202.39 -4.94691 0.399333 0
M  V30 2145 H 197.646 -5.95362 1.39117 0
M  V30 2146 H 201.82 -6.63934 2.10153 0
M  V30 2147 H 199.447 -7.14229 2.60349 0
M  V30 2148 N 201.022 0.148545 -1.56898 0
M  V30 2149 C 201.985 1.16736 -1.97244 0
M  V30 2150 C 202.985 1.35947 -0.858777 0
M  V30 2151 O 204.175 1.32966 -1.12542 0
M  V30 2152 C 201.307 2.52798 -2.28705 0
M  V30 2153 H 202.5 0.821279 -2.88435 0
M  V30 2154 H 200.053 0.391831 -1.51309 0
M  V30 2155 H 200.788 2.92381 -1.403 0
M  V30 2156 H 200.573 2.40216 -3.09901 0
M  V30 2157 H 202.063 3.26179 -2.60762 0
M  V30 2158 N 202.5 1.5196 0.417844 0
M  V30 2159 C 203.916 1.40569 0.755816 0
M  V30 2160 C 204.116 0.503316 1.95113 0
M  V30 2161 O 203.172 -0.0341925 2.52477 0
M  V30 2162 C 204.485 2.82947 1.01791 0
M  V30 2163 C 206.033 2.92231 1.12116 0
M  V30 2164 C 206.508 4.35559 1.41608 0
M  V30 2165 N 207.999 4.38753 1.48491 0
M  V30 2166 C 208.734 5.46705 1.7292 0
M  V30 2167 N 208.23 6.64788 1.95011 0
M  V30 2168 N 210.023 5.34209 1.74863 0
M  V30 2169 H 202.174 2.09168 -0.369098 0
M  V30 2170 H 204.437 0.942409 -0.102809 0
M  V30 2171 H 204.143 3.5106 0.212081 0
M  V30 2172 H 204.017 3.23462 1.94042 0
M  V30 2173 H 206.404 2.24304 1.9176 0
M  V30 2174 H 206.485 2.55185 0.177225 0
M  V30 2175 H 206.129 5.04042 0.624848 0
M  V30 2176 H 206.059 4.70133 2.37239 0
M  V30 2177 H 208.55 3.5363 1.33244 0
M  V30 2178 H 208.863 7.42845 2.13076 0
M  V30 2179 H 207.208 6.67869 1.92293 0
M  V30 2180 H 210.399 4.40937 1.57137 0
M  V30 2181 H 210.572 6.18415 1.93563 0
M  V30 2182 N 203.978 -0.674533 1.42435 0
M  V30 2183 C 205.203 -1.46784 1.46524 0
M  V30 2184 C 205.628 -1.87938 0.078066 0
M  V30 2185 O 204.986 -1.56014 -0.92354 0
M  V30 2186 C 205.034 -2.69307 2.39805 0
M  V30 2187 O 204.138 -3.67587 1.86959 0
M  V30 2188 H 203.479 -0.440959 0.496439 0
M  V30 2189 H 206.009 -0.827326 1.87127 0
M  V30 2190 H 206.019 -3.17374 2.56393 0
M  V30 2191 H 204.694 -2.38692 3.40586 0
M  V30 2192 H 203.271 -3.2662 1.79927 0
M  V30 2193 N 205.456 -1.28612 -0.910864 0
M  V30 2194 C 206.406 -1.09423 -2.00026 0
M  V30 2195 C 207.39 -0.0170079 -1.60891 0
M  V30 2196 O 208.582 -0.237472 -1.754 0
M  V30 2197 C 205.711 -0.76114 -3.34756 0
M  V30 2198 C 204.797 -1.87735 -3.80285 0
M  V30 2199 N 205.188 -3.11938 -3.98156 0
M  V30 2200 C 203.486 -1.76786 -4.09467 0
M  V30 2201 C 204.187 -3.84687 -4.36338 0
M  V30 2202 N 203.163 -3.12555 -4.44759 0
M  V30 2203 H 206.965 -2.03658 -2.11898 0
M  V30 2204 H 204.479 -1.19573 -1.09891 0
M  V30 2205 H 206.476 -0.604743 -4.12491 0
M  V30 2206 H 205.136 0.173403 -3.24237 0
M  V30 2207 H 206.147 -3.47516 -3.83996 0
M  V30 2208 H 202.824 -0.905284 -4.07567 0
M  V30 2209 H 204.214 -4.91518 -4.58104 0
M  V30 2210 N 206.934 1.1197 -1.10907 0
M  V30 2211 C 207.864 2.19928 -0.784473 0
M  V30 2212 C 208.845 1.6833 0.244726 0
M  V30 2213 O 210.03 1.93892 0.109418 0
M  V30 2214 C 207.16 3.46597 -0.220827 0
M  V30 2215 C 206.114 4.11376 -1.18127 0
M  V30 2216 C 205.44 5.32554 -0.478594 0
M  V30 2217 C 206.74 4.56945 -2.52979 0
M  V30 2218 H 208.434 2.47337 -1.68715 0
M  V30 2219 H 205.98 1.18879 -0.812642 0
M  V30 2220 H 207.933 4.21396 0.0184278 0
M  V30 2221 H 206.657 3.1863 0.717113 0
M  V30 2222 H 205.316 3.38564 -1.40606 0
M  V30 2223 H 204.964 5.00856 0.463976 0
M  V30 2224 H 204.664 5.76844 -1.11912 0
M  V30 2225 H 206.188 6.10096 -0.248 0
M  V30 2226 H 207.602 5.23093 -2.3462 0
M  V30 2227 H 205.999 5.1203 -3.12962 0
M  V30 2228 H 207.069 3.70676 -3.12614 0
M  V30 2229 N 208.412 0.89855 1.29475 0
M  V30 2230 C 209.828 0.594483 1.48115 0
M  V30 2231 C 210.028 -0.86431 1.82022 0
M  V30 2232 O 209.084 -1.64457 1.91599 0
M  V30 2233 C 210.397 1.51932 2.59494 0
M  V30 2234 C 211.945 1.5244 2.7337 0
M  V30 2235 C 212.42 2.43548 3.87877 0
M  V30 2236 N 213.911 2.41589 3.95208 0
M  V30 2237 C 214.646 3.08789 4.83153 0
M  V30 2238 N 214.142 3.85265 5.75798 0
M  V30 2239 N 215.935 2.97952 4.76635 0
M  V30 2240 H 208.086 1.84207 1.05742 0
M  V30 2241 H 210.349 0.789251 0.525154 0
M  V30 2242 H 210.055 2.55865 2.41301 0
M  V30 2243 H 209.929 1.23899 3.56271 0
M  V30 2244 H 212.316 0.492518 2.90961 0
M  V30 2245 H 212.397 1.8451 1.77172 0
M  V30 2246 H 212.041 3.46829 3.71041 0
M  V30 2247 H 211.971 2.08788 4.83441 0
M  V30 2248 H 214.462 1.86025 3.28943 0
M  V30 2249 H 214.775 4.33598 6.39697 0
M  V30 2250 H 213.12 3.89371 5.75687 0
M  V30 2251 H 216.311 2.37723 4.03244 0
M  V30 2252 H 216.484 3.50599 5.44962 0
M  V30 2253 N 209.89 -1.43072 0.660911 0
M  V30 2254 C 211.301 -1.84932 0.256348 0
M  V30 2255 C 211.652 -1.55325 -1.19868 0
M  V30 2256 O 210.777 -1.00607 -1.91591 0
M  V30 2257 C 211.372 -3.35684 0.458475 0
M  V30 2258 C 209.931 -3.76245 0.108161 0
M  V30 2259 C 209.078 -2.66749 0.757641 0
M  V30 2260 H 212.029 -1.33116 0.864051 0
M  V30 2261 H 212.05 -3.79365 -0.293683 0
M  V30 2262 H 211.562 -3.572 1.51755 0
M  V30 2263 H 209.663 -3.60338 -0.948014 0
M  V30 2264 H 209.776 -4.76058 0.538992 0
M  V30 2265 H 208.14 -2.53989 0.190185 0
M  V30 2266 H 208.923 -2.91092 1.81989 0
M  V30 2267 N 211.368 -0.403325 -1.52352 0
M  V30 2268 C 212.315 0.425011 -2.26853 0
M  V30 2269 C 213.285 1.04598 -1.29029 0
M  V30 2270 O 214.47 1.07135 -1.57882 0
M  V30 2271 C 211.61 1.53888 -3.08889 0
M  V30 2272 C 210.723 0.939396 -4.21663 0
M  V30 2273 C 209.858 2.02547 -4.91068 0
M  V30 2274 C 208.897 1.40263 -5.95813 0
M  V30 2275 N 208.034 2.4286 -6.58759 0
M  V30 2276 H 212.874 -0.21674 -2.97211 0
M  V30 2277 H 210.411 -0.118722 -1.4662 0
M  V30 2278 H 212.369 2.19558 -3.54753 0
M  V30 2279 H 210.999 2.15074 -2.40714 0
M  V30 2280 H 210.051 0.171898 -3.80011 0
M  V30 2281 H 211.363 0.44436 -4.96817 0
M  V30 2282 H 210.517 2.75958 -5.40308 0
M  V30 2283 H 209.256 2.55415 -4.15469 0
M  V30 2284 H 208.261 0.653833 -5.45898 0
M  V30 2285 H 209.486 0.881719 -6.73352 0
M  V30 2286 H 207.432 2.94871 -5.85992 0
M  V30 2287 H 207.349 1.98152 -7.2957 0
M  V30 2288 H 208.617 3.15858 -7.12639 0
M  V30 2289 N 212.846 1.57033 -0.133567 0
M  V30 2290 C 213.796 2.12641 0.822671 0
M  V30 2291 C 214.78 1.05081 1.21847 0
M  V30 2292 O 215.972 1.31287 1.18713 0
M  V30 2293 C 213.101 2.74094 2.06706 0
M  V30 2294 C 212.187 3.88757 1.69497 0
M  V30 2295 N 212.578 4.95194 1.03037 0
M  V30 2296 C 210.876 3.99213 1.98859 0
M  V30 2297 C 211.577 5.75414 0.852873 0
M  V30 2298 N 210.553 5.25726 1.3825 0
M  V30 2299 H 214.355 2.92308 0.305537 0
M  V30 2300 H 211.869 1.62256 0.0684276 0
M  V30 2301 H 213.866 3.12285 2.76195 0
M  V30 2302 H 212.526 1.95896 2.5895 0
M  V30 2303 H 213.537 5.13247 0.692669 0
M  V30 2304 H 210.214 3.32075 2.53047 0
M  V30 2305 H 211.604 6.71089 0.330091 0
M  V30 2306 N 214.325 -0.140222 1.56975 0
M  V30 2307 C 215.288 -1.15689 1.97861 0
M  V30 2308 C 216.288 -1.3549 0.865974 0
M  V30 2309 O 217.478 -1.32367 1.13246 0
M  V30 2310 C 214.61 -2.51582 2.30042 0
M  V30 2311 H 215.803 -0.805971 2.88867 0
M  V30 2312 H 213.356 -0.383801 1.51515 0
M  V30 2313 H 214.091 -2.91632 1.41849 0
M  V30 2314 H 213.876 -2.38569 3.11171 0
M  V30 2315 H 215.366 -3.24792 2.62488 0
M  V30 2316 N 215.803 -1.52179 -0.40978 0
M  V30 2317 C 217.049 -1.67408 -1.15525 0
M  V30 2318 C 217.404 -0.398746 -1.88223 0
M  V30 2319 O 216.697 0.60678 -1.81738 0
M  V30 2320 C 216.891 -2.83428 -2.17723 0
M  V30 2321 C 216.72 -4.22121 -1.55061 0
M  V30 2322 C 215.49 -4.87657 -1.3236 0
M  V30 2323 C 217.688 -5.04248 -1.01185 0
M  V30 2324 N 215.67 -6.10387 -0.655834 0
M  V30 2325 C 217.041 -6.18209 -0.470963 0
M  V30 2326 C 219.096 -4.89583 -0.906252 0
M  V30 2327 C 217.799 -7.1911 0.165172 0
M  V30 2328 C 219.825 -5.90718 -0.28397 0
M  V30 2329 C 219.187 -7.03969 0.246243 0
M  V30 2330 H 215.286 -0.666251 -0.409431 0
M  V30 2331 H 217.87 -1.89482 -0.447729 0
M  V30 2332 H 216.041 -2.6297 -2.85834 0
M  V30 2333 H 217.773 -2.87697 -2.84627 0
M  V30 2334 H 214.528 -4.46007 -1.59294 0
M  V30 2335 H 214.952 -6.76153 -0.338596 0
M  V30 2336 H 219.594 -4.02253 -1.302 0
M  V30 2337 H 217.312 -8.06066 0.572986 0
M  V30 2338 H 220.898 -5.81443 -0.203792 0
M  V30 2339 H 219.778 -7.80886 0.720173 0
M  V30 2340 N 217.281 0.66697 -1.42791 0
M  V30 2341 C 218.244 1.76211 -1.46568 0
M  V30 2342 C 219.244 1.56896 -0.352196 0
M  V30 2343 O 220.434 1.63044 -0.613364 0
M  V30 2344 C 217.566 3.14935 -1.30494 0
M  V30 2345 H 218.759 1.74247 -2.44086 0
M  V30 2346 H 216.312 0.877342 -1.29354 0
M  V30 2347 H 217.047 3.2252 -0.339301 0
M  V30 2348 H 216.832 3.30359 -2.11199 0
M  V30 2349 H 218.322 3.94821 -1.36038 0
M  V30 2350 N 218.759 1.29093 0.90403 0
M  V30 2351 C 220.005 1.16986 1.65656 0
M  V30 2352 C 220.338 -0.278925 1.92186 0
M  V30 2353 O 219.613 -1.2019 1.5292 0
M  V30 2354 C 219.896 1.97908 3.0084 0
M  V30 2355 C 219.749 3.50903 2.81403 0
M  V30 2356 C 221.068 1.80208 4.01513 0
M  V30 2357 H 218.187 0.426346 0.601164 0
M  V30 2358 H 220.829 1.58518 1.04747 0
M  V30 2359 H 218.979 1.62616 3.52829 0
M  V30 2360 H 220.651 3.96153 2.36348 0
M  V30 2361 H 218.894 3.76045 2.1627 0
M  V30 2362 H 219.565 4.02791 3.77443 0
M  V30 2363 H 222.041 2.11025 3.58619 0
M  V30 2364 H 220.917 2.39184 4.94047 0
M  V30 2365 H 221.178 0.756119 4.35586 0
M  V30 2366 N 220.237 -1.11381 1.11499 0
M  V30 2367 C 221.462 -1.87475 0.887019 0
M  V30 2368 C 221.887 -1.79639 -0.557796 0
M  V30 2369 O 221.245 -1.15924 -1.39396 0
M  V30 2370 C 221.293 -3.34213 1.35403 0
M  V30 2371 O 220.397 -4.0903 0.526146 0
M  V30 2372 H 219.738 -0.582099 0.319463 0
M  V30 2373 H 222.268 -1.40785 1.48461 0
M  V30 2374 H 222.278 -3.8506 1.34881 0
M  V30 2375 H 220.953 -3.39232 2.40612 0
M  V30 2376 H 219.53 -3.68082 0.597522 0
M  V30 2377 N 221.715 -0.905404 -1.28997 0
M  V30 2378 C 222.678 -0.392253 -2.25819 0
M  V30 2379 C 223.678 0.476753 -1.5357 0
M  V30 2380 O 224.868 0.280994 -1.71919 0
M  V30 2381 C 222 0.438588 -3.38067 0
M  V30 2382 H 223.193 -1.24743 -2.72725 0
M  V30 2383 H 220.746 -0.684051 -1.40536 0
M  V30 2384 H 221.481 1.31352 -2.96508 0
M  V30 2385 H 221.266 -0.184167 -3.91667 0
M  V30 2386 H 222.756 0.78873 -4.10084 0
M  V30 2387 N 223.193 1.4272 -0.668489 0
M  V30 2388 C 224.156 2.292 0.00448567 0
M  V30 2389 C 225.156 1.43001 0.735339 0
M  V30 2390 O 226.346 1.64461 0.57429 0
M  V30 2391 C 223.478 3.25375 1.01705 0
M  V30 2392 H 224.671 2.90199 -0.756608 0
M  V30 2393 H 222.224 1.50254 -0.430506 0
M  V30 2394 H 222.959 2.69301 1.80686 0
M  V30 2395 H 222.744 3.88944 0.496463 0
M  V30 2396 H 224.234 3.90245 1.48655 0
M  V30 2397 N 224.671 0.411399 1.52136 0
M  V30 2398 C 225.919 -0.163322 2.01439 0
M  V30 2399 C 226.24 -1.45453 1.29879 0
M  V30 2400 O 225.51 -1.91225 0.4254 0
M  V30 2401 H 224.09 -0.0633447 0.744309 0
M  V30 2402 H 226.752 0.548161 1.87033 0
M  V30 2403 H 225.848 -0.357817 3.10042 0
M  V30 2404 N 226.149 -1.5696 0.141893 0
M  V30 2405 C 227.395 -1.97034 -0.504884 0
M  V30 2406 C 227.75 -1.02518 -1.62812 0
M  V30 2407 O 227.043 -0.0592943 -1.91508 0
M  V30 2408 C 227.237 -3.41242 -1.06249 0
M  V30 2409 C 227.066 -4.497 0.00519653 0
M  V30 2410 C 225.836 -5.03338 0.444873 0
M  V30 2411 C 228.034 -5.08122 0.794767 0
M  V30 2412 N 226.016 -5.95395 1.49593 0
M  V30 2413 C 227.387 -5.96339 1.69645 0
M  V30 2414 C 229.442 -4.9071 0.843122 0
M  V30 2415 C 228.145 -6.69009 2.64233 0
M  V30 2416 C 230.171 -5.64077 1.77681 0
M  V30 2417 C 229.533 -6.51999 2.66603 0
M  V30 2418 H 225.632 -0.766745 -0.153707 0
M  V30 2419 H 228.216 -1.93273 0.235313 0
M  V30 2420 H 226.387 -3.45606 -1.77231 0
M  V30 2421 H 228.119 -3.68389 -1.67546 0
M  V30 2422 H 224.874 -4.73576 0.0480959 0
M  V30 2423 H 225.298 -6.46128 2.02107 0
M  V30 2424 H 229.94 -4.22459 0.169732 0
M  V30 2425 H 227.658 -7.36492 3.32575 0
M  V30 2426 H 231.244 -5.52602 1.81996 0
M  V30 2427 H 230.124 -7.07775 3.37675 0
M  V30 2428 N 227.627 0.131896 -1.57047 0
M  V30 2429 C 228.873 0.843179 -1.84441 0
M  V30 2430 C 229.206 1.80129 -0.725749 0
M  V30 2431 O 228.481 1.92624 0.269469 0
M  V30 2432 C 228.764 1.60442 -3.22382 0
M  V30 2433 C 228.617 0.666782 -4.4483 0
M  V30 2434 C 229.936 2.56354 -3.5773 0
M  V30 2435 H 227.055 0.305081 -0.670891 0
M  V30 2436 H 229.697 0.107839 -1.89694 0
M  V30 2437 H 227.847 2.23128 -3.18035 0
M  V30 2438 H 229.519 0.0497646 -4.61273 0
M  V30 2439 H 227.762 -0.022609 -4.33794 0
M  V30 2440 H 228.433 1.23579 -5.37989 0
M  V30 2441 H 230.909 2.0378 -3.62785 0
M  V30 2442 H 229.785 3.06657 -4.5525 0
M  V30 2443 H 230.046 3.38419 -2.84473 0
M  V30 2444 N 229.106 1.52395 0.401703 0
M  V30 2445 C 230.036 1.79231 1.49661 0
M  V30 2446 C 231.017 0.643654 1.57452 0
M  V30 2447 O 232.202 0.889989 1.72606 0
M  V30 2448 C 229.332 1.94971 2.87409 0
M  V30 2449 C 228.286 3.10604 2.94465 0
M  V30 2450 C 227.612 3.11577 4.34538 0
M  V30 2451 C 228.912 4.49921 2.6527 0
M  V30 2452 H 230.606 2.70917 1.27454 0
M  V30 2453 H 228.152 1.30362 0.6117 0
M  V30 2454 H 230.105 2.12328 3.63999 0
M  V30 2455 H 228.829 0.999632 3.10926 0
M  V30 2456 H 227.488 2.93009 2.20321 0
M  V30 2457 H 227.136 2.14277 4.55076 0
M  V30 2458 H 226.836 3.89247 4.40183 0
M  V30 2459 H 228.36 3.31073 5.13053 0
M  V30 2460 H 229.774 4.67683 3.31581 0
M  V30 2461 H 228.171 5.29564 2.82281 0
M  V30 2462 H 229.241 4.57507 1.60671 0
M  V30 2463 N 230.584 -0.659388 1.43143 0
M  V30 2464 C 231.547 -1.75432 1.47501 0
M  V30 2465 C 232.547 -1.56707 0.360512 0
M  V30 2466 O 233.737 -1.62717 0.622002 0
M  V30 2467 C 230.869 -3.14239 1.32162 0
M  V30 2468 H 232.062 -1.7295 2.45006 0
M  V30 2469 H 229.615 -0.870469 1.29817 0
M  V30 2470 H 230.35 -3.22336 0.356401 0
M  V30 2471 H 230.135 -3.29235 2.12948 0
M  V30 2472 H 231.625 -3.94094 1.3813 0
M  V30 2473 N 232.062 -1.29571 -0.897171 0
M  V30 2474 C 233.025 -1.14913 -1.98312 0
M  V30 2475 C 234.025 -0.0838629 -1.60581 0
M  V30 2476 O 235.215 -0.331006 -1.71026 0
M  V30 2477 C 232.347 -0.757835 -3.3237 0
M  V30 2478 H 233.54 -2.11377 -2.12743 0
M  V30 2479 H 231.093 -1.12793 -1.08201 0
M  V30 2480 H 231.828 0.206837 -3.2364 0
M  V30 2481 H 231.613 -1.52755 -3.61121 0
M  V30 2482 H 233.103 -0.678408 -4.12053 0
M  V30 2483 N 233.54 1.10788 -1.12088 0
M  V30 2484 C 234.47 2.19083 -0.807755 0
M  V30 2485 C 235.451 1.6858 0.226859 0
M  V30 2486 O 236.636 1.93997 0.0888475 0
M  V30 2487 C 233.766 3.46344 -0.257576 0
M  V30 2488 C 232.72 4.101 -1.22483 0
M  V30 2489 C 232.046 5.32016 -0.535052 0
M  V30 2490 C 233.346 4.54236 -2.57811 0
M  V30 2491 H 235.04 2.45534 -1.71328 0
M  V30 2492 H 232.586 1.1801 -0.825205 0
M  V30 2493 H 234.539 4.21392 -0.0262679 0
M  V30 2494 H 233.263 3.19373 0.683278 0
M  V30 2495 H 231.922 3.37054 -1.44189 0
M  V30 2496 H 231.57 5.01319 0.410827 0
M  V30 2497 H 231.27 5.75625 -1.18024 0
M  V30 2498 H 232.794 6.09799 -0.312695 0
M  V30 2499 H 234.208 5.20575 -2.40155 0
M  V30 2500 H 232.605 5.08682 -3.18375 0
M  V30 2501 H 233.675 3.6734 -3.16528 0
M  V30 2502 N 235.018 0.912232 1.28515 0
M  V30 2503 C 235.948 0.416403 2.29757 0
M  V30 2504 C 236.929 -0.515194 1.6211 0
M  V30 2505 O 238.114 -0.423253 1.89532 0
M  V30 2506 C 235.244 -0.34572 3.45575 0
M  V30 2507 C 234.198 0.496599 4.25109 0
M  V30 2508 C 233.524 -0.393771 5.33248 0
M  V30 2509 C 234.824 1.75307 4.92001 0
M  V30 2510 H 236.518 1.26249 2.7148 0
M  V30 2511 H 234.064 0.608515 1.30511 0
M  V30 2512 H 236.017 -0.703422 4.15488 0
M  V30 2513 H 234.741 -1.2257 3.02728 0
M  V30 2514 H 233.4 0.8368 3.56922 0
M  V30 2515 H 233.048 -1.27225 4.86644 0
M  V30 2516 H 232.748 0.166209 5.87365 0
M  V30 2517 H 234.272 -0.747389 6.06009 0
M  V30 2518 H 235.686 1.46437 5.54283 0
M  V30 2519 H 234.083 2.25534 5.56106 0
M  V30 2520 H 235.153 2.48176 4.16577 0
M  V30 2521 N 236.496 -1.42363 0.676048 0
M  V30 2522 C 237.459 -2.29199 0.00766941 0
M  V30 2523 C 238.459 -1.43389 -0.727745 0
M  V30 2524 O 239.649 -1.64764 -0.56556 0
M  V30 2525 C 236.781 -3.2591 -0.999785 0
M  V30 2526 H 237.974 -2.89794 0.771988 0
M  V30 2527 H 235.527 -1.50024 0.438468 0
M  V30 2528 H 236.262 -2.70256 -1.79255 0
M  V30 2529 H 236.047 -3.89202 -0.475829 0
M  V30 2530 H 237.537 -3.91028 -1.46583 0
M  V30 2531 N 237.974 -0.419461 -1.51915 0
M  V30 2532 C 238.907 0.445751 -2.23804 0
M  V30 2533 C 239.885 1.03951 -1.25031 0
M  V30 2534 O 241.069 1.08541 -1.54114 0
M  V30 2535 C 238.196 1.61964 -2.97465 0
M  V30 2536 C 237.242 1.14828 -4.10751 0
M  V30 2537 S 238.075 0.104938 -5.35397 0
M  V30 2538 C 239.231 1.28391 -6.1259 0
M  V30 2539 H 239.464 -0.164627 -2.96844 0
M  V30 2540 H 236.997 -0.203833 -1.53049 0
M  V30 2541 H 238.955 2.29271 -3.40507 0
M  V30 2542 H 237.616 2.20139 -2.24048 0
M  V30 2543 H 236.809 2.02561 -4.61503 0
M  V30 2544 H 236.411 0.553712 -3.69878 0
M  V30 2545 H 238.703 2.20563 -6.40592 0
M  V30 2546 H 239.646 0.816724 -7.03374 0
M  V30 2547 H 240.054 1.51439 -5.43807 0
M  V30 2548 N 239.452 1.56882 -0.150215 0
M  V30 2549 C 240.863 1.82995 0.370076 0
M  V30 2550 C 241.214 1.06907 1.64515 0
M  V30 2551 O 240.339 0.315369 2.1409 0
M  V30 2552 C 240.934 3.31942 0.678208 0
M  V30 2553 C 239.493 3.58625 1.14301 0
M  V30 2554 C 238.64 2.76792 0.167778 0
M  V30 2555 H 241.591 1.54209 -0.374858 0
M  V30 2556 H 241.612 3.48272 1.53254 0
M  V30 2557 H 241.124 3.87294 -0.249991 0
M  V30 2558 H 239.225 3.08664 2.08704 0
M  V30 2559 H 239.338 4.67073 1.06676 0
M  V30 2560 H 237.702 2.45972 0.661037 0
M  V30 2561 H 238.485 3.34916 -0.754069 0
M  V30 2562 N 240.93 -0.123565 1.57115 0
M  V30 2563 C 242.158 -0.846461 1.88793 0
M  V30 2564 C 242.573 -1.73652 0.740976 0
M  V30 2565 O 241.93 -1.80207 -0.288393 0
M  V30 2566 C 241.981 -1.6837 3.19897 0
M  V30 2567 O 241.702 -0.829477 4.30176 0
M  V30 2568 C 243.203 -2.51214 3.65248 0
M  V30 2569 H 240.423 -0.243573 0.625231 0
M  V30 2570 H 242.967 -0.109324 2.04208 0
M  V30 2571 H 241.122 -2.37364 3.06165 0
M  V30 2572 H 241.536 -1.40651 5.0529 0
M  V30 2573 H 243.01 -3.05497 4.59756 0
M  V30 2574 H 243.487 -3.28359 2.9168 0
M  V30 2575 H 244.093 -1.8747 3.81752 0
M  V30 2576 N 242.408 -1.52605 -0.393616 0
M  V30 2577 C 243.338 -1.80022 -1.48709 0
M  V30 2578 C 244.319 -0.651995 -1.57108 0
M  V30 2579 O 245.504 -0.89913 -1.72132 0
M  V30 2580 C 242.634 -1.96492 -2.86371 0
M  V30 2581 C 241.588 -3.12161 -2.92813 0
M  V30 2582 C 240.914 -3.13877 -4.3288 0
M  V30 2583 C 242.214 -4.51322 -2.6288 0
M  V30 2584 H 243.908 -2.71589 -1.26015 0
M  V30 2585 H 241.454 -1.30684 -0.604778 0
M  V30 2586 H 243.407 -2.14255 -3.62867 0
M  V30 2587 H 242.131 -1.01611 -3.10391 0
M  V30 2588 H 240.79 -2.94173 -2.18764 0
M  V30 2589 H 240.438 -2.16687 -4.53933 0
M  V30 2590 H 240.138 -3.91576 -4.38112 0
M  V30 2591 H 241.662 -3.33789 -5.1129 0
M  V30 2592 H 243.076 -4.69435 -3.29096 0
M  V30 2593 H 241.473 -5.31053 -2.79468 0
M  V30 2594 H 242.543 -4.58353 -1.58242 0
M  V30 2595 N 243.887 0.651787 -1.4349 0
M  V30 2596 C 245.112 1.44434 -1.48841 0
M  V30 2597 C 245.537 1.8779 -0.107955 0
M  V30 2598 O 244.895 1.57464 0.898602 0
M  V30 2599 C 244.943 2.65458 -2.44059 0
M  V30 2600 O 244.047 3.64566 -1.92784 0
M  V30 2601 H 243.388 0.433005 -0.503391 0
M  V30 2602 H 245.918 0.797451 -1.88419 0
M  V30 2603 H 245.928 3.13255 -2.6141 0
M  V30 2604 H 244.603 2.33244 -3.4434 0
M  V30 2605 H 243.18 3.23716 -1.851 0
M  V30 2606 N 245.365 1.30045 0.890287 0
M  V30 2607 C 246.612 1.18561 1.64163 0
M  V30 2608 C 246.94 -0.260852 1.92743 0
M  V30 2609 O 246.195 -1.20376 1.54299 0
M  V30 2610 C 246.494 1.95409 2.99249 0
M  V30 2611 C 246.16 3.45066 2.90242 0
M  V30 2612 C 244.822 3.85878 2.87492 0
M  V30 2613 C 247.174 4.4039 2.78758 0
M  V30 2614 C 244.502 5.20314 2.7109 0
M  V30 2615 C 246.854 5.74928 2.63894 0
M  V30 2616 C 245.518 6.14986 2.59516 0
M  V30 2617 H 244.788 0.433846 0.600715 0
M  V30 2618 H 247.435 1.61088 1.03552 0
M  V30 2619 H 245.74 1.45501 3.63781 0
M  V30 2620 H 247.437 1.8392 3.56334 0
M  V30 2621 H 244.027 3.12631 2.93189 0
M  V30 2622 H 248.211 4.09806 2.79952 0
M  V30 2623 H 243.467 5.50449 2.66112 0
M  V30 2624 H 247.641 6.48434 2.53981 0
M  V30 2625 H 245.268 7.19104 2.46565 0
M  V30 2626 N 246.843 -1.10192 1.12674 0
M  V30 2627 C 248.068 -1.86523 0.906853 0
M  V30 2628 C 248.493 -1.80221 -0.538711 0
M  V30 2629 O 247.851 -1.17396 -1.38158 0
M  V30 2630 C 247.899 -3.32758 1.3894 0
M  V30 2631 O 247.003 -4.08449 0.5695 0
M  V30 2632 H 246.344 -0.578678 0.325619 0
M  V30 2633 H 248.874 -1.39203 1.49946 0
M  V30 2634 H 248.884 -3.83608 1.38958 0
M  V30 2635 H 247.559 -3.36661 2.44197 0
M  V30 2636 H 246.136 -3.67427 0.636528 0
M  V30 2637 N 248.321 -0.919034 -1.28029 0
M  V30 2638 C 249.271 -0.382574 -2.24767 0
M  V30 2639 C 250.255 0.508286 -1.52661 0
M  V30 2640 O 251.447 0.347145 -1.73562 0
M  V30 2641 C 248.576 0.371432 -3.41285 0
M  V30 2642 C 247.662 -0.535449 -4.20706 0
M  V30 2643 N 248.053 -1.65141 -4.78082 0
M  V30 2644 C 246.351 -0.336824 -4.44726 0
M  V30 2645 C 247.052 -2.21475 -5.37888 0
M  V30 2646 N 246.028 -1.50537 -5.22341 0
M  V30 2647 H 249.83 -1.23477 -2.66703 0
M  V30 2648 H 247.344 -0.772299 -1.42861 0
M  V30 2649 H 249.341 0.772638 -4.09678 0
M  V30 2650 H 248.001 1.22066 -3.00882 0
M  V30 2651 H 249.012 -2.03392 -4.7629 0
M  V30 2652 H 245.689 0.47246 -4.14818 0
M  V30 2653 H 247.079 -3.15379 -5.93284 0
M  V30 2654 N 249.799 1.42003 -0.683588 0
M  V30 2655 C 250.729 2.33487 -0.024866 0
M  V30 2656 C 251.71 1.51163 0.779975 0
M  V30 2657 O 252.895 1.79739 0.735362 0
M  V30 2658 C 250.025 3.3487 0.920836 0
M  V30 2659 C 248.979 4.27414 0.223958 0
M  V30 2660 C 248.305 5.19074 1.2832 0
M  V30 2661 C 249.605 5.14445 -0.90242 0
M  V30 2662 H 251.299 2.88819 -0.788921 0
M  V30 2663 H 248.845 1.38873 -0.38083 0
M  V30 2664 H 250.798 3.97787 1.39081 0
M  V30 2665 H 249.522 2.77861 1.71642 0
M  V30 2666 H 248.181 3.65904 -0.225864 0
M  V30 2667 H 247.829 4.58387 2.071 0
M  V30 2668 H 247.529 5.81822 0.821995 0
M  V30 2669 H 249.053 5.84867 1.75392 0
M  V30 2670 H 250.467 5.70998 -0.513272 0
M  V30 2671 H 248.864 5.86072 -1.28997 0
M  V30 2672 H 249.934 4.52322 -1.74737 0
M  V30 2673 N 251.277 0.427512 1.51691 0
M  V30 2674 C 252.224 -0.388867 2.275 0
M  V30 2675 C 253.194 -1.02532 1.30677 0
M  V30 2676 O 254.379 -1.0461 1.59566 0
M  V30 2677 C 251.519 -1.48954 3.11298 0
M  V30 2678 C 250.632 -0.872194 4.23104 0
M  V30 2679 C 249.767 -1.94709 4.94228 0
M  V30 2680 C 248.806 -1.30766 5.97969 0
M  V30 2681 N 247.943 -2.32349 6.62539 0
M  V30 2682 H 252.783 0.263997 2.96828 0
M  V30 2683 H 250.32 0.142033 1.46413 0
M  V30 2684 H 252.278 -2.13887 3.58201 0
M  V30 2685 H 250.908 -2.11217 2.44105 0
M  V30 2686 H 249.96 -0.111419 3.80237 0
M  V30 2687 H 251.272 -0.365264 4.97461 0
M  V30 2688 H 250.426 -2.67327 5.44629 0
M  V30 2689 H 249.165 -2.48773 4.1948 0
M  V30 2690 H 248.17 -0.566902 5.4687 0
M  V30 2691 H 249.395 -0.774483 6.74669 0
M  V30 2692 H 247.341 -2.85511 5.90609 0
M  V30 2693 H 247.258 -1.8652 7.3263 0
M  V30 2694 H 248.526 -3.04481 7.17574 0
M  V30 2695 N 252.755 -1.56801 0.158532 0
M  V30 2696 C 254.171 -1.5837 -0.197774 0
M  V30 2697 C 254.371 -1.17334 -1.63814 0
M  V30 2698 O 253.427 -0.878988 -2.36707 0
M  V30 2699 C 254.74 -3.00615 0.0714459 0
M  V30 2700 C 256.288 -3.12999 0.00864533 0
M  V30 2701 C 256.763 -4.57313 0.250685 0
M  V30 2702 N 258.254 -4.62777 0.198014 0
M  V30 2703 C 258.989 -5.72271 0.359642 0
M  V30 2704 N 258.485 -6.90371 0.579625 0
M  V30 2705 N 260.278 -5.61318 0.296438 0
M  V30 2706 H 252.429 -1.81765 1.09887 0
M  V30 2707 H 254.692 -0.841849 0.435884 0
M  V30 2708 H 254.398 -3.35068 1.06874 0
M  V30 2709 H 254.272 -3.71683 -0.642757 0
M  V30 2710 H 256.659 -2.7838 -0.979217 0
M  V30 2711 H 256.74 -2.44393 0.755359 0
M  V30 2712 H 256.384 -4.92639 1.2357 0
M  V30 2713 H 256.314 -5.24061 -0.516489 0
M  V30 2714 H 258.805 -3.77885 0.0331115 0
M  V30 2715 H 259.118 -7.69689 0.69275 0
M  V30 2716 H 257.463 -6.92264 0.616087 0
M  V30 2717 H 260.654 -4.67932 0.125258 0
M  V30 2718 H 260.827 -6.46599 0.425831 0
M  V30 2719 N 254.233 0.115231 -1.57178 0
M  V30 2720 C 255.644 0.67197 -1.74188 0
M  V30 2721 C 255.995 1.80125 -0.777777 0
M  V30 2722 O 255.12 2.16346 0.0484376 0
M  V30 2723 C 255.715 1.22573 -3.1585 0
M  V30 2724 C 254.274 1.72872 -3.34353 0
M  V30 2725 C 253.421 0.629972 -2.70049 0
M  V30 2726 H 256.372 -0.110712 -1.58313 0
M  V30 2727 H 256.393 2.09535 -3.17609 0
M  V30 2728 H 255.905 0.403598 -3.85996 0
M  V30 2729 H 254.006 2.5755 -2.69256 0
M  V30 2730 H 254.119 1.83557 -4.42542 0
M  V30 2731 H 252.483 1.0645 -2.31388 0
M  V30 2732 H 253.266 -0.181241 -3.42821 0
M  V30 2733 N 255.711 1.52812 0.385517 0
M  V30 2734 C 256.643 1.74096 1.49074 0
M  V30 2735 C 257.656 0.621462 1.50472 0
M  V30 2736 O 258.845 0.897245 1.54311 0
M  V30 2737 C 255.945 1.78774 2.87911 0
M  V30 2738 C 255.118 3.08134 3.10439 0
M  V30 2739 C 254.177 3.04313 4.29278 0
M  V30 2740 O 253.203 3.78168 4.25415 0
M  V30 2741 N 254.405 2.23741 5.35649 0
M  V30 2742 H 257.17 2.69455 1.31202 0
M  V30 2743 H 254.731 1.51343 0.575065 0
M  V30 2744 H 256.723 1.73721 3.65518 0
M  V30 2745 H 255.293 0.907869 2.99126 0
M  V30 2746 H 254.513 3.26649 2.20667 0
M  V30 2747 H 255.801 3.93662 3.22347 0
M  V30 2748 H 255.199 1.63211 5.41645 0
M  V30 2749 H 253.756 2.24524 6.11909 0
M  V30 2750 N 257.189 -0.644168 1.43834 0
M  V30 2751 C 258.121 -1.76955 1.45669 0
M  V30 2752 C 259.134 -1.58956 0.351666 0
M  V30 2753 O 260.323 -1.6751 0.616644 0
M  V30 2754 C 257.423 -3.14507 1.26248 0
M  V30 2755 C 256.596 -3.59083 2.49757 0
M  V30 2756 C 255.655 -4.75467 2.25427 0
M  V30 2757 O 254.681 -4.84444 2.98836 0
M  V30 2758 N 255.883 -5.66289 1.27661 0
M  V30 2759 H 258.648 -1.75856 2.42682 0
M  V30 2760 H 256.209 -0.828312 1.39106 0
M  V30 2761 H 258.201 -3.90067 1.0784 0
M  V30 2762 H 256.771 -3.10325 0.376478 0
M  V30 2763 H 255.991 -2.7387 2.8353 0
M  V30 2764 H 257.279 -3.85613 3.31934 0
M  V30 2765 H 256.677 -5.61718 0.670064 0
M  V30 2766 H 255.234 -6.41533 1.15234 0
M  V30 2767 N 258.668 -1.30515 -0.883378 0
M  V30 2768 C 259.916 -1.19194 -1.63209 0
M  V30 2769 C 260.237 0.253205 -1.93349 0
M  V30 2770 O 259.507 1.17025 -1.57105 0
M  V30 2771 H 258.087 -0.438148 -0.605009 0
M  V30 2772 H 260.749 -1.63663 -1.05832 0
M  V30 2773 H 259.845 -1.75396 -2.58153 0
M  V30 2774 N 260.146 1.09593 -1.13257 0
M  V30 2775 C 261.109 2.14359 -0.811358 0
M  V30 2776 C 262.109 1.59808 0.178377 0
M  V30 2777 O 263.299 1.74132 -0.0484911 0
M  V30 2778 C 260.431 3.40269 -0.207276 0
M  V30 2779 H 261.624 2.44284 -1.73969 0
M  V30 2780 H 259.177 1.25102 -0.936973 0
M  V30 2781 H 259.912 3.15969 0.73036 0
M  V30 2782 H 259.697 3.81154 -0.919992 0
M  V30 2783 H 261.187 4.176 0.000667944 0
M  V30 2784 N 261.624 0.925811 1.2754 0
M  V30 2785 C 262.872 0.564138 1.94067 0
M  V30 2786 C 263.193 -0.897188 1.73134 0
M  V30 2787 O 262.463 -1.63573 1.07799 0
M  V30 2788 H 261.043 0.205645 0.718136 0
M  V30 2789 H 263.705 1.1778 1.55287 0
M  V30 2790 H 262.801 0.76881 3.02483 0
M  V30 2791 N 263.102 -1.41638 0.69111 0
M  V30 2792 C 264.05 -2.32597 0.0115199 0
M  V30 2793 C 265.044 -1.5072 -0.773296 0
M  V30 2794 O 266.25 -1.66685 -0.67942 0
M  V30 2795 H 262.625 -0.751849 -0.0150746 0
M  V30 2796 H 264.596 -2.87593 0.795791 0
M  V30 2797 C 263.345 -3.35467 -0.914172 0
M  V30 2798 H 262.668 -3.9852 -0.319687 0
M  V30 2799 H 264.108 -4.01662 -1.35808 0
M  V30 2800 C 262.567 -2.69004 -2.02826 0
M  V30 2801 O 263.097 -2.53444 -3.11655 0
M  V30 2802 N 261.303 -2.2777 -1.80469 0
M  V30 2803 H 260.85 -2.40626 -0.919615 0
M  V30 2804 H 260.808 -1.83635 -2.55197 0
M  V30 2805 N 264.58 -0.43555 -1.51462 0
M  V30 2806 C 265.82 0.130708 -2.03982 0
M  V30 2807 C 266.184 1.40117 -1.31268 0
M  V30 2808 O 267.385 2.04755 -1.74152 0
M  V30 2809 C 265.656 0.346102 -3.5572 0
M  V30 2810 S 267.215 0.876022 -4.29967 0
M  V30 2811 H 264.033 0.0326881 -0.710248 0
M  V30 2812 H 266.635 -0.594544 -1.8624 0
M  V30 2813 H 265.339 -0.584911 -4.0621 0
M  V30 2814 H 264.87 1.09849 -3.77752 0
M  V30 2815 H 266.885 2.15379 -4.47019 0
M  V30 2816 N 266.058 1.56714 -0.166846 0
M  V30 2817 C 267.283 2.01557 0.488833 0
M  V30 2818 C 267.708 1.0463 1.56314 0
M  V30 2819 O 267.066 0.0251304 1.81283 0
M  V30 2820 C 267.114 3.4503 1.04818 0
M  V30 2821 O 266.218 3.51163 2.16236 0
M  V30 2822 H 265.559 0.653516 0.117526 0
M  V30 2823 H 268.089 2.02818 -0.269421 0
M  V30 2824 H 268.099 3.84243 1.37191 0
M  V30 2825 H 266.774 4.15077 0.261572 0
M  V30 2826 H 265.351 3.23807 1.84942 0
M  V30 2827 N 267.536 -0.106894 1.57237 0
M  V30 2828 C 268.782 -0.81373 1.85759 0
M  V30 2829 C 269.115 -1.78952 0.754315 0
M  V30 2830 O 268.39 -1.93029 -0.23879 0
M  V30 2831 C 268.673 -1.55293 3.24894 0
M  V30 2832 C 268.526 -0.595929 4.45835 0
M  V30 2833 C 269.845 -2.5063 3.61763 0
M  V30 2834 H 266.964 -0.294369 0.67566 0
M  V30 2835 H 269.606 -0.0776472 1.89841 0
M  V30 2836 H 267.756 -2.1804 3.21544 0
M  V30 2837 H 269.428 0.0236262 4.61294 0
M  V30 2838 H 267.671 0.0916191 4.33703 0
M  V30 2839 H 268.342 -1.15004 5.39887 0
M  V30 2840 H 270.818 -1.97982 3.65981 0
M  V30 2841 H 269.694 -2.99376 4.60071 0
M  V30 2842 H 269.955 -3.3385 2.89821 0
M  V30 2843 N 269.014 -1.53014 -0.377408 0
M  V30 2844 C 269.977 -1.77957 -1.44444 0
M  V30 2845 C 270.977 -0.649763 -1.47087 0
M  V30 2846 O 272.167 -0.917897 -1.48055 0
M  V30 2847 C 269.299 -1.89089 -2.83651 0
M  V30 2848 H 270.492 -2.73243 -1.23606 0
M  V30 2849 H 268.045 -1.43912 -0.609844 0
M  V30 2850 H 268.78 -0.958293 -3.09818 0
M  V30 2851 H 268.565 -2.71254 -2.83132 0
M  V30 2852 H 270.055 -2.1002 -3.60945 0
M  V30 2853 N 270.492 0.636531 -1.44174 0
M  V30 2854 C 271.908 0.954104 -1.27941 0
M  V30 2855 C 272.108 2.0039 -0.211248 0
M  V30 2856 O 271.164 2.49236 0.404695 0
M  V30 2857 C 272.477 1.4225 -2.64925 0
M  V30 2858 C 274.025 1.53827 -2.72592 0
M  V30 2859 C 274.5 2.04053 -4.10032 0
M  V30 2860 N 275.991 2.11331 -4.12182 0
M  V30 2861 C 276.726 2.51352 -5.15374 0
M  V30 2862 N 276.222 2.90549 -6.2893 0
M  V30 2863 N 278.015 2.51438 -5.02728 0
M  V30 2864 H 270.166 -0.0578386 -2.12321 0
M  V30 2865 H 272.429 0.0367406 -0.947288 0
M  V30 2866 H 272.135 0.725466 -3.44136 0
M  V30 2867 H 272.009 2.39451 -2.9145 0
M  V30 2868 H 274.396 2.22628 -1.93702 0
M  V30 2869 H 274.477 0.550154 -2.49814 0
M  V30 2870 H 274.121 1.35848 -4.89395 0
M  V30 2871 H 274.051 3.03726 -4.30184 0
M  V30 2872 H 276.542 1.83745 -3.30222 0
M  V30 2873 H 276.855 3.19884 -7.03487 0
M  V30 2874 H 275.2 2.88313 -6.32377 0
M  V30 2875 H 278.391 2.20203 -4.13072 0
M  V30 2876 H 278.564 2.82304 -5.83274 0
M  V30 2877 N 271.97 1.30982 0.876444 0
M  V30 2878 C 273.381 1.18277 1.44456 0
M  V30 2879 C 273.732 -0.213265 1.95037 0
M  V30 2880 O 272.857 -1.11057 1.85729 0
M  V30 2881 C 273.452 2.1411 2.62569 0
M  V30 2882 C 272.011 2.05358 3.15444 0
M  V30 2883 C 271.158 2.03706 1.88146 0
M  V30 2884 H 274.109 1.43127 0.685584 0
M  V30 2885 H 274.13 1.72692 3.39054 0
M  V30 2886 H 273.642 3.15706 2.25724 0
M  V30 2887 H 271.743 1.06934 3.56926 0
M  V30 2888 H 271.856 2.94156 3.78166 0
M  V30 2889 H 270.22 1.48629 2.06837 0
M  V30 2890 H 271.003 3.07047 1.53547 0
M  V30 2891 N 273.449 -1.08991 1.13837 0
M  V30 2892 C 274.359 -2.19301 0.833333 0
M  V30 2893 C 275.375 -1.73026 -0.183847 0
M  V30 2894 O 276.551 -2.01395 -0.0138092 0
M  V30 2895 C 273.616 -3.45323 0.308651 0
M  V30 2896 C 272.677 -4.06255 1.38764 0
M  V30 2897 C 271.91 -5.26262 0.887896 0
M  V30 2898 O 272.133 -5.69747 -0.27287 0
M  V30 2899 O 271.067 -5.78435 1.66421 0
M  V30 2900 H 274.893 -2.47854 1.75506 0
M  V30 2901 H 272.478 -1.18012 0.916166 0
M  V30 2902 H 274.36 -4.21394 0.0216739 0
M  V30 2903 H 273.035 -3.18362 -0.585431 0
M  V30 2904 H 271.942 -3.318 1.72799 0
M  V30 2905 H 273.275 -4.37452 2.25602 0
M  V30 2906 N 274.927 -0.932562 -1.27047 0
M  V30 2907 C 275.89 -0.440064 -2.24936 0
M  V30 2908 C 276.89 0.444071 -1.54547 0
M  V30 2909 O 278.08 0.244465 -1.72476 0
M  V30 2910 C 275.212 0.36678 -3.38921 0
M  V30 2911 H 276.405 -1.305 -2.70018 0
M  V30 2912 H 273.958 -0.713707 -1.39054 0
M  V30 2913 H 274.693 1.25033 -2.99228 0
M  V30 2914 H 274.478 -0.267204 -3.91188 0
M  V30 2915 H 275.968 0.701567 -4.11665 0
M  V30 2916 N 276.405 1.4127 -0.698611 0
M  V30 2917 C 277.645 2.03044 -0.235062 0
M  V30 2918 C 278.009 1.54146 1.14468 0
M  V30 2919 O 279.21 2.07867 1.70425 0
M  V30 2920 C 277.481 3.56192 -0.293651 0
M  V30 2921 S 279.04 4.38696 0.0954053 0
M  V30 2922 H 275.858 0.704697 -0.0944648 0
M  V30 2923 H 278.46 1.72656 -0.917064 0
M  V30 2924 H 277.164 3.89274 -1.29977 0
M  V30 2925 H 276.695 3.91285 0.407397 0
M  V30 2926 H 278.71 4.78257 1.3223 0
M  V30 2927 N 277.883 0.443576 1.51229 0
M  V30 2928 C 279.132 -0.122332 2.01329 0
M  V30 2929 C 279.445 -1.43237 1.33201 0
M  V30 2930 O 280.651 -2.0816 1.74304 0
M  V30 2931 C 279.107 -0.268551 3.58897 0
M  V30 2932 C 278.715 1.03142 4.35965 0
M  V30 2933 C 280.459 -0.787894 4.17124 0
M  V30 2934 C 278.366 0.850504 5.85252 0
M  V30 2935 H 277.296 -0.0494929 0.752374 0
M  V30 2936 H 279.947 0.574289 1.74282 0
M  V30 2937 H 278.329 -1.02832 3.82415 0
M  V30 2938 H 279.503 1.80001 4.24189 0
M  V30 2939 H 277.818 1.47977 3.89219 0
M  V30 2940 H 280.415 -0.939841 5.26375 0
M  V30 2941 H 280.758 -1.77201 3.76703 0
M  V30 2942 H 281.291 -0.0862669 3.97706 0
M  V30 2943 H 278.03 1.80718 6.30096 0
M  V30 2944 H 277.55 0.121825 5.99676 0
M  V30 2945 H 279.229 0.506163 6.45017 0
M  V30 2946 N 279.361 -1.56624 0.175154 0
M  V30 2947 C 280.308 -2.18149 -0.753634 0
M  V30 2948 C 281.278 -1.12265 -1.22417 0
M  V30 2949 O 282.463 -1.40432 -1.29165 0
M  V30 2950 C 279.603 -2.82933 -1.97592 0
M  V30 2951 C 278.716 -4.03289 -1.5486 0
M  V30 2952 C 277.851 -4.55988 -2.72485 0
M  V30 2953 C 276.89 -5.68746 -2.26262 0
M  V30 2954 N 276.027 -6.15938 -3.36994 0
M  V30 2955 H 280.867 -2.9717 -0.222195 0
M  V30 2956 H 278.404 -1.46774 -0.0979422 0
M  V30 2957 H 280.362 -3.18653 -2.69288 0
M  V30 2958 H 278.992 -2.06509 -2.481 0
M  V30 2959 H 278.044 -3.73364 -0.728246 0
M  V30 2960 H 279.356 -4.849 -1.16933 0
M  V30 2961 H 278.51 -4.9391 -3.52332 0
M  V30 2962 H 277.249 -3.73443 -3.13674 0
M  V30 2963 H 276.254 -5.30372 -1.44863 0
M  V30 2964 H 277.479 -6.53095 -1.86127 0
M  V30 2965 H 275.425 -5.36321 -3.77751 0
M  V30 2966 H 275.342 -6.92548 -3.03172 0
M  V30 2967 H 276.61 -6.58511 -4.17114 0
M  V30 2968 N 280.839 0.0985539 -1.57292 0
M  V30 2969 C 282.079 0.808332 -1.87737 0
M  V30 2970 C 282.443 1.7607 -0.76572 0
M  V30 2971 O 283.644 2.51358 -0.952499 0
M  V30 2972 C 281.915 1.52093 -3.23423 0
M  V30 2973 S 283.474 2.26947 -3.75554 0
M  V30 2974 H 280.292 0.269377 -0.657995 0
M  V30 2975 H 282.894 0.0656269 -1.9539 0
M  V30 2976 H 281.598 0.81363 -4.02254 0
M  V30 2977 H 281.129 2.30361 -3.189 0
M  V30 2978 H 283.144 3.53027 -3.48692 0
M  V30 2979 N 282.317 1.53212 0.369288 0
M  V30 2980 C 283.247 1.82365 1.45826 0
M  V30 2981 C 284.228 0.676907 1.56051 0
M  V30 2982 O 285.413 0.926401 1.70679 0
M  V30 2983 C 282.543 2.01023 2.83208 0
M  V30 2984 C 281.497 3.1678 2.8781 0
M  V30 2985 C 280.823 3.20724 4.27832 0
M  V30 2986 C 282.123 4.55447 2.55667 0
M  V30 2987 H 283.817 2.73559 1.21678 0
M  V30 2988 H 281.363 1.3163 0.583911 0
M  V30 2989 H 283.316 2.20001 3.59413 0
M  V30 2990 H 282.04 1.06536 3.08736 0
M  V30 2991 H 280.699 2.97616 2.14056 0
M  V30 2992 H 280.347 2.23882 4.50429 0
M  V30 2993 H 280.047 3.98496 4.31827 0
M  V30 2994 H 281.571 3.41881 5.05915 0
M  V30 2995 H 282.985 4.74611 3.21586 0
M  V30 2996 H 281.382 5.35432 2.70984 0
M  V30 2997 H 282.452 4.60812 1.5093 0
M  V30 2998 N 283.795 -0.628877 1.44509 0
M  V30 2999 C 285.043 -1.38565 1.4712 0
M  V30 3000 C 285.364 -1.94712 0.105899 0
M  V30 3001 O 284.634 -1.75912 -0.862079 0
M  V30 3002 H 283.214 -0.514333 0.541729 0
M  V30 3003 H 285.876 -0.740018 1.80305 0
M  V30 3004 H 284.972 -2.21583 2.19789 0
M  V30 3005 N 285.273 -1.31445 -0.869486 0
M  V30 3006 C 286.501 -1.24122 -1.65534 0
M  V30 3007 C 286.916 0.193387 -1.87807 0
M  V30 3008 O 286.273 1.12557 -1.43656 0
M  V30 3009 C 286.324 -1.98229 -3.02304 0
M  V30 3010 O 286.045 -3.3609 -2.81026 0
M  V30 3011 C 287.546 -1.97751 -3.96749 0
M  V30 3012 H 284.766 -0.428868 -0.516055 0
M  V30 3013 H 287.31 -1.73328 -1.08525 0
M  V30 3014 H 285.465 -1.52782 -3.56001 0
M  V30 3015 H 285.879 -3.7383 -3.67902 0
M  V30 3016 H 287.353 -2.54114 -4.90031 0
M  V30 3017 H 287.83 -0.960137 -4.28577 0
M  V30 3018 H 288.436 -2.43079 -3.48988 0
M  V30 3019 N 286.751 1.08385 -1.14413 0
M  V30 3020 C 287.714 2.13486 -0.834048 0
M  V30 3021 C 288.714 1.59988 0.161418 0
M  V30 3022 O 289.904 1.74071 -0.0669575 0
M  V30 3023 C 287.036 3.4003 -0.243354 0
M  V30 3024 H 288.229 2.42425 -1.7655 0
M  V30 3025 H 285.782 1.24101 -0.950189 0
M  V30 3026 H 286.517 3.16726 0.696807 0
M  V30 3027 H 286.302 3.80157 -0.960367 0
M  V30 3028 H 287.792 4.17577 -0.0436242 0
M  V30 3029 N 288.23 0.939286 1.26551 0
M  V30 3030 C 289.507 0.5038 1.89001 0
M  V30 3031 C 289.887 -1.01854 1.84903 0
M  V30 3032 O 289.235 -1.87773 1.30206 0
M  V30 3033 C 289.445 1.063 3.32417 0
M  V30 3034 C 290.793 1.13051 4.09273 0
M  V30 3035 O 291.817 1.01345 3.41479 0
M  V30 3036 O 290.676 1.31233 5.30509 0
M  V30 3037 H 287.77 0.163897 0.810597 0
M  V30 3038 H 290.316 1.03173 1.34735 0
M  V30 3039 H 289.088 2.10665 3.29752 0
M  V30 3040 H 288.711 0.517408 3.94219 0
M  V30 3041 N 289.708 -1.40897 0.706093 0
M  V30 3042 C 290.658 -2.27987 0.0240746 0
M  V30 3043 C 291.642 -1.42759 -0.742204 0
M  V30 3044 O 292.834 -1.65936 -0.615966 0
M  V30 3045 C 289.963 -3.31186 -0.903907 0
M  V30 3046 C 289.049 -4.2389 -0.133318 0
M  V30 3047 N 289.44 -4.98113 0.878444 0
M  V30 3048 C 287.738 -4.44485 -0.367269 0
M  V30 3049 C 288.439 -5.6604 1.34064 0
M  V30 3050 N 287.415 -5.39522 0.664565 0
M  V30 3051 H 291.217 -2.82812 0.799658 0
M  V30 3052 H 288.731 -1.53235 0.537845 0
M  V30 3053 H 290.728 -3.92413 -1.40775 0
M  V30 3054 H 289.388 -2.77922 -1.67897 0
M  V30 3055 H 290.399 -5.02364 1.25901 0
M  V30 3056 H 287.076 -4.02213 -1.1194 0
M  V30 3057 H 288.466 -6.35524 2.1808 0
M  V30 3058 N 291.186 -0.45159 -1.50991 0
M  V30 3059 C 292.434 0.109857 -2.01801 0
M  V30 3060 C 292.755 1.41958 -1.3369 0
M  V30 3061 O 292.025 1.9003 -0.475951 0
M  V30 3062 H 290.605 0.0435884 -0.745727 0
M  V30 3063 H 293.267 -0.597557 -1.85514 0
M  V30 3064 H 292.363 0.275489 -3.10882 0
M  V30 3065 N 292.664 1.56529 -0.183458 0
M  V30 3066 C 293.594 2.21549 0.737456 0
M  V30 3067 C 294.575 1.17489 1.23005 0
M  V30 3068 O 295.76 1.45959 1.281 0
M  V30 3069 C 292.89 2.86575 1.96194 0
M  V30 3070 C 291.844 3.96778 1.60473 0
M  V30 3071 C 291.17 4.48911 2.90487 0
M  V30 3072 C 292.47 5.15767 0.823497 0
M  V30 3073 H 294.164 2.98761 0.195453 0
M  V30 3074 H 291.71 1.43702 0.0925686 0
M  V30 3075 H 293.663 3.30739 2.61131 0
M  V30 3076 H 292.387 2.06749 2.52828 0
M  V30 3077 H 291.046 3.53286 0.978997 0
M  V30 3078 H 290.694 3.65862 3.45186 0
M  V30 3079 H 290.394 5.23265 2.67335 0
M  V30 3080 H 291.918 4.95771 3.56432 0
M  V30 3081 H 293.332 5.56549 1.37571 0
M  V30 3082 H 291.729 5.96114 0.690551 0
M  V30 3083 H 292.799 4.84574 -0.177782 0
M  V30 3084 N 294.142 -0.090211 1.57342 0
M  V30 3085 C 295.105 -1.09335 2.01441 0
M  V30 3086 C 296.105 -1.32666 0.908641 0
M  V30 3087 O 297.295 -1.28697 1.174 0
M  V30 3088 C 294.427 -2.44136 2.3793 0
M  V30 3089 H 295.62 -0.713662 2.91285 0
M  V30 3090 H 293.173 -0.335404 1.52659 0
M  V30 3091 H 293.908 -2.86972 1.51055 0
M  V30 3092 H 293.693 -2.28548 3.18603 0
M  V30 3093 H 295.183 -3.16277 2.72688 0
M  V30 3094 N 295.62 -1.53406 -0.361157 0
M  V30 3095 C 296.583 -1.79479 -1.42548 0
M  V30 3096 C 297.583 -0.665327 -1.4639 0
M  V30 3097 O 298.773 -0.933549 -1.47073 0
M  V30 3098 C 295.905 -1.92087 -2.8163 0
M  V30 3099 H 297.098 -2.74538 -1.20701 0
M  V30 3100 H 294.651 -1.4455 -0.594546 0
M  V30 3101 H 295.386 -0.991099 -3.08784 0
M  V30 3102 H 295.171 -2.74241 -2.80239 0
M  V30 3103 H 296.661 -2.13836 -3.58697 0
M  V30 3104 N 297.098 0.621204 -1.44841 0
M  V30 3105 C 298.328 1.40548 -1.51426 0
M  V30 3106 C 298.736 1.88673 -0.141083 0
M  V30 3107 O 298.079 1.62053 0.865128 0
M  V30 3108 C 298.141 2.65325 -2.42576 0
M  V30 3109 C 297.805 2.3893 -3.89566 0
M  V30 3110 C 298.802 2.00138 -4.79834 0
M  V30 3111 C 296.487 2.52263 -4.3436 0
M  V30 3112 C 298.481 1.75021 -6.129 0
M  V30 3113 C 296.168 2.2676 -5.67471 0
M  V30 3114 C 297.166 1.88199 -6.56559 0
M  V30 3115 O 296.854 1.62986 -7.87204 0
M  V30 3116 H 296.586 0.437122 -0.515655 0
M  V30 3117 H 299.14 0.765987 -1.90583 0
M  V30 3118 H 297.37 3.31947 -1.98364 0
M  V30 3119 H 299.059 3.27347 -2.39998 0
M  V30 3120 H 299.825 1.89386 -4.46495 0
M  V30 3121 H 295.704 2.81246 -3.65269 0
M  V30 3122 H 299.248 1.44848 -6.82396 0
M  V30 3123 H 295.145 2.37125 -6.00368 0
M  V30 3124 H 295.913 1.7715 -7.991 0
M  V30 3125 N 298.576 1.31904 0.862503 0
M  V30 3126 C 299.992 1.10724 1.14945 0
M  V30 3127 C 300.192 -0.117421 2.01158 0
M  V30 3128 O 299.248 -0.804595 2.39338 0
M  V30 3129 C 300.561 2.38267 1.83437 0
M  V30 3130 C 302.109 2.43949 1.96106 0
M  V30 3131 C 302.584 3.71394 2.68013 0
M  V30 3132 N 304.075 3.72331 2.75543 0
M  V30 3133 C 304.81 4.67641 3.31812 0
M  V30 3134 N 304.306 5.73313 3.88953 0
M  V30 3135 N 306.099 4.5515 3.29841 0
M  V30 3136 H 298.25 2.10436 0.288191 0
M  V30 3137 H 300.513 0.928705 0.190292 0
M  V30 3138 H 300.219 3.27759 1.27542 0
M  V30 3139 H 300.093 2.48633 2.83657 0
M  V30 3140 H 302.48 1.54922 2.51164 0
M  V30 3141 H 302.561 2.37543 0.949059 0
M  V30 3142 H 302.205 4.60791 2.13621 0
M  V30 3143 H 302.135 3.75069 3.69636 0
M  V30 3144 H 304.626 2.95947 2.34997 0
M  V30 3145 H 304.939 6.42107 4.30022 0
M  V30 3146 H 303.284 5.77077 3.87308 0
M  V30 3147 H 306.475 3.71766 2.84443 0
M  V30 3148 H 306.648 5.29604 3.73394 0
M  V30 3149 N 300.054 -1.07777 1.14986 0
M  V30 3150 C 301.017 -2.13041 0.845358 0
M  V30 3151 C 302.017 -1.60071 -0.152931 0
M  V30 3152 O 303.207 -1.74033 0.0761879 0
M  V30 3153 C 300.339 -3.39896 0.261383 0
M  V30 3154 H 301.532 -2.41485 1.77834 0
M  V30 3155 H 299.085 -1.23595 0.956757 0
M  V30 3156 H 299.82 -3.17091 -0.68 0
M  V30 3157 H 299.605 -3.79642 0.980514 0
M  V30 3158 H 301.095 -4.17548 0.0657687 0
M  V30 3159 N 301.532 -0.945985 -1.26051 0
M  V30 3160 C 302.762 -0.612136 -1.97323 0
M  V30 3161 C 303.17 0.818171 -1.70595 0
M  V30 3162 O 302.513 1.55777 -0.973613 0
M  V30 3163 C 302.575 -0.780347 -3.50929 0
M  V30 3164 C 302.239 -2.18619 -4.01317 0
M  V30 3165 C 303.236 -3.16209 -4.12683 0
M  V30 3166 C 300.921 -2.50805 -4.35203 0
M  V30 3167 C 302.915 -4.44085 -4.57238 0
M  V30 3168 C 300.602 -3.78912 -4.79446 0
M  V30 3169 C 301.6 -4.75365 -4.90425 0
M  V30 3170 O 301.288 -6.01191 -5.3369 0
M  V30 3171 H 301.02 -0.229134 -0.635982 0
M  V30 3172 H 303.574 -1.27036 -1.61404 0
M  V30 3173 H 301.804 -0.0649864 -3.86645 0
M  V30 3174 H 303.493 -0.448842 -4.03411 0
M  V30 3175 H 304.259 -2.92668 -3.86744 0
M  V30 3176 H 300.138 -1.76463 -4.2589 0
M  V30 3177 H 303.682 -5.19373 -4.65723 0
M  V30 3178 H 299.579 -4.02265 -5.0483 0
M  V30 3179 H 300.347 -6.04442 -5.51899 0
M  V30 3180 N 303.011 1.40521 -0.713556 0
M  V30 3181 C 304.236 2.05759 -0.26035 0
M  V30 3182 C 304.661 1.53403 1.08854 0
M  V30 3183 O 304.019 0.668535 1.68524 0
M  V30 3184 C 304.067 3.59745 -0.248122 0
M  V30 3185 O 303.171 4.05123 0.77131 0
M  V30 3186 H 302.512 0.652564 -0.122703 0
M  V30 3187 H 305.042 1.79958 -0.973467 0
M  V30 3188 H 305.052 4.07911 -0.0851129 0
M  V30 3189 H 303.727 3.97218 -1.2325 0
M  V30 3190 H 302.304 3.68422 0.57619 0
M  V30 3191 N 304.489 0.459591 1.5075 0
M  V30 3192 C 305.419 -0.330644 2.31147 0
M  V30 3193 C 306.4 -1.00087 1.37538 0
M  V30 3194 O 307.585 -1.00025 1.66459 0
M  V30 3195 C 304.715 -1.41958 3.16962 0
M  V30 3196 C 303.669 -0.871608 4.19031 0
M  V30 3197 C 302.995 -2.05797 4.9351 0
M  V30 3198 C 304.295 0.109251 5.22186 0
M  V30 3199 H 305.989 0.340336 2.97459 0
M  V30 3200 H 303.535 0.165119 1.4305 0
M  V30 3201 H 305.488 -1.9798 3.71997 0
M  V30 3202 H 304.212 -2.11917 2.48513 0
M  V30 3203 H 302.871 -0.333442 3.6508 0
M  V30 3204 H 302.519 -2.74427 4.21544 0
M  V30 3205 H 302.219 -1.6976 5.62544 0
M  V30 3206 H 303.743 -2.62331 5.51375 0
M  V30 3207 H 305.157 -0.361405 5.7216 0
M  V30 3208 H 303.554 0.383316 5.98875 0
M  V30 3209 H 304.624 1.03887 4.73641 0
M  V30 3210 N 305.967 -1.56429 0.191757 0
M  V30 3211 C 307.213 -1.97777 -0.448554 0
M  V30 3212 C 307.546 -1.07847 -1.61501 0
M  V30 3213 O 306.821 -0.129774 -1.94067 0
M  V30 3214 C 307.104 -3.48362 -0.911906 0
M  V30 3215 C 306.957 -4.4907 0.256136 0
M  V30 3216 C 308.276 -4.02561 -1.77857 0
M  V30 3217 H 305.395 -0.719071 -0.161572 0
M  V30 3218 H 308.037 -1.87896 0.282007 0
M  V30 3219 H 306.187 -3.56914 -1.53442 0
M  V30 3220 H 307.859 -4.5256 0.893733 0
M  V30 3221 H 306.102 -4.24181 0.908436 0
M  V30 3222 H 306.773 -5.51889 -0.11053 0
M  V30 3223 H 309.249 -3.96767 -1.25359 0
M  V30 3224 H 308.125 -5.08301 -2.07174 0
M  V30 3225 H 308.386 -3.47616 -2.73158 0
M  V30 3226 N 307.445 0.0818655 -1.57387 0
M  V30 3227 C 308.375 1.09885 -2.06028 0
M  V30 3228 C 309.356 1.4098 -0.951774 0
M  V30 3229 O 310.541 1.50781 -1.22387 0
M  V30 3230 C 307.671 2.4151 -2.4958 0
M  V30 3231 C 306.625 2.24792 -3.64215 0
M  V30 3232 C 305.951 3.61712 -3.93787 0
M  V30 3233 C 307.251 1.67749 -4.94629 0
M  V30 3234 H 308.945 0.694128 -2.91243 0
M  V30 3235 H 306.491 0.332448 -1.4011 0
M  V30 3236 H 308.444 3.12939 -2.82219 0
M  V30 3237 H 307.168 2.83943 -1.61381 0
M  V30 3238 H 305.827 1.55807 -3.31843 0
M  V30 3239 H 305.475 4.01697 -3.02735 0
M  V30 3240 H 305.175 3.51368 -4.70971 0
M  V30 3241 H 306.699 4.34587 -4.28913 0
M  V30 3242 H 308.113 2.29032 -5.25564 0
M  V30 3243 H 306.51 1.68128 -5.76067 0
M  V30 3244 H 307.58 0.638059 -4.80684 0
M  V30 3245 N 308.923 1.53595 0.353017 0
M  V30 3246 C 309.886 1.80232 1.41594 0
M  V30 3247 C 310.886 0.673081 1.46035 0
M  V30 3248 O 312.076 0.941335 1.46576 0
M  V30 3249 C 309.208 1.93578 2.80607 0
M  V30 3250 H 310.401 2.75174 1.19244 0
M  V30 3251 H 307.954 1.44864 0.586872 0
M  V30 3252 H 308.689 1.00746 3.08254 0
M  V30 3253 H 308.474 2.75724 2.78781 0
M  V30 3254 H 309.964 2.15735 3.57558 0
M  V30 3255 N 310.401 -0.613514 1.45168 0
M  V30 3256 C 311.649 -1.36997 1.48581 0
M  V30 3257 C 311.97 -1.94589 0.126545 0
M  V30 3258 O 311.24 -1.76816 -0.843372 0
M  V30 3259 H 309.82 -0.508558 0.547154 0
M  V30 3260 H 312.482 -0.720853 1.81079 0
M  V30 3261 H 311.578 -2.1924 2.22127 0
M  V30 3262 N 311.879 -1.3236 -0.855495 0
M  V30 3263 C 312.809 -1.23833 -1.97958 0
M  V30 3264 C 313.79 -0.122361 -1.69659 0
M  V30 3265 O 314.975 -0.30939 -1.9172 0
M  V30 3266 C 312.105 -0.959772 -3.33775 0
M  V30 3267 C 311.059 -2.03689 -3.76424 0
M  V30 3268 C 310.385 -1.61075 -5.09862 0
M  V30 3269 C 311.685 -3.4518 -3.9198 0
M  V30 3270 H 313.379 -2.1788 -2.0535 0
M  V30 3271 H 310.925 -1.04891 -0.986605 0
M  V30 3272 H 312.878 -0.886678 -4.11966 0
M  V30 3273 H 311.602 0.0163404 -3.26596 0
M  V30 3274 H 310.261 -2.10012 -3.00484 0
M  V30 3275 H 309.909 -0.622107 -4.99138 0
M  V30 3276 H 309.609 -2.33143 -5.39368 0
M  V30 3277 H 311.133 -1.55201 -5.90546 0
M  V30 3278 H 312.547 -3.4145 -4.60526 0
M  V30 3279 H 310.944 -4.1559 -4.32903 0
M  V30 3280 H 312.014 -3.84903 -2.94919 0
M  V30 3281 N 313.357 1.07166 -1.15556 0
M  V30 3282 C 314.605 1.79443 -0.929764 0
M  V30 3283 C 314.926 1.87246 0.544414 0
M  V30 3284 O 314.196 1.37473 1.39564 0
M  V30 3285 H 312.776 0.664625 -0.341003 0
M  V30 3286 H 315.438 1.29499 -1.45657 0
M  V30 3287 H 314.534 2.81832 -1.34079 0
M  V30 3288 N 314.835 0.952656 1.25548 0
M  V30 3289 C 316.075 0.614013 1.9496 0
M  V30 3290 C 316.439 -0.833215 1.72978 0
M  V30 3291 O 317.64 -1.28135 2.36294 0
M  V30 3292 C 315.911 0.960562 3.4425 0
M  V30 3293 S 317.47 0.734195 4.32614 0
M  V30 3294 H 314.288 0.225754 0.674208 0
M  V30 3295 H 316.89 1.22641 1.52248 0
M  V30 3296 H 315.594 2.01103 3.57751 0
M  V30 3297 H 315.125 0.338336 3.91942 0
M  V30 3298 H 317.14 -0.395995 4.94617 0
M  V30 3299 N 316.313 -1.40141 0.720998 0
M  V30 3300 C 317.561 -2.0039 0.262323 0
M  V30 3301 C 317.882 -1.57469 -1.15015 0
M  V30 3302 O 317.152 -0.816582 -1.78069 0
M  V30 3303 H 315.732 -0.741063 0.093996 0
M  V30 3304 H 318.394 -1.71398 0.927835 0
M  V30 3305 H 317.49 -3.10658 0.299671 0
M  V30 3306 N 317.792 -0.46758 -1.50504 0
M  V30 3307 C 318.722 0.318381 -2.31319 0
M  V30 3308 C 319.703 0.993564 -1.38066 0
M  V30 3309 O 320.888 0.991411 -1.66987 0
M  V30 3310 C 318.018 1.40275 -3.17711 0
M  V30 3311 C 316.972 0.849373 -4.19487 0
M  V30 3312 C 316.298 2.03177 -4.94594 0
M  V30 3313 C 317.598 -0.136942 -5.2212 0
M  V30 3314 H 319.292 -0.356106 -2.97275 0
M  V30 3315 H 316.838 -0.172703 -1.42961 0
M  V30 3316 H 318.791 1.96004 -3.73042 0
M  V30 3317 H 317.515 2.10596 -2.49634 0
M  V30 3318 H 316.174 0.314076 -3.65252 0
M  V30 3319 H 315.822 2.72187 -4.22993 0
M  V30 3320 H 315.522 1.66774 -5.63436 0
M  V30 3321 H 317.046 2.59403 -5.52759 0
M  V30 3322 H 318.46 0.331056 -5.72343 0
M  V30 3323 H 316.857 -0.41507 -5.98663 0
M  V30 3324 H 317.927 -1.06398 -4.73083 0
M  V30 3325 N 319.27 1.56325 -0.20005 0
M  V30 3326 C 320.681 1.8408 0.31167 0
M  V30 3327 C 321.032 1.12087 1.61031 0
M  V30 3328 O 320.157 0.38332 2.12978 0
M  V30 3329 C 320.752 3.33932 0.57226 0
M  V30 3330 C 319.311 3.6208 1.02834 0
M  V30 3331 C 318.458 2.77186 0.079634 0
M  V30 3332 H 321.409 1.52939 -0.423729 0
M  V30 3333 H 321.43 3.52971 1.42096 0
M  V30 3334 H 320.942 3.86303 -0.37308 0
M  V30 3335 H 319.043 3.15147 1.98778 0
M  V30 3336 H 319.156 4.7023 0.917624 0
M  V30 3337 H 317.52 2.47951 0.582448 0
M  V30 3338 H 318.303 3.32347 -0.860238 0
M  V30 3339 N 320.748 -0.0735177 1.57428 0
M  V30 3340 C 321.678 -1.0879 2.06608 0
M  V30 3341 C 322.659 -1.40473 0.959237 0
M  V30 3342 O 323.844 -1.5013 1.23185 0
M  V30 3343 C 320.974 -2.40183 2.50857 0
M  V30 3344 C 319.928 -2.22858 3.65402 0
M  V30 3345 C 319.254 -3.59619 3.957 0
M  V30 3346 C 320.554 -1.65123 4.95511 0
M  V30 3347 H 322.248 -0.678673 2.91607 0
M  V30 3348 H 319.794 -0.325013 1.40284 0
M  V30 3349 H 321.747 -3.11437 2.83874 0
M  V30 3350 H 320.471 -2.83083 1.62885 0
M  V30 3351 H 319.13 -1.54045 3.32664 0
M  V30 3352 H 318.778 -4.00086 3.04861 0
M  V30 3353 H 318.478 -3.48866 4.72828 0
M  V30 3354 H 320.002 -4.32306 4.31212 0
M  V30 3355 H 321.416 -2.26241 5.26771 0
M  V30 3356 H 319.813 -1.65071 5.7695 0
M  V30 3357 H 320.883 -0.612559 4.81015 0
M  V30 3358 N 322.226 -1.5378 -0.344866 0
M  V30 3359 C 323.156 -1.84662 -1.42906 0
M  V30 3360 C 324.137 -0.701648 -1.54955 0
M  V30 3361 O 325.322 -0.953438 -1.69184 0
M  V30 3362 C 322.452 -2.05503 -2.79974 0
M  V30 3363 C 321.406 -3.21318 -2.82734 0
M  V30 3364 C 320.732 -3.2749 -4.22675 0
M  V30 3365 C 322.032 -4.59456 -2.48389 0
M  V30 3366 H 323.726 -2.75461 -1.17311 0
M  V30 3367 H 321.272 -1.32542 -0.562896 0
M  V30 3368 H 323.225 -2.25691 -3.55867 0
M  V30 3369 H 321.949 -1.11434 -3.07002 0
M  V30 3370 H 320.608 -3.00984 -2.09294 0
M  V30 3371 H 320.256 -2.31019 -4.4681 0
M  V30 3372 H 319.956 -4.05316 -4.25433 0
M  V30 3373 H 321.48 -3.49887 -5.00412 0
M  V30 3374 H 322.894 -4.79667 -3.13995 0
M  V30 3375 H 321.291 -5.39675 -2.62432 0
M  V30 3376 H 322.361 -4.63155 -1.4358 0
M  V30 3377 N 323.704 0.605807 -1.45491 0
M  V30 3378 C 324.634 1.72709 -1.57143 0
M  V30 3379 C 325.615 1.6476 -0.422884 0
M  V30 3380 O 326.8 1.83132 -0.646247 0
M  V30 3381 C 323.93 3.11316 -1.53948 0
M  V30 3382 C 322.884 3.34077 -2.67537 0
M  V30 3383 C 322.21 4.72975 -2.49397 0
M  V30 3384 C 323.51 3.24158 -4.09535 0
M  V30 3385 H 325.204 1.63214 -2.51001 0
M  V30 3386 H 322.75 0.78379 -1.208 0
M  V30 3387 H 324.703 3.89557 -1.60696 0
M  V30 3388 H 323.427 3.21655 -0.566205 0
M  V30 3389 H 322.086 2.58227 -2.6022 0
M  V30 3390 H 321.734 4.8005 -1.50205 0
M  V30 3391 H 321.434 4.8916 -3.25571 0
M  V30 3392 H 322.958 5.53414 -2.58002 0
M  V30 3393 H 324.372 3.92271 -4.18086 0
M  V30 3394 H 322.769 3.51872 -4.86113 0
M  V30 3395 H 323.839 2.2157 -4.31317 0
M  V30 3396 N 325.182 1.32811 0.848464 0
M  V30 3397 C 326.41 1.26739 1.63538 0
M  V30 3398 C 326.825 -0.163484 1.88091 0
M  V30 3399 O 326.182 -1.10258 1.45429 0
M  V30 3400 C 326.233 2.03013 2.99112 0
M  V30 3401 O 325.954 3.40518 2.75643 0
M  V30 3402 C 327.455 2.04038 3.93552 0
M  V30 3403 H 324.675 0.437024 0.509167 0
M  V30 3404 H 327.219 1.75033 1.05753 0
M  V30 3405 H 325.374 1.58426 3.53525 0
M  V30 3406 H 325.788 3.79635 3.61908 0
M  V30 3407 H 327.262 2.61877 4.85926 0
M  V30 3408 H 327.739 1.0282 4.26995 0
M  V30 3409 H 328.345 2.486 3.45077 0
M  V30 3410 N 326.66 -1.06551 1.16123 0
M  V30 3411 C 327.59 -2.15935 0.88851 0
M  V30 3412 C 328.571 -1.69306 -0.164135 0
M  V30 3413 O 329.756 -1.94193 -0.0167857 0
M  V30 3414 C 326.886 -3.45149 0.385942 0
M  V30 3415 C 325.84 -4.05271 1.3762 0
M  V30 3416 C 325.166 -5.29664 0.732137 0
M  V30 3417 C 326.466 -4.44355 2.74493 0
M  V30 3418 H 328.16 -2.39006 1.80323 0
M  V30 3419 H 325.706 -1.14866 0.868435 0
M  V30 3420 H 327.659 -4.21004 0.182647 0
M  V30 3421 H 326.383 -3.21689 -0.564274 0
M  V30 3422 H 325.042 -3.3147 1.56599 0
M  V30 3423 H 324.69 -5.02499 -0.224483 0
M  V30 3424 H 324.39 -5.70848 1.39307 0
M  V30 3425 H 325.914 -6.08218 0.538802 0
M  V30 3426 H 327.328 -5.11303 2.59311 0
M  V30 3427 H 325.725 -4.96515 3.37035 0
M  V30 3428 H 326.795 -3.55339 3.29943 0
M  V30 3429 N 328.138 -0.959301 -1.25041 0
M  V30 3430 C 329.101 -0.487677 -2.23952 0
M  V30 3431 C 330.101 0.41119 -1.55454 0
M  V30 3432 O 331.291 0.207825 -1.72956 0
M  V30 3433 C 328.423 0.294807 -3.39623 0
M  V30 3434 H 329.616 -1.36198 -2.67189 0
M  V30 3435 H 327.169 -0.743042 -1.37508 0
M  V30 3436 H 327.904 1.18658 -3.01813 0
M  V30 3437 H 327.689 -0.35012 -3.90534 0
M  V30 3438 H 329.179 0.614089 -4.1306 0
M  V30 3439 N 329.616 1.39756 -0.72842 0
M  V30 3440 C 330.579 2.29012 -0.0927297 0
M  V30 3441 C 331.579 1.45992 0.674025 0
M  V30 3442 O 332.769 1.66749 0.50402 0
M  V30 3443 C 329.901 3.29396 0.878137 0
M  V30 3444 H 331.094 2.86729 -0.879011 0
M  V30 3445 H 328.647 1.48293 -0.493847 0
M  V30 3446 H 329.382 2.76722 1.69101 0
M  V30 3447 H 329.167 3.907 0.331051 0
M  V30 3448 H 330.657 3.96199 1.3197 0
M  V30 3449 N 331.094 0.475555 1.50254 0
M  V30 3450 C 332.324 -0.0753399 2.06463 0
M  V30 3451 C 332.732 -1.33661 1.33908 0
M  V30 3452 O 332.075 -1.79219 0.403257 0
M  V30 3453 C 332.137 -0.424921 3.5698 0
M  V30 3454 C 331.801 0.734965 4.51051 0
M  V30 3455 C 332.798 1.61827 4.94073 0
M  V30 3456 C 330.483 0.926557 4.9368 0
M  V30 3457 C 332.477 2.67754 5.78434 0
M  V30 3458 C 330.164 1.98904 5.77824 0
M  V30 3459 C 331.162 2.8629 6.20103 0
M  V30 3460 O 330.85 3.90708 7.02568 0
M  V30 3461 H 330.582 0.00576308 0.675975 0
M  V30 3462 H 333.136 0.664662 1.94349 0
M  V30 3463 H 331.366 -1.21817 3.67012 0
M  V30 3464 H 333.055 -0.911422 3.95535 0
M  V30 3465 H 333.821 1.48196 4.61804 0
M  V30 3466 H 329.7 0.25584 4.6029 0
M  V30 3467 H 333.244 3.35992 6.11355 0
M  V30 3468 H 329.141 2.12541 6.09505 0
M  V30 3469 H 329.909 3.87751 7.20827 0
M  V30 3470 N 332.573 -1.56217 0.208337 0
M  V30 3471 C 333.821 -1.97558 -0.426076 0
M  V30 3472 C 334.142 -1.09683 -1.61229 0
M  V30 3473 O 333.412 -0.170956 -1.95153 0
M  V30 3474 H 331.992 -0.729575 -0.160405 0
M  V30 3475 H 334.654 -1.92606 0.298155 0
M  V30 3476 H 333.75 -3.02672 -0.761312 0
M  V30 3477 N 334.051 0.0651679 -1.57465 0
M  V30 3478 C 335.014 1.06117 -2.03155 0
M  V30 3479 C 336.014 1.31204 -0.929632 0
M  V30 3480 O 337.204 1.26813 -1.19432 0
M  V30 3481 C 334.336 2.4032 -2.41783 0
M  V30 3482 H 335.529 0.667231 -2.92383 0
M  V30 3483 H 333.082 0.311075 -1.53173 0
M  V30 3484 H 333.817 2.84532 -1.55601 0
M  V30 3485 H 333.602 2.23451 -3.22199 0
M  V30 3486 H 335.092 3.11898 -2.77685 0
M  V30 3487 N 335.529 1.53961 0.336706 0
M  V30 3488 C 336.459 1.85417 1.41925 0
M  V30 3489 C 337.44 0.709856 1.5458 0
M  V30 3490 O 338.625 0.962396 1.68676 0
M  V30 3491 C 335.755 2.06985 2.78881 0
M  V30 3492 C 334.709 3.22813 2.81026 0
M  V30 3493 C 334.035 3.29727 4.20932 0
M  V30 3494 C 335.335 4.60767 2.45949 0
M  V30 3495 H 337.029 2.76079 1.15848 0
M  V30 3496 H 334.575 1.32839 0.555859 0
M  V30 3497 H 336.528 2.27575 3.54665 0
M  V30 3498 H 335.252 1.13061 3.06406 0
M  V30 3499 H 333.911 3.0209 2.07695 0
M  V30 3500 H 333.559 2.33385 4.45579 0
M  V30 3501 H 333.259 4.07566 4.23277 0
M  V30 3502 H 334.783 3.52536 4.98549 0
M  V30 3503 H 336.197 4.81325 3.11446 0
M  V30 3504 H 334.594 5.4106 2.59566 0
M  V30 3505 H 335.664 4.6391 1.41122 0
M  V30 3506 N 337.007 -0.598083 1.45811 0
M  V30 3507 C 338.255 -1.35413 1.50026 0
M  V30 3508 C 338.576 -1.94444 0.147177 0
M  V30 3509 O 337.846 -1.77701 -0.824571 0
M  V30 3510 H 336.426 -0.502727 0.552517 0
M  V30 3511 H 339.088 -0.701606 1.81834 0
M  V30 3512 H 338.184 -2.16871 2.2444 0
M  V30 3513 N 338.485 -1.33259 -0.841409 0
M  V30 3514 C 339.901 -1.12538 -1.13169 0
M  V30 3515 C 340.101 0.0854037 -2.01319 0
M  V30 3516 O 339.157 0.766417 -2.40587 0
M  V30 3517 C 340.47 -2.41156 -1.79623 0
M  V30 3518 C 342.018 -2.47038 -1.922 0
M  V30 3519 C 342.493 -3.7561 -2.6207 0
M  V30 3520 N 343.984 -3.76667 -2.69585 0
M  V30 3521 C 344.719 -4.72861 -3.2433 0
M  V30 3522 N 344.215 -5.79428 -3.79783 0
M  V30 3523 N 346.008 -4.6034 -3.22558 0
M  V30 3524 H 338.159 -2.10868 -0.254676 0
M  V30 3525 H 340.422 -0.931615 -0.175493 0
M  V30 3526 H 340.128 -3.29747 -1.22311 0
M  V30 3527 H 340.002 -2.53114 -2.79666 0
M  V30 3528 H 342.389 -1.58898 -2.48667 0
M  V30 3529 H 342.47 -2.39022 -0.911148 0
M  V30 3530 H 342.114 -4.64131 -2.06263 0
M  V30 3531 H 342.044 -3.80902 -3.63622 0
M  V30 3532 H 344.535 -2.99648 -2.30259 0
M  V30 3533 H 344.848 -6.48867 -4.19752 0
M  V30 3534 H 343.193 -5.83166 -3.78078 0
M  V30 3535 H 346.384 -3.76244 -2.78492 0
M  V30 3536 H 346.557 -5.35478 -3.64921 0
M  V30 3537 N 339.963 1.05934 -1.16686 0
M  V30 3538 C 340.926 2.11669 -0.879144 0
M  V30 3539 C 341.926 1.60294 0.127445 0
M  V30 3540 O 343.116 1.7389 -0.103865 0
M  V30 3541 C 340.248 3.39438 -0.315425 0
M  V30 3542 H 341.441 2.38626 -1.81653 0
M  V30 3543 H 338.994 1.22058 -0.976299 0
M  V30 3544 H 339.729 3.18132 0.629468 0
M  V30 3545 H 339.514 3.78034 -1.04079 0
M  V30 3546 H 341.004 4.17391 -0.132189 0
M  V30 3547 N 341.441 0.965919 1.2453 0
M  V30 3548 C 342.687 0.62776 1.92839 0
M  V30 3549 C 343.02 -0.834694 1.75347 0
M  V30 3550 O 342.295 -1.60031 1.10546 0
M  V30 3551 C 342.578 1.00109 3.45905 0
M  V30 3552 C 342.431 2.52011 3.72573 0
M  V30 3553 C 343.75 0.53435 4.36844 0
M  V30 3554 H 340.869 0.229537 0.700344 0
M  V30 3555 H 343.511 1.2046 1.46933 0
M  V30 3556 H 341.661 0.510238 3.85135 0
M  V30 3557 H 343.333 3.08559 3.42912 0
M  V30 3558 H 341.576 2.95287 3.17786 0
M  V30 3559 H 342.247 2.73183 4.79661 0
M  V30 3560 H 344.723 0.955565 4.04979 0
M  V30 3561 H 343.599 0.824152 5.42678 0
M  V30 3562 H 343.86 -0.565589 4.38467 0
M  V30 3563 N 342.919 -1.39368 0.735821 0
M  V30 3564 C 343.849 -2.33234 0.111506 0
M  V30 3565 C 344.83 -1.53954 -0.723334 0
M  V30 3566 O 346.015 -1.82344 -0.668147 0
M  V30 3567 C 343.145 -3.38057 -0.795917 0
M  V30 3568 C 342.099 -4.2795 -0.065172 0
M  V30 3569 C 341.425 -5.23479 -1.08967 0
M  V30 3570 C 342.725 -5.10741 1.09273 0
M  V30 3571 H 344.419 -2.85692 0.895571 0
M  V30 3572 H 341.965 -1.37364 0.432109 0
M  V30 3573 H 343.918 -4.02675 -1.24221 0
M  V30 3574 H 342.642 -2.8404 -1.61211 0
M  V30 3575 H 341.301 -3.64813 0.361511 0
M  V30 3576 H 340.949 -4.65758 -1.89944 0
M  V30 3577 H 340.649 -5.84472 -0.605489 0
M  V30 3578 H 342.173 -5.90974 -1.53565 0
M  V30 3579 H 343.587 -5.68699 0.724841 0
M  V30 3580 H 341.984 -5.8088 1.50659 0
M  V30 3581 H 343.054 -4.45525 1.91404 0
M  V30 3582 N 344.397 -0.483516 -1.5 0
M  V30 3583 C 345.813 -0.138404 -1.58999 0
M  V30 3584 C 346.013 1.35597 -1.4905 0
M  V30 3585 O 345.069 2.13039 -1.35539 0
M  V30 3586 C 346.382 -0.699658 -2.92447 0
M  V30 3587 C 347.93 -0.664195 -3.05872 0
M  V30 3588 C 348.405 -1.20321 -4.41913 0
M  V30 3589 N 349.896 -1.16315 -4.48358 0
M  V30 3590 C 350.631 -1.55058 -5.52037 0
M  V30 3591 N 350.127 -2.01311 -6.62907 0
M  V30 3592 N 351.92 -1.46584 -5.42651 0
M  V30 3593 H 344.071 -1.45529 -1.5471 0
M  V30 3594 H 346.334 -0.60258 -0.731848 0
M  V30 3595 H 346.04 -1.747 -3.05242 0
M  V30 3596 H 345.914 -0.150194 -3.76901 0
M  V30 3597 H 348.301 0.374272 -2.92717 0
M  V30 3598 H 348.382 -1.25061 -2.23144 0
M  V30 3599 H 348.026 -2.24037 -4.55818 0
M  V30 3600 H 347.956 -0.592896 -5.23252 0
M  V30 3601 H 350.447 -0.824058 -3.68806 0
M  V30 3602 H 350.76 -2.2899 -7.38095 0
M  V30 3603 H 349.105 -2.05273 -6.63994 0
M  V30 3604 H 352.296 -1.10281 -4.54924 0
M  V30 3605 H 352.469 -1.77103 -6.23329 0
M  V30 3606 N 345.875 1.56104 -0.216619 0
M  V30 3607 C 347.1 2.0301 0.424462 0
M  V30 3608 C 347.525 1.0955 1.52907 0
M  V30 3609 O 346.883 0.0827914 1.81111 0
M  V30 3610 C 346.931 3.4819 0.937883 0
M  V30 3611 O 346.035 3.57865 2.04955 0
M  V30 3612 H 345.376 0.656925 0.0966755 0
M  V30 3613 H 347.906 2.01859 -0.33381 0
M  V30 3614 H 347.916 3.88413 1.24897 0
M  V30 3615 H 346.591 4.15699 0.129387 0
M  V30 3616 H 345.168 3.29527 1.74546 0
M  V30 3617 N 347.353 -0.0568162 1.57498 0
M  V30 3618 C 348.764 -0.606858 1.76562 0
M  V30 3619 C 349.115 -1.77114 0.844094 0
M  V30 3620 O 348.24 -2.16376 0.0318911 0
M  V30 3621 C 348.835 -1.10766 3.20182 0
M  V30 3622 C 347.394 -1.60344 3.40539 0
M  V30 3623 C 346.541 -0.529311 2.72201 0
M  V30 3624 H 349.492 0.169393 1.57793 0
M  V30 3625 H 349.513 -1.97602 3.25167 0
M  V30 3626 H 349.025 -0.26006 3.87228 0
M  V30 3627 H 347.126 -2.47379 2.78629 0
M  V30 3628 H 347.239 -1.67006 4.4905 0
M  V30 3629 H 345.603 -0.977893 2.35179 0
M  V30 3630 H 346.386 0.308352 3.41912 0
M  V30 3631 N 348.832 -1.54138 -0.328536 0
M  V30 3632 C 350.08 -1.71765 -1.06496 0
M  V30 3633 C 350.401 -0.49149 -1.88704 0
M  V30 3634 O 349.671 0.494539 -1.89555 0
M  V30 3635 H 348.251 -0.633295 -0.396164 0
M  V30 3636 H 350.913 -1.91429 -0.366176 0
M  V30 3637 H 350.009 -2.5951 -1.73381 0
M  V30 3638 N 350.31 0.590341 -1.46126 0
M  V30 3639 C 351.243 1.71434 -1.50617 0
M  V30 3640 C 352.221 1.58543 -0.360948 0
M  V30 3641 O 353.405 1.79865 -0.563985 0
M  V30 3642 C 350.532 3.09422 -1.37753 0
M  V30 3643 C 349.578 3.40854 -2.5636 0
M  V30 3644 S 350.411 3.33773 -4.18755 0
M  V30 3645 C 351.567 4.74312 -4.08386 0
M  V30 3646 H 351.8 1.67364 -2.45717 0
M  V30 3647 H 349.333 0.76845 -1.33919 0
M  V30 3648 H 351.291 3.8903 -1.31018 0
M  V30 3649 H 349.952 3.10989 -0.440949 0
M  V30 3650 H 349.145 4.41368 -2.43332 0
M  V30 3651 H 348.747 2.68798 -2.60046 0
M  V30 3652 H 351.039 5.64522 -3.74595 0
M  V30 3653 H 351.982 4.92397 -5.08872 0
M  V30 3654 H 352.39 4.50803 -3.3976 0
M  V30 3655 N 351.788 1.33704 0.83433 0
M  V30 3656 C 353.016 1.28467 1.62185 0
M  V30 3657 C 353.431 -0.143526 1.88254 0
M  V30 3658 O 352.788 -1.08709 1.4659 0
M  V30 3659 C 352.839 2.06174 2.96942 0
M  V30 3660 O 352.56 3.43422 2.72016 0
M  V30 3661 C 354.061 2.08201 3.91366 0
M  V30 3662 H 351.281 0.4424 0.504503 0
M  V30 3663 H 353.825 1.76145 1.03891 0
M  V30 3664 H 351.98 1.62167 3.51825 0
M  V30 3665 H 352.394 3.83453 3.57861 0
M  V30 3666 H 353.868 2.67017 4.83121 0
M  V30 3667 H 354.345 1.07343 4.2588 0
M  V30 3668 H 354.951 2.52246 3.42421 0
M  V30 3669 N 353.266 -1.05314 1.17247 0
M  V30 3670 C 354.512 -1.78557 0.961513 0
M  V30 3671 C 354.845 -1.87419 -0.508697 0
M  V30 3672 O 354.12 -1.37307 -1.37757 0
M  V30 3673 C 354.403 -3.22514 1.60176 0
M  V30 3674 C 354.256 -3.21673 3.14399 0
M  V30 3675 C 355.575 -4.20318 1.30463 0
M  V30 3676 H 352.694 -0.6482 0.350723 0
M  V30 3677 H 355.336 -1.23102 1.44727 0
M  V30 3678 H 353.486 -3.69867 1.18871 0
M  V30 3679 H 355.158 -2.82405 3.64753 0
M  V30 3680 H 353.401 -2.60048 3.47214 0
M  V30 3681 H 354.072 -4.23271 3.54324 0
M  V30 3682 H 356.548 -3.81454 1.66229 0
M  V30 3683 H 355.424 -5.19289 1.77848 0
M  V30 3684 H 355.685 -4.41526 0.22521 0
M  V30 3685 N 354.744 -0.972509 -1.24016 0
M  V30 3686 C 355.707 -0.511403 -2.23422 0
M  V30 3687 C 356.707 0.394679 -1.55881 0
M  V30 3688 O 357.897 0.189469 -1.73167 0
M  V30 3689 C 355.029 0.258769 -3.39916 0
M  V30 3690 H 356.222 -1.39024 -2.6573 0
M  V30 3691 H 353.775 -0.757585 -1.36713 0
M  V30 3692 H 354.51 1.1545 -3.03054 0
M  V30 3693 H 354.295 -0.391522 -3.9014 0
M  V30 3694 H 355.785 0.570244 -4.13688 0
M  V30 3695 N 356.222 1.38976 -0.743202 0
M  V30 3696 C 357.132 2.3434 -0.110399 0
M  V30 3697 C 358.148 1.58741 0.712559 0
M  V30 3698 O 359.324 1.9099 0.639125 0
M  V30 3699 C 356.389 3.37812 0.780012 0
M  V30 3700 C 355.45 4.29263 -0.0561319 0
M  V30 3701 C 354.683 5.27793 0.791875 0
M  V30 3702 O 354.906 5.33043 2.03031 0
M  V30 3703 O 353.84 6.01512 0.216183 0
M  V30 3704 H 357.666 2.90129 -0.897714 0
M  V30 3705 H 355.251 1.40643 -0.503966 0
M  V30 3706 H 357.133 4.01194 1.28923 0
M  V30 3707 H 355.808 2.84395 1.546 0
M  V30 3708 H 354.715 3.69076 -0.611056 0
M  V30 3709 H 356.048 4.85907 -0.784531 0
M  V30 3710 N 357.7 0.491464 1.49741 0
M  V30 3711 C 358.647 -0.292027 2.28945 0
M  V30 3712 C 359.617 -0.968973 1.34908 0
M  V30 3713 O 360.802 -0.97748 1.6386 0
M  V30 3714 C 357.942 -1.35617 3.17336 0
M  V30 3715 C 357.055 -0.691957 4.26422 0
M  V30 3716 C 356.19 -1.73572 5.02042 0
M  V30 3717 C 355.229 -1.05286 6.02977 0
M  V30 3718 N 354.366 -2.0404 6.71798 0
M  V30 3719 H 359.206 0.389654 2.95442 0
M  V30 3720 H 356.743 0.204003 1.45679 0
M  V30 3721 H 358.701 -1.98502 3.66951 0
M  V30 3722 H 357.331 -2.00674 2.52844 0
M  V30 3723 H 356.383 0.0499523 3.80367 0
M  V30 3724 H 357.695 -0.153946 4.98562 0
M  V30 3725 H 356.849 -2.43987 5.55478 0
M  V30 3726 H 355.588 -2.30757 4.29654 0
M  V30 3727 H 354.593 -0.334446 5.48782 0
M  V30 3728 H 355.818 -0.487636 6.77347 0
M  V30 3729 H 353.764 -2.60205 6.02187 0
M  V30 3730 H 353.681 -1.55279 7.39881 0
M  V30 3731 H 354.949 -2.73772 7.29842 0
M  V30 3732 N 359.178 -1.55987 0.224894 0
M  V30 3733 C 360.108 -2.23426 -0.678457 0
M  V30 3734 C 361.089 -1.20709 -1.19847 0
M  V30 3735 O 362.274 -1.49304 -1.24186 0
M  V30 3736 C 359.404 -2.91676 -1.88527 0
M  V30 3737 C 358.358 -4.00893 -1.49896 0
M  V30 3738 C 357.684 -4.56455 -2.78483 0
M  V30 3739 C 358.984 -5.17769 -0.686461 0
M  V30 3740 H 360.678 -2.99175 -0.116173 0
M  V30 3741 H 358.224 -1.43897 -0.054436 0
M  V30 3742 H 360.177 -3.37547 -2.5227 0
M  V30 3743 H 358.901 -2.1338 -2.47258 0
M  V30 3744 H 357.56 -3.55758 -0.884985 0
M  V30 3745 H 357.208 -3.74886 -3.35365 0
M  V30 3746 H 356.908 -5.30169 -2.53368 0
M  V30 3747 H 358.432 -5.05047 -3.43162 0
M  V30 3748 H 359.846 -5.60001 -1.22767 0
M  V30 3749 H 358.243 -5.97735 -0.532259 0
M  V30 3750 H 359.313 -4.83932 0.306196 0
M  V30 3751 N 360.656 0.0484629 -1.57525 0
M  V30 3752 C 362.072 0.40375 -1.54409 0
M  V30 3753 C 362.272 1.77786 -0.948384 0
M  V30 3754 O 361.328 2.46189 -0.560983 0
M  V30 3755 C 362.641 0.323394 -2.98956 0
M  V30 3756 C 364.189 0.401892 -3.10409 0
M  V30 3757 C 364.664 0.351195 -4.56652 0
M  V30 3758 N 366.155 0.410576 -4.61377 0
M  V30 3759 C 366.89 0.393933 -5.72045 0
M  V30 3760 N 366.386 0.330724 -6.9201 0
M  V30 3761 N 368.179 0.442227 -5.60358 0
M  V30 3762 H 360.33 -0.851016 -1.94606 0
M  V30 3763 H 362.593 -0.321721 -0.89174 0
M  V30 3764 H 362.299 -0.62011 -3.4619 0
M  V30 3765 H 362.173 1.12463 -3.60044 0
M  V30 3766 H 364.56 1.33582 -2.63134 0
M  V30 3767 H 364.641 -0.428342 -2.52188 0
M  V30 3768 H 364.285 -0.578987 -5.04589 0
M  V30 3769 H 364.215 1.19928 -5.12762 0
M  V30 3770 H 366.706 0.462729 -3.75056 0
M  V30 3771 H 367.019 0.322592 -7.72126 0
M  V30 3772 H 365.364 0.29706 -6.94365 0
M  V30 3773 H 368.555 0.489464 -4.65534 0
M  V30 3774 H 368.728 0.425788 -6.466 0
M  V30 3775 N 362.134 1.5431 0.320358 0
M  V30 3776 C 363.38 1.72924 1.05949 0
M  V30 3777 C 363.713 0.503185 1.87568 0
M  V30 3778 O 362.988 -0.499839 1.87968 0
M  V30 3779 C 363.271 3.00676 1.98156 0
M  V30 3780 C 363.124 4.3354 1.19845 0
M  V30 3781 C 364.443 3.24198 2.9763 0
M  V30 3782 H 361.562 0.629195 0.383774 0
M  V30 3783 H 364.204 1.87008 0.335854 0
M  V30 3784 H 362.354 2.888 2.59859 0
M  V30 3785 H 364.026 4.57305 0.605773 0
M  V30 3786 H 362.269 4.309 0.500784 0
M  V30 3787 H 362.94 5.19156 1.87567 0
M  V30 3788 H 365.416 3.35557 2.4605 0
M  V30 3789 H 364.292 4.14938 3.59329 0
M  V30 3790 H 364.553 2.41577 3.7026 0
M  V30 3791 N 363.613 -0.582584 1.46437 0
M  V30 3792 C 364.576 -1.67366 1.56592 0
M  V30 3793 C 365.576 -1.54575 0.443072 0
M  V30 3794 O 366.766 -1.59191 0.707381 0
M  V30 3795 C 363.898 -3.06791 1.48634 0
M  V30 3796 H 365.091 -1.5972 2.5383 0
M  V30 3797 H 362.644 -0.800432 1.34249 0
M  V30 3798 H 363.379 -3.19993 0.526763 0
M  V30 3799 H 363.164 -3.17484 2.30101 0
M  V30 3800 H 364.654 -3.86218 1.58826 0
M  V30 3801 N 365.091 -1.34144 -0.827227 0
M  V30 3802 C 366.054 -1.25264 -1.91942 0
M  V30 3803 C 367.054 -0.168866 -1.59911 0
M  V30 3804 O 368.244 -0.421198 -1.69031 0
M  V30 3805 C 365.376 -0.932952 -3.27885 0
M  V30 3806 H 366.569 -2.22357 -2.0124 0
M  V30 3807 H 364.122 -1.1837 -1.0207 0
M  V30 3808 H 364.857 0.0349917 -3.24281 0
M  V30 3809 H 364.642 -1.71682 -3.52516 0
M  V30 3810 H 366.132 -0.895874 -4.07877 0
M  V30 3811 N 366.569 1.04691 -1.17803 0
M  V30 3812 C 367.499 2.14494 -0.92275 0
M  V30 3813 C 368.48 1.69546 0.137179 0
M  V30 3814 O 369.665 1.94195 -0.0141108 0
M  V30 3815 C 366.795 3.44491 -0.440803 0
M  V30 3816 C 365.749 4.03031 -1.4405 0
M  V30 3817 C 365.075 5.28432 -0.81631 0
M  V30 3818 C 366.375 4.39932 -2.81527 0
M  V30 3819 H 368.069 2.36107 -1.84103 0
M  V30 3820 H 365.615 1.1347 -0.886599 0
M  V30 3821 H 367.568 4.2066 -0.249602 0
M  V30 3822 H 366.292 3.22546 0.513025 0
M  V30 3823 H 364.951 3.28937 -1.61853 0
M  V30 3824 H 364.599 5.02792 0.144511 0
M  V30 3825 H 364.299 5.68559 -1.48371 0
M  V30 3826 H 365.823 6.07284 -0.635496 0
M  V30 3827 H 367.237 5.07113 -2.67412 0
M  V30 3828 H 365.634 4.9109 -3.44892 0
M  V30 3829 H 366.704 3.50045 -3.35554 0
M  V30 3830 N 368.047 0.979072 1.23499 0
M  V30 3831 C 369.293 0.648178 1.92163 0
M  V30 3832 C 369.626 -0.816049 1.76222 0
M  V30 3833 O 368.901 -1.58849 1.12237 0
M  V30 3834 C 369.184 1.03773 3.44824 0
M  V30 3835 C 369.037 2.55948 3.69879 0
M  V30 3836 C 370.356 0.580653 4.36253 0
M  V30 3837 H 367.475 0.236952 0.69787 0
M  V30 3838 H 370.117 1.22012 1.45647 0
M  V30 3839 H 368.267 0.551058 3.84572 0
M  V30 3840 H 369.939 3.12179 3.3962 0
M  V30 3841 H 368.182 2.98641 3.14636 0
M  V30 3842 H 368.853 2.78255 4.76737 0
M  V30 3843 H 371.329 0.998465 4.03943 0
M  V30 3844 H 370.205 0.881663 5.41773 0
M  V30 3845 H 370.466 -0.519052 4.39042 0
M  V30 3846 N 369.525 -1.3858 0.750561 0
M  V30 3847 C 370.488 -2.28836 0.129152 0
M  V30 3848 C 371.488 -1.47045 -0.650714 0
M  V30 3849 O 372.678 -1.6753 -0.477428 0
M  V30 3850 C 369.81 -3.30751 -0.825622 0
M  V30 3851 H 371.003 -2.85294 0.924516 0
M  V30 3852 H 368.556 -1.47489 0.517376 0
M  V30 3853 H 369.291 -2.79378 -1.64677 0
M  V30 3854 H 369.076 -3.91177 -0.268852 0
M  V30 3855 H 370.566 -3.98249 -1.2565 0
M  V30 3856 N 371.003 -0.499398 -1.49478 0
M  V30 3857 C 372.228 0.044722 -2.07352 0
M  V30 3858 C 372.653 1.30207 -1.35749 0
M  V30 3859 O 372.011 1.76516 -0.413732 0
M  V30 3860 C 372.059 0.283013 -3.59488 0
M  V30 3861 O 371.163 1.35804 -3.89398 0
M  V30 3862 H 370.504 -0.0255147 -0.66351 0
M  V30 3863 H 373.034 -0.698561 -1.92305 0
M  V30 3864 H 373.044 0.515007 -4.04737 0
M  V30 3865 H 371.719 -0.635636 -4.11014 0
M  V30 3866 H 370.296 1.11113 -3.55961 0
M  V30 3867 N 372.481 1.55866 -0.233164 0
M  V30 3868 C 373.729 1.9821 0.394593 0
M  V30 3869 C 374.05 1.12234 1.59463 0
M  V30 3870 O 373.32 0.201981 1.94856 0
M  V30 3871 H 371.9 0.732034 0.148778 0
M  V30 3872 H 374.562 1.92107 -0.32876 0
M  V30 3873 H 373.658 3.03845 0.713063 0
M  V30 3874 N 373.959 -0.0401083 1.57549 0
M  V30 3875 C 375.205 -0.734211 1.89043 0
M  V30 3876 C 375.538 -1.75591 0.829535 0
M  V30 3877 O 374.813 -1.93868 -0.156706 0
M  V30 3878 C 375.096 -1.41374 3.31188 0
M  V30 3879 C 374.949 -0.406299 4.47961 0
M  V30 3880 C 376.268 -2.35061 3.72068 0
M  V30 3881 H 373.387 -0.265447 0.687537 0
M  V30 3882 H 376.029 0.00294087 1.9 0
M  V30 3883 H 374.179 -2.04206 3.30503 0
M  V30 3884 H 375.851 0.219255 4.60779 0
M  V30 3885 H 374.094 0.275485 4.32924 0
M  V30 3886 H 374.765 -0.920022 5.44279 0
M  V30 3887 H 377.241 -1.82282 3.74049 0
M  V30 3888 H 376.117 -2.79593 4.72355 0
M  V30 3889 H 376.378 -3.21258 3.0372 0
M  V30 3890 N 375.437 -1.54477 -0.31217 0
M  V30 3891 C 376.4 -1.83923 -1.36766 0
M  V30 3892 C 377.4 -0.711563 -1.44199 0
M  V30 3893 O 378.59 -0.979866 -1.44029 0
M  V30 3894 C 375.722 -2.0095 -2.75376 0
M  V30 3895 H 376.915 -2.78239 -1.11906 0
M  V30 3896 H 374.468 -1.46369 -0.548257 0
M  V30 3897 H 375.203 -1.08883 -3.05475 0
M  V30 3898 H 374.988 -2.83018 -2.71373 0
M  V30 3899 H 376.478 -2.2514 -3.51713 0
M  V30 3900 N 376.915 0.57481 -1.46744 0
M  V30 3901 C 377.845 1.69337 -1.60771 0
M  V30 3902 C 378.826 1.63825 -0.457736 0
M  V30 3903 O 380.011 1.8172 -0.684947 0
M  V30 3904 C 377.141 3.0798 -1.60517 0
M  V30 3905 C 376.095 3.28327 -2.74564 0
M  V30 3906 C 375.421 4.67578 -2.59373 0
M  V30 3907 C 376.721 3.15398 -4.16319 0
M  V30 3908 H 378.415 1.57853 -2.54407 0
M  V30 3909 H 375.961 0.75799 -1.22436 0
M  V30 3910 H 377.914 3.86061 -1.68923 0
M  V30 3911 H 376.638 3.20381 -0.634305 0
M  V30 3912 H 375.297 2.52649 -2.65639 0
M  V30 3913 H 374.945 4.76755 -1.60353 0
M  V30 3914 H 374.645 4.82144 -3.35873 0
M  V30 3915 H 376.169 5.47817 -2.69682 0
M  V30 3916 H 377.583 3.83315 -4.26313 0
M  V30 3917 H 375.98 3.41482 -4.93468 0
M  V30 3918 H 377.05 2.12372 -4.3592 0
M  V30 3919 N 378.394 1.34581 0.820102 0
M  V30 3920 C 379.624 1.29991 1.6058 0
M  V30 3921 C 380.032 -0.127588 1.88769 0
M  V30 3922 O 379.375 -1.08595 1.48165 0
M  V30 3923 C 379.437 2.02548 2.9701 0
M  V30 3924 C 379.101 3.51794 2.91701 0
M  V30 3925 C 380.098 4.46647 2.66087 0
M  V30 3926 C 377.783 3.94249 3.11245 0
M  V30 3927 C 379.777 5.81929 2.60071 0
M  V30 3928 C 377.464 5.2963 3.04853 0
M  V30 3929 C 378.462 6.23282 2.793 0
M  V30 3930 O 378.15 7.56181 2.72847 0
M  V30 3931 H 377.882 0.448539 0.505756 0
M  V30 3932 H 380.436 1.77811 1.02822 0
M  V30 3933 H 378.666 1.49345 3.56697 0
M  V30 3934 H 380.355 1.91211 3.58041 0
M  V30 3935 H 381.121 4.15168 2.5072 0
M  V30 3936 H 377 3.21749 3.30149 0
M  V30 3937 H 380.544 6.54999 2.40046 0
M  V30 3938 H 376.441 5.60727 3.19774 0
M  V30 3939 H 377.209 7.6595 2.88553 0
M  V30 3940 N 379.872 -1.04064 1.18357 0
M  V30 3941 C 380.835 -2.10243 0.912707 0
M  V30 3942 C 381.835 -1.60477 -0.101928 0
M  V30 3943 O 383.025 -1.73703 0.131517 0
M  V30 3944 C 380.157 -3.38893 0.369387 0
M  V30 3945 H 381.35 -2.35706 1.85426 0
M  V30 3946 H 378.903 -1.20489 0.995594 0
M  V30 3947 H 379.638 -3.19094 -0.578776 0
M  V30 3948 H 379.423 -3.76331 1.1008 0
M  V30 3949 H 380.913 -4.17128 0.198575 0
M  V30 3950 N 381.35 -0.985608 -1.22978 0
M  V30 3951 C 382.575 -0.675254 -1.961 0
M  V30 3952 C 383 0.752154 -1.72407 0
M  V30 3953 O 382.358 1.5131 -0.998751 0
M  V30 3954 C 382.406 -0.977899 -3.47087 0
M  V30 3955 O 381.51 -0.072685 -4.12336 0
M  V30 3956 H 380.851 -0.253443 -0.613728 0
M  V30 3957 H 383.381 -1.32061 -1.56272 0
M  V30 3958 H 383.391 -0.916739 -3.97567 0
M  V30 3959 H 382.066 -2.01807 -3.63657 0
M  V30 3960 H 380.643 -0.188703 -3.72422 0
M  V30 3961 N 382.828 1.3818 -0.7579 0
M  V30 3962 C 384.053 2.04827 -0.325679 0
M  V30 3963 C 384.478 1.56788 1.03919 0
M  V30 3964 O 383.836 0.721811 1.66312 0
M  V30 3965 C 383.884 3.58774 -0.362447 0
M  V30 3966 O 382.988 4.07372 0.642033 0
M  V30 3967 H 382.329 0.64833 -0.143402 0
M  V30 3968 H 384.859 1.7677 -1.03023 0
M  V30 3969 H 384.869 4.07434 -0.214844 0
M  V30 3970 H 383.544 3.93096 -1.35824 0
M  V30 3971 H 382.121 3.70068 0.458688 0
M  V30 3972 N 384.306 0.507319 1.49211 0
M  V30 3973 C 385.536 -0.0315292 2.06576 0
M  V30 3974 C 385.944 -1.30791 1.36713 0
M  V30 3975 O 385.287 -1.78324 0.441181 0
M  V30 3976 C 385.349 -0.349104 3.57801 0
M  V30 3977 C 385.013 0.830475 4.49391 0
M  V30 3978 C 386.01 1.72271 4.90529 0
M  V30 3979 C 383.695 1.03107 4.91604 0
M  V30 3980 C 385.689 2.79964 5.72625 0
M  V30 3981 C 383.376 2.11116 5.73475 0
M  V30 3982 C 384.374 2.99379 6.1389 0
M  V30 3983 O 384.062 4.05523 6.94123 0
M  V30 3984 H 383.794 0.0201002 0.675701 0
M  V30 3985 H 386.348 0.705737 1.92895 0
M  V30 3986 H 384.578 -1.14005 3.69513 0
M  V30 3987 H 386.267 -0.827319 3.97379 0
M  V30 3988 H 387.033 1.57958 4.58557 0
M  V30 3989 H 382.912 0.353417 4.59643 0
M  V30 3990 H 386.456 3.48884 6.04091 0
M  V30 3991 H 382.353 2.25421 6.0486 0
M  V30 3992 H 383.121 4.02953 7.1244 0
M  V30 3993 N 385.784 -1.5574 0.241426 0
M  V30 3994 C 387.03 -1.99104 -0.385406 0
M  V30 3995 C 387.363 -1.1293 -1.57988 0
M  V30 3996 O 386.638 -0.191449 -1.93555 0
M  V30 3997 C 386.921 -3.51087 -0.800616 0
M  V30 3998 C 386.774 -4.48028 0.398874 0
M  V30 3999 C 388.093 -4.08015 -1.64959 0
M  V30 4000 H 385.212 -0.723848 -0.138614 0
M  V30 4001 H 387.854 -1.86903 0.341642 0
M  V30 4002 H 386.004 -3.61615 -1.4201 0
M  V30 4003 H 387.676 -4.49487 1.03726 0
M  V30 4004 H 385.919 -4.21077 1.04293 0
M  V30 4005 H 386.59 -5.51962 0.0651056 0
M  V30 4006 H 389.066 -4.00555 -1.12672 0
M  V30 4007 H 387.942 -5.14635 -1.90898 0
M  V30 4008 H 388.203 -3.56131 -2.61961 0
M  V30 4009 N 387.262 0.0317525 -1.57568 0
M  V30 4010 C 388.673 0.578692 -1.77505 0
M  V30 4011 C 389.024 1.75749 -0.872164 0
M  V30 4012 O 388.149 2.16298 -0.0663106 0
M  V30 4013 C 388.744 1.05658 -3.21904 0
M  V30 4014 C 387.303 1.54906 -3.43047 0
M  V30 4015 C 386.45 0.485939 -2.73009 0
M  V30 4016 H 389.401 -0.194475 -1.57504 0
M  V30 4017 H 389.422 1.92404 -3.28269 0
M  V30 4018 H 388.934 0.198422 -3.87592 0
M  V30 4019 H 387.035 2.42915 -2.82529 0
M  V30 4020 H 387.148 1.59841 -4.5165 0
M  V30 4021 H 385.512 0.940354 -2.36705 0
M  V30 4022 H 386.295 -0.362709 -3.41379 0
M  V30 4023 N 388.74 1.54641 0.303973 0
M  V30 4024 C 389.97 1.77511 1.05705 0
M  V30 4025 C 390.378 0.533228 1.81531 0
M  V30 4026 O 389.721 -0.506423 1.76582 0
M  V30 4027 C 389.783 2.92779 2.08617 0
M  V30 4028 C 389.447 4.30977 1.52013 0
M  V30 4029 C 390.444 5.11115 0.9517 0
M  V30 4030 C 388.129 4.77571 1.55665 0
M  V30 4031 C 390.123 6.35966 0.427327 0
M  V30 4032 C 387.81 6.02384 1.02841 0
M  V30 4033 C 388.808 6.81417 0.464713 0
M  V30 4034 O 388.496 8.03881 -0.0555283 0
M  V30 4035 H 388.228 0.59579 0.319391 0
M  V30 4036 H 390.782 2.02401 0.349712 0
M  V30 4037 H 389.012 2.63506 2.83022 0
M  V30 4038 H 390.701 3.03252 2.69802 0
M  V30 4039 H 391.467 4.76264 0.916407 0
M  V30 4040 H 387.346 4.16085 1.9848 0
M  V30 4041 H 390.89 6.97599 -0.0133062 0
M  V30 4042 H 386.787 6.36723 1.06084 0
M  V30 4043 H 387.555 8.18479 0.0580522 0
M  V30 4044 N 390.218 -0.567019 1.47046 0
M  V30 4045 C 391.168 -1.67018 1.55207 0
M  V30 4046 C 392.152 -1.55543 0.411714 0
M  V30 4047 O 393.344 -1.64192 0.661064 0
M  V30 4048 C 390.473 -3.05801 1.56014 0
M  V30 4049 C 389.559 -3.22515 2.75399 0
M  V30 4050 N 389.95 -3.09329 4.00186 0
M  V30 4051 C 388.248 -3.53493 2.71954 0
M  V30 4052 C 388.949 -3.2847 4.80086 0
M  V30 4053 N 387.925 -3.54352 4.12233 0
M  V30 4054 H 391.727 -1.55377 2.4947 0
M  V30 4055 H 389.241 -0.771503 1.42904 0
M  V30 4056 H 391.238 -3.84996 1.59949 0
M  V30 4057 H 389.898 -3.18561 0.628396 0
M  V30 4058 H 390.909 -2.86863 4.31196 0
M  V30 4059 H 387.586 -3.7284 1.87873 0
M  V30 4060 H 388.976 -3.23326 5.88991 0
M  V30 4061 N 391.696 -1.35014 -0.812953 0
M  V30 4062 C 392.945 -1.27269 -1.56479 0
M  V30 4063 C 393.258 0.152771 -1.95002 0
M  V30 4064 O 394.464 0.352451 -2.69203 0
M  V30 4065 C 392.92 -2.23159 -2.82362 0
M  V30 4066 C 392.528 -3.71016 -2.511 0
M  V30 4067 C 394.272 -2.24342 -3.60376 0
M  V30 4068 C 392.179 -4.58746 -3.73237 0
M  V30 4069 H 391.109 -0.472829 -0.587324 0
M  V30 4070 H 393.76 -1.6024 -0.894171 0
M  V30 4071 H 392.142 -1.83151 -3.51101 0
M  V30 4072 H 393.316 -4.1962 -1.90409 0
M  V30 4073 H 391.631 -3.72378 -1.86343 0
M  V30 4074 H 394.228 -2.87107 -4.51081 0
M  V30 4075 H 394.571 -1.24542 -3.97234 0
M  V30 4076 H 395.104 -2.62846 -2.98591 0
M  V30 4077 H 391.843 -5.59521 -3.41492 0
M  V30 4078 H 391.363 -4.14871 -4.33176 0
M  V30 4079 H 393.042 -4.73852 -4.40537 0
M  V30 4080 N 393.175 1.03435 -1.18907 0
M  V30 4081 C 394.108 2.11162 -0.86521 0
M  V30 4082 C 395.086 1.6165 0.175473 0
M  V30 4083 O 396.27 1.88425 0.0530129 0
M  V30 4084 C 393.397 3.37423 -0.293868 0
M  V30 4085 C 392.443 4.05795 -1.31274 0
M  V30 4086 S 393.276 4.52027 -2.8711 0
M  V30 4087 C 394.432 5.81513 -2.31504 0
M  V30 4088 H 394.665 2.38308 -1.77754 0
M  V30 4089 H 392.198 1.16295 -1.01562 0
M  V30 4090 H 394.156 4.1049 0.0292572 0
M  V30 4091 H 392.817 3.0838 0.596682 0
M  V30 4092 H 392.01 4.96574 -0.86198 0
M  V30 4093 H 391.612 3.38874 -1.58242 0
M  V30 4094 H 393.904 6.55784 -1.70157 0
M  V30 4095 H 394.847 6.3136 -3.20608 0
M  V30 4096 H 395.255 5.36921 -1.74286 0
M  V30 4097 N 394.653 0.992116 1.22453 0
M  V30 4098 C 396.069 0.702713 1.43297 0
M  V30 4099 C 396.269 -0.726909 1.87932 0
M  V30 4100 O 395.325 -1.49792 2.0327 0
M  V30 4101 C 396.638 1.70762 2.47509 0
M  V30 4102 C 398.186 1.72298 2.61309 0
M  V30 4103 C 398.661 2.71649 3.68742 0
M  V30 4104 N 400.152 2.70239 3.76199 0
M  V30 4105 C 400.887 3.43778 4.58917 0
M  V30 4106 N 400.383 4.26914 5.45633 0
M  V30 4107 N 402.176 3.32487 4.5322 0
M  V30 4108 H 394.327 1.91543 0.917871 0
M  V30 4109 H 396.59 0.826031 0.465162 0
M  V30 4110 H 396.296 2.73059 2.21657 0
M  V30 4111 H 396.17 1.49985 3.46099 0
M  V30 4112 H 398.557 0.706989 2.86506 0
M  V30 4113 H 398.638 1.97143 1.62997 0
M  V30 4114 H 398.282 3.73397 3.44292 0
M  V30 4115 H 398.212 2.44074 4.66622 0
M  V30 4116 H 400.703 2.09912 3.14237 0
M  V30 4117 H 401.016 4.79855 6.05771 0
M  V30 4118 H 399.361 4.31002 5.45218 0
M  V30 4119 H 402.552 2.6698 3.84499 0
M  V30 4120 H 402.725 3.90058 5.17454 0
M  V30 4121 N 396.131 -1.37776 0.765217 0
M  V30 4122 C 397.377 -2.00145 0.327072 0
M  V30 4123 C 397.71 -1.60607 -1.09175 0
M  V30 4124 O 396.985 -0.849127 -1.74986 0
M  V30 4125 C 397.268 -3.57109 0.46319 0
M  V30 4126 C 397.121 -4.06576 1.92395 0
M  V30 4127 C 398.44 -4.39888 -0.136473 0
M  V30 4128 H 395.559 -0.727113 0.120316 0
M  V30 4129 H 398.201 -1.63549 0.967039 0
M  V30 4130 H 396.351 -3.88414 -0.0816358 0
M  V30 4131 H 398.023 -3.85864 2.52798 0
M  V30 4132 H 396.266 -3.59011 2.43503 0
M  V30 4133 H 396.937 -5.15639 1.97028 0
M  V30 4134 H 399.413 -4.14803 0.328317 0
M  V30 4135 H 398.289 -5.48899 -0.0110582 0
M  V30 4136 H 398.55 -4.24758 -1.22608 0
M  V30 4137 N 397.609 -0.515225 -1.4894 0
M  V30 4138 C 398.539 0.244628 -2.32215 0
M  V30 4139 C 399.52 0.949136 -1.41157 0
M  V30 4140 O 400.705 0.937783 -1.70057 0
M  V30 4141 C 397.835 1.30096 -3.22013 0
M  V30 4142 C 396.789 0.715486 -4.21977 0
M  V30 4143 C 396.115 1.87339 -5.00808 0
M  V30 4144 C 397.415 -0.302982 -5.2142 0
M  V30 4145 H 399.109 -0.450501 -2.95991 0
M  V30 4146 H 396.655 -0.218098 -1.42339 0
M  V30 4147 H 398.608 1.84037 -3.79089 0
M  V30 4148 H 397.332 2.02547 -2.56207 0
M  V30 4149 H 395.991 0.197715 -3.66066 0
M  V30 4150 H 395.639 2.58592 -4.31438 0
M  V30 4151 H 395.339 1.48764 -5.68457 0
M  V30 4152 H 396.863 2.41686 -5.60732 0
M  V30 4153 H 398.277 0.148802 -5.73107 0
M  V30 4154 H 396.674 -0.60532 -5.97039 0
M  V30 4155 H 397.744 -1.21395 -4.69459 0
M  V30 4156 N 399.087 1.5561 -0.249682 0
M  V30 4157 C 400.035 2.22894 0.664906 0
M  V30 4158 C 401.029 1.21743 1.17792 0
M  V30 4159 O 402.235 1.39748 1.13449 0
M  V30 4160 H 398.61 0.715022 0.232912 0
M  V30 4161 H 400.581 2.98307 0.0742998 0
M  V30 4162 C 399.33 2.94424 1.84959 0
M  V30 4163 H 398.653 3.72031 1.46399 0
M  V30 4164 H 400.093 3.44862 2.4667 0
M  V30 4165 C 398.552 1.98454 2.72245 0
M  V30 4166 O 399.082 1.51939 3.71857 0
M  V30 4167 N 397.288 1.65496 2.38871 0
M  V30 4168 H 396.835 2.03517 1.57919 0
M  V30 4169 H 396.793 1.0155 2.97548 0
M  V30 4170 N 400.565 -0.0233959 1.57583 0
M  V30 4171 C 401.811 -0.714119 1.89811 0
M  V30 4172 C 402.144 -1.74702 0.848113 0
M  V30 4173 O 401.419 -1.94023 -0.136135 0
M  V30 4174 C 401.702 -1.37853 3.32669 0
M  V30 4175 C 401.555 -0.358764 4.48367 0
M  V30 4176 C 402.874 -2.31101 3.7454 0
M  V30 4177 H 399.993 -0.25814 0.690314 0
M  V30 4178 H 402.635 0.0230927 1.89986 0
M  V30 4179 H 400.785 -2.00689 3.3265 0
M  V30 4180 H 402.457 0.268115 4.6052 0
M  V30 4181 H 400.7 0.321387 4.32608 0
M  V30 4182 H 401.371 -0.862242 5.45224 0
M  V30 4183 H 403.847 -1.78304 3.75961 0
M  V30 4184 H 402.723 -2.74567 4.75294 0
M  V30 4185 H 402.984 -3.18018 3.0711 0
M  V30 4186 N 402.043 -1.548 -0.295768 0
M  V30 4187 C 403.32 -1.65014 -1.05023 0
M  V30 4188 C 403.7 -0.501805 -2.05049 0
M  V30 4189 O 403.048 0.500869 -2.22943 0
M  V30 4190 C 403.258 -3.03252 -1.72741 0
M  V30 4191 C 404.606 -3.60242 -2.24746 0
M  V30 4192 O 405.63 -3.05737 -1.82765 0
M  V30 4193 O 404.489 -4.55687 -3.01681 0
M  V30 4194 H 401.583 -0.669314 -0.485744 0
M  V30 4195 H 404.129 -1.67144 -0.293438 0
M  V30 4196 H 402.901 -3.7827 -1.00138 0
M  V30 4197 H 402.524 -3.04922 -2.55163 0
M  V30 4198 N 403.521 0.559213 -1.47345 0
M  V30 4199 C 404.484 1.64854 -1.59235 0
M  V30 4200 C 405.484 1.53851 -0.467607 0
M  V30 4201 O 406.674 1.58045 -0.732617 0
M  V30 4202 C 403.806 3.04388 -1.53496 0
M  V30 4203 H 404.999 1.55662 -2.56339 0
M  V30 4204 H 402.552 0.778973 -1.35505 0
M  V30 4205 H 403.287 3.19115 -0.577604 0
M  V30 4206 H 403.072 3.13783 -2.35123 0
M  V30 4207 H 404.562 3.83642 -1.6495 0
M  V30 4208 N 404.999 1.35443 0.805782 0
M  V30 4209 C 406.415 1.15499 1.10146 0
M  V30 4210 C 406.615 -0.0319975 2.01475 0
M  V30 4211 O 405.671 -0.70236 2.42535 0
M  V30 4212 C 406.984 2.45833 1.73166 0
M  V30 4213 C 408.532 2.52047 1.85583 0
M  V30 4214 C 409.007 3.82427 2.52019 0
M  V30 4215 N 410.498 3.83682 2.59504 0
M  V30 4216 C 411.233 4.81294 3.11679 0
M  V30 4217 N 410.729 5.89294 3.64287 0
M  V30 4218 N 412.522 4.6873 3.1024 0
M  V30 4219 H 404.673 2.11469 0.198678 0
M  V30 4220 H 406.936 0.93594 0.150731 0
M  V30 4221 H 406.642 3.32874 1.13526 0
M  V30 4222 H 406.516 2.6044 2.72857 0
M  V30 4223 H 408.903 1.65435 2.44367 0
M  V30 4224 H 408.984 2.41354 0.847455 0
M  V30 4225 H 408.628 4.69437 1.93885 0
M  V30 4226 H 408.558 3.90409 3.53395 0
M  V30 4227 H 411.049 3.05648 2.22234 0
M  V30 4228 H 411.362 6.59768 4.02401 0
M  V30 4229 H 409.707 5.92985 3.62483 0
M  V30 4230 H 412.898 3.83496 2.68419 0
M  V30 4231 H 413.071 5.44965 3.50596 0
M  V30 4232 N 406.477 -1.02803 1.19454 0
M  V30 4233 C 407.893 -1.28473 0.946937 0
M  V30 4234 C 408.093 -1.97881 -0.380202 0
M  V30 4235 O 407.149 -2.26719 -1.11151 0
M  V30 4236 C 408.462 -2.13099 2.12154 0
M  V30 4237 C 410.01 -2.26404 2.16126 0
M  V30 4238 C 410.485 -3.14402 3.33039 0
M  V30 4239 N 411.976 -3.21991 3.32981 0
M  V30 4240 C 412.711 -3.90272 4.20089 0
M  V30 4241 N 412.207 -4.60777 5.17355 0
M  V30 4242 N 414 -3.8668 4.07964 0
M  V30 4243 H 406.151 -0.561665 2.04839 0
M  V30 4244 H 408.414 -0.310438 0.89573 0
M  V30 4245 H 408.12 -1.69422 3.08203 0
M  V30 4246 H 407.994 -3.13813 2.09287 0
M  V30 4247 H 410.381 -2.69311 1.20647 0
M  V30 4248 H 410.462 -1.25237 2.23045 0
M  V30 4249 H 410.106 -2.72204 4.28798 0
M  V30 4250 H 410.036 -4.1563 3.23356 0
M  V30 4251 H 412.527 -2.71778 2.62574 0
M  V30 4252 H 412.84 -5.10513 5.80169 0
M  V30 4253 H 411.185 -4.5964 5.21302 0
M  V30 4254 H 414.376 -3.30739 3.31254 0
M  V30 4255 H 414.549 -4.39621 4.76064 0
M  V30 4256 N 407.956 -0.998596 -1.21925 0
M  V30 4257 C 409.372 -0.710303 -1.42923 0
M  V30 4258 C 409.572 0.716933 -1.88314 0
M  V30 4259 O 408.628 1.48712 -2.04062 0
M  V30 4260 C 409.941 -1.72072 -2.466 0
M  V30 4261 C 411.489 -1.73681 -2.60392 0
M  V30 4262 C 411.964 -2.73601 -3.67296 0
M  V30 4263 N 413.455 -2.7223 -3.7476 0
M  V30 4264 C 414.19 -3.46206 -4.57087 0
M  V30 4265 N 413.686 -4.29802 -5.43362 0
M  V30 4266 N 415.479 -3.34886 -4.51451 0
M  V30 4267 H 407.63 -1.92028 -0.9077 0
M  V30 4268 H 409.893 -0.828487 -0.460775 0
M  V30 4269 H 409.599 -2.74231 -2.20206 0
M  V30 4270 H 409.473 -1.51818 -3.45299 0
M  V30 4271 H 411.86 -0.722173 -2.86127 0
M  V30 4272 H 411.941 -1.98005 -1.61949 0
M  V30 4273 H 411.585 -3.75217 -3.42307 0
M  V30 4274 H 411.515 -2.46545 -4.65321 0
M  V30 4275 H 414.006 -2.11576 -3.1312 0
M  V30 4276 H 414.319 -4.83061 -6.03218 0
M  V30 4277 H 412.664 -4.33887 -5.42925 0
M  V30 4278 H 415.855 -2.69015 -3.83078 0
M  V30 4279 H 416.028 -3.92796 -5.15379 0
M  V30 4280 N 409.434 1.37368 -0.772513 0
M  V30 4281 C 410.68 2.00423 -0.3467 0
M  V30 4282 C 411.035 1.60224 1.06518 0
M  V30 4283 O 410.328 0.838712 1.72268 0
M  V30 4284 C 410.522 3.54817 -0.428876 0
M  V30 4285 C 410.351 4.10011 -1.84719 0
M  V30 4286 C 409.121 4.40927 -2.46803 0
M  V30 4287 C 411.319 4.30955 -2.80681 0
M  V30 4288 N 409.301 4.8184 -3.80399 0
M  V30 4289 C 410.672 4.74486 -3.99078 0
M  V30 4290 C 412.727 4.1309 -2.77958 0
M  V30 4291 C 411.43 5.02023 -5.15136 0
M  V30 4292 C 413.456 4.41764 -3.9319 0
M  V30 4293 C 412.818 4.85535 -5.10328 0
M  V30 4294 H 408.917 0.762413 -0.173927 0
M  V30 4295 H 411.501 1.66666 -1.00651 0
M  V30 4296 H 409.672 3.87881 0.200757 0
M  V30 4297 H 411.404 4.04696 0.0190668 0
M  V30 4298 H 408.159 4.30033 -1.98415 0
M  V30 4299 H 408.583 5.06604 -4.49089 0
M  V30 4300 H 413.225 3.7842 -1.88568 0
M  V30 4301 H 410.943 5.35582 -6.05126 0
M  V30 4302 H 414.529 4.29528 -3.92425 0
M  V30 4303 H 413.409 5.07296 -5.98013 0
M  V30 4304 N 410.912 0.523116 1.48665 0
M  V30 4305 C 412.137 -0.0117284 2.07397 0
M  V30 4306 C 412.562 -1.28031 1.37803 0
M  V30 4307 O 411.92 -1.75836 0.441762 0
M  V30 4308 C 411.968 -0.225786 3.59892 0
M  V30 4309 O 411.072 -1.29592 3.91509 0
M  V30 4310 H 410.413 0.0360673 0.66302 0
M  V30 4311 H 412.943 0.729066 1.9117 0
M  V30 4312 H 412.953 -0.450552 4.05505 0
M  V30 4313 H 411.628 0.700944 4.09951 0
M  V30 4314 H 410.205 -1.05436 3.57684 0
M  V30 4315 N 412.39 -1.55475 0.257931 0
M  V30 4316 C 413.618 -2.03609 -0.367559 0
M  V30 4317 C 414.033 -1.13687 -1.50734 0
M  V30 4318 O 413.39 -0.153479 -1.81853 0
M  V30 4319 C 413.441 -3.51001 -0.864908 0
M  V30 4320 O 413.162 -4.37499 0.229465 0
M  V30 4321 C 414.663 -4.14946 -1.55997 0
M  V30 4322 H 411.883 -0.665459 -0.0860521 0
M  V30 4323 H 414.427 -2.00843 0.385014 0
M  V30 4324 H 412.582 -3.54266 -1.56762 0
M  V30 4325 H 412.996 -5.24286 -0.14998 0
M  V30 4326 H 414.47 -5.19735 -1.85956 0
M  V30 4327 H 414.947 -3.6209 -2.4857 0
M  V30 4328 H 415.553 -4.15635 -0.901543 0
M  V30 4329 N 413.868 0.0150385 -1.57593 0
M  V30 4330 C 415.284 0.370907 -1.5523 0
M  V30 4331 C 415.484 1.75735 -0.985882 0
M  V30 4332 O 414.54 2.44944 -0.613077 0
M  V30 4333 C 415.853 0.259908 -2.99575 0
M  V30 4334 C 417.401 0.335959 -3.11192 0
M  V30 4335 C 417.876 0.254253 -4.57294 0
M  V30 4336 N 419.367 0.312618 -4.62144 0
M  V30 4337 C 420.102 0.272505 -5.72752 0
M  V30 4338 N 419.598 0.183864 -6.92556 0
M  V30 4339 N 421.391 0.323267 -5.6117 0
M  V30 4340 H 413.542 -0.892104 -1.92757 0
M  V30 4341 H 415.805 -0.340563 -0.884715 0
M  V30 4342 H 415.511 -0.693403 -3.44797 0
M  V30 4343 H 415.385 1.048 -3.62349 0
M  V30 4344 H 417.772 1.27971 -2.65909 0
M  V30 4345 H 417.853 -0.481739 -2.51223 0
M  V30 4346 H 417.497 -0.685887 -5.03247 0
M  V30 4347 H 417.427 1.09024 -5.15191 0
M  V30 4348 H 419.918 0.38307 -3.75953 0
M  V30 4349 H 420.231 0.15874 -7.72637 0
M  V30 4350 H 418.576 0.149708 -6.94839 0
M  V30 4351 H 421.767 0.390607 -4.66467 0
M  V30 4352 H 421.94 0.288539 -6.47357 0
M  V30 4353 N 415.346 1.54954 0.287554 0
M  V30 4354 C 416.586 1.76617 1.02887 0
M  V30 4355 C 416.95 0.547759 1.84021 0
M  V30 4356 O 418.151 0.642365 2.61012 0
M  V30 4357 C 416.422 3.02717 1.89993 0
M  V30 4358 S 417.981 3.45438 2.70588 0
M  V30 4359 H 414.799 0.6207 0.346775 0
M  V30 4360 H 417.401 1.93172 0.30082 0
M  V30 4361 H 416.105 3.89503 1.29287 0
M  V30 4362 H 415.636 2.88787 2.67144 0
M  V30 4363 H 417.651 3.03566 3.92508 0
M  V30 4364 N 416.824 -0.551391 1.4764 0
M  V30 4365 C 418.235 -1.13349 1.48354 0
M  V30 4366 C 418.586 -1.94709 0.241432 0
M  V30 4367 O 417.711 -2.06306 -0.653205 0
M  V30 4368 C 418.306 -2.0623 2.68802 0
M  V30 4369 C 416.865 -2.597 2.72457 0
M  V30 4370 C 416.012 -1.36201 2.41546 0
M  V30 4371 H 418.963 -0.337698 1.55065 0
M  V30 4372 H 418.984 -2.90196 2.46103 0
M  V30 4373 H 418.496 -1.46987 3.59188 0
M  V30 4374 H 416.597 -3.22724 1.86225 0
M  V30 4375 H 416.71 -3.00296 3.73308 0
M  V30 4376 H 415.074 -1.67068 1.9225 0
M  V30 4377 H 415.857 -0.787425 3.34147 0
M  V30 4378 N 418.302 -1.35869 -0.798587 0
M  V30 4379 C 419.527 -1.32883 -1.59238 0
M  V30 4380 C 419.952 0.0894587 -1.87887 0
M  V30 4381 O 419.31 1.05869 -1.47178 0
M  V30 4382 C 419.358 -2.14892 -2.89575 0
M  V30 4383 O 418.462 -1.53512 -3.82763 0
M  V30 4384 H 417.803 -0.455236 -0.48338 0
M  V30 4385 H 420.333 -1.79024 -0.990539 0
M  V30 4386 H 420.343 -2.27139 -3.38928 0
M  V30 4387 H 419.018 -3.17998 -2.68049 0
M  V30 4388 H 417.595 -1.50153 -3.41334 0
M  V30 4389 N 419.78 1.02168 -1.19998 0
M  V30 4390 C 421.027 1.75685 -1.00702 0
M  V30 4391 C 421.355 1.88947 0.461426 0
M  V30 4392 O 420.61 1.40832 1.35885 0
M  V30 4393 C 420.909 3.18081 -1.62969 0
M  V30 4394 C 420.575 3.24809 -3.12746 0
M  V30 4395 C 419.237 3.26352 -3.53621 0
M  V30 4396 C 421.589 3.23379 -4.08749 0
M  V30 4397 C 418.917 3.2413 -4.89036 0
M  V30 4398 C 421.269 3.22698 -5.44104 0
M  V30 4399 C 419.933 3.22542 -5.84399 0
M  V30 4400 H 419.203 0.642877 -0.368496 0
M  V30 4401 H 421.85 1.19865 -1.49348 0
M  V30 4402 H 420.155 3.77027 -1.06573 0
M  V30 4403 H 421.852 3.73648 -1.45561 0
M  V30 4404 H 418.442 3.2434 -2.80181 0
M  V30 4405 H 422.626 3.21361 -3.78207 0
M  V30 4406 H 417.882 3.22338 -5.19527 0
M  V30 4407 H 422.056 3.20543 -6.18244 0
M  V30 4408 H 419.683 3.20575 -6.89301 0
M  V30 4409 N 421.258 1.00505 1.21394 0
M  V30 4410 C 422.221 0.570459 2.21987 0
M  V30 4411 C 423.221 -0.353211 1.56873 0
M  V30 4412 O 424.411 -0.14349 1.73608 0
M  V30 4413 C 421.543 -0.168555 3.40483 0
M  V30 4414 H 422.736 1.46021 2.6195 0
M  V30 4415 H 420.289 0.793565 1.34656 0
M  V30 4416 H 421.024 -1.07374 3.06009 0
M  V30 4417 H 420.809 0.494823 3.88965 0
M  V30 4418 H 422.299 -0.460362 4.15055 0
M  V30 4419 N 422.737 -1.36956 0.779787 0
M  V30 4420 C 424.014 -1.93697 0.272156 0
M  V30 4421 C 424.394 -1.71267 -1.23413 0
M  V30 4422 O 423.742 -1.06607 -2.02107 0
M  V30 4423 C 423.952 -3.42812 0.654291 0
M  V30 4424 C 425.3 -4.19921 0.628602 0
M  V30 4425 O 426.324 -3.51209 0.594172 0
M  V30 4426 O 425.183 -5.42465 0.662864 0
M  V30 4427 H 422.277 -0.824447 0.0649286 0
M  V30 4428 H 424.823 -1.46196 0.861682 0
M  V30 4429 H 423.595 -3.52754 1.69353 0
M  V30 4430 H 423.218 -3.97582 0.0381369 0
M  V30 4431 N 424.215 -0.530993 -1.48385 0
M  V30 4432 C 425.464 0.00474348 -2.01699 0
M  V30 4433 C 425.777 1.35227 -1.41325 0
M  V30 4434 O 426.983 1.97643 -1.86144 0
M  V30 4435 C 425.439 0.0588473 -3.59852 0
M  V30 4436 C 425.047 -1.28385 -4.2921 0
M  V30 4437 C 426.791 0.543358 -4.21008 0
M  V30 4438 C 424.698 -1.19028 -5.79298 0
M  V30 4439 H 423.628 0.00554317 -0.75398 0
M  V30 4440 H 426.279 -0.674924 -1.70637 0
M  V30 4441 H 424.661 0.803612 -3.8776 0
M  V30 4442 H 425.835 -2.04426 -4.12973 0
M  V30 4443 H 424.15 -1.70418 -3.7993 0
M  V30 4444 H 426.747 0.631351 -5.3096 0
M  V30 4445 H 427.09 1.54937 -3.86394 0
M  V30 4446 H 427.623 -0.145754 -3.97533 0
M  V30 4447 H 424.362 -2.17147 -6.18488 0
M  V30 4448 H 423.882 -0.471246 -5.97946 0
M  V30 4449 H 425.561 -0.881365 -6.40969 0
M  V30 4450 N 425.693 1.55336 -0.266172 0
M  V30 4451 C 426.656 2.20878 0.612001 0
M  V30 4452 C 427.656 1.18388 1.08816 0
M  V30 4453 O 428.846 1.4335 0.989774 0
M  V30 4454 C 425.978 2.86765 1.84332 0
M  V30 4455 H 427.171 2.99873 0.0398718 0
M  V30 4456 H 424.724 1.56291 -0.0167309 0
M  V30 4457 H 425.459 2.11759 2.45619 0
M  V30 4458 H 425.244 3.61862 1.5099 0
M  V30 4459 H 426.734 3.36867 2.46801 0
M  V30 4460 N 427.171 -0.0066808 1.57599 0
M  V30 4461 C 428.103 -1.02827 2.04839 0
M  V30 4462 C 429.116 -1.31108 0.965113 0
M  V30 4463 O 430.305 -1.28202 1.24203 0
M  V30 4464 C 427.405 -2.36464 2.42771 0
M  V30 4465 C 426.578 -2.27219 3.73751 0
M  V30 4466 C 425.637 -3.43489 3.98625 0
M  V30 4467 O 424.663 -3.21976 4.69382 0
M  V30 4468 N 425.865 -4.66116 3.46 0
M  V30 4469 H 428.63 -0.625455 2.93101 0
M  V30 4470 H 426.191 -0.194198 1.60731 0
M  V30 4471 H 428.183 -3.13008 2.56531 0
M  V30 4472 H 426.753 -2.68512 1.60063 0
M  V30 4473 H 425.973 -1.35629 3.70133 0
M  V30 4474 H 427.261 -2.18208 4.59633 0
M  V30 4475 H 426.659 -4.86493 2.88688 0
M  V30 4476 H 425.216 -5.39949 3.65101 0
M  V30 4477 N 428.649 -1.55105 -0.279332 0
M  V30 4478 C 429.612 -1.86783 -1.32834 0
M  V30 4479 C 430.612 -0.74199 -1.42657 0
M  V30 4480 O 431.802 -1.0102 -1.41918 0
M  V30 4481 C 428.934 -2.06746 -2.71052 0
M  V30 4482 H 430.127 -2.8055 -1.05979 0
M  V30 4483 H 427.68 -1.47499 -0.517087 0
M  V30 4484 H 428.415 -1.15339 -3.03097 0
M  V30 4485 H 428.2 -2.88711 -2.65309 0
M  V30 4486 H 429.69 -2.32549 -3.46858 0
M  V30 4487 N 430.127 0.543554 -1.4793 0
M  V30 4488 C 431.355 1.32516 -1.58894 0
M  V30 4489 C 431.77 1.87215 -0.244131 0
M  V30 4490 O 431.127 1.65709 0.764652 0
M  V30 4491 C 431.178 2.48554 -2.62494 0
M  V30 4492 O 430.899 1.96112 -3.91755 0
M  V30 4493 C 432.4 3.40572 -2.8377 0
M  V30 4494 H 429.62 0.403472 -0.536145 0
M  V30 4495 H 432.164 0.657106 -1.93655 0
M  V30 4496 H 430.319 3.1127 -2.30629 0
M  V30 4497 H 430.733 2.71967 -4.4848 0
M  V30 4498 H 432.207 4.18375 -3.60093 0
M  V30 4499 H 432.684 3.94965 -1.92092 0
M  V30 4500 H 433.29 2.8366 -3.16887 0
M  V30 4501 N 431.605 1.3629 0.791371 0
M  V30 4502 C 432.568 1.30309 1.88553 0
M  V30 4503 C 433.568 0.211204 1.59407 0
M  V30 4504 O 434.758 0.465865 1.67855 0
M  V30 4505 C 431.89 1.01956 3.25297 0
M  V30 4506 H 433.083 2.27614 1.95273 0
M  V30 4507 H 430.636 1.21035 0.988953 0
M  V30 4508 H 431.371 0.050998 3.2426 0
M  V30 4509 H 431.156 1.80968 3.4784 0
M  V30 4510 H 432.646 1.0037 4.05359 0
M  V30 4511 N 433.083 -1.0153 1.20538 0
M  V30 4512 C 434.046 -2.0826 0.957098 0
M  V30 4513 C 435.046 -1.60657 -0.0678655 0
M  V30 4514 O 436.236 -1.73385 0.168332 0
M  V30 4515 C 433.368 -3.38033 0.441188 0
M  V30 4516 H 434.561 -2.31719 1.90384 0
M  V30 4517 H 432.114 -1.1835 1.02093 0
M  V30 4518 H 432.849 -3.20249 -0.510961 0
M  V30 4519 H 432.634 -3.73911 1.18038 0
M  V30 4520 H 434.124 -4.16613 0.287009 0
M  V30 4521 N 434.561 -1.01147 -1.20859 0
M  V30 4522 C 435.491 -0.597663 -2.25722 0
M  V30 4523 C 436.472 0.384744 -1.65692 0
M  V30 4524 O 437.657 0.271303 -1.92296 0
M  V30 4525 C 434.787 0.0700149 -3.47229 0
M  V30 4526 C 433.741 -0.832843 -4.19819 0
M  V30 4527 C 433.067 -0.0312202 -5.34691 0
M  V30 4528 C 434.367 -2.1385 -4.76514 0
M  V30 4529 H 436.061 -1.47423 -2.60589 0
M  V30 4530 H 433.607 -0.710301 -1.25263 0
M  V30 4531 H 435.56 0.37103 -4.19763 0
M  V30 4532 H 434.284 0.981259 -3.11511 0
M  V30 4533 H 432.943 -1.11778 -3.49144 0
M  V30 4534 H 432.591 0.881515 -4.95215 0
M  V30 4535 H 432.291 -0.632434 -5.84187 0
M  V30 4536 H 433.815 0.26346 -6.10031 0
M  V30 4537 H 435.229 -1.9002 -5.40893 0
M  V30 4538 H 433.626 -2.69012 -5.36426 0
M  V30 4539 H 434.696 -2.80495 -3.95538 0
M  V30 4540 N 436.039 1.36541 -0.78704 0
M  V30 4541 C 436.949 2.3387 -0.184896 0
M  V30 4542 C 437.965 1.60927 0.661697 0
M  V30 4543 O 439.141 1.92927 0.57804 0
M  V30 4544 C 436.206 3.40122 0.672145 0
M  V30 4545 C 435.267 4.28867 -0.19267 0
M  V30 4546 C 434.5 5.30045 0.623561 0
M  V30 4547 O 434.723 5.39232 1.8597 0
M  V30 4548 O 433.657 6.01895 0.0247068 0
M  V30 4549 H 437.483 2.87126 -0.989562 0
M  V30 4550 H 435.068 1.38969 -0.548455 0
M  V30 4551 H 436.95 4.05093 1.16094 0
M  V30 4552 H 435.625 2.89169 1.45474 0
M  V30 4553 H 434.532 3.66945 -0.728166 0
M  V30 4554 H 435.865 4.83165 -0.938722 0
M  V30 4555 N 437.518 0.538854 1.48102 0
M  V30 4556 C 438.448 -0.207654 2.32575 0
M  V30 4557 C 439.429 -0.926559 1.4265 0
M  V30 4558 O 440.614 -0.91061 1.71527 0
M  V30 4559 C 437.744 -1.24957 3.24042 0
M  V30 4560 C 436.698 -0.648263 4.23062 0
M  V30 4561 C 436.024 -1.79348 5.03725 0
M  V30 4562 C 437.324 0.385897 5.20872 0
M  V30 4563 H 439.018 0.497534 2.95237 0
M  V30 4564 H 436.564 0.240715 1.41974 0
M  V30 4565 H 438.517 -1.77983 3.81969 0
M  V30 4566 H 437.241 -1.98446 2.59397 0
M  V30 4567 H 435.9 -0.139452 3.66335 0
M  V30 4568 H 435.548 -2.51696 4.35498 0
M  V30 4569 H 435.248 -1.39702 5.70751 0
M  V30 4570 H 436.772 -2.32735 5.64506 0
M  V30 4571 H 438.186 -0.057607 5.73271 0
M  V30 4572 H 436.583 0.700227 5.96001 0
M  V30 4573 H 437.653 1.28848 4.67468 0
M  V30 4574 N 438.996 -1.55193 0.274407 0
M  V30 4575 C 440.244 -1.99187 -0.341902 0
M  V30 4576 C 440.565 -1.16422 -1.56431 0
M  V30 4577 O 439.835 -0.253573 -1.94252 0
M  V30 4578 H 438.415 -0.735721 -0.129317 0
M  V30 4579 H 441.077 -1.91168 0.379578 0
M  V30 4580 H 440.173 -3.05629 -0.632253 0
M  V30 4581 N 440.474 -0.00167713 -1.576 0
M  V30 4582 C 441.885 0.54091 -1.78693 0
M  V30 4583 C 442.236 1.7386 -0.909247 0
M  V30 4584 O 441.361 2.16109 -0.112176 0
M  V30 4585 C 441.956 0.98806 -3.24072 0
M  V30 4586 C 440.515 1.47594 -3.46256 0
M  V30 4587 C 439.662 0.42792 -2.73978 0
M  V30 4588 H 442.613 -0.22784 -1.57056 0
M  V30 4589 H 442.634 1.85398 -3.32277 0
M  V30 4590 H 442.146 0.116164 -3.87926 0
M  V30 4591 H 440.247 2.36868 -2.87618 0
M  V30 4592 H 440.36 1.50225 -4.54939 0
M  V30 4593 H 438.724 0.889934 -2.38647 0
M  V30 4594 H 439.507 -0.435038 -3.40532 0
M  V30 4595 N 441.952 1.55251 0.271103 0
M  V30 4596 C 443.182 1.79713 1.01916 0
M  V30 4597 C 443.59 0.571613 1.80359 0
M  V30 4598 O 442.933 -0.468853 1.77616 0
M  V30 4599 C 442.995 2.97138 2.02359 0
M  V30 4600 C 442.659 4.34104 1.42837 0
M  V30 4601 C 443.656 5.13019 0.843071 0
M  V30 4602 C 441.341 4.80765 1.455 0
M  V30 4603 C 443.335 6.36729 0.292333 0
M  V30 4604 C 441.022 6.0443 0.900402 0
M  V30 4605 C 442.02 6.8225 0.32007 0
M  V30 4606 O 441.708 8.03582 -0.226031 0
M  V30 4607 H 441.44 0.602431 0.306681 0
M  V30 4608 H 443.994 2.03097 0.306701 0
M  V30 4609 H 442.224 2.6945 2.77369 0
M  V30 4610 H 443.913 3.08907 2.63309 0
M  V30 4611 H 444.679 4.781 0.815178 0
M  V30 4612 H 440.558 4.20202 1.89609 0
M  V30 4613 H 444.102 6.97414 -0.161274 0
M  V30 4614 H 439.999 6.3883 0.925541 0
M  V30 4615 H 440.767 8.18418 -0.115572 0
M  V30 4616 N 443.43 -0.535701 1.48216 0
M  V30 4617 C 444.676 -1.29375 1.56173 0
M  V30 4618 C 445.009 -1.92804 0.232429 0
M  V30 4619 O 444.284 -1.78992 -0.761048 0
M  V30 4620 C 444.567 -2.38747 2.69577 0
M  V30 4621 C 444.42 -1.80046 4.12193 0
M  V30 4622 C 445.739 -3.40551 2.78771 0
M  V30 4623 H 442.858 -0.469027 0.568491 0
M  V30 4624 H 445.5 -0.597358 1.80365 0
M  V30 4625 H 443.65 -2.98147 2.4908 0
M  V30 4626 H 445.322 -1.24742 4.44114 0
M  V30 4627 H 443.565 -1.10609 4.19462 0
M  V30 4628 H 444.236 -2.59212 4.87353 0
M  V30 4629 H 446.712 -2.91099 2.97322 0
M  V30 4630 H 445.588 -4.1448 3.59857 0
M  V30 4631 H 445.849 -4.00746 1.86696 0
M  V30 4632 N 444.908 -1.36708 -0.784132 0
M  V30 4633 C 446.156 -1.30972 -1.53918 0
M  V30 4634 C 446.477 0.109086 -1.94695 0
M  V30 4635 O 445.747 1.05048 -1.65353 0
M  V30 4636 H 444.327 -0.481819 -0.570841 0
M  V30 4637 H 446.989 -1.71063 -0.934002 0
M  V30 4638 H 446.085 -1.94061 -2.44431 0
M  V30 4639 N 446.386 1.0089 -1.21074 0
M  V30 4640 C 447.616 1.77933 -1.04993 0
M  V30 4641 C 448.024 1.84847 0.403495 0
M  V30 4642 O 447.367 1.30606 1.29181 0
M  V30 4643 C 447.429 3.23541 -1.56722 0
M  V30 4644 C 447.093 3.40214 -3.05129 0
M  V30 4645 C 448.09 3.2881 -4.02716 0
M  V30 4646 C 445.775 3.65781 -3.44252 0
M  V30 4647 C 447.769 3.42732 -5.37414 0
M  V30 4648 C 445.456 3.79346 -4.79103 0
M  V30 4649 C 446.454 3.67827 -5.75493 0
M  V30 4650 O 446.142 3.80965 -7.07899 0
M  V30 4651 H 445.874 0.566157 -0.369381 0
M  V30 4652 H 448.428 1.27826 -1.60779 0
M  V30 4653 H 446.658 3.74766 -0.953285 0
M  V30 4654 H 448.347 3.82245 -1.36543 0
M  V30 4655 H 449.113 3.08986 -3.73835 0
M  V30 4656 H 444.992 3.73831 -2.69762 0
M  V30 4657 H 448.536 3.33658 -6.12632 0
M  V30 4658 H 444.433 3.98672 -5.07672 0
M  V30 4659 H 445.201 3.97937 -7.15254 0
M  V30 4660 N 447.864 1.01787 1.20321 0
M  V30 4661 C 448.796 0.547357 2.22568 0
M  V30 4662 C 449.809 -0.370922 1.58518 0
M  V30 4663 O 450.998 -0.169067 1.77698 0
M  V30 4664 C 448.098 -0.223031 3.38165 0
M  V30 4665 C 447.271 0.697472 4.31803 0
M  V30 4666 C 446.33 -0.025562 5.26194 0
M  V30 4667 O 445.356 0.597367 5.66057 0
M  V30 4668 N 446.558 -1.29999 5.65757 0
M  V30 4669 H 449.323 1.42668 2.63564 0
M  V30 4670 H 446.884 0.895552 1.34876 0
M  V30 4671 H 448.876 -0.716002 3.98316 0
M  V30 4672 H 447.446 -1.00366 2.9605 0
M  V30 4673 H 446.666 1.37073 3.69601 0
M  V30 4674 H 447.954 1.32347 4.91286 0
M  V30 4675 H 447.352 -1.827 5.35385 0
M  V30 4676 H 445.909 -1.73766 6.28211 0
M  V30 4677 N 449.342 -1.36122 0.79427 0
M  V30 4678 C 450.588 -1.99406 0.369452 0
M  V30 4679 C 450.921 -1.62886 -1.05743 0
M  V30 4680 O 450.196 -0.886053 -1.73145 0
M  V30 4681 C 450.479 -3.56046 0.538833 0
M  V30 4682 C 450.332 -4.02404 2.00976 0
M  V30 4683 C 451.651 -4.40079 -0.0431359 0
M  V30 4684 H 448.77 -0.724397 0.135712 0
M  V30 4685 H 451.412 -1.61461 1.00151 0
M  V30 4686 H 449.562 -3.885 0.000771004 0
M  V30 4687 H 451.234 -3.80415 2.60926 0
M  V30 4688 H 449.477 -3.53765 2.51063 0
M  V30 4689 H 450.148 -5.11344 2.07922 0
M  V30 4690 H 452.624 -4.14013 0.416228 0
M  V30 4691 H 451.5 -5.48799 0.105374 0
M  V30 4692 H 451.761 -4.27264 -1.13571 0
M  V30 4693 N 450.82 -0.546701 -1.47814 0
M  V30 4694 C 451.753 0.254472 -2.26777 0
M  V30 4695 C 452.731 0.929809 -1.33392 0
M  V30 4696 O 453.915 0.950889 -1.62759 0
M  V30 4697 C 451.042 1.36171 -3.10121 0
M  V30 4698 C 450.088 0.796038 -4.19005 0
M  V30 4699 S 450.921 -0.349191 -5.3436 0
M  V30 4700 C 452.077 0.760122 -6.21267 0
M  V30 4701 H 452.31 -0.415612 -2.94381 0
M  V30 4702 H 449.843 -0.332809 -1.5077 0
M  V30 4703 H 451.801 1.99588 -3.58713 0
M  V30 4704 H 450.462 2.00359 -2.41899 0
M  V30 4705 H 449.655 1.62719 -4.7701 0
M  V30 4706 H 449.257 0.238246 -3.7324 0
M  V30 4707 H 451.549 1.65479 -6.5698 0
M  V30 4708 H 452.492 0.217673 -7.07765 0
M  V30 4709 H 452.9 1.04806 -5.54685 0
M  V30 4710 N 452.299 1.55045 -0.282633 0
M  V30 4711 C 453.715 1.59441 0.0712997 0
M  V30 4712 C 453.915 1.2998 1.53972 0
M  V30 4713 O 452.971 1.06431 2.28973 0
M  V30 4714 C 454.284 2.99097 -0.310104 0
M  V30 4715 C 455.832 3.1194 -0.257343 0
M  V30 4716 C 456.307 4.53875 -0.613297 0
M  V30 4717 N 457.798 4.5974 -0.565134 0
M  V30 4718 C 458.533 5.67603 -0.81326 0
M  V30 4719 N 458.029 6.83582 -1.1264 0
M  V30 4720 N 459.822 5.57187 -0.741553 0
M  V30 4721 H 451.973 1.72458 -1.23984 0
M  V30 4722 H 454.236 0.804549 -0.501403 0
M  V30 4723 H 453.942 3.25516 -1.33163 0
M  V30 4724 H 453.816 3.75616 0.345366 0
M  V30 4725 H 456.203 2.85281 0.754905 0
M  V30 4726 H 456.284 2.37618 -0.947178 0
M  V30 4727 H 455.928 4.81261 -1.62327 0
M  V30 4728 H 455.858 5.26508 0.09841 0
M  V30 4729 H 458.349 3.76427 -0.333294 0
M  V30 4730 H 458.662 7.6175 -1.30219 0
M  V30 4731 H 457.007 6.85179 -1.16425 0
M  V30 4732 H 460.198 4.65457 -0.496705 0
M  V30 4733 H 460.371 6.41171 -0.938306 0
M  V30 4734 N 453.777 0.010035 1.57597 0
M  V30 4735 C 455.025 -0.671371 1.90623 0
M  V30 4736 C 455.346 -1.73753 0.885151 0
M  V30 4737 O 454.616 -1.95752 -0.0760611 0
M  V30 4738 H 453.196 -0.250968 0.703579 0
M  V30 4739 H 455.858 0.0533325 1.94827 0
M  V30 4740 H 454.954 -1.13626 2.90681 0
M  V30 4741 N 455.255 -1.55392 -0.262866 0
M  V30 4742 C 456.185 -1.91978 -1.32917 0
M  V30 4743 C 457.166 -0.7828 -1.51017 0
M  V30 4744 O 458.351 -1.04178 -1.63892 0
M  V30 4745 C 455.481 -2.20055 -2.68687 0
M  V30 4746 C 454.435 -3.35854 -2.65304 0
M  V30 4747 C 453.761 -3.49435 -4.04721 0
M  V30 4748 C 455.061 -4.71977 -2.23685 0
M  V30 4749 H 456.755 -2.81292 -1.02544 0
M  V30 4750 H 454.301 -1.3534 -0.491846 0
M  V30 4751 H 456.254 -2.44237 -3.43404 0
M  V30 4752 H 454.978 -1.27551 -3.00663 0
M  V30 4753 H 453.637 -3.11655 -1.93045 0
M  V30 4754 H 453.285 -2.54379 -4.33936 0
M  V30 4755 H 452.985 -4.27297 -4.0335 0
M  V30 4756 H 454.509 -3.7592 -4.81161 0
M  V30 4757 H 455.923 -4.95637 -2.88127 0
M  V30 4758 H 454.32 -5.52828 -2.33456 0
M  V30 4759 H 455.39 -4.70115 -1.18827 0
M  V30 4760 N 456.733 0.527833 -1.48498 0
M  V30 4761 C 457.666 1.64892 -1.57753 0
M  V30 4762 C 458.644 1.5687 -0.427867 0
M  V30 4763 O 459.828 1.77311 -0.639764 0
M  V30 4764 C 456.955 3.03301 -1.50752 0
M  V30 4765 C 456.001 3.29675 -2.70586 0
M  V30 4766 S 456.834 3.15712 -4.32535 0
M  V30 4767 C 457.99 4.56564 -4.28136 0
M  V30 4768 H 458.223 1.56792 -2.52594 0
M  V30 4769 H 455.756 0.710959 -1.37057 0
M  V30 4770 H 457.714 3.83123 -1.474 0
M  V30 4771 H 456.375 3.08839 -0.572454 0
M  V30 4772 H 455.568 4.3065 -2.61833 0
M  V30 4773 H 455.17 2.57526 -2.71212 0
M  V30 4774 H 457.462 5.48126 -3.98201 0
M  V30 4775 H 458.405 4.70371 -5.29298 0
M  V30 4776 H 458.813 4.35987 -3.58574 0
M  V30 4777 N 458.211 1.37122 0.776871 0
M  V30 4778 C 459.622 1.28667 1.35284 0
M  V30 4779 C 459.973 -0.0680035 1.96082 0
M  V30 4780 O 459.098 -0.969743 1.93455 0
M  V30 4781 C 459.693 2.32997 2.45963 0
M  V30 4782 C 458.252 2.28191 2.99342 0
M  V30 4783 C 457.399 2.17101 1.72517 0
M  V30 4784 H 460.35 1.47819 0.577527 0
M  V30 4785 H 460.371 1.97366 3.2531 0
M  V30 4786 H 459.883 3.3158 2.01684 0
M  V30 4787 H 457.984 1.33115 3.4801 0
M  V30 4788 H 458.097 3.21397 3.55304 0
M  V30 4789 H 456.461 1.63562 1.95242 0
M  V30 4790 H 457.244 3.17591 1.30348 0
M  V30 4791 N 459.689 -1.00246 1.21608 0
M  V30 4792 C 460.619 -2.10921 1.00172 0
M  V30 4793 C 461.6 -1.69938 -0.0741587 0
M  V30 4794 O 462.785 -1.94009 0.0861753 0
M  V30 4795 C 459.915 -3.42618 0.568355 0
M  V30 4796 C 458.869 -3.97407 1.58909 0
M  V30 4797 C 458.195 -5.25038 1.01187 0
M  V30 4798 C 459.495 -4.2918 2.97661 0
M  V30 4799 H 461.189 -2.29112 1.92739 0
M  V30 4800 H 458.735 -1.10101 0.928102 0
M  V30 4801 H 460.688 -4.19444 0.405555 0
M  V30 4802 H 459.412 -3.24227 -0.392961 0
M  V30 4803 H 458.071 -3.22703 1.73949 0
M  V30 4804 H 457.719 -5.02982 0.0421965 0
M  V30 4805 H 457.419 -5.62661 1.6937 0
M  V30 4806 H 458.943 -6.04507 0.860448 0
M  V30 4807 H 460.357 -4.96839 2.86049 0
M  V30 4808 H 458.754 -4.77952 3.6288 0
M  V30 4809 H 459.824 -3.3735 3.48315 0
M  V30 4810 N 461.167 -1.02423 -1.1978 0
M  V30 4811 C 462.13 -0.605703 -2.21052 0
M  V30 4812 C 463.13 0.328209 -1.57415 0
M  V30 4813 O 464.32 0.115853 -1.73814 0
M  V30 4814 C 461.452 0.114366 -3.40708 0
M  V30 4815 H 462.645 -1.5017 -2.59594 0
M  V30 4816 H 460.198 -0.814888 -1.33376 0
M  V30 4817 H 460.933 1.02492 -3.07678 0
M  V30 4818 H 460.718 -0.556641 -3.88129 0
M  V30 4819 H 462.208 0.394272 -4.15735 0
M  V30 4820 N 462.645 1.35699 -0.801477 0
M  V30 4821 C 463.892 1.98913 -0.379459 0
M  V30 4822 C 464.22 1.63592 1.05204 0
M  V30 4823 O 463.475 0.888563 1.74365 0
M  V30 4824 C 463.774 3.53828 -0.504041 0
M  V30 4825 C 463.44 4.09002 -1.8981 0
M  V30 4826 C 462.102 4.23783 -2.27951 0
M  V30 4827 C 464.454 4.38939 -2.81038 0
M  V30 4828 C 461.782 4.65816 -3.56696 0
M  V30 4829 C 464.134 4.82409 -4.09224 0
M  V30 4830 C 462.798 4.95395 -4.4737 0
M  V30 4831 H 462.068 0.727874 -0.138854 0
M  V30 4832 H 464.715 1.61994 -1.02128 0
M  V30 4833 H 463.02 3.91175 0.221242 0
M  V30 4834 H 464.717 4.00687 -0.158361 0
M  V30 4835 H 461.307 3.97946 -1.59176 0
M  V30 4836 H 465.491 4.27077 -2.52821 0
M  V30 4837 H 460.747 4.74059 -3.86106 0
M  V30 4838 H 464.921 5.04535 -4.80018 0
M  V30 4839 H 462.548 5.27724 -5.47185 0
M  V30 4840 N 464.123 0.554532 1.47522 0
M  V30 4841 C 465.363 0.0317994 2.04375 0
M  V30 4842 C 465.727 -1.29242 1.41988 0
M  V30 4843 O 466.928 -1.90269 1.89872 0
M  V30 4844 C 465.199 -0.0623344 3.57346 0
M  V30 4845 S 466.758 -0.531578 4.35568 0
M  V30 4846 H 463.576 0.0238553 0.7106 0
M  V30 4847 H 466.178 0.74066 1.80927 0
M  V30 4848 H 464.882 0.905857 4.00278 0
M  V30 4849 H 464.413 -0.794831 3.85287 0
M  V30 4850 H 466.428 -1.79175 4.62721 0
M  V30 4851 N 465.601 -1.54893 0.290851 0
M  V30 4852 C 466.847 -2.0023 -0.321867 0
M  V30 4853 C 467.18 -1.179 -1.54316 0
M  V30 4854 O 466.455 -0.25293 -1.92848 0
M  V30 4855 C 466.738 -3.53456 -0.688515 0
M  V30 4856 C 466.591 -4.46532 0.541209 0
M  V30 4857 C 467.91 -4.13057 -1.51895 0
M  V30 4858 H 465.029 -0.727891 -0.115515 0
M  V30 4859 H 467.671 -1.85722 0.400931 0
M  V30 4860 H 465.821 -3.6595 -1.30433 0
M  V30 4861 H 467.493 -4.4596 1.17973 0
M  V30 4862 H 465.736 -4.17545 1.17636 0
M  V30 4863 H 466.407 -5.51475 0.240675 0
M  V30 4864 H 468.883 -4.03937 -0.99872 0
M  V30 4865 H 467.759 -5.20448 -1.74429 0
M  V30 4866 H 468.02 -3.64284 -2.50498 0
M  V30 4867 N 467.08 -0.0183926 -1.57589 0
M  V30 4868 C 468.03 0.975944 -2.06057 0
M  V30 4869 C 469.014 1.29204 -0.958908 0
M  V30 4870 O 470.206 1.27995 -1.22255 0
M  V30 4871 C 467.335 2.26194 -2.58247 0
M  V30 4872 C 466.421 1.97467 -3.75323 0
M  V30 4873 N 466.812 1.38968 -4.86335 0
M  V30 4874 C 465.11 2.27515 -3.83605 0
M  V30 4875 C 465.811 1.27131 -5.67638 0
M  V30 4876 N 464.787 1.76319 -5.14211 0
M  V30 4877 H 468.589 0.518444 -2.89291 0
M  V30 4878 H 466.103 0.18688 -1.61321 0
M  V30 4879 H 468.1 2.98289 -2.91255 0
M  V30 4880 H 466.76 2.7258 -1.76438 0
M  V30 4881 H 467.771 1.06608 -5.06809 0
M  V30 4882 H 464.448 2.76649 -3.12684 0
M  V30 4883 H 465.838 0.819882 -6.66879 0
M  V30 4884 N 468.558 1.5553 0.254621 0
M  V30 4885 C 469.969 1.67518 0.824286 0
M  V30 4886 C 470.32 0.614429 1.86331 0
M  V30 4887 O 469.445 -0.240736 2.15057 0
M  V30 4888 C 470.04 3.03692 1.50189 0
M  V30 4889 C 468.599 3.17646 2.01935 0
M  V30 4890 C 467.746 2.63373 0.867746 0
M  V30 4891 H 470.697 1.58671 0.0305843 0
M  V30 4892 H 470.718 2.97706 2.36962 0
M  V30 4893 H 470.23 3.80874 0.745431 0
M  V30 4894 H 468.331 2.45273 2.80485 0
M  V30 4895 H 468.444 4.24455 2.22204 0
M  V30 4896 H 466.808 2.20999 1.26616 0
M  V30 4897 H 467.591 3.43074 0.124498 0
M  V30 4898 N 470.036 -0.519951 1.48776 0
M  V30 4899 C 470.966 -1.63253 1.66945 0
M  V30 4900 C 471.947 -1.62014 0.518224 0
M  V30 4901 O 473.132 -1.79053 0.751919 0
M  V30 4902 C 470.262 -3.0181 1.71836 0
M  V30 4903 C 469.216 -3.17911 2.8656 0
M  V30 4904 C 468.542 -4.5763 2.76548 0
M  V30 4905 C 469.842 -2.99729 4.27738 0
M  V30 4906 H 471.536 -1.48302 2.6009 0
M  V30 4907 H 469.082 -0.712026 1.25165 0
M  V30 4908 H 471.035 -3.79525 1.83135 0
M  V30 4909 H 469.759 -3.17806 0.752775 0
M  V30 4910 H 468.418 -2.42616 2.74833 0
M  V30 4911 H 468.066 -4.70476 1.77937 0
M  V30 4912 H 467.766 -4.69346 3.53536 0
M  V30 4913 H 469.29 -5.37431 2.89828 0
M  V30 4914 H 470.704 -3.67228 4.40246 0
M  V30 4915 H 469.101 -3.22932 5.05801 0
M  V30 4916 H 470.171 -1.96047 4.43502 0
M  V30 4917 N 471.514 -1.37532 -0.769588 0
M  V30 4918 C 472.444 -1.36172 -1.89682 0
M  V30 4919 C 473.425 -0.23001 -1.68538 0
M  V30 4920 O 474.61 -0.43069 -1.89364 0
M  V30 4921 C 471.74 -1.1701 -3.26995 0
M  V30 4922 C 470.694 -2.27216 -3.62708 0
M  V30 4923 C 470.02 -1.93174 -4.98586 0
M  V30 4924 C 471.32 -3.6941 -3.69234 0
M  V30 4925 H 473.014 -2.30499 -1.91078 0
M  V30 4926 H 470.56 -1.10953 -0.917902 0
M  V30 4927 H 472.513 -1.14688 -4.05493 0
M  V30 4928 H 471.237 -0.191395 -3.26039 0
M  V30 4929 H 469.896 -2.28697 -2.86519 0
M  V30 4930 H 469.544 -0.938281 -4.94171 0
M  V30 4931 H 469.244 -2.66973 -5.23449 0
M  V30 4932 H 470.768 -1.92443 -5.79481 0
M  V30 4933 H 472.182 -3.70047 -4.37879 0
M  V30 4934 H 470.579 -4.4228 -4.05597 0
M  V30 4935 H 471.649 -4.0288 -2.69844 0
M  V30 4936 N 472.992 0.995999 -1.22138 0
M  V30 4937 C 474.222 1.76809 -1.06874 0
M  V30 4938 C 474.63 1.85265 0.383866 0
M  V30 4939 O 473.973 1.31969 1.27789 0
M  V30 4940 C 474.035 3.2186 -1.60144 0
M  V30 4941 C 473.699 3.36958 -3.0872 0
M  V30 4942 C 474.696 3.2452 -4.0618 0
M  V30 4943 C 472.381 3.62109 -3.48112 0
M  V30 4944 C 474.375 3.37013 -5.41019 0
M  V30 4945 C 472.062 3.74243 -4.831 0
M  V30 4946 C 473.06 3.61702 -5.79362 0
M  V30 4947 O 472.748 3.73436 -7.119 0
M  V30 4948 H 472.48 0.562207 -0.375365 0
M  V30 4949 H 475.034 1.26113 -1.62125 0
M  V30 4950 H 473.264 3.73734 -0.992981 0
M  V30 4951 H 474.953 3.80775 -1.40589 0
M  V30 4952 H 475.719 3.05004 -3.77091 0
M  V30 4953 H 471.598 3.70949 -2.73712 0
M  V30 4954 H 475.142 3.27141 -6.16137 0
M  V30 4955 H 471.039 3.93266 -5.11872 0
M  V30 4956 H 471.807 3.90328 -7.19435 0
M  V30 4957 N 474.47 1.03057 1.19235 0
M  V30 4958 C 475.403 0.557384 2.21288 0
M  V30 4959 C 476.381 -0.402675 1.57535 0
M  V30 4960 O 477.565 -0.319376 1.85775 0
M  V30 4961 C 474.692 -0.187041 3.38183 0
M  V30 4962 C 473.738 0.72471 4.20298 0
M  V30 4963 S 474.571 2.20187 4.88137 0
M  V30 4964 C 475.727 1.46801 6.08441 0
M  V30 4965 H 475.96 1.42207 2.61083 0
M  V30 4966 H 473.493 0.840651 1.29508 0
M  V30 4967 H 475.451 -0.610405 4.05936 0
M  V30 4968 H 474.112 -1.02748 2.96819 0
M  V30 4969 H 473.305 0.149911 5.03777 0
M  V30 4970 H 472.907 1.08647 3.57871 0
M  V30 4971 H 475.199 0.755522 6.73274 0
M  V30 4972 H 476.142 2.27946 6.70407 0
M  V30 4973 H 476.55 0.964762 5.56195 0
M  V30 4974 N 475.948 -1.35272 0.808662 0
M  V30 4975 C 476.911 -2.28082 0.226093 0
M  V30 4976 C 477.911 -1.49673 -0.587762 0
M  V30 4977 O 479.101 -1.69404 -0.405943 0
M  V30 4978 C 476.233 -3.33955 -0.684596 0
M  V30 4979 H 477.426 -2.81116 1.04469 0
M  V30 4980 H 474.979 -1.45162 0.579466 0
M  V30 4981 H 475.714 -2.86111 -1.5268 0
M  V30 4982 H 475.499 -3.91965 -0.102699 0
M  V30 4983 H 476.989 -4.03219 -1.08646 0
M  V30 4984 N 477.426 -0.562348 -1.47226 0
M  V30 4985 C 478.389 0.172056 -2.28553 0
M  V30 4986 C 479.389 0.837928 -1.37242 0
M  V30 4987 O 480.579 0.693001 -1.59822 0
M  V30 4988 C 477.711 1.25223 -3.17068 0
M  V30 4989 H 478.904 -0.542401 -2.94954 0
M  V30 4990 H 476.457 -0.319493 -1.53 0
M  V30 4991 H 477.192 1.99892 -2.55369 0
M  V30 4992 H 476.977 0.779515 -3.84273 0
M  V30 4993 H 478.467 1.76791 -3.78332 0
M  V30 4994 N 478.904 1.54736 -0.299062 0
M  V30 4995 C 480.15 2.00397 0.311244 0
M  V30 4996 C 480.483 1.18716 1.53688 0
M  V30 4997 O 479.758 0.263154 1.92712 0
M  V30 4998 C 480.041 3.53817 0.669761 0
M  V30 4999 C 479.894 4.46239 -0.564882 0
M  V30 5000 C 481.213 4.13856 1.49702 0
M  V30 5001 H 478.332 0.728493 0.111653 0
M  V30 5002 H 480.974 1.85506 -0.410774 0
M  V30 5003 H 479.124 3.66637 1.28491 0
M  V30 5004 H 480.796 4.45328 -1.20337 0
M  V30 5005 H 479.039 4.16916 -1.19849 0
M  V30 5006 H 479.71 5.5134 -0.269918 0
M  V30 5007 H 482.186 4.04461 0.977284 0
M  V30 5008 H 481.062 5.21365 1.71666 0
M  V30 5009 H 481.323 3.65608 2.48563 0
M  V30 5010 N 480.382 0.0267497 1.57577 0
M  V30 5011 C 481.793 -0.512413 1.79531 0
M  V30 5012 C 482.144 -1.72391 0.936791 0
M  V30 5013 O 481.269 -2.15903 0.146543 0
M  V30 5014 C 481.864 -0.936378 3.25603 0
M  V30 5015 C 480.423 -1.42067 3.4856 0
M  V30 5016 C 479.57 -0.384278 2.74624 0
M  V30 5017 H 482.521 0.252797 1.56674 0
M  V30 5018 H 482.542 -1.80088 3.35184 0
M  V30 5019 H 482.054 -0.0544332 3.88062 0
M  V30 5020 H 480.155 -2.32262 2.9135 0
M  V30 5021 H 480.268 -1.42968 4.57271 0
M  V30 5022 H 478.632 -0.851855 2.40032 0
M  V30 5023 H 479.415 0.489159 3.39797 0
M  V30 5024 N 481.861 -1.55662 -0.24637 0
M  V30 5025 C 483.086 -1.81914 -0.996093 0
M  V30 5026 C 483.511 -0.603875 -1.78143 0
M  V30 5027 O 482.869 0.447091 -1.75701 0
M  V30 5028 C 482.917 -3.05908 -1.90925 0
M  V30 5029 O 482.021 -2.82861 -3.00105 0
M  V30 5030 H 481.362 -0.600481 -0.283406 0
M  V30 5031 H 483.892 -2.02848 -0.267199 0
M  V30 5032 H 483.902 -3.35356 -2.3238 0
M  V30 5033 H 482.577 -3.93999 -1.33183 0
M  V30 5034 H 481.154 -2.64583 -2.62775 0
M  V30 5035 N 483.339 0.512053 -1.4905 0
M  V30 5036 C 484.269 1.62365 -1.67809 0
M  V30 5037 C 485.25 1.61737 -0.526809 0
M  V30 5038 O 486.435 1.78651 -0.761404 0
M  V30 5039 C 483.565 3.00895 -1.73435 0
M  V30 5040 C 482.519 3.16387 -2.88242 0
M  V30 5041 C 481.845 4.56157 -2.78971 0
M  V30 5042 C 483.145 2.97457 -4.29321 0
M  V30 5043 H 484.839 1.46921 -2.60873 0
M  V30 5044 H 482.385 0.705379 -1.2554 0
M  V30 5045 H 484.338 3.78549 -1.85145 0
M  V30 5046 H 483.062 3.17403 -0.769619 0
M  V30 5047 H 481.721 2.41155 -2.76116 0
M  V30 5048 H 481.369 4.69525 -1.8043 0
M  V30 5049 H 481.069 4.67465 -3.5602 0
M  V30 5050 H 482.593 5.35886 -2.92675 0
M  V30 5051 H 484.007 3.64888 -4.42187 0
M  V30 5052 H 482.404 3.20245 -5.07507 0
M  V30 5053 H 483.474 1.93692 -4.44535 0
M  V30 5054 N 484.817 1.37938 0.762283 0
M  V30 5055 C 486.065 1.33404 1.51815 0
M  V30 5056 C 486.386 -0.0780975 1.94844 0
M  V30 5057 O 485.656 -1.02405 1.67003 0
M  V30 5058 H 484.236 0.490839 0.563104 0
M  V30 5059 H 486.898 1.72527 0.906669 0
M  V30 5060 H 485.994 1.97926 2.41313 0
M  V30 5061 N 486.295 -0.989507 1.22664 0
M  V30 5062 C 487.535 -1.7447 1.06488 0
M  V30 5063 C 487.899 -1.8794 -0.392737 0
M  V30 5064 O 489.1 -2.60175 -0.675446 0
M  V30 5065 C 487.371 -3.11043 1.76031 0
M  V30 5066 S 488.93 -4.02258 1.7531 0
M  V30 5067 H 485.748 -0.600123 0.381278 0
M  V30 5068 H 488.35 -1.18283 1.55658 0
M  V30 5069 H 487.054 -2.98884 2.81241 0
M  V30 5070 H 486.585 -3.72301 1.27105 0
M  V30 5071 H 488.6 -4.89623 0.805208 0
M  V30 5072 N 487.773 -1.03688 -1.18687 0
M  V30 5073 C 489.013 -0.746858 -1.90267 0
M  V30 5074 C 489.377 0.712075 -1.78307 0
M  V30 5075 O 490.578 1.11553 -2.44559 0
M  V30 5076 C 488.849 -1.19543 -3.36815 0
M  V30 5077 S 490.408 -1.03047 -4.26529 0
M  V30 5078 H 487.226 -0.271663 -0.657054 0
M  V30 5079 H 489.828 -1.32838 -1.43437 0
M  V30 5080 H 488.532 -2.2527 -3.43047 0
M  V30 5081 H 488.063 -0.607533 -3.88681 0
M  V30 5082 H 490.078 0.0543232 -4.9617 0
M  V30 5083 N 489.251 1.34841 -0.815825 0
M  V30 5084 C 490.491 2.00321 -0.406297 0
M  V30 5085 C 490.855 1.63293 1.00992 0
M  V30 5086 O 492.056 2.21563 1.52195 0
M  V30 5087 C 490.327 3.52421 -0.594469 0
M  V30 5088 S 491.886 4.37926 -0.276735 0
M  V30 5089 H 488.704 0.694155 -0.153848 0
M  V30 5090 H 491.306 1.64263 -1.06009 0
M  V30 5091 H 490.01 3.76858 -1.625 0
M  V30 5092 H 489.541 3.9333 0.0743157 0
M  V30 5093 H 491.556 4.87743 0.912215 0
M  V30 5094 N 490.729 0.570148 1.46925 0
M  V30 5095 C 492.145 0.23087 1.57921 0
M  V30 5096 C 492.345 -1.26676 1.56702 0
M  V30 5097 O 491.401 -2.04774 1.47729 0
M  V30 5098 C 492.714 0.868973 2.8787 0
M  V30 5099 C 494.262 0.841397 3.01479 0
M  V30 5100 C 494.737 1.45881 4.34146 0
M  V30 5101 N 496.228 1.42258 4.40814 0
M  V30 5102 C 496.963 1.8698 5.42057 0
M  V30 5103 N 496.459 2.39618 6.50042 0
M  V30 5104 N 498.252 1.77972 5.33181 0
M  V30 5105 H 490.403 1.54301 1.45962 0
M  V30 5106 H 492.666 0.644224 0.69547 0
M  V30 5107 H 492.372 1.922 2.94537 0
M  V30 5108 H 492.246 0.369682 3.75384 0
M  V30 5109 H 494.633 -0.202973 2.94401 0
M  V30 5110 H 494.714 1.37858 2.15474 0
M  V30 5111 H 494.358 2.50231 4.4198 0
M  V30 5112 H 494.288 0.896958 5.18905 0
M  V30 5113 H 496.779 1.03768 3.63374 0
M  V30 5114 H 497.092 2.71633 7.23488 0
M  V30 5115 H 495.437 2.43636 6.50897 0
M  V30 5116 H 498.628 1.36617 4.4772 0
M  V30 5117 H 498.801 2.13143 6.11943 0
M  V30 5118 N 492.207 -1.54576 0.307264 0
M  V30 5119 C 493.157 -2.20467 -0.581249 0
M  V30 5120 C 494.141 -1.17972 -1.09414 0
M  V30 5121 O 495.333 -1.43667 -1.03387 0
M  V30 5122 C 492.462 -2.95369 -1.74963 0
M  V30 5123 C 491.548 -4.05186 -1.25241 0
M  V30 5124 N 491.939 -5.03577 -0.47364 0
M  V30 5125 C 490.237 -4.18841 -1.53259 0
M  V30 5126 C 490.938 -5.81328 -0.208083 0
M  V30 5127 N 489.914 -5.37834 -0.789651 0
M  V30 5128 H 493.716 -2.93892 0.0212221 0
M  V30 5129 H 491.23 -1.62011 0.112325 0
M  V30 5130 H 493.227 -3.41046 -2.39777 0
M  V30 5131 H 491.887 -2.23461 -2.35574 0
M  V30 5132 H 492.898 -5.17766 -0.117963 0
M  V30 5133 H 489.575 -3.58141 -2.14573 0
M  V30 5134 H 490.965 -6.706 0.417793 0
M  V30 5135 N 493.685 -0.035106 -1.57561 0
M  V30 5136 C 494.925 0.646316 -1.93913 0
M  V30 5137 C 495.289 1.68947 -0.912185 0
M  V30 5138 O 496.49 2.42381 -1.1621 0
M  V30 5139 C 494.761 1.24136 -3.35149 0
M  V30 5140 S 496.32 1.94302 -3.93436 0
M  V30 5141 H 493.138 0.212642 -0.678457 0
M  V30 5142 H 495.74 -0.100203 -1.95243 0
M  V30 5143 H 494.444 0.46979 -4.07702 0
M  V30 5144 H 493.975 2.02505 -3.37276 0
M  V30 5145 H 495.99 3.22205 -3.77357 0
M  V30 5146 N 495.163 1.55791 0.238111 0
M  V30 5147 C 496.574 1.68383 0.806472 0
M  V30 5148 C 496.925 0.634157 1.85669 0
M  V30 5149 O 496.05 -0.217913 2.153 0
M  V30 5150 C 496.645 3.05268 1.46959 0
M  V30 5151 C 495.204 3.1977 1.98555 0
M  V30 5152 C 494.351 2.64279 0.839763 0
M  V30 5153 H 497.302 1.58694 0.0137535 0
M  V30 5154 H 497.323 3.00203 2.33792 0
M  V30 5155 H 496.835 3.81643 0.704993 0
M  V30 5156 H 494.936 2.48234 2.77868 0
M  V30 5157 H 495.049 4.26788 2.17689 0
M  V30 5158 H 493.413 2.22329 1.24265 0
M  V30 5159 H 494.196 3.43187 0.0881032 0
M  V30 5160 N 496.642 -0.504142 1.49319 0
M  V30 5161 C 497.89 -1.25598 1.58334 0
M  V30 5162 C 498.211 -1.93114 0.270538 0
M  V30 5163 O 497.481 -1.82585 -0.709891 0
M  V30 5164 H 496.061 -0.466571 0.58337 0
M  V30 5165 H 498.723 -0.584547 1.85928 0
M  V30 5166 H 497.819 -2.02159 2.37778 0
M  V30 5167 N 498.12 -1.38341 -0.754957 0
M  V30 5168 C 499.35 -1.37504 -1.54195 0
M  V30 5169 C 499.758 0.0373787 -1.89163 0
M  V30 5170 O 499.101 1.01402 -1.53178 0
M  V30 5171 C 499.163 -2.16488 -2.87008 0
M  V30 5172 C 498.827 -3.65311 -2.74585 0
M  V30 5173 C 499.824 -4.58834 -2.44474 0
M  V30 5174 C 497.509 -4.08649 -2.9208 0
M  V30 5175 C 499.503 -5.93675 -2.32011 0
M  V30 5176 C 497.19 -5.43571 -2.79237 0
M  V30 5177 C 498.188 -6.35898 -2.49245 0
M  V30 5178 O 497.876 -7.68338 -2.36458 0
M  V30 5179 H 497.608 -0.472159 -0.483779 0
M  V30 5180 H 500.162 -1.82515 -0.94221 0
M  V30 5181 H 498.392 -1.66194 -3.49166 0
M  V30 5182 H 500.081 -2.08076 -3.4851 0
M  V30 5183 H 500.847 -4.26657 -2.30627 0
M  V30 5184 H 496.726 -3.37134 -3.14422 0
M  V30 5185 H 500.27 -6.65706 -2.08522 0
M  V30 5186 H 496.167 -5.75345 -2.92657 0
M  V30 5187 H 496.935 -7.78845 -2.5168 0
M  V30 5188 N 499.598 0.982988 -1.23187 0
M  V30 5189 C 501.014 1.2487 -0.993967 0
M  V30 5190 C 501.214 1.99155 0.306498 0
M  V30 5191 O 500.27 2.30688 1.0266 0
M  V30 5192 C 501.583 2.05078 -2.19917 0
M  V30 5193 C 503.131 2.18227 -2.2438 0
M  V30 5194 C 503.606 3.01825 -3.44479 0
M  V30 5195 N 505.097 3.09411 -3.44702 0
M  V30 5196 C 505.832 3.74412 -4.34285 0
M  V30 5197 N 505.328 4.41259 -5.341 0
M  V30 5198 N 507.121 3.71273 -4.22035 0
M  V30 5199 H 499.272 0.485253 -2.06783 0
M  V30 5200 H 501.535 0.276979 -0.906635 0
M  V30 5201 H 501.241 1.57867 -3.14279 0
M  V30 5202 H 501.115 3.05829 -2.2079 0
M  V30 5203 H 503.502 2.64648 -1.30559 0
M  V30 5204 H 503.583 1.16873 -2.2754 0
M  V30 5205 H 503.227 2.56102 -4.38605 0
M  V30 5206 H 503.157 4.03342 -3.38559 0
M  V30 5207 H 505.648 2.61845 -2.7248 0
M  V30 5208 H 505.961 4.88629 -5.98717 0
M  V30 5209 H 504.306 4.39975 -5.38002 0
M  V30 5210 H 507.497 3.18217 -3.43301 0
M  V30 5211 H 507.67 4.21649 -4.92053 0
M  V30 5212 N 501.076 1.04316 1.18135 0
M  V30 5213 C 502.353 0.662166 1.84051 0
M  V30 5214 C 502.733 -0.858169 1.9287 0
M  V30 5215 O 502.081 -1.76062 1.45652 0
M  V30 5216 C 502.291 1.3409 3.22212 0
M  V30 5217 C 503.639 1.4733 3.9822 0
M  V30 5218 O 504.663 1.29921 3.31661 0
M  V30 5219 O 503.522 1.75722 5.17479 0
M  V30 5220 H 500.616 0.232005 0.79379 0
M  V30 5221 H 503.162 1.1422 1.25506 0
M  V30 5222 H 501.934 2.37853 3.10711 0
M  V30 5223 H 501.557 0.849649 3.88416 0
M  V30 5224 N 502.554 -1.34406 0.822964 0
M  V30 5225 C 503.779 -2.0304 0.423034 0
M  V30 5226 C 504.204 -1.61568 -0.963196 0
M  V30 5227 O 503.562 -0.800339 -1.62678 0
M  V30 5228 C 503.61 -3.56636 0.53321 0
M  V30 5229 O 502.714 -4.09971 -0.446939 0
M  V30 5230 H 502.055 -0.64075 0.174171 0
M  V30 5231 H 504.585 -1.71653 1.11339 0
M  V30 5232 H 504.595 -4.05945 0.408991 0
M  V30 5233 H 503.27 -3.86168 1.54425 0
M  V30 5234 H 501.847 -3.71835 -0.281601 0
M  V30 5235 N 504.032 -0.577932 -1.46621 0
M  V30 5236 C 505.278 -0.0700937 -2.03279 0
M  V30 5237 C 505.633 1.27376 -1.44198 0
M  V30 5238 O 504.926 1.82097 -0.595911 0
M  V30 5239 C 505.12 0.0590832 -3.57351 0
M  V30 5240 C 504.949 -1.2707 -4.31374 0
M  V30 5241 C 503.719 -1.84357 -4.70469 0
M  V30 5242 C 505.917 -2.19278 -4.65211 0
M  V30 5243 N 503.899 -3.11124 -5.29221 0
M  V30 5244 C 505.27 -3.30631 -5.24484 0
M  V30 5245 C 507.325 -2.19018 -4.47142 0
M  V30 5246 C 506.028 -4.41849 -5.67593 0
M  V30 5247 C 508.054 -3.29262 -4.91264 0
M  V30 5248 C 507.416 -4.39335 -5.50604 0
M  V30 5249 H 503.515 -0.0683127 -0.779011 0
M  V30 5250 H 506.099 -0.76978 -1.78836 0
M  V30 5251 H 504.27 0.727929 -3.81518 0
M  V30 5252 H 506.002 0.57087 -4.00653 0
M  V30 5253 H 502.757 -1.37906 -4.53077 0
M  V30 5254 H 503.181 -3.75794 -5.63123 0
M  V30 5255 H 507.823 -1.35191 -4.00604 0
M  V30 5256 H 505.541 -5.26421 -6.13112 0
M  V30 5257 H 509.127 -3.30172 -4.79038 0
M  V30 5258 H 508.007 -5.23233 -5.84121 0
M  V30 5259 N 505.51 1.54411 -0.315457 0
M  V30 5260 C 506.458 2.25514 0.569771 0
M  V30 5261 C 507.452 1.2663 1.12522 0
M  V30 5262 O 508.658 1.44434 1.07419 0
M  V30 5263 H 505.033 0.724257 0.202376 0
M  V30 5264 H 507.004 2.98354 -0.0522895 0
M  V30 5265 C 505.753 3.02004 1.72305 0
M  V30 5266 H 505.076 3.77906 1.30488 0
M  V30 5267 H 506.516 3.55014 2.31821 0
M  V30 5268 C 504.975 2.09822 2.63583 0
M  V30 5269 O 505.505 1.67574 3.65078 0
M  V30 5270 N 503.711 1.75478 2.31637 0
M  V30 5271 H 503.258 2.10032 1.49145 0
M  V30 5272 H 503.216 1.14079 2.92973 0
M  V30 5273 N 506.988 0.0434614 1.5754 0
M  V30 5274 C 508.399 -0.493343 1.80064 0
M  V30 5275 C 508.75 -1.71388 0.955023 0
M  V30 5276 O 507.875 -2.15736 0.169434 0
M  V30 5277 C 508.47 -0.90179 3.26578 0
M  V30 5278 C 507.029 -1.38362 3.50047 0
M  V30 5279 C 506.176 -0.355129 2.75017 0
M  V30 5280 H 509.127 0.2694 1.56397 0
M  V30 5281 H 509.148 -1.76523 3.37075 0
M  V30 5282 H 508.66 -0.013271 3.88098 0
M  V30 5283 H 506.761 -2.29159 2.93798 0
M  V30 5284 H 506.874 -1.3811 4.58762 0
M  V30 5285 H 505.238 -0.826348 2.40922 0
M  V30 5286 H 506.021 0.525172 3.39259 0
M  V30 5287 N 508.466 -1.55915 -0.229846 0
M  V30 5288 C 509.376 -1.94891 -1.30593 0
M  V30 5289 C 510.392 -0.851604 -1.51736 0
M  V30 5290 O 511.568 -1.15447 -1.65027 0
M  V30 5291 C 508.633 -2.25052 -2.63728 0
M  V30 5292 C 507.694 -3.48306 -2.5096 0
M  V30 5293 C 506.927 -3.77019 -3.77747 0
M  V30 5294 O 507.15 -3.07534 -4.80395 0
M  V30 5295 O 506.084 -4.70523 -3.75356 0
M  V30 5296 H 509.91 -2.86581 -1.00525 0
M  V30 5297 H 507.495 -1.43017 -0.432025 0
M  V30 5298 H 509.377 -2.45682 -3.42372 0
M  V30 5299 H 508.052 -1.36538 -2.93495 0
M  V30 5300 H 506.959 -3.32964 -1.70546 0
M  V30 5301 H 508.292 -4.37177 -2.26136 0
M  V30 5302 N 509.944 0.496216 -1.49584 0
M  V30 5303 C 511.221 1.25755 -1.49816 0
M  V30 5304 C 511.601 2.09859 -0.228572 0
M  V30 5305 O 510.949 2.14449 0.788908 0
M  V30 5306 C 511.159 2.11017 -2.7798 0
M  V30 5307 C 512.507 2.70047 -3.27658 0
M  V30 5308 O 513.531 2.21281 -2.79129 0
M  V30 5309 O 512.39 3.58834 -4.1219 0
M  V30 5310 H 509.484 0.569322 -0.599834 0
M  V30 5311 H 512.03 0.510094 -1.61852 0
M  V30 5312 H 510.802 1.48879 -3.61871 0
M  V30 5313 H 510.425 2.92947 -2.68827 0
M  V30 5314 N 511.423 1.38739 0.74761 0
M  V30 5315 C 512.386 1.36241 1.84312 0
M  V30 5316 C 513.386 0.261811 1.58654 0
M  V30 5317 O 514.576 0.519031 1.66288 0
M  V30 5318 C 511.708 1.12253 3.21888 0
M  V30 5319 H 512.901 2.33712 1.87933 0
M  V30 5320 H 510.454 1.2412 0.949946 0
M  V30 5321 H 511.189 0.154133 3.23934 0
M  V30 5322 H 510.974 1.91943 3.41907 0
M  V30 5323 H 512.464 1.13215 4.0196 0
M  V30 5324 N 512.901 -0.976442 1.23707 0
M  V30 5325 C 513.848 -2.06952 1.02174 0
M  V30 5326 C 514.818 -1.65984 -0.0621034 0
M  V30 5327 O 516.003 -1.90584 0.0907906 0
M  V30 5328 C 513.143 -3.39425 0.62327 0
M  V30 5329 C 512.256 -3.9364 1.77966 0
M  V30 5330 C 511.391 -5.14343 1.3276 0
M  V30 5331 C 510.43 -5.60733 2.45449 0
M  V30 5332 N 509.567 -6.72662 2.01172 0
M  V30 5333 H 514.407 -2.24704 1.95734 0
M  V30 5334 H 511.944 -1.10143 0.975034 0
M  V30 5335 H 513.902 -4.15526 0.37332 0
M  V30 5336 H 512.532 -3.21624 -0.275329 0
M  V30 5337 H 511.584 -3.14258 2.14351 0
M  V30 5338 H 512.896 -4.24035 2.62671 0
M  V30 5339 H 512.05 -5.97789 1.03601 0
M  V30 5340 H 510.789 -4.8561 0.450975 0
M  V30 5341 H 509.794 -4.75865 2.75378 0
M  V30 5342 H 511.019 -5.91483 3.33654 0
M  V30 5343 H 508.965 -6.45681 1.15895 0
M  V30 5344 H 508.882 -7.02462 2.79434 0
M  V30 5345 H 510.15 -7.59572 1.75129 0
M  V30 5346 N 514.379 -1.04941 -1.1758 0
M  V30 5347 C 515.604 -0.778253 -1.92245 0
M  V30 5348 C 516.029 0.659707 -1.76152 0
M  V30 5349 O 515.387 1.45803 -1.07755 0
M  V30 5350 C 515.435 -1.16051 -3.41416 0
M  V30 5351 O 514.539 -0.291153 -4.11371 0
M  V30 5352 H 513.88 -0.285619 -0.599431 0
M  V30 5353 H 516.41 -1.40159 -1.49052 0
M  V30 5354 H 516.42 -1.12619 -3.92149 0
M  V30 5355 H 515.095 -2.208 -3.52449 0
M  V30 5356 H 513.672 -0.385851 -3.70898 0
M  V30 5357 N 515.857 1.33968 -0.830081 0
M  V30 5358 C 517.085 2.0228 -0.434773 0
M  V30 5359 C 517.5 1.62487 0.961419 0
M  V30 5360 O 516.857 0.833849 1.62337 0
M  V30 5361 C 516.908 3.5751 -0.535625 0
M  V30 5362 O 516.629 3.95864 -1.87679 0
M  V30 5363 C 518.13 4.43091 -0.136137 0
M  V30 5364 H 515.35 0.648151 -0.173613 0
M  V30 5365 H 517.894 1.71089 -1.12022 0
M  V30 5366 H 516.049 3.87266 0.101817 0
M  V30 5367 H 516.463 4.9056 -1.85609 0
M  V30 5368 H 517.937 5.51398 -0.257772 0
M  V30 5369 H 518.414 4.29433 0.921076 0
M  V30 5370 H 519.02 4.18677 -0.747662 0
M  V30 5371 N 517.335 0.585699 1.46312 0
M  V30 5372 C 518.583 0.072278 2.01971 0
M  V30 5373 C 518.904 -1.29345 1.45928 0
M  V30 5374 O 518.174 -1.84973 0.645109 0
M  V30 5375 H 516.754 0.023729 0.746623 0
M  V30 5376 H 519.416 0.762155 1.7938 0
M  V30 5377 H 518.512 0.00552767 3.121 0
M  V30 5378 N 518.813 -1.54241 0.323641 0
M  V30 5379 C 519.745 -2.21836 -0.576311 0
M  V30 5380 C 520.758 -1.21837 -1.07979 0
M  V30 5381 O 521.947 -1.48306 -0.99336 0
M  V30 5382 C 519.047 -2.86923 -1.80356 0
M  V30 5383 C 518.22 -4.1306 -1.43875 0
M  V30 5384 C 517.279 -4.6174 -2.52353 0
M  V30 5385 O 516.305 -5.26421 -2.16494 0
M  V30 5386 N 517.507 -4.35974 -3.83284 0
M  V30 5387 H 520.272 -2.997 0.00247987 0
M  V30 5388 H 517.833 -1.61233 0.146848 0
M  V30 5389 H 519.825 -3.16414 -2.52318 0
M  V30 5390 H 518.395 -2.12765 -2.29019 0
M  V30 5391 H 517.615 -3.90334 -0.550752 0
M  V30 5392 H 518.903 -4.95148 -1.17071 0
M  V30 5393 H 518.301 -3.84203 -4.15216 0
M  V30 5394 H 516.858 -4.70119 -4.51477 0
M  V30 5395 N 520.291 -0.0518155 -1.57515 0
M  V30 5396 C 521.254 0.907547 -2.10467 0
M  V30 5397 C 522.254 1.23947 -1.02439 0
M  V30 5398 O 523.444 1.17604 -1.2851 0
M  V30 5399 C 520.576 2.21723 -2.58944 0
M  V30 5400 H 521.769 0.44851 -2.96527 0
M  V30 5401 H 519.322 0.196598 -1.55059 0
M  V30 5402 H 520.057 2.72206 -1.76279 0
M  V30 5403 H 519.842 1.98935 -3.37886 0
M  V30 5404 H 521.332 2.90441 -3.00056 0
M  V30 5405 N 521.769 1.56035 0.221574 0
M  V30 5406 C 522.699 1.95434 1.2778 0
M  V30 5407 C 523.68 0.822564 1.48889 0
M  V30 5408 O 524.865 1.08486 1.61072 0
M  V30 5409 C 521.995 2.27102 2.62759 0
M  V30 5410 C 520.949 3.4277 2.56306 0
M  V30 5411 C 520.275 3.60043 3.95314 0
M  V30 5412 C 521.575 4.77742 2.11093 0
M  V30 5413 H 523.269 2.83912 0.950504 0
M  V30 5414 H 520.815 1.36596 0.455791 0
M  V30 5415 H 522.768 2.53256 3.36807 0
M  V30 5416 H 521.492 1.35478 2.97176 0
M  V30 5417 H 520.151 3.16664 1.84715 0
M  V30 5418 H 519.799 2.65794 4.27039 0
M  V30 5419 H 519.499 4.37841 3.91879 0
M  V30 5420 H 521.023 3.88545 4.71025 0
M  V30 5421 H 522.437 5.03102 2.74885 0
M  V30 5422 H 520.834 5.58823 2.18716 0
M  V30 5423 H 521.904 4.731 1.06321 0
M  V30 5424 N 523.247 -0.488276 1.49845 0
M  V30 5425 C 524.658 -1.06955 1.53028 0
M  V30 5426 C 525.009 -1.9351 0.323797 0
M  V30 5427 O 524.134 -2.08891 -0.565116 0
M  V30 5428 C 524.729 -1.94643 2.77307 0
M  V30 5429 C 523.288 -2.4791 2.83227 0
M  V30 5430 C 522.435 -1.25833 2.47106 0
M  V30 5431 H 525.386 -0.271626 1.56358 0
M  V30 5432 H 525.407 -2.79496 2.5819 0
M  V30 5433 H 524.919 -1.31621 3.65099 0
M  V30 5434 H 523.02 -3.14535 1.99745 0
M  V30 5435 H 523.133 -2.84193 3.85709 0
M  V30 5436 H 521.497 -1.58764 1.99163 0
M  V30 5437 H 522.28 -0.644993 3.37186 0
M  V30 5438 N 524.725 -1.39134 -0.740242 0
M  V30 5439 C 525.655 -1.40165 -1.86751 0
M  V30 5440 C 526.636 -0.265708 -1.68012 0
M  V30 5441 O 527.821 -0.47076 -1.88408 0
M  V30 5442 C 524.951 -1.2392 -3.2444 0
M  V30 5443 C 523.905 -2.34858 -3.57807 0
M  V30 5444 C 523.231 -2.03707 -4.94376 0
M  V30 5445 C 524.531 -3.77159 -3.61315 0
M  V30 5446 H 526.225 -2.345 -1.86145 0
M  V30 5447 H 523.771 -1.12875 -0.89416 0
M  V30 5448 H 525.724 -1.23263 -4.02969 0
M  V30 5449 H 524.448 -0.26051 -3.25559 0
M  V30 5450 H 523.107 -2.34723 -2.81604 0
M  V30 5451 H 522.755 -1.04289 -4.9207 0
M  V30 5452 H 522.455 -2.78016 -5.17669 0
M  V30 5453 H 523.979 -2.04691 -5.75268 0
M  V30 5454 H 525.393 -3.79252 -4.29931 0
M  V30 5455 H 523.79 -4.50784 -3.96124 0
M  V30 5456 H 524.86 -4.08513 -2.61238 0
M  V30 5457 N 526.204 0.969867 -1.24223 0
M  V30 5458 C 527.152 2.08535 -1.03034 0
M  V30 5459 C 528.146 1.69366 0.0340379 0
M  V30 5460 O 529.352 1.79597 -0.12034 0
M  V30 5461 H 525.727 0.682313 -0.316154 0
M  V30 5462 H 527.698 2.23569 -1.97635 0
M  V30 5463 C 526.447 3.4158 -0.649509 0
M  V30 5464 H 525.77 3.72177 -1.46028 0
M  V30 5465 H 527.21 4.20536 -0.540841 0
M  V30 5466 C 525.669 3.30703 0.643194 0
M  V30 5467 O 526.199 3.64443 1.68951 0
M  V30 5468 N 524.405 2.83841 0.623095 0
M  V30 5469 H 523.952 2.56583 -0.228719 0
M  V30 5470 H 523.91 2.76946 1.48823 0
M  V30 5471 N 527.682 1.05563 1.17022 0
M  V30 5472 C 528.645 0.664098 2.19368 0
M  V30 5473 C 529.645 -0.286358 1.5823 0
M  V30 5474 O 530.835 -0.069728 1.7406 0
M  V30 5475 C 527.967 -0.0239932 3.40892 0
M  V30 5476 H 529.16 1.57 2.55521 0
M  V30 5477 H 526.713 0.849964 1.31169 0
M  V30 5478 H 527.448 -0.942988 3.10287 0
M  V30 5479 H 527.233 0.659351 3.86516 0
M  V30 5480 H 528.723 -0.283909 4.16634 0
M  V30 5481 N 529.16 -1.33526 0.837174 0
M  V30 5482 C 530.388 -2.02047 0.445494 0
M  V30 5483 C 530.803 -1.62995 -0.952788 0
M  V30 5484 O 530.16 -0.842447 -1.61892 0
M  V30 5485 C 530.211 -3.57221 0.554577 0
M  V30 5486 O 529.932 -3.94863 1.89776 0
M  V30 5487 C 531.433 -4.43012 0.159634 0
M  V30 5488 H 528.653 -0.647221 0.177048 0
M  V30 5489 H 531.197 -1.70492 1.12928 0
M  V30 5490 H 529.352 -3.87315 -0.0812781 0
M  V30 5491 H 529.766 -4.89569 1.88208 0
M  V30 5492 H 531.24 -5.51253 0.28701 0
M  V30 5493 H 531.717 -4.29916 -0.898289 0
M  V30 5494 H 532.323 -4.18274 0.769855 0
M  V30 5495 N 530.638 -0.59345 -1.46 0
M  V30 5496 C 531.601 0.123538 -2.28867 0
M  V30 5497 C 532.601 0.808628 -1.38989 0
M  V30 5498 O 533.791 0.658945 -1.61256 0
M  V30 5499 C 530.923 1.1847 -3.19653 0
M  V30 5500 H 532.116 -0.604843 -2.93737 0
M  V30 5501 H 529.669 -0.351875 -1.52288 0
M  V30 5502 H 530.404 1.94431 -2.59552 0
M  V30 5503 H 530.189 0.69783 -3.8584 0
M  V30 5504 H 531.679 1.68726 -3.81997 0
M  V30 5505 N 532.116 1.54067 -0.331816 0
M  V30 5506 C 533.079 2.23275 0.517768 0
M  V30 5507 C 534.079 1.22897 1.03697 0
M  V30 5508 O 535.269 1.47419 0.928084 0
M  V30 5509 C 532.401 2.94326 1.72004 0
M  V30 5510 H 533.594 2.99773 -0.0873507 0
M  V30 5511 H 531.147 1.56079 -0.0830042 0
M  V30 5512 H 531.882 2.21986 2.36417 0
M  V30 5513 H 531.667 3.67941 1.35507 0
M  V30 5514 H 533.157 3.47031 2.32291 0
M  V30 5515 N 533.594 0.0601682 1.57485 0
M  V30 5516 C 535.005 -0.474217 1.80577 0
M  V30 5517 C 535.356 -1.70365 0.973147 0
M  V30 5518 O 534.481 -2.15544 0.192306 0
M  V30 5519 C 535.076 -0.867102 3.27516 0
M  V30 5520 C 533.635 -1.34642 3.51495 0
M  V30 5521 C 532.782 -0.32594 2.75378 0
M  V30 5522 H 535.733 0.285973 1.56102 0
M  V30 5523 H 535.754 -1.72938 3.38929 0
M  V30 5524 H 535.266 0.0278927 3.8809 0
M  V30 5525 H 533.367 -2.2603 2.96212 0
M  V30 5526 H 533.48 -1.33237 4.60201 0
M  V30 5527 H 531.844 -0.800749 2.41785 0
M  V30 5528 H 532.627 0.561125 3.38683 0
M  V30 5529 N 535.072 -1.5615 -0.213296 0
M  V30 5530 C 536.019 -1.93086 -1.26437 0
M  V30 5531 C 536.989 -0.789086 -1.4616 0
M  V30 5532 O 538.174 -1.04569 -1.59593 0
M  V30 5533 C 535.314 -2.26003 -2.608 0
M  V30 5534 C 534.427 -3.53156 -2.48807 0
M  V30 5535 C 533.562 -3.7548 -3.7575 0
M  V30 5536 C 532.601 -4.96119 -3.58514 0
M  V30 5537 N 531.738 -5.14791 -4.77425 0
M  V30 5538 H 536.578 -2.82707 -0.942376 0
M  V30 5539 H 534.115 -1.39919 -0.454001 0
M  V30 5540 H 536.073 -2.431 -3.39055 0
M  V30 5541 H 534.703 -1.39546 -2.91079 0
M  V30 5542 H 533.755 -3.44207 -1.61944 0
M  V30 5543 H 535.067 -4.41565 -2.31996 0
M  V30 5544 H 534.221 -3.92718 -4.62447 0
M  V30 5545 H 532.96 -2.85368 -3.95495 0
M  V30 5546 H 531.965 -4.78823 -2.70201 0
M  V30 5547 H 533.19 -5.87724 -3.40231 0
M  V30 5548 H 531.136 -4.27623 -4.97468 0
M  V30 5549 H 531.053 -5.97347 -4.63371 0
M  V30 5550 H 532.321 -5.36471 -5.65525 0
M  V30 5551 N 536.55 0.480323 -1.50102 0
M  V30 5552 C 537.961 1.06142 -1.53593 0
M  V30 5553 C 538.312 1.93335 -0.334055 0
M  V30 5554 O 537.437 2.09188 0.55403 0
M  V30 5555 C 538.032 1.9317 -2.78336 0
M  V30 5556 C 536.591 2.46405 -2.84538 0
M  V30 5557 C 535.738 1.24521 -2.4777 0
M  V30 5558 H 538.689 0.26333 -1.565 0
M  V30 5559 H 538.71 2.78123 -2.59669 0
M  V30 5560 H 538.222 1.29683 -3.65792 0
M  V30 5561 H 536.323 3.13472 -2.01411 0
M  V30 5562 H 536.436 2.82143 -3.87211 0
M  V30 5563 H 534.8 1.57706 -2.00003 0
M  V30 5564 H 535.583 0.627102 -3.37524 0
M  V30 5565 N 538.028 1.39524 0.732853 0
M  V30 5566 C 539.253 1.40329 1.52717 0
M  V30 5567 C 539.678 0.000286574 1.881 0
M  V30 5568 O 539.036 -0.987262 1.52062 0
M  V30 5569 C 539.084 2.28464 2.78992 0
M  V30 5570 O 538.188 1.716 3.75003 0
M  V30 5571 H 537.529 0.47778 0.461109 0
M  V30 5572 H 540.059 1.83546 0.903996 0
M  V30 5573 H 540.069 2.43051 3.27705 0
M  V30 5574 H 538.744 3.30425 2.52572 0
M  V30 5575 H 537.321 1.66267 3.33781 0
M  V30 5576 N 539.506 -0.963266 1.24736 0
M  V30 5577 C 540.416 -2.09246 1.06082 0
M  V30 5578 C 541.432 -1.74 0.000363101 0
M  V30 5579 O 542.608 -2.0041 0.199479 0
M  V30 5580 C 539.673 -3.40115 0.672498 0
M  V30 5581 C 538.734 -3.89282 1.80993 0
M  V30 5582 C 537.967 -5.13905 1.44004 0
M  V30 5583 O 538.19 -5.69434 0.331835 0
M  V30 5584 O 537.124 -5.57566 2.26723 0
M  V30 5585 H 540.95 -2.27881 2.00759 0
M  V30 5586 H 538.535 -1.07649 1.03595 0
M  V30 5587 H 540.417 -4.18797 0.467668 0
M  V30 5588 H 539.092 -3.22771 -0.245102 0
M  V30 5589 H 537.999 -3.11642 2.06955 0
M  V30 5590 H 539.332 -4.1111 2.70646 0
M  V30 5591 N 540.985 -1.06182 -1.16461 0
M  V30 5592 C 542.396 -0.802426 -1.68576 0
M  V30 5593 C 542.747 0.67412 -1.84255 0
M  V30 5594 O 541.872 1.52303 -1.5373 0
M  V30 5595 C 542.467 -1.45002 -3.06202 0
M  V30 5596 C 541.026 -1.23843 -3.55443 0
M  V30 5597 C 540.173 -1.52724 -2.31454 0
M  V30 5598 H 543.124 -1.22545 -1.00839 0
M  V30 5599 H 543.145 -0.864731 -3.70544 0
M  V30 5600 H 542.657 -2.52466 -2.94759 0
M  V30 5601 H 540.758 -0.183487 -3.72148 0
M  V30 5602 H 540.871 -1.95036 -4.37604 0
M  V30 5603 H 539.235 -0.947726 -2.36411 0
M  V30 5604 H 540.018 -2.61343 -2.22609 0
M  V30 5605 N 542.463 1.3308 -0.844243 0
M  V30 5606 C 543.395 2.27954 -0.238671 0
M  V30 5607 C 544.408 1.51978 0.583665 0
M  V30 5608 O 545.597 1.73731 0.409857 0
M  V30 5609 C 542.697 3.31963 0.682185 0
M  V30 5610 C 541.87 4.37281 -0.101998 0
M  V30 5611 C 540.929 5.20928 0.743022 0
M  V30 5612 O 539.955 5.68914 0.180285 0
M  V30 5613 N 541.157 5.42738 2.0595 0
M  V30 5614 H 543.922 2.8056 -1.05386 0
M  V30 5615 H 541.483 1.4583 -0.70322 0
M  V30 5616 H 543.475 3.84828 1.25259 0
M  V30 5617 H 542.045 2.79594 1.39808 0
M  V30 5618 H 541.265 3.84843 -0.853802 0
M  V30 5619 H 542.553 5.04746 -0.641015 0
M  V30 5620 H 541.951 5.05463 2.54016 0
M  V30 5621 H 540.508 5.98639 2.57827 0
M  V30 5622 N 543.941 0.601185 1.45683 0
M  V30 5623 C 545.166 0.0982245 2.07167 0
M  V30 5624 C 545.591 -1.20546 1.44396 0
M  V30 5625 O 544.949 -1.73247 0.534347 0
M  V30 5626 C 544.997 -0.0346976 3.60583 0
M  V30 5627 O 544.101 -1.08657 3.97828 0
M  V30 5628 H 543.442 0.0711618 0.660176 0
M  V30 5629 H 545.972 0.829376 1.87036 0
M  V30 5630 H 545.982 -0.234969 4.07323 0
M  V30 5631 H 544.657 0.917265 4.05659 0
M  V30 5632 H 543.234 -0.863275 3.6277 0
M  V30 5633 N 545.419 -1.53889 0.339982 0
M  V30 5634 C 546.835 -1.59595 -0.0120752 0
M  V30 5635 C 547.035 -1.35605 -1.49042 0
M  V30 5636 O 546.091 -1.14856 -2.24865 0
M  V30 5637 C 547.404 -2.9774 0.420898 0
M  V30 5638 C 548.952 -3.1077 0.37294 0
M  V30 5639 C 549.427 -4.51286 0.781327 0
M  V30 5640 N 550.918 -4.57325 0.735374 0
M  V30 5641 C 551.653 -5.64194 1.02336 0
M  V30 5642 N 551.149 -6.7893 1.37933 0
M  V30 5643 N 552.942 -5.54051 0.947838 0
M  V30 5644 H 545.093 -1.67738 1.30299 0
M  V30 5645 H 547.356 -0.785385 0.530918 0
M  V30 5646 H 547.062 -3.20349 1.45152 0
M  V30 5647 H 546.936 -3.76639 -0.205721 0
M  V30 5648 H 549.323 -2.87886 -0.648505 0
M  V30 5649 H 549.404 -2.33939 1.03472 0
M  V30 5650 H 549.048 -4.74905 1.80077 0
M  V30 5651 H 548.978 -5.26511 0.0970679 0
M  V30 5652 H 551.469 -3.74931 0.472773 0
M  V30 5653 H 551.782 -7.56392 1.58402 0
M  V30 5654 H 550.127 -6.80386 1.41774 0
M  V30 5655 H 553.318 -4.63293 0.669115 0
M  V30 5656 H 553.491 -6.37246 1.17563 0
M  V30 5657 N 546.897 -0.0685191 -1.57451 0
M  V30 5658 C 547.807 0.914677 -2.16034 0
M  V30 5659 C 548.823 1.32938 -1.12265 0
M  V30 5660 O 549.999 1.40275 -1.44516 0
M  V30 5661 C 547.064 2.16519 -2.70777 0
M  V30 5662 C 546.125 1.80721 -3.89408 0
M  V30 5663 C 545.358 2.9981 -4.41531 0
M  V30 5664 O 545.581 4.13727 -3.92666 0
M  V30 5665 O 544.515 2.79817 -5.32903 0
M  V30 5666 H 548.341 0.446364 -3.00402 0
M  V30 5667 H 545.926 0.154367 -1.486 0
M  V30 5668 H 547.808 2.89856 -3.05878 0
M  V30 5669 H 546.483 2.62454 -1.89471 0
M  V30 5670 H 545.39 1.04646 -3.59166 0
M  V30 5671 H 546.723 1.39571 -4.71997 0
M  V30 5672 N 548.375 1.56261 0.205012 0
M  V30 5673 C 549.305 1.96779 1.257 0
M  V30 5674 C 550.286 0.838309 1.48008 0
M  V30 5675 O 551.471 1.10189 1.59913 0
M  V30 5676 C 548.601 2.29876 2.60335 0
M  V30 5677 C 547.555 3.45469 2.52656 0
M  V30 5678 C 546.881 3.64215 3.91473 0
M  V30 5679 C 548.181 4.79954 2.06014 0
M  V30 5680 H 549.875 2.84904 0.920338 0
M  V30 5681 H 547.421 1.37072 0.441277 0
M  V30 5682 H 549.374 2.56814 3.34102 0
M  V30 5683 H 548.098 1.38622 2.95722 0
M  V30 5684 H 546.757 3.18605 1.81345 0
M  V30 5685 H 546.405 2.70309 4.24196 0
M  V30 5686 H 546.105 4.41973 3.87213 0
M  V30 5687 H 547.629 3.93519 4.66878 0
M  V30 5688 H 549.043 5.05989 2.69533 0
M  V30 5689 H 547.44 5.61111 2.12777 0
M  V30 5690 H 548.51 4.74201 1.01297 0
M  V30 5691 N 549.853 -0.472356 1.50355 0
M  V30 5692 C 551.078 -1.25251 1.65309 0
M  V30 5693 C 551.503 -1.85081 0.335643 0
M  V30 5694 O 550.861 -1.67227 -0.700335 0
M  V30 5695 C 550.909 -2.3379 2.74544 0
M  V30 5696 O 550.013 -3.38401 2.35709 0
M  V30 5697 H 549.354 -0.368539 0.552336 0
M  V30 5698 H 551.884 -0.562271 1.96722 0
M  V30 5699 H 551.894 -2.79121 2.97583 0
M  V30 5700 H 550.569 -1.89614 3.70161 0
M  V30 5701 H 549.146 -2.9879 2.23112 0
M  V30 5702 N 551.331 -1.39911 -0.725443 0
M  V30 5703 C 552.263 -1.35301 -1.85003 0
M  V30 5704 C 553.276 -0.260102 -1.60709 0
M  V30 5705 O 554.465 -0.519749 -1.70766 0
M  V30 5706 C 551.565 -1.08039 -3.21218 0
M  V30 5707 C 550.738 -2.28793 -3.7279 0
M  V30 5708 C 549.797 -1.97841 -4.87591 0
M  V30 5709 O 548.823 -2.70616 -5.00755 0
M  V30 5710 N 550.025 -0.950367 -5.72668 0
M  V30 5711 H 552.79 -2.32218 -1.89459 0
M  V30 5712 H 550.351 -1.34137 -0.90658 0
M  V30 5713 H 552.343 -0.853354 -3.95601 0
M  V30 5714 H 550.913 -0.198229 -3.11971 0
M  V30 5715 H 550.133 -2.67388 -2.8965 0
M  V30 5716 H 551.421 -3.09317 -4.03981 0
M  V30 5717 H 550.819 -0.347436 -5.64632 0
M  V30 5718 H 549.376 -0.783232 -6.47077 0
M  V30 5719 O 552.848 0.866802 -1.36267 0
M  V30 5720 H 553.539 1.50585 -1.21835 0
M  V30 END ATOM
M  V30 BEGIN BOND
M  V30 END BOND
M  V30 END CTAB
M  END
$$$$
