15993
  -OEChem-10051720113D

 46 48  0     1  0  0  0  0  0999 V2000
    2.5904   -1.3427   -1.5908 P   0  0  1  0  0  0  0  0  0  0  0  0
    3.7649    0.8157    0.0299 P   0  0  2  0  0  0  0  0  0  0  0  0
    1.8963    1.6222    2.1658 P   0  0  0  0  0  0  0  0  0  0  0  0
   -0.8531   -1.6210    0.9950 O   0  0  0  0  0  0  0  0  0  0  0  0
   -1.9167   -4.4888    1.4135 O   0  0  0  0  0  0  0  0  0  0  0  0
    1.5492   -1.7943   -0.4374 O   0  0  0  0  0  0  0  0  0  0  0  0
    3.7666   -0.5713   -0.7964 O   0  0  0  0  0  0  0  0  0  0  0  0
    3.2993   -2.7212   -2.0542 O   0  0  0  0  0  0  0  0  0  0  0  0
    1.9838   -0.5506   -2.7125 O   0  0  0  0  0  0  0  0  0  0  0  0
    2.5689    0.6135    1.0971 O   0  0  0  0  0  0  0  0  0  0  0  0
    3.1586    1.8887   -1.0162 O   0  0  0  0  0  0  0  0  0  0  0  0
    5.0828    1.2012    0.6345 O   0  0  0  0  0  0  0  0  0  0  0  0
    1.1885    2.7311    1.2269 O   0  0  0  0  0  0  0  0  0  0  0  0
    0.6512    0.7767    2.7543 O   0  0  0  0  0  0  0  0  0  0  0  0
    2.8440    2.1676    3.1932 O   0  0  0  0  0  0  0  0  0  0  0  0
   -2.7714   -0.3032    0.5358 N   0  0  0  0  0  0  0  0  0  0  0  0
   -4.1018    1.4866    0.4225 N   0  0  0  0  0  0  0  0  0  0  0  0
   -0.9930    0.4103   -0.9582 N   0  0  0  0  0  0  0  0  0  0  0  0
   -1.4292    2.6350   -1.8620 N   0  0  0  0  0  0  0  0  0  0  0  0
   -3.3861    3.8907   -1.2959 N   0  0  0  0  0  0  0  0  0  0  0  0
   -1.5916   -3.7555    0.2346 C   0  0  2  0  0  0  0  0  0  0  0  0
   -0.3670   -2.8851    0.4960 C   0  0  1  0  0  0  0  0  0  0  0  0
   -2.2899   -1.6214    0.9320 C   0  0  1  0  0  0  0  0  0  0  0  0
   -2.6866   -2.7440   -0.0160 C   0  0  0  0  0  0  0  0  0  0  0  0
    0.4411   -2.6148   -0.7657 C   0  0  0  0  0  0  0  0  0  0  0  0
   -2.1583    0.5759   -0.3144 C   0  0  0  0  0  0  0  0  0  0  0  0
   -3.9360    0.2918    0.9506 C   0  0  0  0  0  0  0  0  0  0  0  0
   -2.9978    1.6769   -0.3702 C   0  0  0  0  0  0  0  0  0  0  0  0
   -2.5964    2.7337   -1.1812 C   0  0  0  0  0  0  0  0  0  0  0  0
   -0.7106    1.4962   -1.7104 C   0  0  0  0  0  0  0  0  0  0  0  0
   -1.4646   -4.4738   -0.5794 H   0  0  0  0  0  0  0  0  0  0  0  0
    0.2828   -3.3045    1.2726 H   0  0  0  0  0  0  0  0  0  0  0  0
   -2.6611   -1.8042    1.9477 H   0  0  0  0  0  0  0  0  0  0  0  0
   -3.6939   -3.1147    0.1968 H   0  0  0  0  0  0  0  0  0  0  0  0
   -2.6529   -2.4056   -1.0584 H   0  0  0  0  0  0  0  0  0  0  0  0
   -0.1573   -2.1000   -1.5232 H   0  0  0  0  0  0  0  0  0  0  0  0
    0.8086   -3.5545   -1.1899 H   0  0  0  0  0  0  0  0  0  0  0  0
   -1.8920   -3.8876    2.1765 H   0  0  0  0  0  0  0  0  0  0  0  0
   -4.6196   -0.1934    1.6338 H   0  0  0  0  0  0  0  0  0  0  0  0
    0.2182    1.4574   -2.2675 H   0  0  0  0  0  0  0  0  0  0  0  0
   -3.0724    4.6455   -1.8908 H   0  0  0  0  0  0  0  0  0  0  0  0
   -4.2569    3.9672   -0.7881 H   0  0  0  0  0  0  0  0  0  0  0  0
    2.8325   -3.3053   -2.6891 H   0  0  0  0  0  0  0  0  0  0  0  0
    3.7399    2.2457   -1.7209 H   0  0  0  0  0  0  0  0  0  0  0  0
    0.7780    3.5170    1.6464 H   0  0  0  0  0  0  0  0  0  0  0  0
    0.1225    1.1569    3.4877 H   0  0  0  0  0  0  0  0  0  0  0  0
  1  6  1  0  0  0  0
  1  7  1  0  0  0  0
  1  8  1  0  0  0  0
  1  9  2  0  0  0  0
  2  7  1  0  0  0  0
  2 10  1  0  0  0  0
  2 11  1  0  0  0  0
  2 12  2  0  0  0  0
  3 10  1  0  0  0  0
  3 13  1  0  0  0  0
  3 14  1  0  0  0  0
  3 15  2  0  0  0  0
  4 22  1  0  0  0  0
  4 23  1  0  0  0  0
  5 21  1  0  0  0  0
  5 38  1  0  0  0  0
  6 25  1  0  0  0  0
  8 43  1  0  0  0  0
 11 44  1  0  0  0  0
 13 45  1  0  0  0  0
 14 46  1  0  0  0  0
 16 23  1  0  0  0  0
 16 26  1  0  0  0  0
 16 27  1  0  0  0  0
 17 27  2  0  0  0  0
 17 28  1  0  0  0  0
 18 26  2  0  0  0  0
 18 30  1  0  0  0  0
 19 29  1  0  0  0  0
 19 30  2  0  0  0  0
 20 29  1  0  0  0  0
 20 41  1  0  0  0  0
 20 42  1  0  0  0  0
 21 22  1  0  0  0  0
 21 24  1  0  0  0  0
 21 31  1  0  0  0  0
 22 25  1  0  0  0  0
 22 32  1  0  0  0  0
 23 24  1  0  0  0  0
 23 33  1  0  0  0  0
 24 34  1  0  0  0  0
 24 35  1  0  0  0  0
 25 36  1  0  0  0  0
 25 37  1  0  0  0  0
 26 28  1  0  0  0  0
 27 39  1  0  0  0  0
 28 29  2  0  0  0  0
 30 40  1  0  0  0  0
M  END
> <DATABASE_ID>
DB03222

> <DATABASE_NAME>
drugbank

> <ORIGINAL_SOURCE>
PUBCHEM

> <ORIGINAL_SOURCE_URL>
https://pubchem.ncbi.nlm.nih.gov/rest/pug/compound/inchikey/SUYVUBYJARFZHO-RRKCRQDMSA-N/SDF?record_type=3d

> <SMILES>
NC1=NC=NC2=C1N=CN2[C@H]1C[C@H](O)[C@@H](COP(O)(=O)OP(O)(=O)OP(O)(O)=O)O1

> <INCHI_IDENTIFIER>
InChI=1S/C10H16N5O12P3/c11-9-8-10(13-3-12-9)15(4-14-8)7-1-5(16)6(25-7)2-24-29(20,21)27-30(22,23)26-28(17,18)19/h3-7,16H,1-2H2,(H,20,21)(H,22,23)(H2,11,12,13)(H2,17,18,19)/t5-,6+,7+/m0/s1

> <INCHI_KEY>
SUYVUBYJARFZHO-RRKCRQDMSA-N

> <FORMULA>
C10H16N5O12P3

> <MOLECULAR_WEIGHT>
491.1816

> <EXACT_MASS>
491.000830537

> <JCHEM_ACCEPTOR_COUNT>
13

> <JCHEM_AVERAGE_POLARIZABILITY>
38.04800064403865

> <JCHEM_BIOAVAILABILITY>
0

> <JCHEM_DONOR_COUNT>
6

> <JCHEM_FORMAL_CHARGE>
0

> <JCHEM_GHOSE_FILTER>
0

> <JCHEM_IUPAC>
({[({[(2R,3S,5R)-5-(6-amino-9H-purin-9-yl)-3-hydroxyoxolan-2-yl]methoxy}(hydroxy)phosphoryl)oxy](hydroxy)phosphoryl}oxy)phosphonic acid

> <ALOGPS_LOGP>
-0.66

> <JCHEM_LOGP>
-5.31997835080669

> <ALOGPS_LOGS>
-2.11

> <JCHEM_MDDR_LIKE_RULE>
1

> <JCHEM_NUMBER_OF_RINGS>
3

> <JCHEM_PHYSIOLOGICAL_CHARGE>
-3

> <JCHEM_PKA>
2.3217816645442944

> <JCHEM_PKA_STRONGEST_ACIDIC>
0.8995337731748636

> <JCHEM_PKA_STRONGEST_BASIC>
5.008098223314263

> <JCHEM_POLAR_SURFACE_AREA>
258.9

> <JCHEM_REFRACTIVITY>
94.30359999999997

> <JCHEM_ROTATABLE_BOND_COUNT>
8

> <JCHEM_RULE_OF_FIVE>
0

> <ALOGPS_SOLUBILITY>
3.83e+00 g/l

> <JCHEM_TRADITIONAL_IUPAC>
dATP

> <JCHEM_VEBER_RULE>
0

> <DRUGBANK_ID>
DB03222

> <SECONDARY_ACCESSION_NUMBERS>
EXPT01288

> <DRUG_GROUPS>
experimental

> <GENERIC_NAME>
dATP

> <SYNONYMS>
2'-Deoxyadenosine 5'-triphosphate; Deoxyadenosine 5'-triphosphate; Deoxyadenosine triphosphate

$$$$