drugbank_target|Q9I7A8 Peptide deformylase (DB02036; DB02810; DB04310)
 OpenBabel12092119553D

  0  0  0     0  0            999 V3000
M  V30 BEGIN CTAB
M  V30 COUNTS 2715 2739 0 0 0
M  V30 BEGIN ATOM
M  V30 1 H -0.908 1.98254 -0.117106 0
M  V30 2 N 0 1.576 0 0
M  V30 3 C 0.933 2.03868 1.02534 0
M  V30 4 C 1.911 0.928543 1.3348 0
M  V30 5 O 3.095 1.19667 1.45644 0
M  V30 6 C 0.222 2.43627 2.35294 0
M  V30 7 C -0.732 3.65373 2.2001 0
M  V30 8 S 0.101 5.13292 1.52614 0
M  V30 9 C 1.257 5.56322 2.86805 0
M  V30 10 H 1.49 2.90518 0.631377 0
M  V30 11 H -0.977 1.52953 0.210867 0
M  V30 12 H 0.981 2.67203 3.11629 0
M  V30 13 H -0.358 1.57376 2.7183 0
M  V30 14 H -1.165 3.90944 3.18086 0
M  V30 15 H -1.563 3.418 1.51819 0
M  V30 16 H 0.729 5.58782 3.83104 0
M  V30 17 H 1.672 6.56266 2.65933 0
M  V30 18 H 2.08 4.83886 2.90714 0
M  V30 19 N 1.4781 -0.272755 1.55222 0
M  V30 20 C 2.4411 -1.32041 1.87344 0
M  V30 21 C 3.4411 -1.42342 0.74803 0
M  V30 22 O 4.6311 -1.41488 1.0162 0
M  V30 23 C 1.7631 -2.70173 2.07893 0
M  V30 24 H 2.9561 -1.04789 2.80997 0
M  V30 25 H 0.5091 -0.51083 1.47717 0
M  V30 26 H 1.2441 -3.02605 1.16622 0
M  V30 27 H 1.0291 -2.64082 2.89833 0
M  V30 28 H 2.5191 -3.45869 2.34017 0
M  V30 29 N 2.9562 -1.48159 -0.537278 0
M  V30 30 C 4.2052 -1.5506 -1.28993 0
M  V30 31 C 4.5182 -0.226211 -1.94288 0
M  V30 32 O 5.7242 -0.173395 -2.70946 0
M  V30 33 C 4.1802 -2.73429 -2.34018 0
M  V30 34 C 3.7882 -4.1248 -1.74825 0
M  V30 35 C 5.5322 -2.89638 -3.10339 0
M  V30 36 C 3.4392 -5.22121 -2.77747 0
M  V30 37 H 2.3692 -0.577231 -0.485098 0
M  V30 38 H 5.0202 -1.74478 -0.568317 0
M  V30 39 H 3.4022 -2.47431 -3.09182 0
M  V30 40 H 4.5762 -4.48466 -1.05899 0
M  V30 41 H 2.8912 -4.01327 -1.11022 0
M  V30 42 H 5.4882 -3.68718 -3.87235 0
M  V30 43 H 5.8312 -1.9882 -3.65754 0
M  V30 44 H 6.3642 -3.15502 -2.42288 0
M  V30 45 H 3.1032 -6.1488 -2.27161 0
M  V30 46 H 2.6232 -4.90631 -3.45024 0
M  V30 47 H 4.3022 -5.49924 -3.4087 0
M  V30 48 N 4.4343 0.785586 -1.36625 0
M  V30 49 C 5.3643 1.91259 -1.33949 0
M  V30 50 C 6.3453 1.68795 -0.210325 0
M  V30 51 O 7.5303 1.89854 -0.408561 0
M  V30 52 C 4.6603 3.28339 -1.13186 0
M  V30 53 C 3.6143 3.65335 -2.22967 0
M  V30 54 C 2.9403 5.00806 -1.87342 0
M  V30 55 C 4.2403 3.7352 -3.65075 0
M  V30 56 H 5.9343 1.93755 -2.28253 0
M  V30 57 H 3.4803 0.930788 -1.09874 0
M  V30 58 H 5.4333 4.06804 -1.09948 0
M  V30 59 H 4.1573 3.2624 -0.153332 0
M  V30 60 H 2.8163 2.89169 -2.25337 0
M  V30 61 H 2.4643 4.95233 -0.880545 0
M  V30 62 H 2.1643 5.26529 -2.60846 0
M  V30 63 H 3.6883 5.81687 -1.85667 0
M  V30 64 H 5.1023 4.42168 -3.64911 0
M  V30 65 H 3.4993 4.10731 -4.37516 0
M  V30 66 H 4.5693 2.74527 -3.99703 0
M  V30 67 N 5.9124 1.20967 1.01018 0
M  V30 68 C 6.8604 0.961223 2.1181 0
M  V30 69 C 7.8544 -0.0897034 1.69162 0
M  V30 70 O 9.0604 0.0612271 1.79896 0
M  V30 71 H 5.4354 0.29355 0.692338 0
M  V30 72 H 7.4064 1.90178 2.29946 0
M  V30 73 C 6.1554 0.536854 3.4353 0
M  V30 74 H 5.4784 1.33713 3.76777 0
M  V30 75 H 6.9184 0.402286 4.22087 0
M  V30 76 C 5.3774 -0.751574 3.2841 0
M  V30 77 O 5.9074 -1.80841 3.58691 0
M  V30 78 N 4.1134 -0.716079 2.81639 0
M  V30 79 H 3.6604 0.144236 2.57196 0
M  V30 80 H 3.6184 -1.57847 2.71904 0
M  V30 81 N 7.3905 -1.2043 1.01659 0
M  V30 82 C 8.6395 -1.89118 0.701237 0
M  V30 83 C 8.9525 -1.79705 -0.772358 0
M  V30 84 O 10.1585 -2.43528 -1.20026 0
M  V30 85 C 8.6145 -3.39168 1.20388 0
M  V30 86 C 8.2225 -3.57166 2.70438 0
M  V30 87 C 9.9665 -4.1341 0.963953 0
M  V30 88 C 7.8735 -5.01042 3.14183 0
M  V30 89 H 6.8035 -0.708267 0.2586 0
M  V30 90 H 9.4545 -1.36239 1.22927 0
M  V30 91 H 7.8365 -3.91369 0.603824 0
M  V30 92 H 9.0105 -3.15351 3.35992 0
M  V30 93 H 7.3255 -2.96294 2.92572 0
M  V30 94 H 9.9225 -5.19491 1.26621 0
M  V30 95 H 10.2655 -4.16181 -0.099578 0
M  V30 96 H 10.7985 -3.67309 1.52738 0
M  V30 97 H 7.5375 -5.03426 4.19812 0
M  V30 98 H 7.0575 -5.43668 2.53348 0
M  V30 99 H 8.7365 -5.69623 3.0682 0
M  V30 100 N 8.8686 -0.792821 -1.36206 0
M  V30 101 C 9.7986 -0.207853 -2.32573 0
M  V30 102 C 10.7796 0.659055 -1.56813 0
M  V30 103 O 11.9646 0.592176 -1.84951 0
M  V30 104 C 9.0946 0.655449 -3.41059 0
M  V30 105 C 8.0486 -0.111842 -4.27854 0
M  V30 106 C 7.3746 0.872274 -5.27537 0
M  V30 107 C 8.6746 -1.30299 -5.05786 0
M  V30 108 H 10.3686 -1.01294 -2.81744 0
M  V30 109 H 7.9146 -0.48854 -1.3546 0
M  V30 110 H 9.8676 1.07464 -4.07467 0
M  V30 111 H 8.5916 1.49328 -2.90463 0
M  V30 112 H 7.2506 -0.512053 -3.63006 0
M  V30 113 H 6.8986 1.70523 -4.73214 0
M  V30 114 H 6.5986 0.363291 -5.86476 0
M  V30 115 H 8.1226 1.28996 -5.96818 0
M  V30 116 H 9.5366 -0.959379 -5.65216 0
M  V30 117 H 7.9336 -1.7455 -5.74154 0
M  V30 118 H 9.0036 -2.09663 -4.37229 0
M  V30 119 N 10.3467 1.47872 -0.545128 0
M  V30 120 C 11.2567 2.33633 0.212746 0
M  V30 121 C 12.2727 1.4744 0.923983 0
M  V30 122 O 13.4487 1.80393 0.895572 0
M  V30 123 C 10.5137 3.23884 1.23693 0
M  V30 124 C 9.5747 4.25961 0.534417 0
M  V30 125 C 8.8077 5.11899 1.5098 0
M  V30 126 O 9.0307 5.00077 2.7437 0
M  V30 127 O 7.9647 5.92831 1.0409 0
M  V30 128 H 11.7907 2.99714 -0.490416 0
M  V30 129 H 9.3757 1.46235 -0.305871 0
M  V30 130 H 11.2577 3.79666 1.82843 0
M  V30 131 H 9.9327 2.60446 1.92222 0
M  V30 132 H 8.8397 3.73972 -0.0979679 0
M  V30 133 H 10.1727 4.92079 -0.109213 0
M  V30 134 N 11.8248 0.280983 1.55075 0
M  V30 135 C 13.0718 -0.334115 1.99725 0
M  V30 136 C 13.3998 -1.5542 1.1694 0
M  V30 137 O 12.6548 -1.94361 0.228531 0
M  V30 138 C 12.9538 -0.754656 3.49342 0
M  V30 139 C 12.6198 0.361445 4.49449 0
M  V30 140 C 11.2818 0.667893 4.76542 0
M  V30 141 C 13.6338 1.11322 5.09173 0
M  V30 142 C 10.9618 1.7296 5.60626 0
M  V30 143 C 13.3138 2.1647 5.9441 0
M  V30 144 C 11.9778 2.47742 6.19822 0
M  V30 145 H 11.2478 -0.122261 0.730844 0
M  V30 146 H 13.8948 0.395917 1.87363 0
M  V30 147 H 12.1998 -1.56446 3.5921 0
M  V30 148 H 13.8968 -1.24142 3.813 0
M  V30 149 H 10.4868 0.112481 4.28452 0
M  V30 150 H 14.6708 0.88973 4.8826 0
M  V30 151 H 9.9268 1.97684 5.78559 0
M  V30 152 H 14.1008 2.75193 6.3972 0
M  V30 153 H 11.7278 3.30145 6.84769 0
M  V30 154 N 13.3029 -1.57598 0.00835791 0
M  V30 155 C 14.7139 -1.7892 -0.53333 0
M  V30 156 C 15.0649 -0.916609 -1.73473 0
M  V30 157 O 14.1899 -0.121336 -2.1606 0
M  V30 158 C 14.7849 -3.24488 -0.974313 0
M  V30 159 C 13.3439 -3.46878 -1.46125 0
M  V30 160 C 12.4909 -2.74157 -0.416302 0
M  V30 161 H 15.4419 -1.56958 0.234495 0
M  V30 162 H 15.4629 -3.3306 -1.83988 0
M  V30 163 H 14.9749 -3.87972 -0.099718 0
M  V30 164 H 13.0759 -2.8862 -2.35646 0
M  V30 165 H 13.1889 -4.55572 -1.48295 0
M  V30 166 H 11.5529 -2.39022 -0.87981 0
M  V30 167 H 12.3359 -3.40345 0.44947 0
M  V30 168 N 14.781 0.264519 -1.55364 0
M  V30 169 C 16.058 1.01677 -1.67096 0
M  V30 170 C 16.438 2.03996 -0.543015 0
M  V30 171 O 15.786 2.23907 0.45585 0
M  V30 172 C 15.996 1.66596 -3.0667 0
M  V30 173 C 17.344 2.17442 -3.64697 0
M  V30 174 O 18.368 1.76568 -3.09358 0
M  V30 175 O 17.227 2.92439 -4.61673 0
M  V30 176 H 14.321 0.472161 -0.678965 0
M  V30 177 H 16.867 0.259703 -1.67701 0
M  V30 178 H 15.639 0.924962 -3.80211 0
M  V30 179 H 15.262 2.48968 -3.10001 0
M  V30 180 N 16.2591 1.48442 0.529413 0
M  V30 181 C 17.6701 1.5002 1.11134 0
M  V30 182 C 18.0211 0.27031 1.94329 0
M  V30 183 O 17.1461 -0.622507 2.07253 0
M  V30 184 C 17.7411 2.71834 2.02217 0
M  V30 185 C 16.3001 2.76283 2.55627 0
M  V30 186 C 15.4471 2.43542 1.326 0
M  V30 187 H 18.3981 1.5555 0.314641 0
M  V30 188 H 18.4191 2.50384 2.8651 0
M  V30 189 H 17.9311 3.61331 1.41639 0
M  V30 190 H 16.0321 1.90995 3.19924 0
M  V30 191 H 16.1451 3.77725 2.94721 0
M  V30 192 H 14.5091 1.94709 1.64196 0
M  V30 193 H 15.2921 3.3528 0.737734 0
M  V30 194 N 17.7372 -0.778329 1.37039 0
M  V30 195 C 19.1532 -1.07796 1.17695 0
M  V30 196 C 19.3532 -2.01498 0.00860115 0
M  V30 197 O 18.4092 -2.43901 -0.653352 0
M  V30 198 C 19.7222 -1.68178 2.49272 0
M  V30 199 C 21.2702 -1.80467 2.55735 0
M  V30 200 C 21.7452 -2.44263 3.87427 0
M  V30 201 N 23.2362 -2.51721 3.88833 0
M  V30 202 C 23.9712 -3.01919 4.87476 0
M  V30 203 N 23.4672 -3.5234 5.96513 0
M  V30 204 N 25.2602 -3.00733 4.74885 0
M  V30 205 H 17.4112 -0.156032 2.11826 0
M  V30 206 H 19.6742 -0.131844 0.938787 0
M  V30 207 H 19.3802 -1.06796 3.35093 0
M  V30 208 H 19.2542 -2.67554 2.65885 0
M  V30 209 H 21.6412 -2.40984 1.70325 0
M  V30 210 H 21.7222 -0.798656 2.43013 0
M  V30 211 H 21.3662 -1.84388 4.73248 0
M  V30 212 H 21.2962 -3.45458 3.9745 0
M  V30 213 H 23.7872 -2.1603 3.10063 0
M  V30 214 H 24.1002 -3.89027 6.67741 0
M  V30 215 H 22.4452 -3.50462 6.00168 0
M  V30 216 H 25.6362 -2.60638 3.88826 0
M  V30 217 H 25.8092 -3.39545 5.51918 0
M  V30 218 N 19.2153 -1.21501 -1.00376 0
M  V30 219 C 20.1453 -0.999478 -2.11028 0
M  V30 220 C 21.1263 0.0759671 -1.6993 0
M  V30 221 O 22.3113 -0.0841106 -1.94018 0
M  V30 222 C 19.4413 -0.564709 -3.42678 0
M  V30 223 C 18.3953 -1.58486 -3.97576 0
M  V30 224 C 17.7213 -1.00628 -5.25146 0
M  V30 225 C 19.0213 -2.97204 -4.29496 0
M  V30 226 H 20.7153 -1.92495 -2.29317 0
M  V30 227 H 18.2613 -0.92693 -1.102 0
M  V30 228 H 20.2143 -0.401091 -4.19487 0
M  V30 229 H 18.9383 0.396411 -3.24185 0
M  V30 230 H 17.5973 -1.73606 -3.22888 0
M  V30 231 H 17.2453 -0.0368439 -5.02987 0
M  V30 232 H 16.9453 -1.68771 -5.62841 0
M  V30 233 H 18.4693 -0.854015 -6.04598 0
M  V30 234 H 19.8833 -2.8552 -4.97143 0
M  V30 235 H 18.2803 -3.62372 -4.78338 0
M  V30 236 H 19.3503 -3.47956 -3.3772 0
M  V30 237 N 20.6934 1.19889 -1.02296 0
M  V30 238 C 22.1094 1.41462 -0.738954 0
M  V30 239 C 22.3094 1.89721 0.678846 0
M  V30 240 O 21.3654 2.07016 1.4457 0
M  V30 241 C 22.6784 2.43083 -1.77005 0
M  V30 242 C 24.2264 2.5684 -1.78892 0
M  V30 243 C 24.7014 3.61709 -2.80945 0
M  V30 244 N 26.1924 3.69199 -2.79725 0
M  V30 245 C 26.9274 4.50019 -3.55345 0
M  V30 246 N 26.4234 5.34592 -4.40662 0
M  V30 247 N 28.2164 4.44612 -3.43914 0
M  V30 248 H 20.3674 0.868827 -1.93817 0
M  V30 249 H 22.6304 0.44399 -0.837602 0
M  V30 250 H 22.3364 2.14636 -2.78612 0
M  V30 251 H 22.2104 3.4217 -1.58744 0
M  V30 252 H 24.5974 2.84614 -0.779674 0
M  V30 253 H 24.6784 1.57927 -2.01228 0
M  V30 254 H 24.3224 3.34678 -3.82038 0
M  V30 255 H 24.2524 4.60259 -2.5587 0
M  V30 256 H 26.7434 3.08794 -2.17842 0
M  V30 257 H 27.0564 5.93363 -4.95116 0
M  V30 258 H 25.4014 5.34073 -4.44737 0
M  V30 259 H 28.5924 3.7758 -2.76679 0
M  V30 260 H 28.7654 5.0736 -4.031 0
M  V30 261 N 22.1715 0.800033 1.35784 0
M  V30 262 C 23.3995 0.389606 2.03199 0
M  V30 263 C 23.8145 -0.997375 1.60306 0
M  V30 264 O 23.1715 -1.64154 0.797481 0
M  V30 265 C 23.2225 0.455855 3.58614 0
M  V30 266 O 22.9435 1.78815 3.99946 0
M  V30 267 C 24.4445 0.0374032 4.43284 0
M  V30 268 H 21.6645 0.159132 0.651857 0
M  V30 269 H 24.2085 1.08183 1.73541 0
M  V30 270 H 22.3635 -0.188057 3.86943 0
M  V30 271 H 22.7775 1.74636 4.94573 0
M  V30 272 H 24.2515 0.134882 5.51835 0
M  V30 273 H 24.7285 -1.01651 4.27275 0
M  V30 274 H 25.3345 0.654215 4.20238 0
M  V30 275 N 23.6496 -1.47581 0.552962 0
M  V30 276 C 24.8986 -2.01684 0.0251995 0
M  V30 277 C 25.2116 -1.43317 -1.33115 0
M  V30 278 O 26.4176 -1.89057 -1.94858 0
M  V30 279 C 24.8736 -3.599 -0.00542052 0
M  V30 280 C 24.4816 -4.27257 1.34742 0
M  V30 281 C 26.2256 -4.21768 -0.4808 0
M  V30 282 C 24.1326 -5.77467 1.27614 0
M  V30 283 H 23.0626 -0.753979 0.00565033 0
M  V30 284 H 25.7136 -1.69616 0.70018 0
M  V30 285 H 24.0956 -3.88911 -0.745961 0
M  V30 286 H 25.2696 -4.09893 2.10534 0
M  V30 287 H 23.5846 -3.77358 1.76039 0
M  V30 288 H 26.1816 -5.31838 -0.55246 0
M  V30 289 H 26.5246 -3.88651 -1.49184 0
M  V30 290 H 27.0576 -3.97273 0.204752 0
M  V30 291 H 23.7966 -6.15196 2.26304 0
M  V30 292 H 23.3166 -5.9718 0.55996 0
M  V30 293 H 24.9956 -6.3959 0.976421 0
M  V30 294 N 25.1277 -0.289203 -1.54924 0
M  V30 295 C 26.0907 0.579144 -2.21762 0
M  V30 296 C 27.0907 1.07047 -1.1999 0
M  V30 297 O 28.2807 0.968384 -1.44803 0
M  V30 298 C 25.4127 1.80055 -2.8947 0
M  V30 299 H 26.6057 -0.00464908 -2.999 0
M  V30 300 H 24.1587 -0.0399306 -1.56249 0
M  V30 301 H 24.8937 2.42449 -2.15381 0
M  V30 302 H 24.6787 1.45602 -3.64064 0
M  V30 303 H 26.1687 2.41773 -3.40493 0
M  V30 304 N 26.6058 1.57591 -0.0167156 0
M  V30 305 C 27.5528 2.09462 0.969251 0
M  V30 306 C 28.5228 0.99381 1.33089 0
M  V30 307 O 29.7078 1.26726 1.42636 0
M  V30 308 C 26.8478 2.61622 2.25051 0
M  V30 309 C 25.9608 3.85666 1.94642 0
M  V30 310 C 25.0958 4.26266 3.16972 0
M  V30 311 C 24.1348 5.43101 2.82326 0
M  V30 312 N 23.2718 5.78915 3.97243 0
M  V30 313 H 28.1118 2.93428 0.519997 0
M  V30 314 H 25.6488 1.45044 0.245087 0
M  V30 315 H 27.6068 2.89949 2.99976 0
M  V30 316 H 26.2368 1.80505 2.67615 0
M  V30 317 H 25.2888 3.64145 1.10013 0
M  V30 318 H 26.6008 4.70678 1.65117 0
M  V30 319 H 25.7548 4.55963 4.00228 0
M  V30 320 H 24.4938 3.39996 3.49648 0
M  V30 321 H 23.4988 5.1311 1.97479 0
M  V30 322 H 24.7238 6.3106 2.50879 0
M  V30 323 H 22.6698 4.95602 4.29785 0
M  V30 324 H 22.5868 6.58539 3.71299 0
M  V30 325 H 23.8548 6.13212 4.81239 0
M  V30 326 N 28.0839 -0.256276 1.55502 0
M  V30 327 C 29.4949 -0.826068 1.67431 0
M  V30 328 C 29.8459 -1.86396 0.612446 0
M  V30 329 O 28.9709 -2.15031 -0.243025 0
M  V30 330 C 29.5659 -1.50512 3.03532 0
M  V30 331 C 28.1249 -2.02273 3.17431 0
M  V30 332 C 27.2719 -0.870548 2.63281 0
M  V30 333 H 30.2229 -0.0322728 1.58667 0
M  V30 334 H 30.2439 -2.37279 2.97454 0
M  V30 335 H 29.7559 -0.749484 3.80794 0
M  V30 336 H 27.8569 -2.80746 2.44974 0
M  V30 337 H 27.9699 -2.22655 4.24219 0
M  V30 338 H 26.3339 -1.26851 2.20864 0
M  V30 339 H 27.1169 -0.128149 3.43061 0
M  V30 340 N 29.562 -1.4872 -0.521534 0
M  V30 341 C 30.808 -1.574 -1.27879 0
M  V30 342 C 31.141 -0.250817 -1.92573 0
M  V30 343 O 30.416 0.743934 -1.79711 0
M  V30 344 C 30.699 -2.71843 -2.36164 0
M  V30 345 C 30.552 -4.13893 -1.76105 0
M  V30 346 C 31.871 -2.82008 -3.37875 0
M  V30 347 H 28.99 -0.572941 -0.463581 0
M  V30 348 H 31.632 -1.80927 -0.580119 0
M  V30 349 H 29.782 -2.51914 -2.95756 0
M  V30 350 H 31.454 -4.45284 -1.20499 0
M  V30 351 H 29.697 -4.20498 -1.06601 0
M  V30 352 H 30.368 -4.89804 -2.5455 0
M  V30 353 H 32.844 -3.00086 -2.88249 0
M  V30 354 H 31.72 -3.63796 -4.11028 0
M  V30 355 H 31.981 -1.90511 -3.98946 0
M  V30 356 N 31.0401 0.771051 -1.3745 0
M  V30 357 C 31.9501 1.91538 -1.35464 0
M  V30 358 C 32.9661 1.72134 -0.254123 0
M  V30 359 O 34.1421 1.95358 -0.489626 0
M  V30 360 C 31.2071 3.26671 -1.16134 0
M  V30 361 C 30.2681 3.58723 -2.35831 0
M  V30 362 C 29.5011 4.87409 -2.17413 0
M  V30 363 O 29.7241 5.58506 -1.15876 0
M  V30 364 O 28.6581 5.18539 -3.05615 0
M  V30 365 H 32.4841 1.96165 -2.31847 0
M  V30 366 H 30.0691 0.9139 -1.18187 0
M  V30 367 H 31.9511 4.07499 -1.07345 0
M  V30 368 H 30.6261 3.22894 -0.228251 0
M  V30 369 H 29.5331 2.78127 -2.50192 0
M  V30 370 H 30.8661 3.67243 -3.27709 0
M  V30 371 N 32.5182 1.22032 0.997298 0
M  V30 372 C 33.7642 1.04376 1.73878 0
M  V30 373 C 34.0972 -0.420716 1.89588 0
M  V30 374 O 33.3722 -1.31202 1.43583 0
M  V30 375 C 33.6552 1.75047 3.14691 0
M  V30 376 C 33.5082 3.29062 3.06656 0
M  V30 377 C 34.8272 1.49928 4.13775 0
M  V30 378 H 31.9462 0.380578 0.631133 0
M  V30 379 H 34.5882 1.50312 1.16217 0
M  V30 380 H 32.7382 1.35996 3.63919 0
M  V30 381 H 34.4102 3.7753 2.65083 0
M  V30 382 H 32.6532 3.58967 2.43568 0
M  V30 383 H 33.3242 3.73683 4.06282 0
M  V30 384 H 35.8002 1.83842 3.73285 0
M  V30 385 H 34.6762 2.01878 5.10428 0
M  V30 386 H 34.9372 0.430929 4.39995 0
M  V30 387 N 33.9963 -1.19345 1.0293 0
M  V30 388 C 35.2423 -1.89318 0.727083 0
M  V30 389 C 35.5753 -1.79446 -0.742483 0
M  V30 390 O 34.8503 -1.1871 -1.54072 0
M  V30 391 C 35.1333 -3.40238 1.17942 0
M  V30 392 C 34.9863 -3.58979 2.71024 0
M  V30 393 C 36.3053 -4.33479 0.760548 0
M  V30 394 H 33.4243 -0.687475 0.265606 0
M  V30 395 H 36.0663 -1.40477 1.2793 0
M  V30 396 H 34.2163 -3.81964 0.709608 0
M  V30 397 H 35.8883 -3.26421 3.25955 0
M  V30 398 H 34.1313 -3.02018 3.11396 0
M  V30 399 H 34.8023 -4.64823 2.9773 0
M  V30 400 H 37.2783 -3.99469 1.16464 0
M  V30 401 H 36.1543 -5.37664 1.10493 0
M  V30 402 H 36.4153 -4.40813 -0.337063 0
M  V30 403 N 35.4744 -0.807222 -1.35358 0
M  V30 404 C 36.7514 -0.311126 -1.9311 0
M  V30 405 C 37.1314 1.19937 -1.73719 0
M  V30 406 O 36.4794 1.99918 -1.10657 0
M  V30 407 C 36.6894 -0.723226 -3.41424 0
M  V30 408 C 38.0374 -0.713078 -4.18569 0
M  V30 409 O 39.0614 -0.664811 -3.49941 0
M  V30 410 O 37.9204 -0.772022 -5.41019 0
M  V30 411 H 35.0144 -0.081526 -0.822972 0
M  V30 412 H 37.5604 -0.890962 -1.4443 0
M  V30 413 H 36.3324 -1.76426 -3.4927 0
M  V30 414 H 35.9554 -0.118232 -3.97424 0
M  V30 415 N 36.9525 1.47285 -0.560781 0
M  V30 416 C 38.2295 1.9558 0.0277798 0
M  V30 417 C 38.6095 1.5034 1.48192 0
M  V30 418 O 37.9575 0.743882 2.16052 0
M  V30 419 C 38.1675 3.48789 -0.121418 0
M  V30 420 C 39.5155 4.24594 0.0220912 0
M  V30 421 O 40.5395 3.56166 -0.0491439 0
M  V30 422 O 39.3985 5.46217 0.175958 0
M  V30 423 H 36.4925 0.824663 0.0621342 0
M  V30 424 H 39.0385 1.5767 -0.627556 0
M  V30 425 H 37.8105 3.74533 -1.13316 0
M  V30 426 H 37.4335 3.93473 0.571366 0
M  V30 427 N 38.4306 0.297415 1.54768 0
M  V30 428 C 39.3936 -0.567375 2.22066 0
M  V30 429 C 40.3936 -1.06409 1.20556 0
M  V30 430 O 41.5836 -0.960691 1.45315 0
M  V30 431 C 38.7156 -1.78517 2.90421 0
M  V30 432 H 39.9086 0.0205534 2.99893 0
M  V30 433 H 37.4616 0.0482163 1.56226 0
M  V30 434 H 38.1966 -2.41303 2.16664 0
M  V30 435 H 37.9816 -1.43669 3.64831 0
M  V30 436 H 39.4716 -2.39964 3.41771 0
M  V30 437 N 39.9087 -1.5758 0.0250728 0
M  V30 438 C 41.1547 -1.91917 -0.655413 0
M  V30 439 C 41.4877 -0.901433 -1.72011 0
M  V30 440 O 40.7627 0.0764069 -1.9435 0
M  V30 441 C 41.0457 -3.36751 -1.27558 0
M  V30 442 C 40.8987 -4.49258 -0.220719 0
M  V30 443 C 42.2177 -3.81469 -2.19475 0
M  V30 444 H 39.3367 -0.697925 -0.23679 0
M  V30 445 H 41.9787 -1.89825 0.0815036 0
M  V30 446 H 40.1287 -3.38664 -1.90365 0
M  V30 447 H 41.8007 -4.59478 0.409601 0
M  V30 448 H 40.0437 -4.31415 0.454264 0
M  V30 449 H 40.7147 -5.47618 -0.694175 0
M  V30 450 H 43.1907 -3.81266 -1.66659 0
M  V30 451 H 42.0667 -4.83512 -2.59822 0
M  V30 452 H 42.3277 -3.16744 -3.08424 0
M  V30 453 N 41.3868 0.248026 -1.55636 0
M  V30 454 C 42.8028 0.596483 -1.48035 0
M  V30 455 C 43.0028 1.88386 -0.715039 0
M  V30 456 O 42.0588 2.51319 -0.243944 0
M  V30 457 C 43.3718 0.700258 -2.92433 0
M  V30 458 C 44.9198 0.792659 -3.02797 0
M  V30 459 C 45.3948 0.928005 -4.485 0
M  V30 460 N 46.8858 0.992903 -4.52433 0
M  V30 461 C 47.6208 1.11687 -5.62418 0
M  V30 462 N 47.1168 1.20645 -6.82214 0
M  V30 463 N 48.9098 1.14994 -5.50212 0
M  V30 464 H 41.0608 -0.597109 -2.03834 0
M  V30 465 H 43.3238 -0.205925 -0.925364 0
M  V30 466 H 43.0298 -0.175658 -3.51261 0
M  V30 467 H 42.9038 1.57255 -3.42857 0
M  V30 468 H 45.2908 1.65903 -2.4405 0
M  V30 469 H 45.3718 -0.104762 -2.55585 0
M  V30 470 H 45.0158 0.0661971 -5.07857 0
M  V30 471 H 44.9458 1.84045 -4.93391 0
M  V30 472 H 47.4368 0.935064 -3.66149 0
M  V30 473 H 47.7498 1.30008 -7.61786 0
M  V30 474 H 46.0948 1.17605 -6.84977 0
M  V30 475 H 49.2858 1.07643 -4.55555 0
M  V30 476 H 49.4588 1.24311 -6.35965 0
M  V30 477 N 42.8649 1.48995 0.513639 0
M  V30 478 C 43.7969 1.60836 1.63293 0
M  V30 479 C 44.8099 0.491701 1.55197 0
M  V30 480 O 45.9989 0.763238 1.6136 0
M  V30 481 C 43.0989 1.53731 3.02027 0
M  V30 482 C 42.2719 2.80715 3.35437 0
M  V30 483 C 41.3309 2.66837 4.53525 0
M  V30 484 O 40.3569 3.40753 4.55934 0
M  V30 485 N 41.5589 1.77539 5.52684 0
M  V30 486 H 44.3239 2.57366 1.53566 0
M  V30 487 H 41.8849 1.45925 0.701259 0
M  V30 488 H 43.8769 1.42118 3.78926 0
M  V30 489 H 42.4469 0.651092 3.05744 0
M  V30 490 H 41.6669 3.06772 2.47557 0
M  V30 491 H 42.9549 3.64927 3.54551 0
M  V30 492 H 42.3529 1.16719 5.53528 0
M  V30 493 H 40.9099 1.71856 6.28736 0
M  V30 494 N 44.343 -0.763751 1.37857 0
M  V30 495 C 45.273 -1.89103 1.36975 0
M  V30 496 C 46.254 -1.68439 0.237152 0
M  V30 497 O 47.439 -1.8918 0.438713 0
M  V30 498 C 44.569 -3.26496 1.18395 0
M  V30 499 C 43.523 -3.61741 2.28751 0
M  V30 500 C 42.849 -4.97762 1.95286 0
M  V30 501 C 44.149 -3.67665 3.70972 0
M  V30 502 H 45.843 -1.90099 2.31307 0
M  V30 503 H 43.389 -0.91319 1.11341 0
M  V30 504 H 45.342 -4.05003 1.16406 0
M  V30 505 H 44.066 -3.25955 0.205215 0
M  V30 506 H 42.725 -2.85547 2.29909 0
M  V30 507 H 42.373 -4.93769 0.959221 0
M  V30 508 H 42.073 -5.22313 2.69189 0
M  V30 509 H 43.597 -5.7866 1.94898 0
M  V30 510 H 45.011 -4.36307 3.719 0
M  V30 511 H 43.408 -4.03718 4.43995 0
M  V30 512 H 44.478 -2.68134 4.0402 0
M  V30 513 N 45.8211 -1.22559 -0.990812 0
M  V30 514 C 47.0701 -1.04553 -1.72486 0
M  V30 515 C 47.3831 0.419349 -1.91052 0
M  V30 516 O 48.5891 0.719121 -2.61803 0
M  V30 517 C 47.0451 -1.82231 -3.10355 0
M  V30 518 C 46.6531 -3.32981 -2.99713 0
M  V30 519 C 48.3971 -1.7268 -3.87791 0
M  V30 520 C 46.3041 -4.03091 -4.32748 0
M  V30 521 H 45.2341 -0.387614 -0.646739 0
M  V30 522 H 47.8851 -1.46429 -1.10593 0
M  V30 523 H 46.2671 -1.33155 -3.72942 0
M  V30 524 H 47.4411 -3.89466 -2.46278 0
M  V30 525 H 45.7561 -3.43231 -2.35758 0
M  V30 526 H 48.3531 -2.22381 -4.86262 0
M  V30 527 H 48.6961 -0.687607 -4.10582 0
M  V30 528 H 49.2291 -2.1931 -3.31885 0
M  V30 529 H 45.9681 -5.07273 -4.15156 0
M  V30 530 H 45.4881 -3.51394 -4.86089 0
M  V30 531 H 47.1671 -4.08804 -5.01486 0
M  V30 532 N 47.2992 1.18797 -1.03562 0
M  V30 533 C 48.5762 1.84469 -0.650434 0
M  V30 534 C 48.9562 1.92319 0.870433 0
M  V30 535 O 48.3042 1.44528 1.76986 0
M  V30 536 C 48.5142 3.2306 -1.32036 0
M  V30 537 C 49.8622 3.9915 -1.44792 0
M  V30 538 O 50.8862 3.32481 -1.27806 0
M  V30 539 O 49.7452 5.18587 -1.72423 0
M  V30 540 H 46.8392 0.795251 -0.226946 0
M  V30 541 H 49.3852 1.26231 -1.13419 0
M  V30 542 H 48.1572 3.1222 -2.3587 0
M  V30 543 H 47.7802 3.88949 -0.8249 0
M  V30 544 N 48.7773 0.814389 1.34928 0
M  V30 545 C 50.0543 0.321363 1.92942 0
M  V30 546 C 50.4343 -1.19014 1.74353 0
M  V30 547 O 49.7823 -1.99328 1.11716 0
M  V30 548 C 49.9923 0.741323 3.41036 0
M  V30 549 C 51.3403 0.735266 4.18185 0
M  V30 550 O 52.3643 0.68336 3.49584 0
M  V30 551 O 51.2233 0.800703 5.40602 0
M  V30 552 H 48.3173 0.0858893 0.822528 0
M  V30 553 H 50.8633 0.898609 1.43955 0
M  V30 554 H 49.6353 1.78276 3.4833 0
M  V30 555 H 49.2583 0.139307 3.97356 0
M  V30 556 N 50.2554 -1.46986 0.568584 0
M  V30 557 C 51.1884 -2.27129 -0.220779 0
M  V30 558 C 52.1664 -1.34757 -0.909905 0
M  V30 559 O 53.3504 -1.64152 -0.926622 0
M  V30 560 C 50.4774 -3.12108 -1.31553 0
M  V30 561 C 49.5234 -4.20141 -0.733748 0
M  V30 562 S 50.3564 -5.33783 0.428479 0
M  V30 563 C 51.5124 -6.22327 -0.667811 0
M  V30 564 H 51.7454 -2.93731 0.459267 0
M  V30 565 H 49.2784 -1.5026 0.355154 0
M  V30 566 H 51.2364 -3.61636 -1.94241 0
M  V30 567 H 49.8974 -2.44847 -1.96746 0
M  V30 568 H 49.0904 -4.79373 -1.5562 0
M  V30 569 H 48.6924 -3.73553 -0.182812 0
M  V30 570 H 50.9844 -6.59364 -1.55708 0
M  V30 571 H 51.9274 -7.0801 -0.11258 0
M  V30 572 H 52.3354 -5.5618 -0.965601 0
M  V30 573 N 51.7335 -0.305618 -1.54608 0
M  V30 574 C 52.9805 0.302298 -2.00231 0
M  V30 575 C 53.3085 1.5354 -1.19398 0
M  V30 576 O 52.5635 1.93973 -0.259423 0
M  V30 577 C 52.8625 0.698983 -3.50498 0
M  V30 578 C 52.5285 -0.432903 -4.48817 0
M  V30 579 C 51.1905 -0.743622 -4.75419 0
M  V30 580 C 53.5425 -1.19409 -5.07337 0
M  V30 581 C 50.8705 -1.81857 -5.57804 0
M  V30 582 C 53.2225 -2.25899 -5.90891 0
M  V30 583 C 51.8865 -2.57572 -6.15803 0
M  V30 584 H 51.1565 0.110619 -0.732697 0
M  V30 585 H 53.8035 -0.425674 -1.86709 0
M  V30 586 H 52.1085 1.50711 -3.61654 0
M  V30 587 H 53.8055 1.1806 -3.83227 0
M  V30 588 H 50.3955 -0.18063 -4.28219 0
M  V30 589 H 54.5795 -0.967295 -4.86782 0
M  V30 590 H 49.8355 -2.06864 -5.75341 0
M  V30 591 H 54.0095 -2.85335 -6.35261 0
M  V30 592 H 51.6365 -3.40998 -6.7943 0
M  V30 593 N 53.2116 1.57565 -0.0334293 0
M  V30 594 C 54.1216 2.13943 0.962572 0
M  V30 595 C 55.1376 1.09276 1.35406 0
M  V30 596 O 56.3136 1.41355 1.4346 0
M  V30 597 C 53.3786 2.65887 2.22497 0
M  V30 598 C 52.4396 3.85286 1.8935 0
M  V30 599 C 51.6726 4.34743 3.09571 0
M  V30 600 O 51.8956 3.83352 4.22371 0
M  V30 601 O 50.8296 5.26538 2.91618 0
M  V30 602 H 54.6556 2.99333 0.513169 0
M  V30 603 H 52.2406 1.4822 0.18743 0
M  V30 604 H 54.1226 2.99346 2.96598 0
M  V30 605 H 52.7976 1.83578 2.6661 0
M  V30 606 H 51.7046 3.56746 1.1262 0
M  V30 607 H 53.0376 4.68771 1.5005 0
M  V30 608 N 54.6897 -0.239769 1.55765 0
M  V30 609 C 55.9177 -0.98417 1.81994 0
M  V30 610 C 56.3327 -1.7867 0.610124 0
M  V30 611 O 55.6897 -1.77571 -0.421271 0
M  V30 612 C 55.7407 -1.91635 3.06526 0
M  V30 613 O 55.4617 -1.14629 4.22838 0
M  V30 614 C 56.9627 -2.77616 3.45607 0
M  V30 615 H 54.1827 -0.28928 0.605441 0
M  V30 616 H 56.7267 -0.260499 2.02834 0
M  V30 617 H 54.8817 -2.5942 2.87715 0
M  V30 618 H 55.2957 -1.77745 4.93464 0
M  V30 619 H 56.7697 -3.38759 4.35828 0
M  V30 620 H 57.2467 -3.4909 2.6652 0
M  V30 621 H 57.8527 -2.15271 3.66795 0
M  V30 622 N 56.1678 -1.49265 -0.50573 0
M  V30 623 C 57.1008 -1.60183 -1.62532 0
M  V30 624 C 58.0788 -0.451107 -1.56217 0
M  V30 625 O 59.2628 -0.666016 -1.76342 0
M  V30 626 C 56.3898 -1.55238 -3.01029 0
M  V30 627 C 55.4358 -2.7545 -3.25621 0
M  V30 628 S 56.2688 -4.37174 -3.09256 0
M  V30 629 C 57.4248 -4.34866 -4.50158 0
M  V30 630 H 57.6578 -2.54894 -1.53025 0
M  V30 631 H 55.1908 -1.38098 -0.690535 0
M  V30 632 H 57.1488 -1.53071 -3.80893 0
M  V30 633 H 55.8098 -0.618238 -3.07956 0
M  V30 634 H 55.0028 -2.68197 -4.26716 0
M  V30 635 H 54.6048 -2.75005 -2.53472 0
M  V30 636 H 56.8968 -4.06295 -5.42154 0
M  V30 637 H 57.8398 -5.36223 -4.62462 0
M  V30 638 H 58.2478 -3.65007 -4.30616 0
M  V30 639 N 57.6459 0.756429 -1.3826 0
M  V30 640 C 58.8759 1.54341 -1.3734 0
M  V30 641 C 59.2839 1.89159 0.0393917 0
M  V30 642 O 58.6269 1.5307 1.01565 0
M  V30 643 C 58.6889 2.87238 -2.16182 0
M  V30 644 C 58.3529 2.74973 -3.65019 0
M  V30 645 C 59.3499 2.44962 -4.58574 0
M  V30 646 C 57.0349 2.92515 -4.08338 0
M  V30 647 C 59.0289 2.32642 -5.93428 0
M  V30 648 C 56.7159 2.79815 -5.43274 0
M  V30 649 C 57.7139 2.49921 -6.35632 0
M  V30 650 O 57.4019 2.37275 -7.68086 0
M  V30 651 H 57.1339 0.484281 -0.471643 0
M  V30 652 H 59.6879 0.944152 -1.82414 0
M  V30 653 H 57.9179 3.49342 -1.65822 0
M  V30 654 H 59.6069 3.48731 -2.07705 0
M  V30 655 H 60.3729 2.31081 -4.26412 0
M  V30 656 H 56.2519 3.14781 -3.368 0
M  V30 657 H 59.7959 2.0923 -6.65484 0
M  V30 658 H 55.6929 2.93269 -5.75034 0
M  V30 659 H 56.4609 2.52509 -7.78577 0
M  V30 660 N 59.124 1.23083 0.984299 0
M  V30 661 C 60.034 1.02515 2.11016 0
M  V30 662 C 61.05 -0.0291702 1.73976 0
M  V30 663 O 62.226 0.165434 2.00719 0
M  V30 664 C 59.291 0.614673 3.41208 0
M  V30 665 C 58.352 1.74359 3.92297 0
M  V30 666 C 57.585 1.35261 5.16275 0
M  V30 667 O 57.808 0.235136 5.69915 0
M  V30 668 O 56.742 2.17227 5.61334 0
M  V30 669 H 60.568 1.96862 2.31255 0
M  V30 670 H 58.153 1.01753 1.09392 0
M  V30 671 H 60.035 0.396518 4.1953 0
M  V30 672 H 58.71 -0.299851 3.22308 0
M  V30 673 H 57.617 2.01635 3.1511 0
M  V30 674 H 58.95 2.63629 4.15645 0
M  V30 675 N 60.6021 -1.18246 1.0419 0
M  V30 676 C 61.5651 -2.20128 0.638452 0
M  V30 677 C 62.5651 -1.57885 -0.304805 0
M  V30 678 O 63.7551 -1.73967 -0.0900369 0
M  V30 679 C 60.8871 -3.4084 -0.0637751 0
M  V30 680 H 62.0801 -2.57336 1.54007 0
M  V30 681 H 59.6331 -1.32152 0.834598 0
M  V30 682 H 60.3681 -3.09166 -0.979136 0
M  V30 683 H 60.1531 -3.8726 0.614198 0
M  V30 684 H 61.6431 -4.16274 -0.332512 0
M  V30 685 N 62.0802 -0.821533 -1.34494 0
M  V30 686 C 63.4912 -0.467956 -1.8074 0
M  V30 687 C 63.8422 1.01151 -1.68116 0
M  V30 688 O 62.9672 1.78707 -1.22036 0
M  V30 689 C 63.5622 -0.842627 -3.28154 0
M  V30 690 C 62.1212 -0.541439 -3.72485 0
M  V30 691 C 61.2682 -1.06028 -2.56229 0
M  V30 692 H 64.2192 -1.01183 -1.22261 0
M  V30 693 H 64.2402 -0.145876 -3.8022 0
M  V30 694 H 63.7522 -1.91945 -3.37311 0
M  V30 695 H 61.8532 0.526034 -3.68868 0
M  V30 696 H 61.9662 -1.08453 -4.66663 0
M  V30 697 H 60.3302 -0.481892 -2.501 0
M  V30 698 H 61.1132 -2.14352 -2.68157 0
M  V30 699 N 63.5583 1.46682 -0.576371 0
M  V30 700 C 64.8063 2.02013 -0.0594163 0
M  V30 701 C 65.1273 1.45101 1.30271 0
M  V30 702 O 64.3973 0.633317 1.8538 0
M  V30 703 H 62.9773 0.746759 -0.0189745 0
M  V30 704 H 65.6393 1.79862 -0.750717 0
M  V30 705 H 64.7353 3.12097 0.014345 0
M  V30 706 N 65.0364 0.313813 1.54444 0
M  V30 707 C 66.2854 -0.292519 1.99568 0
M  V30 708 C 66.5984 -1.54011 1.20582 0
M  V30 709 O 67.8044 -2.22183 1.56035 0
M  V30 710 C 66.2604 -0.571752 3.55329 0
M  V30 711 C 65.8684 0.658229 4.43138 0
M  V30 712 C 67.6124 -1.13857 4.08946 0
M  V30 713 C 65.5194 0.351439 5.90355 0
M  V30 714 H 64.4494 -0.113079 0.745472 0
M  V30 715 H 67.1004 0.424518 1.78522 0
M  V30 716 H 65.4824 -1.34872 3.72325 0
M  V30 717 H 66.6564 1.43403 4.37918 0
M  V30 718 H 64.9714 1.14458 4.0036 0
M  V30 719 H 67.5684 -1.38257 5.16516 0
M  V30 720 H 67.9114 -2.08489 3.6033 0
M  V30 721 H 68.4444 -0.423015 3.95544 0
M  V30 722 H 65.1834 1.26667 6.43145 0
M  V30 723 H 64.7034 -0.386842 5.98551 0
M  V30 724 H 66.3824 -0.0423134 6.46986 0
M  V30 725 N 66.5145 -1.57545 0.0417849 0
M  V30 726 C 67.7625 -1.91937 -0.632829 0
M  V30 727 C 68.0835 -0.919978 -1.71934 0
M  V30 728 O 67.3535 0.0366064 -1.95866 0
M  V30 729 H 65.9335 -0.708493 -0.236742 0
M  V30 730 H 68.5955 -1.9468 0.0925745 0
M  V30 731 H 67.6915 -2.92912 -1.07746 0
M  V30 732 N 67.9926 0.231505 -1.5589 0
M  V30 733 C 68.9226 1.29022 -1.94617 0
M  V30 734 C 69.9036 1.4941 -0.813067 0
M  V30 735 O 71.0886 1.6176 -1.07459 0
M  V30 736 C 68.2186 2.64199 -2.25424 0
M  V30 737 C 67.1726 2.58484 -3.41131 0
M  V30 738 C 66.4986 3.97599 -3.57518 0
M  V30 739 C 67.7986 2.1413 -4.76388 0
M  V30 740 H 69.4926 0.968563 -2.83301 0
M  V30 741 H 67.0386 0.464479 -1.36303 0
M  V30 742 H 68.9916 3.38413 -2.51107 0
M  V30 743 H 67.7156 2.98032 -1.33583 0
M  V30 744 H 66.3746 1.86727 -3.15481 0
M  V30 745 H 66.0226 4.28723 -2.6307 0
M  V30 746 H 65.7226 3.94659 -4.35337 0
M  V30 747 H 67.2466 4.7349 -3.85538 0
M  V30 748 H 68.6606 2.78083 -5.01341 0
M  V30 749 H 67.0576 2.2227 -5.57419 0
M  V30 750 H 68.1276 1.09331 -4.72414 0
M  V30 751 N 69.4707 1.49531 0.497807 0
M  V30 752 C 70.4337 1.65916 1.58128 0
M  V30 753 C 71.4337 0.530825 1.51786 0
M  V30 754 O 72.6237 0.797342 1.54881 0
M  V30 755 C 69.7557 1.65951 2.9778 0
M  V30 756 H 70.9487 2.62556 1.44929 0
M  V30 757 H 68.5017 1.38611 0.722275 0
M  V30 758 H 69.2367 0.709065 3.16453 0
M  V30 759 H 69.0217 2.47897 3.03792 0
M  V30 760 H 70.5117 1.80673 3.76493 0
M  V30 761 N 70.9488 -0.749086 1.3866 0
M  V30 762 C 71.9118 -1.84457 1.36045 0
M  V30 763 C 72.9118 -1.58682 0.260122 0
M  V30 764 O 74.1018 -1.66343 0.517261 0
M  V30 765 C 71.2338 -3.22008 1.11911 0
M  V30 766 H 72.4268 -1.88182 2.33512 0
M  V30 767 H 69.9798 -0.951266 1.24019 0
M  V30 768 H 70.7148 -3.2395 0.150686 0
M  V30 769 H 70.4998 -3.42111 1.91579 0
M  V30 770 H 71.9898 -4.0208 1.12788 0
M  V30 771 N 72.4269 -1.23603 -0.977757 0
M  V30 772 C 73.6549 -1.09646 -1.75458 0
M  V30 773 C 74.0699 0.351859 -1.85492 0
M  V30 774 O 73.4269 1.24327 -1.336 0
M  V30 775 C 73.4779 -1.71895 -3.18016 0
M  V30 776 O 73.1989 -3.11063 -3.08498 0
M  V30 777 C 74.6999 -1.63415 -4.12081 0
M  V30 778 H 71.9199 -0.38359 -0.550545 0
M  V30 779 H 74.4639 -1.63507 -1.22824 0
M  V30 780 H 72.6189 -1.22061 -3.67668 0
M  V30 781 H 73.0329 -3.41305 -3.9826 0
M  V30 782 H 74.5069 -2.11669 -5.09804 0
M  V30 783 H 74.9839 -0.593462 -4.35172 0
M  V30 784 H 75.5899 -2.12628 -3.68334 0
M  V30 785 N 73.905 1.17692 -1.04816 0
M  V30 786 C 74.837 2.21103 -0.603822 0
M  V30 787 C 75.85 1.59411 0.33046 0
M  V30 788 O 77.039 1.7807 0.12379 0
M  V30 789 C 74.139 3.38623 0.136898 0
M  V30 790 C 73.312 4.29888 -0.807137 0
M  V30 791 C 72.371 5.26088 -0.10836 0
M  V30 792 O 71.397 5.64353 -0.741232 0
M  V30 793 N 72.599 5.68882 1.15558 0
M  V30 794 H 75.364 2.59848 -1.49329 0
M  V30 795 H 72.925 1.32553 -0.929587 0
M  V30 796 H 74.917 4.00009 0.614401 0
M  V30 797 H 73.487 2.98508 0.927993 0
M  V30 798 H 72.707 3.65993 -1.46434 0
M  V30 799 H 73.995 4.87759 -1.44807 0
M  V30 800 H 73.393 5.39861 1.69015 0
M  V30 801 H 71.95 6.32429 1.57722 0
M  V30 802 N 75.3831 0.828654 1.34056 0
M  V30 803 C 76.6291 0.42008 1.98402 0
M  V30 804 C 76.9621 -1.01564 1.65525 0
M  V30 805 O 76.2371 -1.70834 0.929831 0
M  V30 806 C 76.5201 0.62927 3.54559 0
M  V30 807 C 76.3731 2.11152 3.97159 0
M  V30 808 C 77.6921 0.0688756 4.40046 0
M  V30 809 H 74.8111 0.154104 0.720709 0
M  V30 810 H 77.4531 1.04228 1.5886 0
M  V30 811 H 75.6031 0.0996418 3.88372 0
M  V30 812 H 77.2751 2.70522 3.73651 0
M  V30 813 H 75.5181 2.59985 3.47261 0
M  V30 814 H 76.1891 2.20868 5.05887 0
M  V30 815 H 78.6651 0.521458 4.1282 0
M  V30 816 H 77.5411 0.245006 5.48353 0
M  V30 817 H 77.8021 -1.0266 4.30015 0
M  V30 818 N 76.8612 -1.46375 0.584142 0
M  V30 819 C 77.8092 -2.32042 -0.161047 0
M  V30 820 C 78.8032 -1.44569 -0.882966 0
M  V30 821 O 80.0092 -1.61186 -0.801191 0
M  V30 822 H 76.3842 -0.748659 -0.0708033 0
M  V30 823 H 78.3552 -2.92704 0.580269 0
M  V30 824 C 77.1042 -3.27762 -1.1605 0
M  V30 825 H 76.4272 -3.95051 -0.614419 0
M  V30 826 H 77.8672 -3.90481 -1.65228 0
M  V30 827 C 76.3262 -2.53218 -2.22221 0
M  V30 828 O 76.8562 -2.29628 -3.29597 0
M  V30 829 N 75.0622 -2.13756 -1.96868 0
M  V30 830 H 74.6092 -2.33142 -1.09557 0
M  V30 831 H 74.5672 -1.642 -2.68115 0
M  V30 832 N 78.3393 -0.321999 -1.54275 0
M  V30 833 C 79.5853 0.281461 -2.00837 0
M  V30 834 C 79.9183 1.51909 -1.20985 0
M  V30 835 O 79.1933 1.923 -0.291733 0
M  V30 836 C 79.4763 0.617162 -3.54772 0
M  V30 837 C 79.3293 -0.631064 -4.45351 0
M  V30 838 C 80.6483 1.43542 -4.16033 0
M  V30 839 H 77.7673 0.100826 -0.730071 0
M  V30 840 H 80.4093 -0.438268 -1.84876 0
M  V30 841 H 78.5593 1.23034 -3.68504 0
M  V30 842 H 80.2313 -1.26934 -4.43492 0
M  V30 843 H 78.4743 -1.26025 -4.15091 0
M  V30 844 H 79.1453 -0.351735 -5.50878 0
M  V30 845 H 81.6213 0.917134 -4.05867 0
M  V30 846 H 80.4973 1.63907 -5.23856 0
M  V30 847 H 80.7583 2.43108 -3.69257 0
M  V30 848 N 79.8174 1.5752 -0.0501392 0
M  V30 849 C 80.7674 2.07981 0.934231 0
M  V30 850 C 81.7514 0.984745 1.27246 0
M  V30 851 O 82.9434 1.24809 1.25506 0
M  V30 852 C 80.0724 2.62751 2.20945 0
M  V30 853 C 79.1584 3.79225 1.89865 0
M  V30 854 N 79.5494 4.89036 1.29142 0
M  V30 855 C 77.8474 3.88111 2.19741 0
M  V30 856 C 78.5484 5.70084 1.15669 0
M  V30 857 N 77.5244 5.17659 1.65923 0
M  V30 858 H 81.3264 2.90277 0.460053 0
M  V30 859 H 78.8404 1.61665 0.15434 0
M  V30 860 H 80.8374 2.97205 2.9236 0
M  V30 861 H 79.4974 1.81894 2.6897 0
M  V30 862 H 80.5084 5.08854 0.963756 0
M  V30 863 H 77.1854 3.18194 2.70293 0
M  V30 864 H 78.5754 6.68395 0.685356 0
M  V30 865 N 81.2955 -0.223234 1.56011 0
M  V30 866 C 82.2425 -1.27664 1.92277 0
M  V30 867 C 83.2125 -1.46659 0.779763 0
M  V30 868 O 84.3975 -1.60256 1.03551 0
M  V30 869 C 81.5375 -2.62234 2.24338 0
M  V30 870 C 80.6505 -2.51051 3.51564 0
M  V30 871 C 79.7855 -3.78133 3.7308 0
M  V30 872 C 78.8245 -3.61665 4.93827 0
M  V30 873 N 77.9615 -4.80693 5.11741 0
M  V30 874 H 82.8015 -0.960358 2.82101 0
M  V30 875 H 80.3385 -0.462901 1.39627 0
M  V30 876 H 82.2965 -3.40596 2.40936 0
M  V30 877 H 80.9265 -2.91961 1.3769 0
M  V30 878 H 79.9785 -1.64132 3.43169 0
M  V30 879 H 81.2905 -2.34803 4.40079 0
M  V30 880 H 80.4445 -4.64938 3.89766 0
M  V30 881 H 79.1835 -3.97304 2.82844 0
M  V30 882 H 78.1885 -2.73244 4.77093 0
M  V30 883 H 79.4135 -3.43966 5.85546 0
M  V30 884 H 77.3595 -5.00181 4.24446 0
M  V30 885 H 77.2765 -4.67165 5.94384 0
M  V30 886 H 78.5445 -5.6893 5.3286 0
M  V30 887 N 82.7736 -1.49793 -0.48987 0
M  V30 888 C 84.1896 -1.36803 -0.822022 0
M  V30 889 C 84.3896 -0.409652 -1.97292 0
M  V30 890 O 83.4456 0.154614 -2.52026 0
M  V30 891 C 84.7586 -2.77768 -1.15175 0
M  V30 892 C 86.3066 -2.86549 -1.25931 0
M  V30 893 C 86.7816 -4.28306 -1.62228 0
M  V30 894 N 88.2726 -4.31169 -1.69256 0
M  V30 895 C 89.0076 -5.37832 -1.98807 0
M  V30 896 N 88.5036 -6.54726 -2.26507 0
M  V30 897 N 90.2966 -5.25258 -2.00152 0
M  V30 898 H 82.4476 -2.10691 0.268881 0
M  V30 899 H 84.7106 -0.946241 0.057728 0
M  V30 900 H 84.4166 -3.49648 -0.379335 0
M  V30 901 H 84.2906 -3.13836 -2.09253 0
M  V30 902 H 86.6776 -2.14899 -2.02243 0
M  V30 903 H 86.7586 -2.54049 -0.298776 0
M  V30 904 H 86.4026 -5.00486 -0.864622 0
M  V30 905 H 86.3326 -4.58279 -2.594 0
M  V30 906 H 88.8236 -3.4687 -1.49965 0
M  V30 907 H 89.1366 -7.31833 -2.48276 0
M  V30 908 H 87.4816 -6.57933 -2.23939 0
M  V30 909 H 90.6726 -4.32938 -1.77996 0
M  V30 910 H 90.8456 -6.08476 -2.22848 0
M  V30 911 N 84.2517 0.741722 -1.39055 0
M  V30 912 C 85.5007 1.49656 -1.35225 0
M  V30 913 C 85.8137 1.95533 0.0512708 0
M  V30 914 O 87.0197 2.7067 0.212138 0
M  V30 915 C 85.4757 2.70389 -2.37525 0
M  V30 916 C 85.0837 2.31489 -3.83558 0
M  V30 917 C 86.8277 3.48236 -2.42759 0
M  V30 918 C 84.7347 3.48903 -4.77515 0
M  V30 919 H 83.6647 0.56197 -0.502699 0
M  V30 920 H 86.3157 0.809727 -1.64668 0
M  V30 921 H 84.6977 3.41113 -2.01142 0
M  V30 922 H 85.8717 1.68354 -4.28945 0
M  V30 923 H 84.1867 1.66749 -3.81554 0
M  V30 924 H 86.7837 4.35558 -3.1015 0
M  V30 925 H 87.1267 3.90229 -1.45008 0
M  V30 926 H 87.6597 2.84535 -2.78002 0
M  V30 927 H 84.3987 3.11966 -5.76504 0
M  V30 928 H 83.9187 4.11041 -4.36813 0
M  V30 929 H 85.5977 4.15328 -4.96096 0
M  V30 930 N 85.7298 1.2412 0.971189 0
M  V30 931 C 86.9758 1.08041 1.71625 0
M  V30 932 C 87.3088 -0.380407 1.90438 0
M  V30 933 O 86.5838 -1.28127 1.46334 0
M  V30 934 C 86.8668 1.81682 3.10908 0
M  V30 935 C 86.7198 3.35493 2.99608 0
M  V30 936 C 88.0388 1.58671 4.10501 0
M  V30 937 H 85.1578 0.39388 0.622919 0
M  V30 938 H 87.7998 1.52743 1.13003 0
M  V30 939 H 85.9498 1.43684 3.60953 0
M  V30 940 H 87.6218 3.83068 2.57015 0
M  V30 941 H 85.8648 3.64052 2.35899 0
M  V30 942 H 86.5358 3.82217 3.98264 0
M  V30 943 H 89.0118 1.91719 3.69301 0
M  V30 944 H 87.8878 2.1266 5.06031 0
M  V30 945 H 88.1488 0.524161 4.38982 0
M  V30 946 N 87.2079 -1.17134 1.05439 0
M  V30 947 C 88.4539 -1.87733 0.767077 0
M  V30 948 C 88.7869 -1.8098 -0.704253 0
M  V30 949 O 88.0619 -1.21951 -1.5152 0
M  V30 950 C 88.3449 -3.37659 1.25133 0
M  V30 951 C 88.1979 -3.53149 2.78578 0
M  V30 952 C 89.5169 -4.31768 0.852324 0
M  V30 953 H 86.6359 -0.681687 0.280129 0
M  V30 954 H 89.2779 -1.37732 1.30881 0
M  V30 955 H 87.4279 -3.80373 0.790469 0
M  V30 956 H 89.0999 -3.19434 3.32806 0
M  V30 957 H 87.3429 -2.95345 3.17732 0
M  V30 958 H 88.0139 -4.58403 3.07523 0
M  V30 959 H 90.4899 -3.96909 1.24911 0
M  V30 960 H 89.3659 -5.35199 1.21873 0
M  V30 961 H 89.6269 -4.41429 -0.243485 0
M  V30 962 N 88.686 -0.835752 -1.33615 0
M  V30 963 C 89.619 -0.211815 -2.27215 0
M  V30 964 C 90.597 0.639249 -1.49507 0
M  V30 965 O 91.781 0.600193 -1.78689 0
M  V30 966 C 88.908 0.702893 -3.31326 0
M  V30 967 C 87.954 -0.0723049 -4.26439 0
M  V30 968 S 88.787 -1.42811 -5.16106 0
M  V30 969 C 89.943 -0.518613 -6.23748 0
M  V30 970 H 90.176 -1.00533 -2.79786 0
M  V30 971 H 87.709 -0.632336 -1.40858 0
M  V30 972 H 89.667 1.22505 -3.91794 0
M  V30 973 H 88.328 1.47004 -2.77576 0
M  V30 974 H 87.521 0.62359 -5.00127 0
M  V30 975 H 87.123 -0.525424 -3.70291 0
M  V30 976 H 89.415 0.284778 -6.76901 0
M  V30 977 H 90.358 -1.22556 -6.97413 0
M  V30 978 H 90.766 -0.101344 -5.64409 0
M  V30 979 N 90.1641 1.46063 -0.591896 0
M  V30 980 C 91.4411 1.95595 -0.0137119 0
M  V30 981 C 91.8211 1.5345 1.4497 0
M  V30 982 O 91.1691 0.789543 2.14426 0
M  V30 983 C 91.3791 3.48453 -0.195373 0
M  V30 984 C 92.7271 4.24546 -0.0679765 0
M  V30 985 O 93.7511 3.55982 -0.124681 0
M  V30 986 O 92.6101 5.46467 0.0600579 0
M  V30 987 H 89.7041 0.825795 0.0446279 0
M  V30 988 H 92.2501 1.56303 -0.660859 0
M  V30 989 H 91.0221 3.72045 -1.21235 0
M  V30 990 H 90.6451 3.94597 0.487775 0
M  V30 991 N 91.6422 0.330177 1.54103 0
M  V30 992 C 92.5722 -0.525353 2.27513 0
M  V30 993 C 93.5532 -1.11383 1.2856 0
M  V30 994 O 94.7382 -1.13773 1.57383 0
M  V30 995 C 91.8682 -1.6831 3.03791 0
M  V30 996 C 90.8222 -1.2236 4.10137 0
M  V30 997 C 90.1482 -2.46882 4.74293 0
M  V30 998 C 91.4482 -0.333697 5.21233 0
M  V30 999 H 93.1422 0.087013 2.99274 0
M  V30 1000 H 90.6882 0.0432893 1.43935 0
M  V30 1001 H 92.6412 -2.28795 3.5388 0
M  V30 1002 H 91.3652 -2.32216 2.29659 0
M  V30 1003 H 90.0242 -0.64165 3.60941 0
M  V30 1004 H 89.6722 -3.09165 3.96769 0
M  V30 1005 H 89.3722 -2.16825 5.46133 0
M  V30 1006 H 90.8962 -3.08117 5.27159 0
M  V30 1007 H 92.3102 -0.845013 5.67038 0
M  V30 1008 H 90.7072 -0.125612 5.99969 0
M  V30 1009 H 91.7772 0.633724 4.80741 0
M  V30 1010 N 93.1203 -1.57491 0.0584922 0
M  V30 1011 C 94.3453 -1.97711 -0.62652 0
M  V30 1012 C 94.7703 -0.936132 -1.63151 0
M  V30 1013 O 94.1283 0.099811 -1.81025 0
M  V30 1014 C 94.1763 -3.36989 -1.28338 0
M  V30 1015 O 93.2803 -3.35433 -2.39913 0
M  V30 1016 H 92.6213 -0.643868 -0.162266 0
M  V30 1017 H 95.1513 -2.04193 0.129064 0
M  V30 1018 H 95.1613 -3.73879 -1.63335 0
M  V30 1019 H 93.8363 -4.12289 -0.546889 0
M  V30 1020 H 92.4133 -3.10298 -2.06809 0
M  V30 1021 N 94.5984 0.214957 -1.56127 0
M  V30 1022 C 95.5084 1.28727 -1.96129 0
M  V30 1023 C 96.5244 1.50916 -0.866044 0
M  V30 1024 O 97.7004 1.63918 -1.17016 0
M  V30 1025 C 94.7654 2.61569 -2.27558 0
M  V30 1026 C 93.8264 2.47625 -3.50685 0
M  V30 1027 C 93.0594 3.74132 -3.80606 0
M  V30 1028 O 93.2824 4.77438 -3.12104 0
M  V30 1029 O 92.2164 3.70849 -4.74083 0
M  V30 1030 H 96.0424 0.977855 -2.87527 0
M  V30 1031 H 93.6274 0.418358 -1.43423 0
M  V30 1032 H 95.5094 3.40012 -2.48938 0
M  V30 1033 H 94.1844 2.92178 -1.39332 0
M  V30 1034 H 93.0914 1.67361 -3.34576 0
M  V30 1035 H 94.4244 2.21954 -4.39315 0
M  V30 1036 N 96.0765 1.50051 0.48192 0
M  V30 1037 C 97.3535 1.51009 1.2432 0
M  V30 1038 C 97.7335 0.248587 2.09631 0
M  V30 1039 O 97.0815 -0.768409 2.15192 0
M  V30 1040 C 97.2915 2.79981 2.08355 0
M  V30 1041 C 98.6395 3.3022 2.66908 0
M  V30 1042 O 99.6635 2.81228 2.18607 0
M  V30 1043 O 98.5225 4.15595 3.54884 0
M  V30 1044 H 95.6165 0.605239 0.563573 0
M  V30 1045 H 98.1625 1.62332 0.494627 0
M  V30 1046 H 96.9345 3.63275 1.45419 0
M  V30 1047 H 96.5575 2.7161 2.90368 0
M  V30 1048 N 97.5546 -0.734337 1.39446 0
M  V30 1049 C 98.5016 -1.84835 1.38219 0
M  V30 1050 C 99.4716 -1.64331 0.24179 0
M  V30 1051 O 100.657 -1.85728 0.437002 0
M  V30 1052 C 97.7966 -3.22355 1.23212 0
M  V30 1053 C 96.9096 -3.5456 2.46801 0
M  V30 1054 C 96.0446 -4.81485 2.24377 0
M  V30 1055 C 95.0836 -5.06536 3.43639 0
M  V30 1056 N 94.2206 -6.24665 3.20528 0
M  V30 1057 H 99.0606 -1.85219 2.33448 0
M  V30 1058 H 96.5976 -0.905039 1.15963 0
M  V30 1059 H 98.5556 -4.0174 1.12522 0
M  V30 1060 H 97.1856 -3.21248 0.316121 0
M  V30 1061 H 96.2376 -2.69872 2.68092 0
M  V30 1062 H 97.5496 -3.6899 3.3563 0
M  V30 1063 H 96.7036 -5.68852 2.10933 0
M  V30 1064 H 95.4426 -4.6923 1.32944 0
M  V30 1065 H 94.4476 -4.17632 3.5758 0
M  V30 1066 H 95.6726 -5.20676 4.35974 0
M  V30 1067 H 93.6186 -6.13696 2.3176 0
M  V30 1068 H 93.5356 -6.39685 4.02913 0
M  V30 1069 H 94.8036 -7.14868 3.10779 0
M  V30 1070 N 99.0327 -1.24633 -0.964593 0
M  V30 1071 C 100.258 -1.11596 -1.74818 0
M  V30 1072 C 100.683 0.32723 -1.85232 0
M  V30 1073 O 100.041 1.23695 -1.32549 0
M  V30 1074 C 100.089 -1.76397 -3.1451 0
M  V30 1075 O 99.1927 -1.03685 -3.99153 0
M  V30 1076 H 98.5337 -0.390196 -0.537255 0
M  V30 1077 H 101.064 -1.65002 -1.20977 0
M  V30 1078 H 101.074 -1.8228 -3.65018 0
M  V30 1079 H 99.7487 -2.81401 -3.06246 0
M  V30 1080 H 98.3257 -1.05611 -3.57632 0
M  V30 1081 N 100.511 1.16574 -1.06058 0
M  V30 1082 C 101.421 2.2452 -0.680282 0
M  V30 1083 C 102.437 1.71348 0.302604 0
M  V30 1084 O 103.613 2.00822 0.152513 0
M  V30 1085 C 100.678 3.46629 -0.0700315 0
M  V30 1086 C 99.7388 4.14849 -1.10448 0
M  V30 1087 C 98.9718 5.31129 -0.523256 0
M  V30 1088 O 99.1948 5.66514 0.664709 0
M  V30 1089 O 98.1288 5.88526 -1.26179 0
M  V30 1090 H 101.955 2.59355 -1.58015 0
M  V30 1091 H 99.5398 1.24043 -0.832694 0
M  V30 1092 H 101.422 4.20543 0.268667 0
M  V30 1093 H 100.097 3.13573 0.803353 0
M  V30 1094 H 99.0038 3.42916 -1.49532 0
M  V30 1095 H 100.337 4.51954 -1.94931 0
M  V30 1096 N 101.989 0.842826 1.3317 0
M  V30 1097 C 103.4 0.496651 1.79973 0
M  V30 1098 C 103.751 -0.984641 1.69703 0
M  V30 1099 O 102.876 -1.76743 1.24863 0
M  V30 1100 C 103.471 0.894727 3.26772 0
M  V30 1101 C 102.03 0.600629 3.71577 0
M  V30 1102 C 101.177 1.10091 2.5451 0
M  V30 1103 H 104.128 1.03116 1.20635 0
M  V30 1104 H 104.149 0.206347 3.7994 0
M  V30 1105 H 103.661 1.97287 3.34215 0
M  V30 1106 H 101.762 -0.467284 3.69658 0
M  V30 1107 H 101.875 1.15863 4.64879 0
M  V30 1108 H 100.239 0.52162 2.49301 0
M  V30 1109 H 101.022 2.18591 2.64713 0
M  V30 1110 N 103.467 -1.45747 0.599634 0
M  V30 1111 C 104.883 -1.57424 0.26264 0
M  V30 1112 C 105.083 -1.59222 -1.23493 0
M  V30 1113 O 104.139 -1.51825 -2.01756 0
M  V30 1114 C 105.452 -2.86061 0.926795 0
M  V30 1115 C 107 -2.99722 0.901967 0
M  V30 1116 C 107.475 -4.31119 1.54598 0
M  V30 1117 N 108.966 -4.37858 1.5111 0
M  V30 1118 C 109.701 -5.3818 1.97863 0
M  V30 1119 N 109.197 -6.45083 2.52666 0
M  V30 1120 N 110.99 -5.29487 1.88679 0
M  V30 1121 H 103.141 -1.42823 1.57211 0
M  V30 1122 H 105.404 -0.68235 0.658105 0
M  V30 1123 H 105.11 -2.90605 1.98095 0
M  V30 1124 H 104.984 -3.74563 0.445238 0
M  V30 1125 H 107.371 -2.9475 -0.143617 0
M  V30 1126 H 107.452 -2.12652 1.42171 0
M  V30 1127 H 107.096 -4.36849 2.59085 0
M  V30 1128 H 107.026 -5.16992 1.00132 0
M  V30 1129 H 109.517 -3.61209 1.11068 0
M  V30 1130 H 109.83 -7.17869 2.86155 0
M  V30 1131 H 108.175 -6.45856 2.56701 0
M  V30 1132 H 111.366 -4.44877 1.4561 0
M  V30 1133 H 111.539 -6.07524 2.25429 0
M  V30 1134 N 104.945 -0.338344 -1.53925 0
M  V30 1135 C 106.191 0.260143 -2.01125 0
M  V30 1136 C 106.524 1.50617 -1.22589 0
M  V30 1137 O 105.799 1.91979 -0.312113 0
M  V30 1138 C 106.082 0.579499 -3.55407 0
M  V30 1139 C 105.935 -0.678264 -4.44657 0
M  V30 1140 C 107.254 1.39122 -4.17532 0
M  V30 1141 H 104.373 0.0930772 -0.731099 0
M  V30 1142 H 107.015 -0.457852 -1.84401 0
M  V30 1143 H 105.165 1.19118 -3.69788 0
M  V30 1144 H 106.837 -1.31631 -4.42121 0
M  V30 1145 H 105.08 -1.3042 -4.13731 0
M  V30 1146 H 105.751 -0.410143 -5.50474 0
M  V30 1147 H 108.227 0.874035 -4.06817 0
M  V30 1148 H 107.103 1.58342 -5.25565 0
M  V30 1149 H 107.364 2.39178 -3.71815 0
M  V30 1150 N 106.423 1.57458 -0.0668435 0
M  V30 1151 C 107.67 1.93301 0.603406 0
M  V30 1152 C 107.998 0.946486 1.69917 0
M  V30 1153 O 107.253 -0.0387021 1.95662 0
M  V30 1154 C 107.552 3.35784 1.22409 0
M  V30 1155 C 107.218 4.50179 0.254955 0
M  V30 1156 C 105.88 4.81199 -0.0116746 0
M  V30 1157 C 108.232 5.19598 -0.408338 0
M  V30 1158 C 105.56 5.78978 -0.94877 0
M  V30 1159 C 107.912 6.18381 -1.33372 0
M  V30 1160 C 106.576 6.47821 -1.60887 0
M  V30 1161 H 105.846 0.707338 0.220802 0
M  V30 1162 H 108.493 1.91012 -0.136665 0
M  V30 1163 H 106.798 3.34515 2.03978 0
M  V30 1164 H 108.495 3.60804 1.74989 0
M  V30 1165 H 105.085 4.25983 0.472954 0
M  V30 1166 H 109.269 4.95832 -0.215456 0
M  V30 1167 H 104.525 6.00115 -1.16925 0
M  V30 1168 H 108.699 6.71277 -1.85367 0
M  V30 1169 H 106.326 7.23399 -2.33661 0
M  V30 1170 N 107.901 -0.206675 1.56239 0
M  V30 1171 C 109.15 -0.926964 1.79138 0
M  V30 1172 C 109.463 -1.84901 0.638043 0
M  V30 1173 O 110.669 -2.60906 0.751033 0
M  V30 1174 C 109.125 -1.6986 3.17294 0
M  V30 1175 C 108.733 -0.821956 4.40395 0
M  V30 1176 C 110.477 -2.40922 3.4951 0
M  V30 1177 C 108.384 -1.59179 5.69575 0
M  V30 1178 H 107.314 -0.349864 0.667915 0
M  V30 1179 H 109.965 -0.180487 1.8261 0
M  V30 1180 H 108.347 -2.48853 3.08039 0
M  V30 1181 H 109.521 -0.0715019 4.60745 0
M  V30 1182 H 107.836 -0.222741 4.15804 0
M  V30 1183 H 110.433 -2.99047 4.43255 0
M  V30 1184 H 110.776 -3.14542 2.72707 0
M  V30 1185 H 111.309 -1.68905 3.60161 0
M  V30 1186 H 108.048 -0.898589 6.49312 0
M  V30 1187 H 107.568 -2.31648 5.53262 0
M  V30 1188 H 109.247 -2.14862 6.10281 0
M  V30 1189 N 109.379 -1.50304 -0.473955 0
M  V30 1190 C 110.327 -1.69482 -1.59307 0
M  V30 1191 C 111.321 -0.560669 -1.59853 0
M  V30 1192 O 112.527 -0.741087 -1.64036 0
M  V30 1193 H 108.902 -0.534892 -0.528578 0
M  V30 1194 H 110.873 -2.63364 -1.40293 0
M  V30 1195 C 109.622 -1.80354 -2.97267 0
M  V30 1196 H 108.945 -2.67012 -2.97564 0
M  V30 1197 H 110.385 -1.97798 -3.75036 0
M  V30 1198 C 108.844 -0.55448 -3.32306 0
M  V30 1199 O 109.374 0.307661 -4.0052 0
M  V30 1200 N 107.58 -0.409354 -2.87702 0
M  V30 1201 H 107.127 -1.11196 -2.32364 0
M  V30 1202 H 107.085 0.425223 -3.11511 0
M  V30 1203 N 110.857 0.726932 -1.39834 0
M  V30 1204 C 112.268 1.30558 -1.3346 0
M  V30 1205 C 112.619 1.962 -0.00273003 0
M  V30 1206 O 111.744 1.96826 0.899371 0
M  V30 1207 C 112.339 2.37404 -2.41713 0
M  V30 1208 C 110.898 2.90921 -2.38835 0
M  V30 1209 C 110.045 1.64578 -2.2318 0
M  V30 1210 H 112.996 0.523862 -1.49804 0
M  V30 1211 H 113.017 3.17984 -2.08966 0
M  V30 1212 H 112.529 1.89599 -3.38635 0
M  V30 1213 H 110.63 3.42985 -1.45575 0
M  V30 1214 H 110.743 3.43487 -3.33997 0
M  V30 1215 H 109.107 1.89219 -1.70494 0
M  V30 1216 H 109.89 1.18814 -3.22084 0
M  V30 1217 N 112.336 1.25143 0.95797 0
M  V30 1218 C 113.246 1.06968 2.08794 0
M  V30 1219 C 114.262 0.00773911 1.73998 0
M  V30 1220 O 115.438 0.207972 2.00323 0
M  V30 1221 C 112.503 0.68691 3.39827 0
M  V30 1222 C 111.564 1.82641 3.88511 0
M  V30 1223 C 110.797 1.46181 5.1329 0
M  V30 1224 O 111.02 0.355971 5.69288 0
M  V30 1225 O 109.954 2.29085 5.566 0
M  V30 1226 H 113.78 2.01723 2.27027 0
M  V30 1227 H 111.365 1.04051 1.07209 0
M  V30 1228 H 113.247 0.485417 4.18595 0
M  V30 1229 H 111.922 -0.231417 3.22872 0
M  V30 1230 H 110.829 2.08274 3.10762 0
M  V30 1231 H 112.162 2.72386 4.09959 0
M  V30 1232 N 113.814 -1.1601 1.06675 0
M  V30 1233 C 115.061 -1.86633 0.785781 0
M  V30 1234 C 115.389 -1.81929 -0.687896 0
M  V30 1235 O 114.644 -1.23253 -1.52011 0
M  V30 1236 C 114.943 -3.35547 1.23057 0
M  V30 1237 C 114.609 -3.60448 2.70902 0
M  V30 1238 C 113.271 -3.66954 3.11285 0
M  V30 1239 C 115.623 -3.7071 3.66365 0
M  V30 1240 C 112.951 -3.81225 4.45965 0
M  V30 1241 C 115.303 -3.86503 5.00797 0
M  V30 1242 C 113.967 -3.91252 5.40813 0
M  V30 1243 H 113.237 -0.682937 0.287538 0
M  V30 1244 H 115.884 -1.37146 1.33654 0
M  V30 1245 H 114.189 -3.87193 0.59907 0
M  V30 1246 H 115.886 -3.88583 0.990163 0
M  V30 1247 H 112.476 -3.56021 2.38636 0
M  V30 1248 H 116.66 -3.64991 3.36296 0
M  V30 1249 H 111.916 -3.83155 4.76447 0
M  V30 1250 H 116.09 -3.93385 5.74649 0
M  V30 1251 H 113.717 -4.02062 6.45174 0
M  V30 1252 N 115.292 -0.849877 -1.32721 0
M  V30 1253 C 116.202 -0.293791 -2.32753 0
M  V30 1254 C 117.218 0.585906 -1.63839 0
M  V30 1255 O 118.394 0.487413 -1.95413 0
M  V30 1256 C 115.459 0.512752 -3.42887 0
M  V30 1257 C 114.52 -0.39252 -4.27502 0
M  V30 1258 C 113.753 0.375625 -5.32377 0
M  V30 1259 O 113.976 1.60613 -5.4732 0
M  V30 1260 O 112.91 -0.256094 -6.01355 0
M  V30 1261 H 116.736 -1.12242 -2.82197 0
M  V30 1262 H 114.321 -0.612685 -1.36259 0
M  V30 1263 H 116.203 0.970704 -4.10067 0
M  V30 1264 H 114.878 1.31826 -2.95641 0
M  V30 1265 H 113.785 -0.898547 -3.63149 0
M  V30 1266 H 115.118 -1.16309 -4.7826 0
M  V30 1267 N 116.77 1.45427 -0.607355 0
M  V30 1268 C 118.181 1.85756 -0.187535 0
M  V30 1269 C 118.532 1.5077 1.25551 0
M  V30 1270 O 117.657 0.93427 1.95193 0
M  V30 1271 C 118.252 3.37154 -0.333572 0
M  V30 1272 C 116.811 3.76387 0.0315542 0
M  V30 1273 C 115.958 2.69377 -0.658117 0
M  V30 1274 H 118.909 1.36231 -0.81405 0
M  V30 1275 H 118.93 3.78014 0.43428 0
M  V30 1276 H 118.442 3.62586 -1.38393 0
M  V30 1277 H 116.543 3.56571 1.0811 0
M  V30 1278 H 116.656 4.77731 -0.361935 0
M  V30 1279 H 115.02 2.5452 -0.0957873 0
M  V30 1280 H 115.803 2.97646 -1.7106 0
M  V30 1281 N 118.248 0.346503 1.53744 0
M  V30 1282 C 119.178 -0.501193 2.28058 0
M  V30 1283 C 120.159 -1.10014 1.29734 0
M  V30 1284 O 121.344 -1.12097 1.58581 0
M  V30 1285 C 118.474 -1.65078 3.05559 0
M  V30 1286 C 117.428 -1.18003 4.11411 0
M  V30 1287 C 116.754 -2.41837 4.76884 0
M  V30 1288 C 118.054 -0.278394 5.21558 0
M  V30 1289 H 119.748 0.11875 2.99164 0
M  V30 1290 H 117.294 0.0585531 1.43881 0
M  V30 1291 H 119.247 -2.25028 3.56287 0
M  V30 1292 H 117.971 -2.29767 2.32109 0
M  V30 1293 H 116.63 -0.603331 3.61601 0
M  V30 1294 H 116.278 -3.0494 4.00026 0
M  V30 1295 H 115.978 -2.1102 5.48402 0
M  V30 1296 H 117.502 -3.02508 5.30397 0
M  V30 1297 H 118.916 -0.784823 5.67903 0
M  V30 1298 H 117.313 -0.0619707 6.00068 0
M  V30 1299 H 118.383 0.684677 4.80042 0
M  V30 1300 N 119.726 -1.57421 0.075193 0
M  V30 1301 C 120.954 -1.97946 -0.602076 0
M  V30 1302 C 121.369 -0.953674 -1.62943 0
M  V30 1303 O 120.726 0.0592551 -1.82404 0
M  V30 1304 C 120.777 -3.38546 -1.26762 0
M  V30 1305 O 120.498 -4.37195 -0.281376 0
M  V30 1306 C 121.999 -3.93966 -2.03239 0
M  V30 1307 H 119.219 -0.650918 -0.162931 0
M  V30 1308 H 121.763 -2.03959 0.148601 0
M  V30 1309 H 119.918 -3.33609 -1.96936 0
M  V30 1310 H 120.332 -5.18975 -0.759267 0
M  V30 1311 H 121.806 -4.94555 -2.45193 0
M  V30 1312 H 122.283 -3.30693 -2.8903 0
M  V30 1313 H 122.889 -4.02315 -1.37924 0
M  V30 1314 N 121.204 0.198386 -1.56346 0
M  V30 1315 C 122.114 1.2664 -1.97483 0
M  V30 1316 C 123.13 1.49989 -0.882002 0
M  V30 1317 O 124.306 1.62668 -1.18748 0
M  V30 1318 C 121.371 2.59141 -2.30319 0
M  V30 1319 C 120.432 2.43892 -3.53292 0
M  V30 1320 C 119.665 3.70074 -3.84553 0
M  V30 1321 O 119.888 4.74101 -3.1715 0
M  V30 1322 O 118.822 3.658 -4.7799 0
M  V30 1323 H 122.648 0.947304 -2.88548 0
M  V30 1324 H 120.233 0.403123 -1.43859 0
M  V30 1325 H 122.115 3.37352 -2.5253 0
M  V30 1326 H 120.79 2.90684 -1.42423 0
M  V30 1327 H 119.697 1.63803 -3.36332 0
M  V30 1328 H 121.03 2.17282 -4.41644 0
M  V30 1329 N 122.682 1.50554 0.465978 0
M  V30 1330 C 123.959 1.5232 1.22712 0
M  V30 1331 C 124.339 0.270807 2.09356 0
M  V30 1332 O 123.687 -0.745541 2.15995 0
M  V30 1333 C 123.897 2.82175 2.05374 0
M  V30 1334 C 125.245 3.33033 2.6339 0
M  V30 1335 O 126.269 2.83531 2.15612 0
M  V30 1336 O 125.128 4.19336 3.50456 0
M  V30 1337 H 122.222 0.611183 0.557122 0
M  V30 1338 H 124.768 1.62847 0.477381 0
M  V30 1339 H 123.54 3.64797 1.41558 0
M  V30 1340 H 123.163 2.74675 2.87471 0
M  V30 1341 N 124.16 -0.719506 1.40217 0
M  V30 1342 C 125.093 -1.84298 1.34571 0
M  V30 1343 C 126.071 -1.61149 0.216741 0
M  V30 1344 O 127.255 -1.84212 0.399756 0
M  V30 1345 C 124.382 -3.20568 1.09335 0
M  V30 1346 C 123.428 -3.62551 2.24631 0
M  V30 1347 S 124.261 -3.7012 3.87004 0
M  V30 1348 C 125.417 -5.09154 3.64024 0
M  V30 1349 H 125.65 -1.88807 2.2965 0
M  V30 1350 H 123.183 -0.885901 1.26456 0
M  V30 1351 H 125.141 -3.99246 0.954602 0
M  V30 1352 H 123.802 -3.13696 0.159164 0
M  V30 1353 H 122.995 -4.61483 2.02606 0
M  V30 1354 H 122.597 -2.91119 2.34789 0
M  V30 1355 H 124.889 -5.95955 3.22248 0
M  V30 1356 H 125.832 -5.36213 4.62473 0
M  V30 1357 H 126.24 -4.79562 2.97793 0
M  V30 1358 N 125.638 -1.25649 -0.95132 0
M  V30 1359 C 126.915 -1.01361 -1.67288 0
M  V30 1360 C 127.295 0.459135 -2.06046 0
M  V30 1361 O 126.643 1.43723 -1.7764 0
M  V30 1362 C 126.853 -1.95256 -2.89268 0
M  V30 1363 C 128.201 -2.23289 -3.61147 0
M  V30 1364 O 129.225 -1.93041 -2.99355 0
M  V30 1365 O 128.084 -2.74741 -4.72419 0
M  V30 1366 H 125.178 -0.38464 -0.732107 0
M  V30 1367 H 127.724 -1.36817 -1.00395 0
M  V30 1368 H 126.496 -2.94685 -2.57442 0
M  V30 1369 H 126.119 -1.60218 -3.6389 0
M  V30 1370 N 127.117 1.15442 -1.07289 0
M  V30 1371 C 128.049 2.19773 -0.650585 0
M  V30 1372 C 129.062 1.60076 0.296572 0
M  V30 1373 O 130.251 1.78293 0.0859905 0
M  V30 1374 C 127.351 3.38838 0.0650398 0
M  V30 1375 C 126.524 4.2808 -0.898141 0
M  V30 1376 C 125.583 5.2574 -0.219926 0
M  V30 1377 O 124.609 5.62654 -0.860773 0
M  V30 1378 N 125.811 5.71205 1.03466 0
M  V30 1379 H 128.576 2.56622 -1.54808 0
M  V30 1380 H 126.137 1.30551 -0.957494 0
M  V30 1381 H 128.129 4.01222 0.529415 0
M  V30 1382 H 126.699 3.00409 0.864466 0
M  V30 1383 H 125.919 3.62804 -1.54165 0
M  V30 1384 H 127.207 4.84577 -1.5512 0
M  V30 1385 H 126.605 5.43325 1.57526 0
M  V30 1386 H 125.162 6.35633 1.44272 0
M  V30 1387 N 128.595 0.856903 1.32268 0
M  V30 1388 C 129.825 0.47475 2.01071 0
M  V30 1389 C 130.233 -0.933746 1.64553 0
M  V30 1390 O 129.576 -1.62114 0.863989 0
M  V30 1391 C 129.638 0.536746 3.55471 0
M  V30 1392 C 129.302 1.90453 4.15423 0
M  V30 1393 C 130.299 2.87029 4.33486 0
M  V30 1394 C 127.984 2.20229 4.51447 0
M  V30 1395 C 129.978 4.11532 4.86744 0
M  V30 1396 C 127.665 3.44984 5.0441 0
M  V30 1397 C 128.663 4.40452 5.22007 0
M  V30 1398 O 128.351 5.62998 5.73837 0
M  V30 1399 H 128.083 0.184778 0.650256 0
M  V30 1400 H 130.637 1.15615 1.69771 0
M  V30 1401 H 128.867 -0.20152 3.86175 0
M  V30 1402 H 130.556 0.169875 4.05544 0
M  V30 1403 H 131.322 2.6533 4.05986 0
M  V30 1404 H 127.201 1.46705 4.37034 0
M  V30 1405 H 130.745 4.86056 5.00395 0
M  V30 1406 H 126.642 3.66532 5.31342 0
M  V30 1407 H 127.41 5.64987 5.92226 0
M  V30 1408 N 130.073 -1.45103 0.615059 0
M  V30 1409 C 131.005 -2.28786 -0.13762 0
M  V30 1410 C 132.018 -1.40376 -0.824525 0
M  V30 1411 O 133.207 -1.64681 -0.688662 0
M  V30 1412 C 130.307 -3.16322 -1.21628 0
M  V30 1413 C 129.48 -4.33054 -0.615039 0
M  V30 1414 C 128.539 -5.01743 -1.58556 0
M  V30 1415 O 127.565 -5.58293 -1.10895 0
M  V30 1416 N 128.767 -5.01714 -2.91998 0
M  V30 1417 H 131.532 -2.94025 0.580483 0
M  V30 1418 H 129.093 -1.55373 0.45507 0
M  V30 1419 H 131.085 -3.59139 -1.86552 0
M  V30 1420 H 129.655 -2.52943 -1.83681 0
M  V30 1421 H 128.875 -3.93627 0.21245 0
M  V30 1422 H 130.163 -5.08431 -0.193704 0
M  V30 1423 H 129.561 -4.57075 -3.33316 0
M  V30 1424 H 128.118 -5.48371 -3.52325 0
M  V30 1425 N 131.551 -0.354651 -1.53558 0
M  V30 1426 C 132.461 0.50515 -2.29097 0
M  V30 1427 C 133.477 1.10223 -1.34636 0
M  V30 1428 O 134.653 1.11553 -1.67684 0
M  V30 1429 C 131.718 1.63479 -3.05738 0
M  V30 1430 C 130.779 1.06636 -4.15845 0
M  V30 1431 C 130.012 2.14217 -4.88822 0
M  V30 1432 O 130.235 3.35137 -4.61562 0
M  V30 1433 O 129.169 1.77887 -5.75013 0
M  V30 1434 H 132.995 -0.109237 -3.03503 0
M  V30 1435 H 130.58 -0.119357 -1.48922 0
M  V30 1436 H 132.462 2.2918 -3.5363 0
M  V30 1437 H 131.137 2.23478 -2.34178 0
M  V30 1438 H 130.044 0.373565 -3.7223 0
M  V30 1439 H 131.377 0.511081 -4.89539 0
M  V30 1440 N 133.029 1.57378 -0.0835403 0
M  V30 1441 C 134.277 1.93547 0.581718 0
M  V30 1442 C 134.598 0.96524 1.69435 0
M  V30 1443 O 133.868 0.0153369 1.95894 0
M  V30 1444 H 132.448 0.714521 0.217874 0
M  V30 1445 H 135.11 1.94366 -0.144158 0
M  V30 1446 H 134.206 2.95665 0.999423 0
M  V30 1447 N 134.507 -0.190092 1.56449 0
M  V30 1448 C 135.747 -0.916414 1.82705 0
M  V30 1449 C 136.111 -1.80235 0.661763 0
M  V30 1450 O 137.312 -2.56484 0.80433 0
M  V30 1451 C 135.583 -1.70691 3.14005 0
M  V30 1452 S 137.142 -2.48457 3.61683 0
M  V30 1453 H 133.96 -0.307281 0.64117 0
M  V30 1454 H 136.562 -0.179433 1.94675 0
M  V30 1455 H 135.266 -1.04677 3.96826 0
M  V30 1456 H 134.797 -2.48562 3.04927 0
M  V30 1457 H 136.812 -3.72756 3.27517 0
M  V30 1458 N 135.985 -1.50799 -0.457987 0
M  V30 1459 C 136.915 -1.73553 -1.5621 0
M  V30 1460 C 137.896 -0.584774 -1.59732 0
M  V30 1461 O 139.081 -0.825314 -1.7579 0
M  V30 1462 C 136.211 -1.84169 -2.94447 0
M  V30 1463 C 135.165 -2.99461 -3.0579 0
M  V30 1464 C 134.491 -2.95235 -4.45803 0
M  V30 1465 C 135.791 -4.39766 -2.81786 0
M  V30 1466 H 137.485 -2.66 -1.37421 0
M  V30 1467 H 135.031 -1.28002 -0.659662 0
M  V30 1468 H 136.984 -1.98672 -3.71628 0
M  V30 1469 H 135.708 -0.883545 -3.14422 0
M  V30 1470 H 134.367 -2.8463 -2.31044 0
M  V30 1471 H 134.015 -1.97239 -4.62715 0
M  V30 1472 H 133.715 -3.72642 -4.54326 0
M  V30 1473 H 135.239 -3.11803 -5.24987 0
M  V30 1474 H 136.653 -4.55054 -3.4871 0
M  V30 1475 H 135.05 -5.18722 -3.0174 0
M  V30 1476 H 136.12 -4.51229 -1.7754 0
M  V30 1477 N 137.463 0.71206 -1.40597 0
M  V30 1478 C 138.688 1.50617 -1.42581 0
M  V30 1479 C 139.113 1.88079 -0.0282102 0
M  V30 1480 O 138.471 1.53511 0.964579 0
M  V30 1481 C 138.519 2.7557 -2.3258 0
M  V30 1482 O 137.623 3.72414 -1.77148 0
M  V30 1483 H 136.964 0.453966 -0.484573 0
M  V30 1484 H 139.494 0.876649 -1.84868 0
M  V30 1485 H 139.504 3.2406 -2.47889 0
M  V30 1486 H 138.179 2.47639 -3.34138 0
M  V30 1487 H 136.756 3.31276 -1.71204 0
M  V30 1488 N 138.941 1.26152 0.944643 0
M  V30 1489 C 140.187 1.11657 1.69294 0
M  V30 1490 C 140.52 -0.339926 1.91202 0
M  V30 1491 O 139.795 -1.24994 1.49019 0
M  V30 1492 C 140.078 1.88236 3.06984 0
M  V30 1493 C 139.931 3.41772 2.92424 0
M  V30 1494 C 141.25 1.67343 4.07043 0
M  V30 1495 H 138.369 0.407004 0.614424 0
M  V30 1496 H 141.011 1.55106 1.09737 0
M  V30 1497 H 139.161 1.51308 3.57824 0
M  V30 1498 H 140.833 3.88433 2.48832 0
M  V30 1499 H 139.076 3.68974 2.28124 0
M  V30 1500 H 139.747 3.90579 3.90067 0
M  V30 1501 H 142.223 1.99509 3.65151 0
M  V30 1502 H 141.099 2.23346 5.01406 0
M  V30 1503 H 141.36 0.617158 4.37771 0
M  V30 1504 N 140.419 -1.14872 1.07899 0
M  V30 1505 C 141.83 -1.67367 0.827363 0
M  V30 1506 C 142.181 -1.85236 -0.646693 0
M  V30 1507 O 141.306 -1.55974 -1.50004 0
M  V30 1508 C 141.901 -3.04016 1.49532 0
M  V30 1509 C 140.46 -3.53566 1.29106 0
M  V30 1510 C 139.607 -2.29161 1.56143 0
M  V30 1511 H 142.558 -0.990083 1.24028 0
M  V30 1512 H 142.579 -3.69219 0.919643 0
M  V30 1513 H 142.091 -2.90978 2.56814 0
M  V30 1514 H 140.192 -3.71835 0.238713 0
M  V30 1515 H 140.305 -4.34661 2.01511 0
M  V30 1516 H 138.669 -2.34978 0.982717 0
M  V30 1517 H 139.452 -2.18705 2.64619 0
M  V30 1518 N 141.898 -0.863906 -1.31812 0
M  V30 1519 C 143.146 -0.470904 -1.96537 0
M  V30 1520 C 143.467 0.978771 -1.68657 0
M  V30 1521 O 142.737 1.6853 -0.998717 0
M  V30 1522 H 141.317 -0.171148 -0.72713 0
M  V30 1523 H 143.979 -1.10236 -1.60729 0
M  V30 1524 H 143.075 -0.623616 -3.05806 0
M  V30 1525 N 143.376 1.44774 -0.622745 0
M  V30 1526 C 144.623 2.02121 -0.1239 0
M  V30 1527 C 144.951 1.48915 1.25118 0
M  V30 1528 O 144.206 0.660045 1.84233 0
M  V30 1529 C 144.505 3.57364 -0.0508323 0
M  V30 1530 C 144.171 4.29787 -1.36358 0
M  V30 1531 C 142.833 4.4929 -1.72314 0
M  V30 1532 C 145.185 4.71062 -2.23048 0
M  V30 1533 C 142.513 5.07325 -2.94682 0
M  V30 1534 C 144.865 5.30452 -3.44679 0
M  V30 1535 C 143.529 5.48175 -3.80868 0
M  V30 1536 H 142.799 0.739612 -0.0453381 0
M  V30 1537 H 145.446 1.73648 -0.807389 0
M  V30 1538 H 143.751 3.85202 0.715991 0
M  V30 1539 H 145.448 3.99456 0.351533 0
M  V30 1540 H 142.038 4.14932 -1.07375 0
M  V30 1541 H 146.222 4.55715 -1.96565 0
M  V30 1542 H 141.478 5.19235 -3.22809 0
M  V30 1543 H 145.652 5.61385 -4.12092 0
M  V30 1544 H 143.279 5.92912 -4.75773 0
M  V30 1545 N 144.854 0.36279 1.53368 0
M  V30 1546 C 146.084 -0.228281 2.05335 0
M  V30 1547 C 146.492 -1.43226 1.23625 0
M  V30 1548 O 145.835 -1.81717 0.269206 0
M  V30 1549 C 145.897 -0.688549 3.52845 0
M  V30 1550 C 145.561 0.398362 4.5526 0
M  V30 1551 C 146.558 1.24732 5.04716 0
M  V30 1552 C 144.243 0.557805 4.99193 0
M  V30 1553 C 146.237 2.2411 5.96702 0
M  V30 1554 C 143.924 1.55495 5.90986 0
M  V30 1555 C 144.922 2.39503 6.39631 0
M  V30 1556 O 144.61 3.37517 7.29615 0
M  V30 1557 H 144.342 -0.044395 0.674541 0
M  V30 1558 H 146.896 0.518668 1.98744 0
M  V30 1559 H 145.126 -1.48706 3.56964 0
M  V30 1560 H 146.815 -1.20231 3.87685 0
M  V30 1561 H 147.581 1.13532 4.71525 0
M  V30 1562 H 143.46 -0.0862959 4.60919 0
M  V30 1563 H 147.004 2.89718 6.34594 0
M  V30 1564 H 142.901 1.66744 6.23592 0
M  V30 1565 H 143.669 3.33213 7.47604 0
M  V30 1566 N 146.332 -1.57332 0.0918853 0
M  V30 1567 C 147.242 -2.17368 -0.882505 0
M  V30 1568 C 148.258 -1.14226 -1.31257 0
M  V30 1569 O 149.434 -1.46582 -1.38115 0
M  V30 1570 C 146.499 -2.73962 -2.12476 0
M  V30 1571 C 145.56 -3.92048 -1.7492 0
M  V30 1572 C 144.793 -4.45933 -2.93223 0
M  V30 1573 O 145.016 -3.98764 -4.07852 0
M  V30 1574 O 143.95 -5.36999 -2.71875 0
M  V30 1575 H 147.776 -3.01031 -0.40172 0
M  V30 1576 H 145.361 -1.48813 -0.132291 0
M  V30 1577 H 147.243 -3.10147 -2.85283 0
M  V30 1578 H 145.918 -1.93347 -2.59613 0
M  V30 1579 H 144.825 -3.6068 -0.993025 0
M  V30 1580 H 146.158 -4.74017 -1.32548 0
M  V30 1581 N 147.81 0.181792 -1.56548 0
M  V30 1582 C 148.758 1.24461 -1.965 0
M  V30 1583 C 149.752 1.464 -0.852261 0
M  V30 1584 O 150.958 1.47103 -1.03733 0
M  V30 1585 H 147.333 0.418138 -0.625031 0
M  V30 1586 H 149.304 0.880714 -2.85107 0
M  V30 1587 C 148.053 2.57891 -2.33212 0
M  V30 1588 H 147.376 2.41829 -3.18369 0
M  V30 1589 H 148.816 3.3097 -2.65019 0
M  V30 1590 C 147.275 3.15871 -1.17163 0
M  V30 1591 O 147.805 3.9913 -0.453708 0
M  V30 1592 N 146.011 2.74808 -0.944936 0
M  V30 1593 H 145.558 2.07205 -1.53049 0
M  V30 1594 H 145.516 3.13939 -0.170286 0
M  V30 1595 N 149.288 1.51039 0.449983 0
M  V30 1596 C 150.534 1.63322 1.20223 0
M  V30 1597 C 150.867 0.34241 1.91158 0
M  V30 1598 O 150.142 -0.657344 1.83055 0
M  V30 1599 C 150.425 2.82801 2.22925 0
M  V30 1600 C 150.278 4.21823 1.56157 0
M  V30 1601 C 151.597 2.97807 3.24035 0
M  V30 1602 H 148.716 0.594407 0.435718 0
M  V30 1603 H 151.358 1.83489 0.493136 0
M  V30 1604 H 149.508 2.65738 2.834 0
M  V30 1605 H 151.18 4.50526 0.991162 0
M  V30 1606 H 149.423 4.25105 0.864172 0
M  V30 1607 H 150.094 5.01391 2.30891 0
M  V30 1608 H 152.57 3.13497 2.73603 0
M  V30 1609 H 151.446 3.82992 3.93202 0
M  V30 1610 H 151.707 2.09328 3.89402 0
M  V30 1611 N 150.766 -0.704594 1.40972 0
M  V30 1612 C 152.043 -1.45847 1.30338 0
M  V30 1613 C 152.423 -2.10973 -0.0732344 0
M  V30 1614 O 151.771 -2.00997 -1.08685 0
M  V30 1615 C 151.981 -2.48525 2.45023 0
M  V30 1616 C 153.329 -3.1404 2.8577 0
M  V30 1617 O 154.353 -2.58848 2.44696 0
M  V30 1618 O 153.212 -4.13981 3.56766 0
M  V30 1619 H 150.306 -0.649092 0.512454 0
M  V30 1620 H 152.852 -0.735836 1.52917 0
M  V30 1621 H 151.624 -1.98994 3.36923 0
M  V30 1622 H 151.247 -3.2831 2.24272 0
M  V30 1623 N 152.244 -1.26651 -0.937939 0
M  V30 1624 C 153.66 -1.03834 -1.21205 0
M  V30 1625 C 153.86 0.234502 -2.00131 0
M  V30 1626 O 152.916 0.942767 -2.3424 0
M  V30 1627 C 154.229 -2.27167 -1.97017 0
M  V30 1628 C 155.777 -2.32101 -2.09996 0
M  V30 1629 C 156.252 -3.55136 -2.8921 0
M  V30 1630 N 157.743 -3.55632 -2.96783 0
M  V30 1631 C 158.478 -4.475 -3.58512 0
M  V30 1632 N 157.974 -5.4966 -4.21717 0
M  V30 1633 N 159.767 -4.35145 -3.55816 0
M  V30 1634 H 151.918 -2.08398 -0.410391 0
M  V30 1635 H 154.181 -0.916031 -0.244114 0
M  V30 1636 H 153.887 -3.19765 -1.46434 0
M  V30 1637 H 153.761 -2.31672 -2.97671 0
M  V30 1638 H 156.148 -1.40015 -2.59769 0
M  V30 1639 H 156.229 -2.31605 -1.08594 0
M  V30 1640 H 155.873 -4.47553 -2.40123 0
M  V30 1641 H 155.803 -3.5288 -3.90875 0
M  V30 1642 H 158.294 -2.81743 -2.51852 0
M  V30 1643 H 158.607 -6.15943 -4.66727 0
M  V30 1644 H 156.952 -5.53514 -4.20294 0
M  V30 1645 H 160.143 -3.5455 -3.05634 0
M  V30 1646 H 160.316 -5.06934 -4.03636 0
M  V30 1647 N 153.722 1.14298 -1.08507 0
M  V30 1648 C 155.133 1.66926 -0.836227 0
M  V30 1649 C 155.484 1.85576 0.63686 0
M  V30 1650 O 154.609 1.56767 1.49175 0
M  V30 1651 C 155.204 3.03219 -1.51142 0
M  V30 1652 C 153.763 3.52876 -1.30979 0
M  V30 1653 C 152.91 2.2833 -1.57356 0
M  V30 1654 H 155.861 0.983491 -1.24552 0
M  V30 1655 H 155.882 3.68726 -0.939211 0
M  V30 1656 H 155.394 2.89612 -2.58353 0
M  V30 1657 H 153.495 3.71703 -0.258429 0
M  V30 1658 H 153.608 4.33586 -2.03814 0
M  V30 1659 H 151.972 2.34454 -0.995164 0
M  V30 1660 H 152.755 2.17298 -2.65775 0
M  V30 1661 N 155.201 0.870884 1.31352 0
M  V30 1662 C 156.133 0.28455 2.27427 0
M  V30 1663 C 157.146 -0.552927 1.53123 0
M  V30 1664 O 158.335 -0.374771 1.74521 0
M  V30 1665 C 155.435 -0.615164 3.3327 0
M  V30 1666 C 154.608 0.190079 4.36987 0
M  V30 1667 C 153.667 -0.637917 5.22319 0
M  V30 1668 O 152.693 -0.065626 5.69162 0
M  V30 1669 N 153.895 -1.94973 5.46778 0
M  V30 1670 H 156.66 1.11017 2.7838 0
M  V30 1671 H 154.221 0.732458 1.44384 0
M  V30 1672 H 156.213 -1.1748 3.87273 0
M  V30 1673 H 154.783 -1.34146 2.82354 0
M  V30 1674 H 154.003 0.931165 3.83044 0
M  V30 1675 H 155.291 0.742579 5.03352 0
M  V30 1676 H 154.689 -2.4378 5.10478 0
M  V30 1677 H 153.246 -2.45713 6.03712 0
M  V30 1678 N 156.679 -1.44442 0.630414 0
M  V30 1679 C 157.626 -2.30678 -0.0749355 0
M  V30 1680 C 158.596 -1.4344 -0.837502 0
M  V30 1681 O 159.781 -1.72343 -0.818684 0
M  V30 1682 C 156.921 -3.28706 -1.05103 0
M  V30 1683 C 156.034 -4.31046 -0.286954 0
M  V30 1684 C 155.169 -5.16167 -1.2548 0
M  V30 1685 C 154.208 -6.10216 -0.479843 0
M  V30 1686 N 153.345 -6.88039 -1.39811 0
M  V30 1687 H 158.185 -2.90454 0.666386 0
M  V30 1688 H 155.722 -1.43107 0.340404 0
M  V30 1689 H 157.68 -3.84027 -1.63031 0
M  V30 1690 H 156.31 -2.70632 -1.75949 0
M  V30 1691 H 155.362 -3.78203 0.408243 0
M  V30 1692 H 156.674 -4.97794 0.316657 0
M  V30 1693 H 155.828 -5.76002 -1.90544 0
M  V30 1694 H 154.567 -4.49491 -1.89233 0
M  V30 1695 H 153.572 -5.49491 0.184295 0
M  V30 1696 H 154.797 -6.78928 0.152965 0
M  V30 1697 H 152.743 -6.24032 -2.02287 0
M  V30 1698 H 152.66 -7.51223 -0.848508 0
M  V30 1699 H 153.928 -7.52397 -2.03762 0
M  V30 1700 N 158.157 -0.370918 -1.53173 0
M  V30 1701 C 159.403 0.217423 -2.01631 0
M  V30 1702 C 159.736 1.47983 -1.25756 0
M  V30 1703 O 159.011 1.91274 -0.352764 0
M  V30 1704 C 159.294 0.503982 -3.56556 0
M  V30 1705 C 159.147 -0.77243 -4.43118 0
M  V30 1706 C 160.466 1.30234 -4.20389 0
M  V30 1707 H 157.585 0.0775486 -0.732909 0
M  V30 1708 H 160.227 -0.496863 -1.83388 0
M  V30 1709 H 158.377 1.11248 -3.72231 0
M  V30 1710 H 160.049 -1.4098 -4.39229 0
M  V30 1711 H 158.292 -1.39167 -4.10871 0
M  V30 1712 H 158.963 -0.526815 -5.4948 0
M  V30 1713 H 161.439 0.787546 -4.08579 0
M  V30 1714 H 160.315 1.47158 -5.28806 0
M  V30 1715 H 160.576 2.31237 -3.76805 0
M  V30 1716 N 159.635 1.57281 -0.100228 0
M  V30 1717 C 161.051 1.57527 0.256416 0
M  V30 1718 C 161.251 1.11173 1.68056 0
M  V30 1719 O 160.307 0.79053 2.39806 0
M  V30 1720 C 161.62 3.00673 0.0401747 0
M  V30 1721 C 163.168 3.12815 0.107528 0
M  V30 1722 C 163.643 4.57929 -0.0807834 0
M  V30 1723 N 165.134 4.63193 -0.0261207 0
M  V30 1724 C 165.869 5.73212 -0.146999 0
M  V30 1725 N 165.365 6.92047 -0.322999 0
M  V30 1726 N 167.158 5.62031 -0.0879044 0
M  V30 1727 H 159.309 1.85718 -1.03065 0
M  V30 1728 H 161.572 0.857446 -0.404339 0
M  V30 1729 H 161.278 3.38804 -0.943649 0
M  V30 1730 H 161.152 3.69042 0.780262 0
M  V30 1731 H 163.539 2.74554 1.08186 0
M  V30 1732 H 163.62 2.47028 -0.664134 0
M  V30 1733 H 163.264 4.96886 -1.05201 0
M  V30 1734 H 163.194 5.21783 0.710635 0
M  V30 1735 H 165.685 3.77748 0.107161 0
M  V30 1736 H 165.998 7.7173 -0.406608 0
M  V30 1737 H 164.343 6.94074 -0.358733 0
M  V30 1738 H 167.534 4.68075 0.048498 0
M  V30 1739 H 167.707 6.47734 -0.185557 0
M  V30 1740 N 161.113 -0.173488 1.56642 0
M  V30 1741 C 162.362 -0.888758 1.81063 0
M  V30 1742 C 162.675 -1.83506 0.67712 0
M  V30 1743 O 163.881 -2.59254 0.806206 0
M  V30 1744 C 162.337 -1.63091 3.20826 0
M  V30 1745 C 161.945 -0.728357 4.4204 0
M  V30 1746 C 163.689 -2.33454 3.54541 0
M  V30 1747 C 161.596 -1.47062 5.72823 0
M  V30 1748 H 160.526 -0.335618 0.675186 0
M  V30 1749 H 163.177 -0.141712 1.82952 0
M  V30 1750 H 161.559 -2.42263 3.13248 0
M  V30 1751 H 162.733 0.0262449 4.60793 0
M  V30 1752 H 161.048 -0.134492 4.16183 0
M  V30 1753 H 163.645 -2.89578 4.49498 0
M  V30 1754 H 163.988 -3.08687 2.79317 0
M  V30 1755 H 164.521 -1.61227 3.63663 0
M  V30 1756 H 161.26 -0.760658 6.51072 0
M  V30 1757 H 160.78 -2.1986 5.58052 0
M  V30 1758 H 162.459 -2.01868 6.14702 0
M  V30 1759 N 162.591 -1.51276 -0.441967 0
M  V30 1760 C 163.538 -1.72256 -1.53612 0
M  V30 1761 C 164.508 -0.564164 -1.56225 0
M  V30 1762 O 165.693 -0.798074 -1.73307 0
M  V30 1763 C 162.833 -1.84932 -2.91366 0
M  V30 1764 C 161.946 -3.12459 -2.98317 0
M  V30 1765 C 161.081 -3.15758 -4.27166 0
M  V30 1766 C 160.12 -4.37619 -4.27967 0
M  V30 1767 N 159.257 -4.38493 -5.48333 0
M  V30 1768 H 164.097 -2.65654 -1.35026 0
M  V30 1769 H 161.634 -1.31662 -0.656009 0
M  V30 1770 H 163.592 -1.90263 -3.7129 0
M  V30 1771 H 162.222 -0.949461 -3.08521 0
M  V30 1772 H 161.274 -3.1646 -2.11086 0
M  V30 1773 H 162.586 -4.02382 -2.94771 0
M  V30 1774 H 161.74 -3.19979 -5.15459 0
M  V30 1775 H 160.479 -2.23715 -4.33362 0
M  V30 1776 H 159.484 -4.33579 -3.38067 0
M  V30 1777 H 160.709 -5.30921 -4.23438 0
M  V30 1778 H 158.655 -3.49318 -5.55259 0
M  V30 1779 H 158.572 -5.22219 -5.46647 0
M  V30 1780 H 159.84 -4.469 -6.38671 0
M  V30 1781 N 164.069 0.697108 -1.41344 0
M  V30 1782 C 165.032 1.79281 -1.42797 0
M  V30 1783 C 166.032 1.57607 -0.318837 0
M  V30 1784 O 167.222 1.64309 -0.578642 0
M  V30 1785 C 164.354 3.17632 -1.23785 0
M  V30 1786 H 165.547 1.79385 -2.40335 0
M  V30 1787 H 163.1 0.904582 -1.27464 0
M  V30 1788 H 163.835 3.23167 -0.270814 0
M  V30 1789 H 163.62 3.34765 -2.04144 0
M  V30 1790 H 165.11 3.97617 -1.27633 0
M  V30 1791 N 165.547 1.27147 0.931209 0
M  V30 1792 C 166.477 1.12081 2.04842 0
M  V30 1793 C 167.458 0.0232364 1.70084 0
M  V30 1794 O 168.643 0.197085 1.93197 0
M  V30 1795 C 165.773 0.76354 3.38803 0
M  V30 1796 C 164.727 1.81396 3.87659 0
M  V30 1797 C 164.053 1.31075 5.18385 0
M  V30 1798 C 165.353 3.21739 4.11438 0
M  V30 1799 H 167.047 2.05537 2.17703 0
M  V30 1800 H 164.593 0.989603 1.04608 0
M  V30 1801 H 166.546 0.644982 4.16435 0
M  V30 1802 H 165.27 -0.206727 3.25945 0
M  V30 1803 H 163.929 1.92136 3.12217 0
M  V30 1804 H 163.577 0.330037 5.01916 0
M  V30 1805 H 163.277 2.013 5.52044 0
M  V30 1806 H 164.801 1.20506 5.98591 0
M  V30 1807 H 166.215 3.14019 4.79651 0
M  V30 1808 H 164.612 3.89644 4.56397 0
M  V30 1809 H 165.682 3.67054 3.16859 0
M  V30 1810 N 167.025 -1.13721 1.09112 0
M  V30 1811 C 168.302 -1.81155 0.737706 0
M  V30 1812 C 168.682 -1.96253 -0.777683 0
M  V30 1813 O 168.03 -1.52807 -1.69889 0
M  V30 1814 C 168.24 -3.16392 1.47299 0
M  V30 1815 C 169.588 -3.91787 1.63671 0
M  V30 1816 O 170.612 -3.26005 1.43524 0
M  V30 1817 O 169.471 -5.0977 1.96969 0
M  V30 1818 H 166.565 -0.783518 0.26463 0
M  V30 1819 H 169.111 -1.20676 1.19312 0
M  V30 1820 H 167.883 -3.0061 2.50498 0
M  V30 1821 H 167.506 -3.8457 1.00953 0
M  V30 1822 N 168.503 -0.877838 -1.30888 0
M  V30 1823 C 169.919 -0.570844 -1.49042 0
M  V30 1824 C 170.119 0.893159 -1.80624 0
M  V30 1825 O 169.175 1.67485 -1.88958 0
M  V30 1826 C 170.488 -1.47784 -2.61878 0
M  V30 1827 C 172.036 -1.48071 -2.75761 0
M  V30 1828 C 172.511 -2.37347 -3.91702 0
M  V30 1829 N 174.002 -2.35271 -3.99001 0
M  V30 1830 C 174.737 -3.01063 -4.88004 0
M  V30 1831 N 174.233 -3.76055 -5.81854 0
M  V30 1832 N 176.026 -2.90332 -4.81315 0
M  V30 1833 H 168.177 -1.82502 -1.0866 0
M  V30 1834 H 170.44 -0.780797 -0.537644 0
M  V30 1835 H 170.146 -2.51993 -2.45341 0
M  V30 1836 H 170.02 -1.18215 -3.58197 0
M  V30 1837 H 172.407 -0.446166 -2.91708 0
M  V30 1838 H 172.488 -1.81668 -1.80085 0
M  V30 1839 H 172.132 -3.40883 -3.76512 0
M  V30 1840 H 172.062 -2.01071 -4.86701 0
M  V30 1841 H 174.553 -1.80768 -3.3186 0
M  V30 1842 H 174.866 -4.23366 -6.46514 0
M  V30 1843 H 173.211 -3.80163 -5.81808 0
M  V30 1844 H 176.402 -2.31278 -4.06974 0
M  V30 1845 H 176.575 -3.41885 -5.50471 0
M  V30 1846 N 169.982 1.44106 -0.638065 0
M  V30 1847 C 171.259 1.95453 -0.0759321 0
M  V30 1848 C 171.639 1.57984 1.40015 0
M  V30 1849 O 170.987 0.857361 2.11806 0
M  V30 1850 C 171.197 3.47655 -0.306132 0
M  V30 1851 C 172.545 4.24114 -0.203008 0
M  V30 1852 O 173.569 3.55405 -0.237871 0
M  V30 1853 O 172.428 5.46381 -0.113827 0
M  V30 1854 H 169.522 0.826797 0.0183332 0
M  V30 1855 H 172.068 1.54122 -0.710251 0
M  V30 1856 H 170.84 3.68 -1.3301 0
M  V30 1857 H 170.463 3.95949 0.361991 0
M  V30 1858 N 171.46 0.379036 1.52974 0
M  V30 1859 C 172.708 -0.206014 2.01047 0
M  V30 1860 C 173.029 -1.48175 1.26765 0
M  V30 1861 O 172.299 -1.92085 0.384743 0
M  V30 1862 H 170.879 -0.0791184 0.742798 0
M  V30 1863 H 173.541 0.508366 1.88153 0
M  V30 1864 H 172.637 -0.423501 3.09213 0
M  V30 1865 N 172.938 -1.57226 0.108567 0
M  V30 1866 C 173.886 -2.16002 -0.862885 0
M  V30 1867 C 174.88 -1.10644 -1.28274 0
M  V30 1868 O 176.086 -1.28966 -1.2557 0
M  V30 1869 H 172.461 -0.691148 -0.296342 0
M  V30 1870 H 174.432 -2.96427 -0.342575 0
M  V30 1871 C 173.181 -2.76576 -2.10716 0
M  V30 1872 H 172.504 -3.5734 -1.793 0
M  V30 1873 H 173.944 -3.21253 -2.76717 0
M  V30 1874 C 172.403 -1.73137 -2.89007 0
M  V30 1875 O 172.933 -1.17842 -3.84026 0
M  V30 1876 N 171.139 -1.43317 -2.52801 0
M  V30 1877 H 170.686 -1.88473 -1.75601 0
M  V30 1878 H 170.644 -0.743485 -3.05483 0
M  V30 1879 N 174.416 0.165178 -1.56732 0
M  V30 1880 C 175.827 0.727046 -1.71962 0
M  V30 1881 C 176.178 1.82508 -0.720078 0
M  V30 1882 O 175.303 2.16082 0.117242 0
M  V30 1883 C 175.898 1.32559 -3.11791 0
M  V30 1884 C 174.457 1.83422 -3.28684 0
M  V30 1885 C 173.604 0.715567 -2.67908 0
M  V30 1886 H 176.555 -0.0602896 -1.58585 0
M  V30 1887 H 176.576 2.19533 -3.10782 0
M  V30 1888 H 176.088 0.526195 -3.84516 0
M  V30 1889 H 174.189 2.65986 -2.60926 0
M  V30 1890 H 174.302 1.97543 -4.36478 0
M  V30 1891 H 172.666 1.13758 -2.27884 0
M  V30 1892 H 173.449 -0.0720836 -3.43224 0
M  V30 1893 N 175.894 1.51508 0.433938 0
M  V30 1894 C 177.141 1.64345 1.18309 0
M  V30 1895 C 177.469 0.361315 1.91115 0
M  V30 1896 O 176.724 -0.654753 1.84422 0
M  V30 1897 C 177.023 2.79928 2.22205 0
M  V30 1898 C 176.689 4.19078 1.66387 0
M  V30 1899 C 175.351 4.56932 1.50887 0
M  V30 1900 C 177.703 5.05894 1.25381 0
M  V30 1901 C 175.031 5.79305 0.928608 0
M  V30 1902 C 177.383 6.2885 0.687823 0
M  V30 1903 C 176.047 6.65473 0.519755 0
M  V30 1904 H 175.317 0.601381 0.432923 0
M  V30 1905 H 177.964 1.85549 0.473676 0
M  V30 1906 H 176.269 2.52959 2.99197 0
M  V30 1907 H 177.966 2.87059 2.79997 0
M  V30 1908 H 174.556 3.89234 1.79428 0
M  V30 1909 H 178.74 4.77253 1.36175 0
M  V30 1910 H 173.996 6.06324 0.786186 0
M  V30 1911 H 178.17 6.95461 0.361581 0
M  V30 1912 H 175.797 7.6017 0.0679979 0
M  V30 1913 N 177.372 -0.689602 1.41712 0
M  V30 1914 C 178.282 -1.83314 1.46401 0
M  V30 1915 C 179.298 -1.7036 0.35405 0
M  V30 1916 O 180.474 -1.92171 0.602692 0
M  V30 1917 C 177.539 -3.19344 1.34982 0
M  V30 1918 C 176.6 -3.44363 2.56344 0
M  V30 1919 C 175.833 -4.73904 2.45461 0
M  V30 1920 O 176.056 -5.508 1.48241 0
M  V30 1921 O 174.99 -4.99839 3.35328 0
M  V30 1922 H 178.816 -1.82314 2.42889 0
M  V30 1923 H 176.401 -0.843438 1.23315 0
M  V30 1924 H 178.283 -4.00547 1.3092 0
M  V30 1925 H 176.958 -3.21014 0.41612 0
M  V30 1926 H 175.865 -2.63067 2.65982 0
M  V30 1927 H 177.198 -3.47512 3.48563 0
M  V30 1928 N 178.85 -1.27639 -0.924453 0
M  V30 1929 C 179.76 -1.12466 -2.05885 0
M  V30 1930 C 180.776 -0.053869 -1.73917 0
M  V30 1931 O 181.952 -0.261012 -1.99702 0
M  V30 1932 C 179.017 -0.776768 -3.37886 0
M  V30 1933 C 178.078 -1.92878 -3.83532 0
M  V30 1934 C 177.311 -1.59739 -5.09234 0
M  V30 1935 O 177.534 -0.506782 -5.68144 0
M  V30 1936 O 176.468 -2.43761 -5.50331 0
M  V30 1937 H 180.294 -2.07671 -2.21599 0
M  V30 1938 H 177.879 -1.06857 -1.04413 0
M  V30 1939 H 179.761 -0.596229 -4.17161 0
M  V30 1940 H 178.436 0.145732 -3.23372 0
M  V30 1941 H 177.343 -2.1644 -3.0513 0
M  V30 1942 H 178.676 -2.8316 -4.02593 0
M  V30 1943 N 180.328 1.1314 -1.09713 0
M  V30 1944 C 181.574 1.84757 -0.836224 0
M  V30 1945 C 181.907 1.8347 0.636598 0
M  V30 1946 O 181.182 1.27491 1.46889 0
M  V30 1947 C 181.465 3.32782 -1.37578 0
M  V30 1948 C 181.318 3.42567 -2.91493 0
M  V30 1949 C 182.637 4.28307 -1.01198 0
M  V30 1950 H 179.756 0.67082 -0.305236 0
M  V30 1951 H 182.398 1.3278 -1.35903 0
M  V30 1952 H 180.548 3.77177 -0.931097 0
M  V30 1953 H 182.22 3.06862 -3.44432 0
M  V30 1954 H 180.463 2.83349 -3.28475 0
M  V30 1955 H 181.134 4.46674 -3.24324 0
M  V30 1956 H 183.61 3.91999 -1.39556 0
M  V30 1957 H 182.486 5.30307 -1.41653 0
M  V30 1958 H 182.747 4.42029 0.0794833 0
M  V30 1959 N 181.806 0.884767 1.30421 0
M  V30 1960 C 182.769 0.356277 2.26414 0
M  V30 1961 C 183.769 -0.501124 1.52792 0
M  V30 1962 O 184.959 -0.30831 1.7145 0
M  V30 1963 C 182.091 -0.492316 3.37326 0
M  V30 1964 H 183.284 1.20389 2.74675 0
M  V30 1965 H 180.837 0.661607 1.41607 0
M  V30 1966 H 181.572 -1.36052 2.94381 0
M  V30 1967 H 181.357 0.121832 3.91911 0
M  V30 1968 H 182.847 -0.853871 4.08777 0
M  V30 1969 N 183.284 -1.43765 0.645699 0
M  V30 1970 C 184.194 -2.34544 -0.0512957 0
M  V30 1971 C 185.21 -1.53455 -0.82022 0
M  V30 1972 O 186.386 -1.86133 -0.769176 0
M  V30 1973 C 183.451 -3.31636 -1.01087 0
M  V30 1974 C 182.512 -4.2863 -0.239712 0
M  V30 1975 C 181.745 -5.21084 -1.15358 0
M  V30 1976 O 181.968 -5.1779 -2.39269 0
M  V30 1977 O 180.902 -5.98593 -0.630038 0
M  V30 1978 H 184.728 -2.95624 0.695718 0
M  V30 1979 H 182.313 -1.43781 0.405882 0
M  V30 1980 H 184.195 -3.9136 -1.56254 0
M  V30 1981 H 182.87 -2.73069 -1.73824 0
M  V30 1982 H 181.777 -3.72408 0.355356 0
M  V30 1983 H 183.11 -4.90157 0.447936 0
M  V30 1984 N 184.763 -0.387143 -1.52771 0
M  V30 1985 C 186.011 0.195349 -2.01154 0
M  V30 1986 C 186.332 1.475 -1.27549 0
M  V30 1987 O 185.602 1.91878 -0.394924 0
M  V30 1988 H 184.182 0.075178 -0.743207 0
M  V30 1989 H 186.844 -0.518337 -1.87881 0
M  V30 1990 H 185.94 0.407096 -3.09434 0
M  V30 1991 N 186.241 1.57166 -0.116904 0
M  V30 1992 C 187.171 2.18222 0.830759 0
M  V30 1993 C 188.152 1.12167 1.27877 0
M  V30 1994 O 189.337 1.40394 1.34176 0
M  V30 1995 C 186.467 2.77996 2.08172 0
M  V30 1996 C 185.421 3.89614 1.77157 0
M  V30 1997 C 184.747 4.36187 3.09265 0
M  V30 1998 C 186.047 5.1181 1.04151 0
M  V30 1999 H 187.741 2.97664 0.321992 0
M  V30 2000 H 185.287 1.4318 0.153434 0
M  V30 2001 H 187.24 3.19366 2.74924 0
M  V30 2002 H 185.964 1.9584 2.6137 0
M  V30 2003 H 184.623 3.48816 1.12796 0
M  V30 2004 H 184.271 3.50893 3.60393 0
M  V30 2005 H 183.971 5.11455 2.89288 0
M  V30 2006 H 185.495 4.80207 3.77139 0
M  V30 2007 H 186.909 5.50214 1.61052 0
M  V30 2008 H 185.306 5.92648 0.942762 0
M  V30 2009 H 186.376 4.84892 0.0279022 0
M  V30 2010 N 187.719 -0.156864 1.56817 0
M  V30 2011 C 188.649 -1.19589 2.00551 0
M  V30 2012 C 189.63 -1.4536 0.883426 0
M  V30 2013 O 190.815 -1.56449 1.15054 0
M  V30 2014 C 187.945 -2.53143 2.37773 0
M  V30 2015 C 186.899 -2.41913 3.53075 0
M  V30 2016 C 186.225 -3.80088 3.76081 0
M  V30 2017 C 187.525 -1.91157 4.86062 0
M  V30 2018 H 189.219 -0.832293 2.87599 0
M  V30 2019 H 186.765 -0.398918 1.38364 0
M  V30 2020 H 188.718 -3.26047 2.66967 0
M  V30 2021 H 187.442 -2.91319 1.4765 0
M  V30 2022 H 186.101 -1.71462 3.24031 0
M  V30 2023 H 185.749 -4.15683 2.83225 0
M  V30 2024 H 185.449 -3.73439 4.53671 0
M  V30 2025 H 186.973 -4.54556 4.0769 0
M  V30 2026 H 188.387 -2.53846 5.14038 0
M  V30 2027 H 186.784 -1.95422 5.67389 0
M  V30 2028 H 187.854 -0.866673 4.77092 0
M  V30 2029 N 189.197 -1.51736 -0.425897 0
M  V30 2030 C 190.16 -1.73271 -1.50032 0
M  V30 2031 C 191.16 -0.602639 -1.4908 0
M  V30 2032 O 192.35 -0.87033 -1.509 0
M  V30 2033 C 189.482 -1.79969 -2.89523 0
M  V30 2034 H 190.675 -2.69172 -1.32237 0
M  V30 2035 H 188.228 -1.41899 -0.65532 0
M  V30 2036 H 188.963 -0.859241 -3.1271 0
M  V30 2037 H 188.748 -2.62109 -2.91619 0
M  V30 2038 H 190.238 -1.9843 -3.67444 0
M  V30 2039 N 190.675 0.682077 -1.42076 0
M  V30 2040 C 191.921 1.44428 -1.42367 0
M  V30 2041 C 192.254 1.94164 -0.0373056 0
M  V30 2042 O 191.529 1.70429 0.937239 0
M  V30 2043 C 191.812 2.64654 -2.44194 0
M  V30 2044 C 191.665 2.20596 -3.91991 0
M  V30 2045 C 192.984 3.66865 -2.431 0
M  V30 2046 H 190.103 0.523834 -0.518428 0
M  V30 2047 H 192.745 0.77576 -1.73442 0
M  V30 2048 H 190.895 3.2169 -2.17826 0
M  V30 2049 H 192.567 1.68783 -4.29313 0
M  V30 2050 H 190.81 1.52242 -4.06208 0
M  V30 2051 H 191.481 3.06921 -4.58807 0
M  V30 2052 H 193.957 3.19531 -2.66532 0
M  V30 2053 H 192.833 4.48577 -3.16339 0
M  V30 2054 H 193.094 4.17493 -1.45437 0
M  V30 2055 N 192.153 1.28127 0.917671 0
M  V30 2056 C 193.393 1.163 1.68088 0
M  V30 2057 C 193.757 -0.284515 1.8988 0
M  V30 2058 O 194.958 -0.525413 2.63615 0
M  V30 2059 C 193.229 1.93546 3.00457 0
M  V30 2060 S 194.788 1.98048 3.91564 0
M  V30 2061 H 191.606 0.415005 0.577315 0
M  V30 2062 H 194.208 1.62173 1.09179 0
M  V30 2063 H 192.912 2.97888 2.82295 0
M  V30 2064 H 192.443 1.48207 3.64415 0
M  V30 2065 H 194.458 1.08415 4.84211 0
M  V30 2066 N 193.631 -1.12557 1.10312 0
M  V30 2067 C 194.88 -1.83395 0.839588 0
M  V30 2068 C 195.193 -1.84939 -0.636929 0
M  V30 2069 O 196.399 -2.51761 -1.01631 0
M  V30 2070 C 194.855 -3.29303 1.45215 0
M  V30 2071 C 194.463 -3.36122 2.96186 0
M  V30 2072 C 196.207 -4.05121 1.26796 0
M  V30 2073 C 194.114 -4.76357 3.50483 0
M  V30 2074 H 193.044 -0.687133 0.310425 0
M  V30 2075 H 195.695 -1.26746 1.32694 0
M  V30 2076 H 194.077 -3.85812 0.892469 0
M  V30 2077 H 195.251 -2.89559 3.58458 0
M  V30 2078 H 193.566 -2.73776 3.13745 0
M  V30 2079 H 196.163 -5.08668 1.64806 0
M  V30 2080 H 196.506 -4.15773 0.209409 0
M  V30 2081 H 197.039 -3.54967 1.79563 0
M  V30 2082 H 193.778 -4.70899 4.55998 0
M  V30 2083 H 193.298 -5.23377 2.92978 0
M  V30 2084 H 194.977 -5.45294 3.48228 0
M  V30 2085 N 195.109 -0.891671 -1.2995 0
M  V30 2086 C 196.041 -0.320695 -2.26945 0
M  V30 2087 C 197.054 0.528497 -1.53983 0
M  V30 2088 O 198.243 0.346959 -1.75096 0
M  V30 2089 C 195.343 0.562066 -3.34207 0
M  V30 2090 C 194.516 -0.259576 -4.36629 0
M  V30 2091 C 193.575 0.554739 -5.23268 0
M  V30 2092 O 192.601 -0.0249311 -5.69195 0
M  V30 2093 N 193.803 1.8625 -5.4981 0
M  V30 2094 H 196.568 -1.15432 -2.76578 0
M  V30 2095 H 194.129 -0.755336 -1.432 0
M  V30 2096 H 196.121 1.11304 -3.89093 0
M  V30 2097 H 194.691 1.29637 -2.84452 0
M  V30 2098 H 193.911 -0.991986 -3.81514 0
M  V30 2099 H 195.199 -0.822564 -5.02107 0
M  V30 2100 H 194.597 2.35628 -5.14292 0
M  V30 2101 H 193.154 2.36078 -6.07545 0
M  V30 2102 N 196.587 1.43421 -0.653314 0
M  V30 2103 C 197.537 2.2792 0.060558 0
M  V30 2104 C 198.521 1.39906 0.794677 0
M  V30 2105 O 199.713 1.63536 0.677128 0
M  V30 2106 C 196.842 3.27603 1.0262 0
M  V30 2107 C 195.928 4.23104 0.290551 0
M  V30 2108 N 196.319 5.01031 -0.692967 0
M  V30 2109 C 194.617 4.42816 0.531984 0
M  V30 2110 C 195.318 5.70626 -1.12963 0
M  V30 2111 N 194.294 5.41617 -0.463867 0
M  V30 2112 H 198.096 2.85585 -0.694143 0
M  V30 2113 H 195.61 1.55126 -0.480602 0
M  V30 2114 H 197.607 3.86918 1.55242 0
M  V30 2115 H 196.267 2.71499 1.78096 0
M  V30 2116 H 197.278 5.0669 -1.07169 0
M  V30 2117 H 193.955 3.97782 1.26791 0
M  V30 2118 H 195.345 6.4318 -1.94343 0
M  V30 2119 N 198.065 0.39524 1.52563 0
M  V30 2120 C 198.975 -0.444232 2.30356 0
M  V30 2121 C 199.991 -1.06615 1.37511 0
M  V30 2122 O 201.167 -1.07067 1.70583 0
M  V30 2123 C 198.232 -1.55315 3.09964 0
M  V30 2124 C 197.293 -0.955734 4.18526 0
M  V30 2125 C 196.526 -2.01181 4.9433 0
M  V30 2126 O 196.749 -3.22781 4.70285 0
M  V30 2127 O 195.683 -1.62579 5.79527 0
M  V30 2128 H 199.509 0.189667 3.03107 0
M  V30 2129 H 197.094 0.1588 1.48554 0
M  V30 2130 H 198.976 -2.19724 3.59582 0
M  V30 2131 H 197.651 -2.17191 2.4002 0
M  V30 2132 H 196.558 -0.274743 3.7309 0
M  V30 2133 H 197.891 -0.381109 4.90722 0
M  V30 2134 N 199.544 -1.57102 0.125237 0
M  V30 2135 C 200.784 -1.97294 -0.534259 0
M  V30 2136 C 201.148 -1.0074 -1.63449 0
M  V30 2137 O 202.349 -1.29893 -2.35332 0
M  V30 2138 C 200.62 -3.41705 -1.04748 0
M  V30 2139 S 202.179 -4.03913 -1.71463 0
M  V30 2140 H 198.997 -0.689517 -0.173458 0
M  V30 2141 H 201.599 -1.94349 0.211797 0
M  V30 2142 H 200.303 -4.09723 -0.235649 0
M  V30 2143 H 199.834 -3.48315 -1.82867 0
M  V30 2144 H 201.849 -3.95182 -3.00077 0
M  V30 2145 N 201.022 0.148545 -1.56898 0
M  V30 2146 C 202.299 0.890019 -1.74178 0
M  V30 2147 C 202.679 1.99407 -0.692839 0
M  V30 2148 O 202.027 2.26671 0.288505 0
M  V30 2149 C 202.237 1.43389 -3.18183 0
M  V30 2150 C 203.585 1.89791 -3.79822 0
M  V30 2151 O 204.609 1.53134 -3.21603 0
M  V30 2152 O 203.468 2.57387 -4.82093 0
M  V30 2153 H 200.562 0.420496 -0.712118 0
M  V30 2154 H 203.108 0.134591 -1.69165 0
M  V30 2155 H 201.88 0.640383 -3.86024 0
M  V30 2156 H 201.503 2.25287 -3.27615 0
M  V30 2157 N 202.5 1.5196 0.417844 0
M  V30 2158 C 203.45 1.7106 1.5074 0
M  V30 2159 C 204.434 0.564487 1.50673 0
M  V30 2160 O 205.626 0.821206 1.56797 0
M  V30 2161 C 202.755 1.85677 2.88754 0
M  V30 2162 C 201.841 3.06133 2.93502 0
M  V30 2163 N 202.232 4.28987 2.67962 0
M  V30 2164 C 200.53 3.05787 3.24669 0
M  V30 2165 C 201.231 5.10395 2.79055 0
M  V30 2166 N 200.207 4.45455 3.11561 0
M  V30 2167 H 204.009 2.63696 1.29775 0
M  V30 2168 H 201.523 1.49873 0.625436 0
M  V30 2169 H 203.52 1.97475 3.67164 0
M  V30 2170 H 202.18 0.942348 3.10725 0
M  V30 2171 H 203.191 4.57607 2.4252 0
M  V30 2172 H 199.868 2.2405 3.52289 0
M  V30 2173 H 201.258 6.18247 2.63097 0
M  V30 2174 N 203.978 -0.674533 1.42435 0
M  V30 2175 C 204.908 -1.80009 1.48724 0
M  V30 2176 C 205.889 -1.6659 0.343793 0
M  V30 2177 O 207.074 -1.86007 0.558137 0
M  V30 2178 C 204.204 -3.18306 1.38919 0
M  V30 2179 C 203.158 -3.46461 2.51294 0
M  V30 2180 C 202.484 -4.84335 2.26547 0
M  V30 2181 C 203.784 -3.43328 3.93603 0
M  V30 2182 H 205.478 -1.75004 2.42928 0
M  V30 2183 H 203.024 -0.840533 1.16923 0
M  V30 2184 H 204.977 -3.9678 1.41927 0
M  V30 2185 H 203.701 -3.2399 0.412094 0
M  V30 2186 H 202.36 -2.70348 2.47604 0
M  V30 2187 H 202.008 -4.86669 1.2713 0
M  V30 2188 H 201.708 -5.04136 3.01861 0
M  V30 2189 H 203.232 -5.65094 2.31304 0
M  V30 2190 H 204.646 -4.11772 3.98894 0
M  V30 2191 H 203.043 -3.74664 4.68771 0
M  V30 2192 H 204.113 -2.41897 4.20255 0
M  V30 2193 N 205.456 -1.28612 -0.910864 0
M  V30 2194 C 206.404 -1.1265 -2.03501 0
M  V30 2195 C 207.398 -0.0450054 -1.6934 0
M  V30 2196 O 208.604 -0.203988 -1.7884 0
M  V30 2197 H 204.979 -0.347639 -0.666822 0
M  V30 2198 H 206.95 -2.07849 -2.14106 0
M  V30 2199 C 205.699 -0.808143 -3.38178 0
M  V30 2200 H 205.022 -1.63231 -3.6496 0
M  V30 2201 H 206.462 -0.736426 -4.17556 0
M  V30 2202 C 204.921 0.488226 -3.33344 0
M  V30 2203 O 205.451 1.51766 -3.71927 0
M  V30 2204 N 203.657 0.490009 -2.86439 0
M  V30 2205 H 203.204 -0.348161 -2.55236 0
M  V30 2206 H 203.162 1.35741 -2.83587 0
M  V30 2207 N 206.934 1.1197 -1.10907 0
M  V30 2208 C 208.182 1.83225 -0.852819 0
M  V30 2209 C 208.503 1.84769 0.623341 0
M  V30 2210 O 207.773 1.3143 1.45269 0
M  V30 2211 H 206.353 0.67849 -0.312507 0
M  V30 2212 H 209.015 1.3556 -1.40033 0
M  V30 2213 H 208.111 2.87265 -1.22005 0
M  V30 2214 N 208.412 0.89855 1.29475 0
M  V30 2215 C 209.359 0.373819 2.27753 0
M  V30 2216 C 210.329 -0.543444 1.56958 0
M  V30 2217 O 211.514 -0.468934 1.84948 0
M  V30 2218 C 208.654 -0.393648 3.42848 0
M  V30 2219 C 207.767 0.554379 4.28428 0
M  V30 2220 C 206.902 -0.230026 5.30702 0
M  V30 2221 C 205.941 0.712599 6.07938 0
M  V30 2222 N 205.078 -0.0373283 7.0209 0
M  V30 2223 H 209.918 1.21699 2.72017 0
M  V30 2224 H 207.455 0.611456 1.33789 0
M  V30 2225 H 209.413 -0.85466 4.08352 0
M  V30 2226 H 208.043 -1.20128 2.99615 0
M  V30 2227 H 207.095 1.13391 3.63107 0
M  V30 2228 H 208.407 1.27597 4.82204 0
M  V30 2229 H 207.561 -0.752288 6.02018 0
M  V30 2230 H 206.3 -0.984758 4.77654 0
M  V30 2231 H 205.305 1.24637 5.35486 0
M  V30 2232 H 206.53 1.46664 6.63074 0
M  V30 2233 H 204.476 -0.774348 6.51414 0
M  V30 2234 H 204.393 0.624374 7.53417 0
M  V30 2235 H 205.661 -0.539891 7.77628 0
M  V30 2236 N 209.89 -1.43072 0.660911 0
M  V30 2237 C 210.82 -2.33497 -0.0122829 0
M  V30 2238 C 211.801 -1.49903 -0.803925 0
M  V30 2239 O 212.986 -1.78546 -0.763864 0
M  V30 2240 C 210.116 -3.33363 -0.973994 0
M  V30 2241 C 209.07 -4.27003 -0.291928 0
M  V30 2242 C 208.396 -5.16967 -1.36562 0
M  V30 2243 C 209.696 -5.15816 0.820462 0
M  V30 2244 H 211.39 -2.90038 0.742873 0
M  V30 2245 H 208.936 -1.39461 0.358688 0
M  V30 2246 H 210.889 -3.95524 -1.45392 0
M  V30 2247 H 209.613 -2.75095 -1.7604 0
M  V30 2248 H 208.272 -3.66217 0.167623 0
M  V30 2249 H 207.92 -4.55034 -2.14366 0
M  V30 2250 H 207.62 -5.80441 -0.914454 0
M  V30 2251 H 209.144 -5.82003 -1.84675 0
M  V30 2252 H 210.558 -5.71742 0.422366 0
M  V30 2253 H 208.955 -5.8805 1.19656 0
M  V30 2254 H 210.025 -4.55045 1.67518 0
M  V30 2255 N 211.368 -0.403325 -1.52352 0
M  V30 2256 C 212.615 0.174347 -2.01748 0
M  V30 2257 C 212.943 1.45636 -1.2892 0
M  V30 2258 O 212.198 1.9193 -0.382258 0
M  V30 2259 C 212.497 0.474665 -3.54234 0
M  V30 2260 C 212.163 -0.717458 -4.45155 0
M  V30 2261 C 210.825 -1.04447 -4.69728 0
M  V30 2262 C 213.177 -1.51432 -4.98716 0
M  V30 2263 C 210.505 -2.16963 -5.45109 0
M  V30 2264 C 212.857 -2.6302 -5.75329 0
M  V30 2265 C 211.521 -2.96213 -5.98175 0
M  V30 2266 H 210.791 0.0637981 -0.738248 0
M  V30 2267 H 213.438 -0.543553 -1.83624 0
M  V30 2268 H 211.743 1.27406 -3.70506 0
M  V30 2269 H 213.44 0.934496 -3.89959 0
M  V30 2270 H 210.03 -0.452596 -4.26204 0
M  V30 2271 H 214.214 -1.27491 -4.79645 0
M  V30 2272 H 209.47 -2.43034 -5.61021 0
M  V30 2273 H 213.644 -3.25158 -6.15829 0
M  V30 2274 H 211.271 -3.83516 -6.56368 0
M  V30 2275 N 212.846 1.57033 -0.133567 0
M  V30 2276 C 214.092 1.95976 0.521649 0
M  V30 2277 C 214.425 1.01779 1.65393 0
M  V30 2278 O 213.7 0.0576581 1.94415 0
M  V30 2279 C 213.983 3.44738 1.04057 0
M  V30 2280 C 213.836 4.49711 -0.0892897 0
M  V30 2281 C 215.155 3.95682 1.92675 0
M  V30 2282 H 212.274 0.712579 0.188149 0
M  V30 2283 H 214.916 1.88813 -0.212076 0
M  V30 2284 H 213.066 3.50973 1.66583 0
M  V30 2285 H 214.738 4.55565 -0.725152 0
M  V30 2286 H 212.981 4.27261 -0.750378 0
M  V30 2287 H 213.652 5.51099 0.315284 0
M  V30 2288 H 216.128 3.91841 1.39998 0
M  V30 2289 H 215.004 5.00262 2.25897 0
M  V30 2290 H 215.265 3.37239 2.85872 0
M  V30 2291 N 214.325 -0.140222 1.56975 0
M  V30 2292 C 215.602 -0.880769 1.74648 0
M  V30 2293 C 215.982 -1.99036 0.703404 0
M  V30 2294 O 215.33 -2.26821 -0.27648 0
M  V30 2295 C 215.54 -1.417 3.18939 0
M  V30 2296 C 216.888 -1.87774 3.80823 0
M  V30 2297 O 217.912 -1.51427 3.2241 0
M  V30 2298 O 216.771 -2.54827 4.83452 0
M  V30 2299 H 213.865 -0.416713 0.714338 0
M  V30 2300 H 216.411 -0.125618 1.69234 0
M  V30 2301 H 215.183 -0.619902 3.86359 0
M  V30 2302 H 214.806 -2.23546 3.28805 0
M  V30 2303 N 215.803 -1.52179 -0.40978 0
M  V30 2304 C 217.033 -1.69807 -1.17682 0
M  V30 2305 C 217.441 -0.406908 -1.84773 0
M  V30 2306 O 216.784 0.626863 -1.72673 0
M  V30 2307 C 216.846 -2.77712 -2.2829 0
M  V30 2308 C 216.51 -4.19481 -1.81341 0
M  V30 2309 C 217.507 -5.03345 -1.30154 0
M  V30 2310 C 215.192 -4.65713 -1.88194 0
M  V30 2311 C 217.186 -6.31511 -0.864416 0
M  V30 2312 C 214.873 -5.93869 -1.44093 0
M  V30 2313 C 215.871 -6.76597 -0.933023 0
M  V30 2314 O 215.559 -8.02354 -0.49838 0
M  V30 2315 H 215.291 -0.572372 -0.359675 0
M  V30 2316 H 217.845 -1.99511 -0.488311 0
M  V30 2317 H 216.075 -2.43383 -3.00502 0
M  V30 2318 H 217.764 -2.83946 -2.90051 0
M  V30 2319 H 218.53 -4.68819 -1.24232 0
M  V30 2320 H 214.409 -4.01424 -2.26671 0
M  V30 2321 H 217.953 -6.96033 -0.467286 0
M  V30 2322 H 213.85 -6.27903 -1.49694 0
M  V30 2323 H 214.618 -8.16135 -0.621747 0
M  V30 2324 N 217.281 0.66697 -1.42791 0
M  V30 2325 C 218.211 1.79218 -1.49677 0
M  V30 2326 C 219.192 1.66405 -0.352623 0
M  V30 2327 O 220.377 1.85708 -0.567993 0
M  V30 2328 C 217.507 3.17565 -1.40605 0
M  V30 2329 C 216.461 3.45124 -2.53127 0
M  V30 2330 C 215.787 4.83127 -2.29112 0
M  V30 2331 C 217.087 3.41236 -3.95418 0
M  V30 2332 H 218.781 1.73713 -2.43853 0
M  V30 2333 H 216.327 0.83432 -1.17367 0
M  V30 2334 H 218.28 3.96022 -1.44029 0
M  V30 2335 H 217.004 3.23767 -0.429271 0
M  V30 2336 H 215.663 2.69031 -2.49034 0
M  V30 2337 H 215.311 4.85988 -1.29709 0
M  V30 2338 H 215.011 5.02528 -3.04531 0
M  V30 2339 H 216.535 5.63859 -2.34297 0
M  V30 2340 H 217.949 4.09651 -4.01073 0
M  V30 2341 H 216.346 3.72173 -4.70752 0
M  V30 2342 H 217.416 2.39665 -4.21532 0
M  V30 2343 N 218.759 1.29093 0.90403 0
M  V30 2344 C 219.984 1.19809 1.69294 0
M  V30 2345 C 220.409 -0.238481 1.86582 0
M  V30 2346 O 219.767 -1.1723 1.383 0
M  V30 2347 C 219.815 1.91202 3.05736 0
M  V30 2348 O 218.919 1.22611 3.93752 0
M  V30 2349 H 218.26 0.415385 0.518027 0
M  V30 2350 H 220.79 1.70586 1.12967 0
M  V30 2351 H 220.8 1.99487 3.55906 0
M  V30 2352 H 219.475 2.95692 2.92471 0
M  V30 2353 H 218.052 1.22554 3.52186 0
M  V30 2354 N 220.237 -1.11381 1.11499 0
M  V30 2355 C 221.465 -1.86934 0.88675 0
M  V30 2356 C 221.88 -1.80195 -0.563476 0
M  V30 2357 O 221.237 -1.18367 -1.38908 0
M  V30 2358 C 221.288 -3.35722 1.34064 0
M  V30 2359 O 221.009 -3.4232 2.73401 0
M  V30 2360 C 222.51 -4.2818 1.14791 0
M  V30 2361 H 219.73 -0.591117 0.317523 0
M  V30 2362 H 222.274 -1.40865 1.48248 0
M  V30 2363 H 220.429 -3.79294 0.788355 0
M  V30 2364 H 220.843 -4.34971 2.93087 0
M  V30 2365 H 222.317 -5.30817 1.5145 0
M  V30 2366 H 222.794 -4.39113 0.0875279 0
M  V30 2367 H 223.4 -3.90402 1.68721 0
M  V30 2368 N 221.715 -0.905404 -1.28997 0
M  V30 2369 C 222.645 -0.404212 -2.29975 0
M  V30 2370 C 223.626 0.523784 -1.61835 0
M  V30 2371 O 224.811 0.433298 -1.89304 0
M  V30 2372 C 221.941 0.364042 -3.45387 0
M  V30 2373 C 220.895 -0.474048 -4.25367 0
M  V30 2374 C 220.221 0.422045 -5.33032 0
M  V30 2375 C 221.521 -1.72696 -4.92923 0
M  V30 2376 H 223.215 -1.24807 -2.72146 0
M  V30 2377 H 220.761 -0.601585 -1.30832 0
M  V30 2378 H 222.714 0.725447 -4.15109 0
M  V30 2379 H 221.438 1.24174 -3.02074 0
M  V30 2380 H 220.097 -0.81786 -3.57361 0
M  V30 2381 H 219.745 1.29804 -4.85963 0
M  V30 2382 H 219.445 -0.135057 -5.87445 0
M  V30 2383 H 220.969 0.779517 -6.05604 0
M  V30 2384 H 222.383 -1.43495 -5.55051 0
M  V30 2385 H 220.78 -2.22582 -5.57295 0
M  V30 2386 H 221.85 -2.45964 -4.17887 0
M  V30 2387 N 223.193 1.4272 -0.668489 0
M  V30 2388 C 224.14 2.30796 0.0137489 0
M  V30 2389 C 225.11 1.4561 0.799177 0
M  V30 2390 O 226.295 1.74453 0.772702 0
M  V30 2391 C 223.435 3.31377 0.963507 0
M  V30 2392 C 222.548 4.31655 0.172569 0
M  V30 2393 C 221.683 5.19312 1.1175 0
M  V30 2394 C 220.722 6.11274 0.317886 0
M  V30 2395 N 219.859 6.91504 1.2152 0
M  V30 2396 H 224.699 2.88585 -0.743161 0
M  V30 2397 H 222.236 1.42154 -0.378226 0
M  V30 2398 H 224.194 3.88214 1.52792 0
M  V30 2399 H 222.824 2.75202 1.68712 0
M  V30 2400 H 221.876 3.76988 -0.508374 0
M  V30 2401 H 223.188 4.96779 -0.448527 0
M  V30 2402 H 222.342 5.80851 1.75206 0
M  V30 2403 H 221.081 4.5435 1.77249 0
M  V30 2404 H 220.086 5.48809 -0.329918 0
M  V30 2405 H 221.311 6.78283 -0.332917 0
M  V30 2406 H 219.257 6.29176 1.85671 0
M  V30 2407 H 219.174 7.53209 0.649036 0
M  V30 2408 H 220.442 7.57535 1.83742 0
M  V30 2409 N 224.671 0.411399 1.52136 0
M  V30 2410 C 226.087 0.0623865 1.59478 0
M  V30 2411 C 226.287 -1.42554 1.4241 0
M  V30 2412 O 225.343 -2.19263 1.2522 0
M  V30 2413 C 226.656 0.559331 2.95452 0
M  V30 2414 C 228.204 0.517503 3.08692 0
M  V30 2415 C 228.679 0.990994 4.4715 0
M  V30 2416 N 230.17 0.947908 4.53397 0
M  V30 2417 C 230.905 1.28544 5.58806 0
M  V30 2418 N 230.401 1.69454 6.71757 0
M  V30 2419 N 232.194 1.20526 5.49026 0
M  V30 2420 H 224.345 1.37982 1.61477 0
M  V30 2421 H 226.608 0.566977 0.759764 0
M  V30 2422 H 226.314 1.59938 3.1323 0
M  V30 2423 H 226.188 -0.0298014 3.77188 0
M  V30 2424 H 228.575 -0.513505 2.90598 0
M  V30 2425 H 228.656 1.14272 2.28857 0
M  V30 2426 H 228.3 2.02034 4.65988 0
M  V30 2427 H 228.23 0.34257 5.25485 0
M  V30 2428 H 230.721 0.647157 3.72317 0
M  V30 2429 H 231.034 1.93513 7.48179 0
M  V30 2430 H 229.379 1.73359 6.73032 0
M  V30 2431 H 232.57 0.884505 4.59667 0
M  V30 2432 H 232.743 1.47161 6.31069 0
M  V30 2433 N 226.149 -1.5696 0.141893 0
M  V30 2434 C 227.426 -1.87553 -0.555281 0
M  V30 2435 C 227.806 -1.04699 -1.83306 0
M  V30 2436 O 227.154 -0.132346 -2.28116 0
M  V30 2437 C 227.364 -3.39093 -0.825664 0
M  V30 2438 C 228.712 -4.08199 -1.16869 0
M  V30 2439 O 229.736 -3.44242 -0.915185 0
M  V30 2440 O 228.595 -5.21139 -1.6455 0
M  V30 2441 H 225.689 -0.777188 -0.282679 0
M  V30 2442 H 228.235 -1.68763 0.17812 0
M  V30 2443 H 227.007 -3.91221 0.0788633 0
M  V30 2444 H 226.63 -3.63393 -1.61343 0
M  V30 2445 N 227.627 0.131896 -1.57047 0
M  V30 2446 C 229.043 0.485031 -1.52051 0
M  V30 2447 C 229.243 1.82563 -0.85281 0
M  V30 2448 O 228.299 2.48817 -0.429694 0
M  V30 2449 C 229.612 0.481409 -2.96821 0
M  V30 2450 C 231.16 0.565868 -3.07842 0
M  V30 2451 C 231.635 0.592762 -4.54148 0
M  V30 2452 N 233.126 0.654564 -4.58552 0
M  V30 2453 C 233.861 0.696608 -5.69153 0
M  V30 2454 N 233.357 0.697078 -6.89284 0
M  V30 2455 N 235.15 0.738639 -5.57226 0
M  V30 2456 H 227.301 -0.746664 -1.98843 0
M  V30 2457 H 229.564 -0.273999 -0.90754 0
M  V30 2458 H 229.27 -0.435731 -3.4899 0
M  V30 2459 H 229.144 1.3139 -3.53577 0
M  V30 2460 H 231.531 1.47343 -2.55684 0
M  V30 2461 H 231.612 -0.29406 -2.54104 0
M  V30 2462 H 231.256 -0.310701 -5.06949 0
M  V30 2463 H 231.186 1.46939 -5.05684 0
M  V30 2464 H 233.677 0.660887 -3.72076 0
M  V30 2465 H 233.99 0.731426 -7.69331 0
M  V30 2466 H 232.335 0.66471 -6.91814 0
M  V30 2467 H 235.526 0.735545 -4.62285 0
M  V30 2468 H 235.699 0.767938 -6.43434 0
M  V30 2469 N 229.106 1.52395 0.401703 0
M  V30 2470 C 230.355 1.66044 1.14509 0
M  V30 2471 C 230.668 0.400216 1.91462 0
M  V30 2472 O 231.874 0.416632 2.68284 0
M  V30 2473 C 230.33 2.93388 2.0845 0
M  V30 2474 C 229.938 4.26545 1.36978 0
M  V30 2475 C 231.682 3.16402 2.83001 0
M  V30 2476 C 229.589 5.45007 2.29611 0
M  V30 2477 H 228.519 0.618562 0.431158 0
M  V30 2478 H 231.17 1.78886 0.40892 0
M  V30 2479 H 229.552 2.74263 2.8565 0
M  V30 2480 H 230.726 4.56179 0.650916 0
M  V30 2481 H 229.041 4.09692 0.74438 0
M  V30 2482 H 231.638 4.02085 3.52465 0
M  V30 2483 H 231.981 2.30943 3.46368 0
M  V30 2484 H 232.514 3.36034 2.12898 0
M  V30 2485 H 229.253 6.32835 1.70879 0
M  V30 2486 H 228.773 5.19702 2.9945 0
M  V30 2487 H 230.452 5.7838 2.89974 0
M  V30 2488 N 230.584 -0.659388 1.43143 0
M  V30 2489 C 232 -0.974337 1.26407 0
M  V30 2490 C 232.2 -2.007 0.179341 0
M  V30 2491 O 231.256 -2.4856 -0.444295 0
M  V30 2492 C 232.569 -1.46447 2.62628 0
M  V30 2493 C 234.117 -1.58144 2.7011 0
M  V30 2494 C 234.592 -2.1055 4.06734 0
M  V30 2495 N 236.083 -2.17861 4.08767 0
M  V30 2496 C 236.818 -2.59519 5.1131 0
M  V30 2497 N 236.314 -3.00518 6.24228 0
M  V30 2498 N 238.107 -2.59404 4.98664 0
M  V30 2499 H 230.258 0.0240528 2.12386 0
M  V30 2500 H 232.521 -0.0518065 0.946583 0
M  V30 2501 H 232.227 -0.780123 3.42939 0
M  V30 2502 H 232.101 -2.44058 2.87603 0
M  V30 2503 H 234.488 -2.25682 1.90136 0
M  V30 2504 H 234.569 -0.589828 2.48907 0
M  V30 2505 H 234.213 -1.43616 4.87172 0
M  V30 2506 H 234.143 -3.10531 4.25298 0
M  V30 2507 H 236.634 -1.88975 3.27257 0
M  V30 2508 H 236.947 -3.31036 6.98309 0
M  V30 2509 H 235.292 -2.98337 6.2771 0
M  V30 2510 H 238.483 -2.26747 4.09516 0
M  V30 2511 H 238.656 -2.91548 5.78709 0
M  V30 2512 N 232.062 -1.29571 -0.897171 0
M  V30 2513 C 233.009 -1.14916 -2.00158 0
M  V30 2514 C 233.979 -0.0418149 -1.66047 0
M  V30 2515 O 235.164 -0.209793 -1.89643 0
M  V30 2516 C 232.304 -0.834307 -3.34863 0
M  V30 2517 C 231.417 -2.02234 -3.8174 0
M  V30 2518 C 230.552 -1.64664 -5.05034 0
M  V30 2519 C 229.591 -2.80033 -5.44286 0
M  V30 2520 N 228.728 -2.42843 -6.58765 0
M  V30 2521 H 233.568 -2.09403 -2.12025 0
M  V30 2522 H 231.105 -1.042 -1.0383 0
M  V30 2523 H 233.063 -0.632436 -4.12379 0
M  V30 2524 H 231.693 0.0736656 -3.22716 0
M  V30 2525 H 230.745 -2.33583 -3.00238 0
M  V30 2526 H 232.057 -2.88673 -4.06779 0
M  V30 2527 H 231.211 -1.4078 -5.9014 0
M  V30 2528 H 229.95 -0.753766 -4.8184 0
M  V30 2529 H 228.955 -3.04596 -4.57713 0
M  V30 2530 H 230.18 -3.69989 -5.6946 0
M  V30 2531 H 228.126 -1.56046 -6.3717 0
M  V30 2532 H 228.043 -3.22815 -6.83613 0
M  V30 2533 H 229.311 -2.22285 -7.47134 0
M  V30 2534 N 233.54 1.10788 -1.12088 0
M  V30 2535 C 234.487 2.17025 -0.785407 0
M  V30 2536 C 235.457 1.64265 0.246191 0
M  V30 2537 O 236.642 1.90412 0.121584 0
M  V30 2538 C 233.782 3.44249 -0.242177 0
M  V30 2539 C 232.895 4.1098 -1.33115 0
M  V30 2540 C 232.03 5.25911 -0.747741 0
M  V30 2541 C 231.069 5.84538 -1.81609 0
M  V30 2542 N 230.206 6.90853 -1.25167 0
M  V30 2543 H 235.046 2.45066 -1.69548 0
M  V30 2544 H 232.583 1.20297 -0.846582 0
M  V30 2545 H 234.541 4.17101 0.0908026 0
M  V30 2546 H 233.171 3.16571 0.631072 0
M  V30 2547 H 232.223 3.36133 -1.78097 0
M  V30 2548 H 233.535 4.50601 -2.13917 0
M  V30 2549 H 232.689 6.056 -0.365216 0
M  V30 2550 H 231.428 4.87614 0.0915188 0
M  V30 2551 H 230.433 5.03522 -2.20785 0
M  V30 2552 H 231.658 6.249 -2.6585 0
M  V30 2553 H 229.604 6.54562 -0.434174 0
M  V30 2554 H 229.521 7.29166 -1.99633 0
M  V30 2555 H 230.789 7.7433 -0.896259 0
M  V30 2556 N 235.018 0.912232 1.28515 0
M  V30 2557 C 235.948 0.416403 2.29757 0
M  V30 2558 C 236.929 -0.515194 1.6211 0
M  V30 2559 O 238.114 -0.423253 1.89532 0
M  V30 2560 C 235.244 -0.34572 3.45575 0
M  V30 2561 C 234.198 0.496599 4.25109 0
M  V30 2562 C 233.524 -0.393771 5.33248 0
M  V30 2563 C 234.824 1.75307 4.92001 0
M  V30 2564 H 236.518 1.26249 2.7148 0
M  V30 2565 H 234.064 0.608515 1.30511 0
M  V30 2566 H 236.017 -0.703422 4.15488 0
M  V30 2567 H 234.741 -1.2257 3.02728 0
M  V30 2568 H 233.4 0.8368 3.56922 0
M  V30 2569 H 233.048 -1.27225 4.86644 0
M  V30 2570 H 232.748 0.166209 5.87365 0
M  V30 2571 H 234.272 -0.747389 6.06009 0
M  V30 2572 H 235.686 1.46437 5.54283 0
M  V30 2573 H 234.083 2.25534 5.56106 0
M  V30 2574 H 235.153 2.48176 4.16577 0
M  V30 2575 N 236.496 -1.42363 0.676048 0
M  V30 2576 C 237.406 -2.346 -0.00153389 0
M  V30 2577 C 238.422 -1.5516 -0.787485 0
M  V30 2578 O 239.598 -1.87723 -0.729521 0
M  V30 2579 C 236.663 -3.33705 -0.940298 0
M  V30 2580 C 235.724 -4.29042 -0.148739 0
M  V30 2581 C 234.957 -5.23413 -1.04279 0
M  V30 2582 O 235.18 -5.22749 -2.28232 0
M  V30 2583 O 234.114 -5.99795 -0.502925 0
M  V30 2584 H 237.94 -2.94082 0.758268 0
M  V30 2585 H 235.525 -1.42888 0.436289 0
M  V30 2586 H 237.407 -3.94586 -1.47917 0
M  V30 2587 H 236.082 -2.76695 -1.67993 0
M  V30 2588 H 234.989 -3.71571 0.43427 0
M  V30 2589 H 236.322 -4.89097 0.551805 0
M  V30 2590 N 237.974 -0.419461 -1.51915 0
M  V30 2591 C 238.921 0.400927 -2.27291 0
M  V30 2592 C 239.891 1.03224 -1.30131 0
M  V30 2593 O 241.076 1.05455 -1.59009 0
M  V30 2594 C 238.216 1.50603 -3.10504 0
M  V30 2595 C 237.329 0.89462 -4.22635 0
M  V30 2596 C 236.464 1.97328 -4.93189 0
M  V30 2597 C 235.503 1.33935 -5.97267 0
M  V30 2598 N 234.64 2.3586 -6.61298 0
M  V30 2599 H 239.48 -0.248251 -2.96964 0
M  V30 2600 H 237.017 -0.134266 -1.46486 0
M  V30 2601 H 238.975 2.15783 -3.57062 0
M  V30 2602 H 237.605 2.12509 -2.42981 0
M  V30 2603 H 236.657 0.131583 -3.80172 0
M  V30 2604 H 237.969 0.391641 -4.9726 0
M  V30 2605 H 237.123 2.70211 -5.43204 0
M  V30 2606 H 235.862 2.50994 -4.18155 0
M  V30 2607 H 234.867 0.595896 -5.46561 0
M  V30 2608 H 236.092 0.810252 -6.74249 0
M  V30 2609 H 234.038 2.88639 -5.89087 0
M  V30 2610 H 233.955 1.90403 -7.3163 0
M  V30 2611 H 235.223 3.08282 -7.15949 0
M  V30 2612 N 239.452 1.56882 -0.150215 0
M  V30 2613 C 240.384 2.14057 0.819286 0
M  V30 2614 C 241.397 1.09082 1.20851 0
M  V30 2615 O 242.586 1.36347 1.15203 0
M  V30 2616 C 239.686 2.65102 2.11127 0
M  V30 2617 C 238.859 3.94511 1.88891 0
M  V30 2618 C 237.918 4.30834 3.02107 0
M  V30 2619 O 236.944 4.99099 2.73659 0
M  V30 2620 N 238.146 3.90676 4.29363 0
M  V30 2621 H 240.911 2.97871 0.330618 0
M  V30 2622 H 238.472 1.61866 0.0332538 0
M  V30 2623 H 240.464 2.86411 2.85921 0
M  V30 2624 H 239.034 1.85994 2.51247 0
M  V30 2625 H 238.254 3.81795 0.981152 0
M  V30 2626 H 239.542 4.7907 1.71376 0
M  V30 2627 H 238.94 3.35677 4.55343 0
M  V30 2628 H 237.497 4.1703 5.00928 0
M  V30 2629 N 240.93 -0.123565 1.57115 0
M  V30 2630 C 241.88 -1.1575 1.96433 0
M  V30 2631 C 242.864 -1.37313 0.838686 0
M  V30 2632 O 244.056 -1.38482 1.10235 0
M  V30 2633 C 241.185 -2.48526 2.36833 0
M  V30 2634 C 240.271 -2.30457 3.5602 0
M  V30 2635 N 240.662 -1.8219 4.71848 0
M  V30 2636 C 238.96 -2.61129 3.61563 0
M  V30 2637 C 239.661 -1.77721 5.53886 0
M  V30 2638 N 238.637 -2.21899 4.96248 0
M  V30 2639 H 242.439 -0.776797 2.83449 0
M  V30 2640 H 239.953 -0.331364 1.58983 0
M  V30 2641 H 241.95 -3.233 2.63216 0
M  V30 2642 H 240.61 -2.87358 1.5118 0
M  V30 2643 H 241.621 -1.51805 4.95152 0
M  V30 2644 H 238.298 -3.03678 2.86507 0
M  V30 2645 H 239.688 -1.41697 6.56789 0
M  V30 2646 N 242.408 -1.52605 -0.393616 0
M  V30 2647 C 243.824 -1.41753 -0.733357 0
M  V30 2648 C 244.024 -0.534293 -1.94287 0
M  V30 2649 O 243.08 -0.0059787 -2.52499 0
M  V30 2650 C 244.393 -2.84531 -0.972772 0
M  V30 2651 C 245.941 -2.93978 -1.07453 0
M  V30 2652 C 246.416 -4.37756 -1.3466 0
M  V30 2653 N 247.907 -4.4106 -1.41492 0
M  V30 2654 C 248.642 -5.49387 -1.642 0
M  V30 2655 N 248.138 -6.67806 -1.8441 0
M  V30 2656 N 249.931 -5.36923 -1.66342 0
M  V30 2657 H 242.082 -2.08555 0.402328 0
M  V30 2658 H 244.345 -0.940654 0.117789 0
M  V30 2659 H 244.051 -3.51353 -0.156204 0
M  V30 2660 H 243.925 -3.26508 -1.88871 0
M  V30 2661 H 246.312 -2.27326 -1.88167 0
M  V30 2662 H 246.393 -2.55435 -0.136605 0
M  V30 2663 H 246.037 -5.04972 -0.544581 0
M  V30 2664 H 245.967 -4.73848 -2.2973 0
M  V30 2665 H 248.458 -3.55705 -1.27601 0
M  V30 2666 H 248.771 -7.46141 -2.01231 0
M  V30 2667 H 247.116 -6.70843 -1.81644 0
M  V30 2668 H 250.307 -4.43381 -1.50102 0
M  V30 2669 H 250.48 -6.21416 -1.837 0
M  V30 2670 N 243.887 0.651787 -1.4349 0
M  V30 2671 C 244.819 1.77725 -1.44729 0
M  V30 2672 C 245.832 1.59141 -0.343231 0
M  V30 2673 O 247.021 1.67835 -0.607751 0
M  V30 2674 C 244.121 3.15172 -1.24579 0
M  V30 2675 C 243.294 3.60402 -2.47849 0
M  V30 2676 C 242.353 4.76656 -2.22902 0
M  V30 2677 O 241.379 4.86022 -2.96263 0
M  V30 2678 N 242.581 5.66958 -1.24656 0
M  V30 2679 H 245.346 1.77141 -2.41746 0
M  V30 2680 H 242.907 0.835678 -1.38665 0
M  V30 2681 H 244.899 3.90634 -1.0577 0
M  V30 2682 H 243.469 3.1052 -0.360015 0
M  V30 2683 H 242.689 2.75369 -2.82073 0
M  V30 2684 H 243.977 3.87368 -3.29884 0
M  V30 2685 H 243.375 5.62065 -0.640265 0
M  V30 2686 H 241.932 6.42135 -1.1183 0
M  V30 2687 N 245.365 1.30045 0.890287 0
M  V30 2688 C 246.297 1.11786 2.00091 0
M  V30 2689 C 247.31 0.0626307 1.62679 0
M  V30 2690 O 248.499 0.308112 1.75821 0
M  V30 2691 C 245.599 0.681527 3.31977 0
M  V30 2692 C 244.772 1.81735 3.97858 0
M  V30 2693 C 243.831 1.37045 5.08041 0
M  V30 2694 O 242.857 2.07677 5.29961 0
M  V30 2695 N 244.059 0.246525 5.79976 0
M  V30 2696 H 246.824 2.07441 2.16306 0
M  V30 2697 H 244.385 1.2211 1.06305 0
M  V30 2698 H 246.377 0.365675 4.03045 0
M  V30 2699 H 244.947 -0.182828 3.12065 0
M  V30 2700 H 244.167 2.30159 3.20032 0
M  V30 2701 H 245.455 2.57865 4.38615 0
M  V30 2702 H 244.853 -0.34215 5.64664 0
M  V30 2703 H 243.41 -0.00990438 6.51799 0
M  V30 2704 N 246.843 -1.10192 1.12674 0
M  V30 2705 C 247.806 -2.14786 0.799979 0
M  V30 2706 C 248.806 -1.59711 -0.18685 0
M  V30 2707 O 249.996 -1.74156 0.0392558 0
M  V30 2708 C 247.128 -3.40374 0.189228 0
M  V30 2709 H 248.321 -2.45203 1.72671 0
M  V30 2710 H 245.874 -1.25597 0.930326 0
M  V30 2711 H 246.609 -3.15577 -0.747107 0
M  V30 2712 H 246.394 -3.81637 0.899766 0
M  V30 2713 H 247.884 -4.17594 -0.0228143 0
M  V30 2714 O 248.36 -1.05067 -1.22651 0
M  V30 2715 H 249.051 -0.726261 -1.79569 0
M  V30 END ATOM
M  V30 BEGIN BOND
M  V30 END BOND
M  V30 END CTAB
M  END
$$$$
