drugbank_target|Q9NS40 Potassium voltage-gated channel subfamily H member 7 (DB00321; DB00590; DB01118)
 OpenBabel12092119373D

  0  0  0     0  0            999 V3000
M  V30 BEGIN CTAB
M  V30 COUNTS 18950 19154 0 0 0
M  V30 BEGIN ATOM
M  V30 1 H -0.908 1.98254 -0.117106 0
M  V30 2 N 0 1.576 0 0
M  V30 3 C 0.933 2.03868 1.02534 0
M  V30 4 C 1.911 0.928543 1.3348 0
M  V30 5 O 3.095 1.19667 1.45644 0
M  V30 6 C 0.222 2.43627 2.35294 0
M  V30 7 C -0.732 3.65373 2.2001 0
M  V30 8 S 0.101 5.13292 1.52614 0
M  V30 9 C 1.257 5.56322 2.86805 0
M  V30 10 H 1.49 2.90518 0.631377 0
M  V30 11 H -0.977 1.52953 0.210867 0
M  V30 12 H 0.981 2.67203 3.11629 0
M  V30 13 H -0.358 1.57376 2.7183 0
M  V30 14 H -1.165 3.90944 3.18086 0
M  V30 15 H -1.563 3.418 1.51819 0
M  V30 16 H 0.729 5.58782 3.83104 0
M  V30 17 H 1.672 6.56266 2.65933 0
M  V30 18 H 2.08 4.83886 2.90714 0
M  V30 19 N 1.4781 -0.272755 1.55222 0
M  V30 20 C 2.8891 -0.84378 1.66545 0
M  V30 21 C 3.2401 -1.87035 0.592641 0
M  V30 22 O 2.3651 -2.14761 -0.265818 0
M  V30 23 C 2.9601 -1.53723 3.01918 0
M  V30 24 C 1.5191 -2.05628 3.15268 0
M  V30 25 C 0.6661 -0.898424 2.62343 0
M  V30 26 H 3.6171 -0.0490998 1.58624 0
M  V30 27 H 3.6381 -2.40421 2.94921 0
M  V30 28 H 3.1501 -0.78983 3.79978 0
M  V30 29 H 1.2511 -2.83329 2.41983 0
M  V30 30 H 1.3641 -2.27142 4.21833 0
M  V30 31 H -0.2719 -1.29186 2.19506 0
M  V30 32 H 0.5111 -0.164528 3.42906 0
M  V30 33 N 2.9562 -1.48159 -0.537278 0
M  V30 34 C 4.2022 -1.56035 -1.29541 0
M  V30 35 C 4.5352 -0.230377 -1.92829 0
M  V30 36 O 3.8102 0.762952 -1.78911 0
M  V30 37 C 4.0932 -2.69323 -2.39034 0
M  V30 38 C 3.9462 -4.12002 -1.80485 0
M  V30 39 C 5.2652 -2.78408 -3.40847 0
M  V30 40 H 2.3842 -0.567992 -0.469632 0
M  V30 41 H 5.0262 -1.80302 -0.599277 0
M  V30 42 H 3.1762 -2.48763 -2.98412 0
M  V30 43 H 4.8482 -4.43981 -1.25215 0
M  V30 44 H 3.0912 -4.19344 -1.11055 0
M  V30 45 H 3.7622 -4.87077 -2.59731 0
M  V30 46 H 6.2382 -2.97012 -2.91416 0
M  V30 47 H 5.1142 -3.59416 -4.14863 0
M  V30 48 H 5.3752 -1.86269 -4.00944 0
M  V30 49 N 4.4343 0.785586 -1.36625 0
M  V30 50 C 5.8503 1.08419 -1.17122 0
M  V30 51 C 6.0503 2.015 0.00208491 0
M  V30 52 O 5.1063 2.43551 0.666278 0
M  V30 53 C 6.4193 1.69498 -2.48377 0
M  V30 54 C 7.9673 1.81821 -2.54775 0
M  V30 55 C 8.4423 2.46315 -3.86126 0
M  V30 56 N 9.9333 2.53779 -3.87492 0
M  V30 57 C 10.6683 3.045 -4.85868 0
M  V30 58 N 10.1643 3.55499 -5.94637 0
M  V30 59 N 11.9573 3.03247 -4.73284 0
M  V30 60 H 4.1083 0.167264 -2.1174 0
M  V30 61 H 6.3713 0.13682 -0.938075 0
M  V30 62 H 6.0773 1.08571 -3.34522 0
M  V30 63 H 5.9513 2.6896 -2.64462 0
M  V30 64 H 8.3383 2.41884 -1.69045 0
M  V30 65 H 8.4193 0.811532 -2.42586 0
M  V30 66 H 8.0633 1.86895 -4.72263 0
M  V30 67 H 7.9933 3.47561 -3.95612 0
M  V30 68 H 10.4843 2.17672 -3.08913 0
M  V30 69 H 10.7973 3.92562 -6.65669 0
M  V30 70 H 9.1423 3.5364 -5.98301 0
M  V30 71 H 12.3333 2.62696 -3.87438 0
M  V30 72 H 12.5063 3.42467 -5.50109 0
M  V30 73 N 5.9124 1.20967 1.01018 0
M  V30 74 C 7.3284 0.965905 1.27053 0
M  V30 75 C 7.5284 -0.350785 1.98423 0
M  V30 76 O 6.5844 -1.07773 2.28344 0
M  V30 77 C 7.8974 2.15294 2.09926 0
M  V30 78 C 9.4454 2.19463 2.23171 0
M  V30 79 C 9.9204 3.3767 3.09424 0
M  V30 80 N 11.4114 3.37724 3.17012 0
M  V30 81 C 12.1464 4.25837 3.83993 0
M  V30 82 N 11.6424 5.24138 4.53047 0
M  V30 83 N 13.4354 4.1366 3.80581 0
M  V30 84 H 5.5864 2.0565 0.531194 0
M  V30 85 H 7.8494 0.90024 0.297106 0
M  V30 86 H 7.5554 3.10684 1.64828 0
M  V30 87 H 7.4294 2.13923 3.10672 0
M  V30 88 H 9.8164 1.24632 2.6749 0
M  V30 89 H 9.8974 2.2488 1.21912 0
M  V30 90 H 9.5414 4.32791 2.65808 0
M  V30 91 H 9.4714 3.29491 4.10784 0
M  V30 92 H 11.9624 2.6658 2.6785 0
M  V30 93 H 12.2754 5.87684 5.01844 0
M  V30 94 H 10.6204 5.28068 4.5185 0
M  V30 95 H 13.8114 3.36127 3.25785 0
M  V30 96 H 13.9844 4.82538 4.32505 0
M  V30 97 N 7.3905 -1.2043 1.01659 0
M  V30 98 C 8.6385 -1.89423 0.704522 0
M  V30 99 C 8.9595 -1.79231 -0.768197 0
M  V30 100 O 8.2295 -1.1947 -1.55254 0
M  V30 101 H 6.8095 -0.701178 0.257602 0
M  V30 102 H 9.4715 -1.4626 1.28818 0
M  V30 103 H 8.5675 -2.96052 0.987916 0
M  V30 104 N 8.8686 -0.792821 -1.36206 0
M  V30 105 C 9.8186 -0.166598 -2.27391 0
M  V30 106 C 10.8026 0.651479 -1.47121 0
M  V30 107 O 11.9946 0.510994 -1.69463 0
M  V30 108 C 9.1236 0.695033 -3.36191 0
M  V30 109 C 8.2096 -0.132019 -4.23894 0
M  V30 110 N 8.6006 -1.18822 -4.91645 0
M  V30 111 C 6.8986 0.0885952 -4.45912 0
M  V30 112 C 7.5996 -1.69198 -5.56549 0
M  V30 113 N 6.5756 -1.00065 -5.34311 0
M  V30 114 H 10.3776 -0.974947 -2.77258 0
M  V30 115 H 7.8916 -0.632616 -1.49572 0
M  V30 116 H 9.8886 1.1596 -4.00448 0
M  V30 117 H 8.5486 1.50189 -2.87877 0
M  V30 118 H 9.5596 -1.57069 -4.93507 0
M  V30 119 H 6.2366 0.865688 -4.08426 0
M  V30 120 H 7.6266 -2.57395 -6.20643 0
M  V30 121 N 10.3467 1.47872 -0.545128 0
M  V30 122 C 11.5927 2.02793 -0.0166104 0
M  V30 123 C 11.9257 1.41987 1.32489 0
M  V30 124 O 11.2007 0.571045 1.85928 0
M  V30 125 C 11.4837 3.59989 0.0893294 0
M  V30 126 C 11.3367 4.3125 -1.27841 0
M  V30 127 C 12.6557 4.32606 0.808724 0
M  V30 128 H 9.7747 0.736962 -0.00751035 0
M  V30 129 H 12.4167 1.76433 -0.705085 0
M  V30 130 H 10.5667 3.82579 0.675681 0
M  V30 131 H 12.2387 4.20035 -1.90704 0
M  V30 132 H 10.4817 3.92076 -1.85632 0
M  V30 133 H 11.1527 5.39736 -1.15713 0
M  V30 134 H 13.6287 4.14936 0.310992 0
M  V30 135 H 12.5047 5.42251 0.851782 0
M  V30 136 H 12.7657 4.00963 1.86229 0
M  V30 137 N 11.8248 0.280983 1.55075 0
M  V30 138 C 12.7878 -0.590896 2.21452 0
M  V30 139 C 13.7878 -1.07682 1.19421 0
M  V30 140 O 14.9778 -0.97605 1.44288 0
M  V30 141 C 12.1098 -1.81587 2.88511 0
M  V30 142 H 13.3028 -0.0112554 2.99898 0
M  V30 143 H 10.8558 0.0316438 1.56268 0
M  V30 144 H 11.5908 -2.43587 2.14093 0
M  V30 145 H 11.3758 -1.4753 3.63287 0
M  V30 146 H 12.8658 -2.43575 3.39206 0
M  V30 147 N 13.3029 -1.57598 0.00835791 0
M  V30 148 C 14.7139 -1.7892 -0.53333 0
M  V30 149 C 15.0649 -0.916609 -1.73473 0
M  V30 150 O 14.1899 -0.121336 -2.1606 0
M  V30 151 C 14.7849 -3.24488 -0.974313 0
M  V30 152 C 13.3439 -3.46878 -1.46125 0
M  V30 153 C 12.4909 -2.74157 -0.416302 0
M  V30 154 H 15.4419 -1.56958 0.234495 0
M  V30 155 H 15.4629 -3.3306 -1.83988 0
M  V30 156 H 14.9749 -3.87972 -0.099718 0
M  V30 157 H 13.0759 -2.8862 -2.35646 0
M  V30 158 H 13.1889 -4.55572 -1.48295 0
M  V30 159 H 11.5529 -2.39022 -0.87981 0
M  V30 160 H 12.3359 -3.40345 0.44947 0
M  V30 161 N 14.781 0.264519 -1.55364 0
M  V30 162 C 15.713 1.34965 -1.85248 0
M  V30 163 C 16.726 1.45136 -0.737525 0
M  V30 164 O 17.915 1.46801 -1.01547 0
M  V30 165 C 15.015 2.73008 -2.00797 0
M  V30 166 C 14.188 2.85324 -3.31525 0
M  V30 167 C 13.247 4.04097 -3.37034 0
M  V30 168 O 12.273 3.94455 -4.10358 0
M  V30 169 N 13.475 5.16458 -2.65049 0
M  V30 170 H 16.24 1.09672 -2.78913 0
M  V30 171 H 13.801 0.454635 -1.55386 0
M  V30 172 H 15.793 3.50772 -2.01844 0
M  V30 173 H 14.363 2.91087 -1.1396 0
M  V30 174 H 13.583 1.94377 -3.42945 0
M  V30 175 H 14.871 2.9049 -4.17724 0
M  V30 176 H 14.269 5.27181 -2.05175 0
M  V30 177 H 12.826 5.92422 -2.71809 0
M  V30 178 N 16.2591 1.48442 0.529413 0
M  V30 179 C 17.2071 1.63452 1.65487 0
M  V30 180 C 18.2011 0.500955 1.61823 0
M  V30 181 O 19.4071 0.679695 1.66674 0
M  V30 182 H 15.7821 0.514905 0.548066 0
M  V30 183 H 17.7531 2.57975 1.49971 0
M  V30 184 C 16.5021 1.69196 3.03756 0
M  V30 185 H 15.8251 2.55784 3.07269 0
M  V30 186 H 17.2651 1.83743 3.82119 0
M  V30 187 C 15.7241 0.430765 3.34135 0
M  V30 188 O 16.2541 -0.4561 3.99102 0
M  V30 189 N 14.4601 0.302293 2.89023 0
M  V30 190 H 14.0071 1.02496 2.36331 0
M  V30 191 H 13.9651 -0.540546 3.09718 0
M  V30 192 N 17.7372 -0.778329 1.37039 0
M  V30 193 C 18.9652 -1.56734 1.35063 0
M  V30 194 C 19.3802 -1.88686 -0.0655597 0
M  V30 195 O 18.7372 -1.5096 -1.02554 0
M  V30 196 C 18.7882 -2.88163 2.18276 0
M  V30 197 O 18.5092 -2.57583 3.54376 0
M  V30 198 C 20.0102 -3.82422 2.24206 0
M  V30 199 H 17.2302 -0.485778 0.462883 0
M  V30 200 H 19.7742 -0.965185 1.8029 0
M  V30 201 H 17.9292 -3.44818 1.76576 0
M  V30 202 H 18.3432 -3.41699 3.97922 0
M  V30 203 H 19.8172 -4.71667 2.86765 0
M  V30 204 H 20.2942 -4.21078 1.24861 0
M  V30 205 H 20.9002 -3.31697 2.6619 0
M  V30 206 N 19.2153 -1.21501 -1.00376 0
M  V30 207 C 20.4623 -1.03299 -1.74171 0
M  V30 208 C 20.7903 0.433326 -1.89612 0
M  V30 209 O 20.0453 1.33779 -1.42834 0
M  V30 210 C 20.3443 -1.67673 -3.15627 0
M  V30 211 C 20.0103 -3.17533 -3.2013 0
M  V30 212 C 18.6723 -3.58427 -3.21067 0
M  V30 213 C 21.0243 -4.13504 -3.17275 0
M  V30 214 C 18.3523 -4.93794 -3.16835 0
M  V30 215 C 20.7043 -5.48834 -3.14585 0
M  V30 216 C 19.3683 -5.89123 -3.13831 0
M  V30 217 H 18.6383 -0.377999 -0.637336 0
M  V30 218 H 21.2853 -1.51111 -1.17634 0
M  V30 219 H 19.5903 -1.12158 -3.75404 0
M  V30 220 H 21.2873 -1.51091 -3.71446 0
M  V30 221 H 17.8773 -2.84965 -3.20145 0
M  V30 222 H 22.0613 -3.82936 -3.15711 0
M  V30 223 H 17.3173 -5.24255 -3.1459 0
M  V30 224 H 21.4913 -6.22934 -3.1133 0
M  V30 225 H 19.1183 -6.93984 -3.10307 0
M  V30 226 N 20.6934 1.19889 -1.02296 0
M  V30 227 C 21.6234 2.25141 -0.619174 0
M  V30 228 C 22.6044 1.66051 0.368915 0
M  V30 229 O 23.7894 1.92546 0.252941 0
M  V30 230 C 20.9194 3.4728 0.0368783 0
M  V30 231 C 19.8734 4.19005 -0.872865 0
M  V30 232 C 19.1994 5.34637 -0.0822402 0
M  V30 233 C 20.4994 4.74452 -2.18387 0
M  V30 234 H 22.1934 2.59171 -1.49903 0
M  V30 235 H 19.7394 1.24579 -0.722222 0
M  V30 236 H 21.6924 4.20098 0.330958 0
M  V30 237 H 20.4164 3.12433 0.95149 0
M  V30 238 H 19.0754 3.48061 -1.15105 0
M  V30 239 H 18.7234 4.96034 0.83422 0
M  V30 240 H 18.4234 5.83557 -0.688149 0
M  V30 241 H 19.9474 6.10255 0.205238 0
M  V30 242 H 21.3614 5.39055 -1.95172 0
M  V30 243 H 19.7584 5.33834 -2.74119 0
M  V30 244 H 20.8284 3.92844 -2.84257 0
M  V30 245 N 22.1715 0.800033 1.35784 0
M  V30 246 C 23.4195 0.376597 1.9856 0
M  V30 247 C 23.7405 -1.05812 1.63795 0
M  V30 248 O 23.0105 -1.73103 0.917171 0
M  V30 249 H 21.5905 0.136261 0.734467 0
M  V30 250 H 24.2525 1.02442 1.65806 0
M  V30 251 H 23.3485 0.477002 3.08433 0
M  V30 252 N 23.6496 -1.47581 0.552962 0
M  V30 253 C 24.8776 -2.06875 0.0320556 0
M  V30 254 C 25.2926 -1.40625 -1.25976 0
M  V30 255 O 24.6496 -0.501349 -1.75479 0
M  V30 256 C 24.7006 -3.61092 -0.17167 0
M  V30 257 O 24.4216 -4.24858 1.06899 0
M  V30 258 C 25.9226 -4.37242 -0.730344 0
M  V30 259 H 23.1426 -0.669561 0.043915 0
M  V30 260 H 25.6866 -1.89646 0.765163 0
M  V30 261 H 23.8416 -3.7785 -0.854894 0
M  V30 262 H 24.2556 -5.17334 0.864059 0
M  V30 263 H 25.7296 -5.45842 -0.822203 0
M  V30 264 H 26.2066 -4.03235 -1.74064 0
M  V30 265 H 26.8126 -4.25219 -0.0829543 0
M  V30 266 N 25.1277 -0.289203 -1.54924 0
M  V30 267 C 26.3767 0.324231 -1.99077 0
M  V30 268 C 26.6897 1.5591 -1.18117 0
M  V30 269 O 27.8957 2.24637 -1.52481 0
M  V30 270 C 26.3517 0.628209 -3.54375 0
M  V30 271 C 25.9597 -0.587647 -4.44129 0
M  V30 272 C 27.7037 1.20349 -4.07083 0
M  V30 273 C 25.6107 -0.257475 -5.90839 0
M  V30 274 H 24.5407 0.124924 -0.743579 0
M  V30 275 H 27.1917 -0.396063 -1.79175 0
M  V30 276 H 25.5737 1.40778 -3.70132 0
M  V30 277 H 26.7477 -1.36418 -4.40144 0
M  V30 278 H 25.0627 -1.08074 -4.0213 0
M  V30 279 H 27.6597 1.46456 -5.14252 0
M  V30 280 H 28.0027 2.14195 -3.56968 0
M  V30 281 H 28.5357 0.485889 -3.94821 0
M  V30 282 H 25.2747 -1.16419 -6.45079 0
M  V30 283 H 24.7947 0.482018 -5.9786 0
M  V30 284 H 26.4737 0.145238 -6.46837 0
M  V30 285 N 26.6058 1.57591 -0.0167156 0
M  V30 286 C 27.8548 1.90461 0.663877 0
M  V30 287 C 28.1678 0.893515 1.73999 0
M  V30 288 O 29.3738 1.11302 2.47637 0
M  V30 289 C 27.8298 3.38155 1.23204 0
M  V30 290 C 27.4378 4.47597 0.189866 0
M  V30 291 C 29.1818 3.80111 1.88986 0
M  V30 292 C 27.0888 5.86379 0.768964 0
M  V30 293 H 26.0188 0.710738 0.251729 0
M  V30 294 H 28.6698 1.83326 -0.0799926 0
M  V30 295 H 27.0518 3.40182 2.02712 0
M  V30 296 H 28.2258 4.57112 -0.581846 0
M  V30 297 H 26.5408 4.14766 -0.368475 0
M  V30 298 H 29.1378 4.81145 2.33247 0
M  V30 299 H 29.4808 3.14511 2.72743 0
M  V30 300 H 30.0138 3.80454 1.16187 0
M  V30 301 H 26.7528 6.55493 -0.0301957 0
M  V30 302 H 26.2728 5.80496 1.50945 0
M  V30 303 H 27.9518 6.34563 1.26251 0
M  V30 304 N 28.0839 -0.256276 1.55502 0
M  V30 305 C 29.4999 -0.604325 1.47716 0
M  V30 306 C 29.6999 -1.88763 0.705039 0
M  V30 307 O 28.7559 -2.51445 0.230613 0
M  V30 308 C 30.0689 -0.715756 2.92057 0
M  V30 309 C 31.6169 -0.808706 3.02372 0
M  V30 310 C 32.0919 -0.951777 4.48001 0
M  V30 311 N 33.5829 -1.01688 4.519 0
M  V30 312 C 34.3179 -1.14668 5.61817 0
M  V30 313 N 33.8139 -1.24261 6.81565 0
M  V30 314 N 35.6069 -1.1791 5.49594 0
M  V30 315 H 27.7579 0.586291 2.04148 0
M  V30 316 H 30.0209 0.201015 0.926443 0
M  V30 317 H 29.7269 0.157027 3.51349 0
M  V30 318 H 29.6009 -1.59071 3.42018 0
M  V30 319 H 31.9879 -1.67195 2.43166 0
M  V30 320 H 32.0689 0.0912063 2.55637 0
M  V30 321 H 31.7129 -0.0931291 5.07815 0
M  V30 322 H 31.6429 -1.86659 4.92408 0
M  V30 323 H 34.1339 -0.954468 3.65648 0
M  V30 324 H 34.4469 -1.34046 7.61086 0
M  V30 325 H 32.7919 -1.21236 6.84344 0
M  V30 326 H 35.9829 -1.10057 4.54978 0
M  V30 327 H 36.1559 -1.27681 6.35296 0
M  V30 328 N 29.562 -1.4872 -0.521534 0
M  V30 329 C 30.509 -1.63871 -1.62527 0
M  V30 330 C 31.479 -0.480559 -1.58996 0
M  V30 331 O 32.664 -0.705085 -1.77294 0
M  V30 332 C 29.804 -1.69227 -3.00759 0
M  V30 333 C 28.917 -2.96207 -3.14461 0
M  V30 334 C 28.052 -2.92671 -4.43303 0
M  V30 335 C 27.091 -4.14318 -4.50563 0
M  V30 336 N 26.228 -4.0881 -5.70805 0
M  V30 337 H 31.068 -2.58123 -1.48918 0
M  V30 338 H 28.605 -1.28 -0.724878 0
M  V30 339 H 30.563 -1.70314 -3.80853 0
M  V30 340 H 29.193 -0.784586 -3.1312 0
M  V30 341 H 28.245 -3.04826 -2.27564 0
M  V30 342 H 29.557 -3.86192 -3.15686 0
M  V30 343 H 28.711 -2.92206 -5.31696 0
M  V30 344 H 27.45 -2.00429 -4.44612 0
M  V30 345 H 26.455 -4.15049 -3.60575 0
M  V30 346 H 27.68 -5.07729 -4.50986 0
M  V30 347 H 25.626 -3.19394 -5.72995 0
M  V30 348 H 25.543 -4.92509 -5.7356 0
M  V30 349 H 26.811 -4.12418 -6.61462 0
M  V30 350 N 31.0401 0.771051 -1.3745 0
M  V30 351 C 32.2871 1.52963 -1.32697 0
M  V30 352 C 32.6151 1.94299 0.0883274 0
M  V30 353 O 31.8701 1.64397 1.0617 0
M  V30 354 C 32.1691 2.80676 -2.2126 0
M  V30 355 C 31.8351 2.58389 -3.69521 0
M  V30 356 C 30.4971 2.52019 -4.09927 0
M  V30 357 C 32.8491 2.38469 -4.63446 0
M  V30 358 C 30.1771 2.23721 -5.42371 0
M  V30 359 C 32.5291 2.11694 -5.96128 0
M  V30 360 C 31.1931 2.03769 -6.35637 0
M  V30 361 H 30.4631 0.559732 -0.485573 0
M  V30 362 H 33.1101 0.888083 -1.69662 0
M  V30 363 H 31.4151 3.49392 -1.77291 0
M  V30 364 H 33.1121 3.38557 -2.14895 0
M  V30 365 H 29.7021 2.6421 -3.37478 0
M  V30 366 H 33.8861 2.4238 -4.33089 0
M  V30 367 H 29.1421 2.16081 -5.71943 0
M  V30 368 H 33.3161 1.9528 -6.6846 0
M  V30 369 H 30.9431 1.81606 -7.38189 0
M  V30 370 N 32.5182 1.22032 0.997298 0
M  V30 371 C 33.4282 1.00271 2.12092 0
M  V30 372 C 34.4442 -0.047621 1.73935 0
M  V30 373 O 35.6202 0.144136 2.00884 0
M  V30 374 C 32.6852 0.578449 3.4184 0
M  V30 375 C 31.7462 1.70189 3.94125 0
M  V30 376 C 30.9792 1.29778 5.17681 0
M  V30 377 O 31.2022 0.174676 5.70132 0
M  V30 378 O 30.1362 2.11261 5.63607 0
M  V30 379 H 33.9622 1.94398 2.3333 0
M  V30 380 H 31.5472 1.00587 1.10465 0
M  V30 381 H 33.4292 0.351998 4.19927 0
M  V30 382 H 32.1042 -0.334019 3.21972 0
M  V30 383 H 31.0112 1.98282 3.1723 0
M  V30 384 H 32.3442 2.59206 4.18417 0
M  V30 385 N 33.9963 -1.19345 1.0293 0
M  V30 386 C 35.2443 -1.88665 0.724574 0
M  V30 387 C 35.5653 -1.80036 -0.749144 0
M  V30 388 O 34.8353 -1.2111 -1.53978 0
M  V30 389 H 33.4153 -0.698406 0.265025 0
M  V30 390 H 36.0773 -1.44885 1.30362 0
M  V30 391 H 35.1733 -2.94987 1.01926 0
M  V30 392 N 35.4744 -0.807222 -1.35358 0
M  V30 393 C 36.4064 -0.175717 -2.28525 0
M  V30 394 C 37.4194 0.625354 -1.5031 0
M  V30 395 O 38.6084 0.457611 -1.72535 0
M  V30 396 C 35.7084 0.773471 -3.29956 0
M  V30 397 C 34.8814 0.0186296 -4.37396 0
M  V30 398 C 33.9404 0.886395 -5.18681 0
M  V30 399 O 32.9664 0.337106 -5.68201 0
M  V30 400 N 34.1684 2.20839 -5.36852 0
M  V30 401 H 36.9334 -0.976091 -2.83359 0
M  V30 402 H 34.4944 -0.662737 -1.47714 0
M  V30 403 H 36.4864 1.35824 -3.81227 0
M  V30 404 H 35.0564 1.47465 -2.75632 0
M  V30 405 H 34.2764 -0.747349 -3.87051 0
M  V30 406 H 35.5644 -0.501577 -5.06322 0
M  V30 407 H 34.9624 2.67858 -4.98265 0
M  V30 408 H 33.5194 2.74237 -5.91301 0
M  V30 409 N 36.9525 1.47285 -0.560781 0
M  V30 410 C 37.9005 2.31756 0.197942 0
M  V30 411 C 38.8945 1.43146 0.905854 0
M  V30 412 O 40.1005 1.59891 0.826733 0
M  V30 413 H 36.4755 0.747438 0.0827049 0
M  V30 414 H 38.4465 2.9359 -0.533629 0
M  V30 415 C 37.1955 3.25874 1.21249 0
M  V30 416 H 36.5185 3.94023 0.67719 0
M  V30 417 H 37.9585 3.87803 1.71419 0
M  V30 418 C 36.4175 2.49651 2.26221 0
M  V30 419 O 36.9475 2.24355 3.33208 0
M  V30 420 N 35.1535 2.10597 2.00243 0
M  V30 421 H 34.7005 2.31369 1.13252 0
M  V30 422 H 34.6585 1.59913 2.70694 0
M  V30 423 N 38.4306 0.297415 1.54768 0
M  V30 424 C 39.3776 -0.580276 2.23386 0
M  V30 425 C 40.3476 -1.13238 1.21517 0
M  V30 426 O 41.5326 -1.17757 1.50126 0
M  V30 427 C 38.6726 -1.74801 2.97555 0
M  V30 428 C 37.7856 -1.22764 4.1419 0
M  V30 429 C 36.9206 -2.35895 4.75949 0
M  V30 430 C 35.9596 -1.80974 5.84735 0
M  V30 431 N 35.0966 -2.87664 6.40464 0
M  V30 432 H 39.9366 0.0114833 2.97998 0
M  V30 433 H 37.4736 0.0174361 1.4709 0
M  V30 434 H 39.4316 -2.43475 3.38786 0
M  V30 435 H 38.0616 -2.31145 2.25326 0
M  V30 436 H 37.1136 -0.433271 3.77924 0
M  V30 437 H 38.4256 -0.785551 4.92575 0
M  V30 438 H 37.5796 -3.12523 5.20014 0
M  V30 439 H 36.3186 -2.83429 3.96887 0
M  V30 440 H 35.3236 -1.02834 5.40097 0
M  V30 441 H 36.5486 -1.34348 6.65678 0
M  V30 442 H 34.4946 -3.34538 5.64287 0
M  V30 443 H 34.4116 -2.4794 7.14186 0
M  V30 444 H 35.6796 -3.642 6.89187 0
M  V30 445 N 39.9087 -1.5758 0.0250728 0
M  V30 446 C 40.8557 -2.09973 -0.958129 0
M  V30 447 C 41.8257 -1.00085 -1.3256 0
M  V30 448 O 43.0107 -1.27481 -1.41962 0
M  V30 449 C 40.1507 -2.62812 -2.2366 0
M  V30 450 C 39.2637 -3.86693 -1.92594 0
M  V30 451 C 38.3987 -4.27941 -3.14707 0
M  V30 452 C 37.4377 -5.44591 -2.79442 0
M  V30 453 N 36.5747 -5.81014 -3.94167 0
M  V30 454 H 41.4147 -2.937 -0.504428 0
M  V30 455 H 38.9517 -1.45172 -0.237392 0
M  V30 456 H 40.9097 -2.91536 -2.98434 0
M  V30 457 H 39.5397 -1.81922 -2.66654 0
M  V30 458 H 38.5917 -3.64723 -1.0808 0
M  V30 459 H 39.9037 -4.71547 -1.62619 0
M  V30 460 H 39.0577 -4.58079 -3.97804 0
M  V30 461 H 37.7967 -3.41845 -3.4784 0
M  V30 462 H 36.8017 -5.1415 -1.94755 0
M  V30 463 H 38.0267 -6.32382 -2.47528 0
M  V30 464 H 35.9727 -4.97874 -4.2715 0
M  V30 465 H 35.8897 -6.60498 -3.67801 0
M  V30 466 H 37.1577 -6.15756 -4.7798 0
M  V30 467 N 41.3868 0.248026 -1.55636 0
M  V30 468 C 42.6338 0.976224 -1.77415 0
M  V30 469 C 42.9618 1.85361 -0.589193 0
M  V30 470 O 42.2168 1.90973 0.427529 0
M  V30 471 C 42.5158 1.86819 -3.04686 0
M  V30 472 C 42.1818 1.14625 -4.36087 0
M  V30 473 C 40.8438 0.946723 -4.71795 0
M  V30 474 C 43.1958 0.634463 -5.17324 0
M  V30 475 C 40.5238 0.223091 -5.86276 0
M  V30 476 C 42.8758 -0.0756959 -6.32555 0
M  V30 477 C 41.5398 -0.286711 -6.66884 0
M  V30 478 H 40.8098 0.357226 -0.649208 0
M  V30 479 H 43.4568 0.246415 -1.89908 0
M  V30 480 H 41.7618 2.66502 -2.872 0
M  V30 481 H 43.4588 2.43329 -3.18735 0
M  V30 482 H 40.0488 1.3117 -4.08035 0
M  V30 483 H 44.2328 0.77616 -4.90193 0
M  V30 484 H 39.4888 0.0491185 -6.1138 0
M  V30 485 H 43.6628 -0.479899 -6.94745 0
M  V30 486 H 41.2898 -0.849389 -7.5544 0
M  V30 487 N 42.8649 1.48995 0.513639 0
M  V30 488 C 44.1139 1.57093 1.2651 0
M  V30 489 C 44.4269 0.257091 1.93903 0
M  V30 490 O 45.6329 0.216478 2.70636 0
M  V30 491 C 44.0889 2.77118 2.29638 0
M  V30 492 C 43.6969 4.15209 1.68241 0
M  V30 493 C 45.4409 2.94538 3.05692 0
M  V30 494 C 43.3479 5.26474 2.69406 0
M  V30 495 H 42.2779 0.584876 0.475854 0
M  V30 496 H 44.9289 1.7536 0.540487 0
M  V30 497 H 43.3109 2.52319 3.05207 0
M  V30 498 H 44.4849 4.50094 0.987505 0
M  V30 499 H 42.7999 4.03042 1.04623 0
M  V30 500 H 45.3969 3.74832 3.8132 0
M  V30 501 H 45.7399 2.04614 3.62545 0
M  V30 502 H 46.2729 3.19316 2.37238 0
M  V30 503 H 43.0119 6.18417 2.17351 0
M  V30 504 H 42.5319 4.96058 3.37175 0
M  V30 505 H 44.2109 5.55277 3.32078 0
M  V30 506 N 44.343 -0.763751 1.37857 0
M  V30 507 C 45.592 -1.51789 1.32827 0
M  V30 508 C 45.905 -1.95426 -0.0823719 0
M  V30 509 O 47.111 -2.70298 -0.255172 0
M  V30 510 C 45.567 -2.74133 2.33193 0
M  V30 511 C 45.175 -2.37562 3.79827 0
M  V30 512 C 46.919 -3.52054 2.37188 0
M  V30 513 C 44.826 -3.56456 4.71904 0
M  V30 514 H 43.756 -0.569896 0.493695 0
M  V30 515 H 46.407 -0.835822 1.63359 0
M  V30 516 H 44.789 -3.4427 1.9569 0
M  V30 517 H 45.963 -1.75157 4.26212 0
M  V30 518 H 44.278 -1.72798 3.78853 0
M  V30 519 H 46.875 -4.40437 3.03182 0
M  V30 520 H 47.218 -3.92486 1.38782 0
M  V30 521 H 47.751 -2.88921 2.7344 0
M  V30 522 H 44.49 -3.21099 5.71468 0
M  V30 523 H 44.01 -4.17938 4.30218 0
M  V30 524 H 45.689 -4.23168 4.89426 0
M  V30 525 N 45.8211 -1.22559 -0.990812 0
M  V30 526 C 46.7841 -0.998863 -2.0629 0
M  V30 527 C 47.7841 0.0354834 -1.60761 0
M  V30 528 O 48.9741 -0.203231 -1.7301 0
M  V30 529 C 46.1061 -0.509203 -3.37076 0
M  V30 530 H 47.2991 -1.95014 -2.27837 0
M  V30 531 H 44.8521 -1.04456 -1.16269 0
M  V30 532 H 45.5871 0.446335 -3.21214 0
M  V30 533 H 45.3721 -1.25547 -3.71457 0
M  V30 534 H 46.8621 -0.370888 -4.1595 0
M  V30 535 N 47.2992 1.18797 -1.03562 0
M  V30 536 C 48.2472 2.24297 -0.615905 0
M  V30 537 C 49.2412 1.65643 0.354808 0
M  V30 538 O 50.4472 1.78618 0.22265 0
M  V30 539 H 46.8222 0.729909 -0.180934 0
M  V30 540 H 48.7932 2.5701 -1.5162 0
M  V30 541 C 47.5422 3.47698 0.0104735 0
M  V30 542 H 46.8652 3.93125 -0.727509 0
M  V30 543 H 48.3052 4.23159 0.266995 0
M  V30 544 C 46.7642 3.12489 1.25905 0
M  V30 545 O 47.2942 3.25761 2.35038 0
M  V30 546 N 45.5002 2.6686 1.15039 0
M  V30 547 H 45.0472 2.56261 0.262328 0
M  V30 548 H 45.0052 2.43674 1.98672 0
M  V30 549 N 48.7773 0.814389 1.34928 0
M  V30 550 C 49.7403 0.235759 2.27984 0
M  V30 551 C 50.7403 -0.581412 1.49921 0
M  V30 552 O 51.9303 -0.398758 1.69575 0
M  V30 553 C 49.0623 -0.670433 3.34242 0
M  V30 554 H 50.2553 1.05659 2.80671 0
M  V30 555 H 47.8083 0.585614 1.44915 0
M  V30 556 H 48.5433 -1.51466 2.86755 0
M  V30 557 H 48.3283 -0.0860822 3.92005 0
M  V30 558 H 49.8183 -1.06935 4.03676 0
M  V30 559 N 50.2554 -1.46986 0.568584 0
M  V30 560 C 51.6714 -1.57946 0.229189 0
M  V30 561 C 51.8714 -1.56567 -1.26843 0
M  V30 562 O 50.9274 -1.47511 -2.04931 0
M  V30 563 C 52.2404 -2.87963 0.865909 0
M  V30 564 C 53.7884 -3.01568 0.838188 0
M  V30 565 C 54.2634 -4.34301 1.45419 0
M  V30 566 N 55.7544 -4.40965 1.41788 0
M  V30 567 C 56.4894 -5.42256 1.86403 0
M  V30 568 N 55.9854 -6.50297 2.38926 0
M  V30 569 N 57.7784 -5.3337 1.77405 0
M  V30 570 H 49.9294 -1.46126 1.54146 0
M  V30 571 H 52.1924 -0.696156 0.643484 0
M  V30 572 H 51.8984 -2.94742 1.91886 0
M  V30 573 H 51.7724 -3.75423 0.365687 0
M  V30 574 H 54.1594 -2.94379 -0.206106 0
M  V30 575 H 54.2404 -2.1562 1.37629 0
M  V30 576 H 53.8844 -4.42247 2.49761 0
M  V30 577 H 53.8144 -5.19 0.891435 0
M  V30 578 H 56.3054 -3.63484 1.03381 0
M  V30 579 H 56.6184 -7.23777 2.70863 0
M  V30 580 H 54.9634 -6.51155 2.42944 0
M  V30 581 H 58.1544 -4.47865 1.3614 0
M  V30 582 H 58.3274 -6.12169 2.12492 0
M  V30 583 N 51.7335 -0.305618 -1.54608 0
M  V30 584 C 52.9795 0.302746 -2.00528 0
M  V30 585 C 53.3125 1.53184 -1.19367 0
M  V30 586 O 52.5875 1.92598 -0.271321 0
M  V30 587 C 52.8705 0.654756 -3.54097 0
M  V30 588 C 52.7235 -0.583793 -4.45995 0
M  V30 589 C 54.0425 1.47947 -4.14487 0
M  V30 590 H 51.1615 0.108564 -0.72896 0
M  V30 591 H 53.8035 -0.418634 -1.85331 0
M  V30 592 H 51.9535 1.26935 -3.67178 0
M  V30 593 H 53.6255 -1.22224 -4.44814 0
M  V30 594 H 51.8685 -1.21615 -4.16404 0
M  V30 595 H 52.5395 -0.293287 -5.5122 0
M  V30 596 H 55.0155 0.96013 -4.04871 0
M  V30 597 H 53.8915 1.69454 -5.22088 0
M  V30 598 H 54.1525 2.47011 -3.66658 0
M  V30 599 N 53.2116 1.57565 -0.0334293 0
M  V30 600 C 54.1436 2.0739 0.975811 0
M  V30 601 C 55.1566 0.998166 1.2861 0
M  V30 602 O 56.3456 1.27426 1.25 0
M  V30 603 C 53.4456 2.4871 2.30209 0
M  V30 604 C 52.6186 3.79413 2.17634 0
M  V30 605 C 51.6776 4.07237 3.33233 0
M  V30 606 O 50.7036 4.77425 3.09927 0
M  V30 607 N 51.9056 3.5775 4.5716 0
M  V30 608 H 54.6706 2.94598 0.55066 0
M  V30 609 H 52.2316 1.61173 0.15323 0
M  V30 610 H 54.2236 2.64413 3.06378 0
M  V30 611 H 52.7936 1.66845 2.64351 0
M  V30 612 H 52.0136 3.73465 1.26165 0
M  V30 613 H 53.3016 4.65038 2.0644 0
M  V30 614 H 52.6996 3.00976 4.78989 0
M  V30 615 H 51.2566 3.78724 5.30482 0
M  V30 616 N 54.6897 -0.239769 1.55765 0
M  V30 617 C 55.6377 -1.31668 1.91745 0
M  V30 618 C 56.6317 -1.49462 0.797338 0
M  V30 619 O 57.8377 -1.50852 0.982021 0
M  V30 620 H 54.2127 -0.441048 0.609082 0
M  V30 621 H 56.1837 -0.985923 2.81642 0
M  V30 622 C 54.9327 -2.66368 2.2348 0
M  V30 623 H 54.2557 -2.53478 3.09175 0
M  V30 624 H 55.6957 -3.40578 2.52553 0
M  V30 625 C 54.1547 -3.20002 1.05359 0
M  V30 626 O 54.6847 -4.00538 0.305261 0
M  V30 627 N 52.8907 -2.78126 0.842292 0
M  V30 628 H 52.4377 -2.12742 1.45253 0
M  V30 629 H 52.3957 -3.14354 0.053652 0
M  V30 630 N 56.1678 -1.49265 -0.50573 0
M  V30 631 C 57.4078 -1.60128 -1.27038 0
M  V30 632 C 57.7718 -0.279557 -1.89954 0
M  V30 633 O 58.9728 -0.263329 -2.67507 0
M  V30 634 C 57.2438 -2.72507 -2.31246 0
M  V30 635 S 58.8028 -3.0329 -3.17113 0
M  V30 636 H 55.6208 -0.564863 -0.4318 0
M  V30 637 H 58.2228 -1.86902 -0.573397 0
M  V30 638 H 56.9268 -3.67068 -1.83546 0
M  V30 639 H 56.4578 -2.4771 -3.05619 0
M  V30 640 H 58.4728 -2.44448 -4.31809 0
M  V30 641 N 57.6459 0.756429 -1.3826 0
M  V30 642 C 58.6089 1.85176 -1.35065 0
M  V30 643 C 59.6089 1.58818 -0.251703 0
M  V30 644 O 60.7989 1.66615 -0.508433 0
M  V30 645 C 57.9309 3.22596 -1.10201 0
M  V30 646 H 59.1239 1.89417 -2.3251 0
M  V30 647 H 56.6769 0.95783 -1.23512 0
M  V30 648 H 57.4119 3.24025 -0.133504 0
M  V30 649 H 57.1969 3.43122 -1.89762 0
M  V30 650 H 58.6869 4.02673 -1.10654 0
M  V30 651 N 59.124 1.23083 0.984299 0
M  V30 652 C 60.373 1.05466 1.71929 0
M  V30 653 C 60.686 -0.409211 1.91272 0
M  V30 654 O 61.892 -0.705226 2.62181 0
M  V30 655 C 60.348 1.83874 3.09384 0
M  V30 656 C 59.956 3.34566 2.97943 0
M  V30 657 C 61.7 1.74734 3.8687 0
M  V30 658 C 59.607 4.05381 4.30605 0
M  V30 659 H 58.537 0.391039 0.644674 0
M  V30 660 H 61.188 1.47013 1.09815 0
M  V30 661 H 59.57 1.35131 3.72231 0
M  V30 662 H 60.744 3.90767 2.44209 0
M  V30 663 H 59.059 3.44476 2.33934 0
M  V30 664 H 61.656 2.24957 4.85076 0
M  V30 665 H 61.999 0.709372 4.10212 0
M  V30 666 H 62.532 2.21067 3.30717 0
M  V30 667 H 59.271 5.09467 4.1246 0
M  V30 668 H 58.791 3.53967 4.84218 0
M  V30 669 H 60.47 4.11458 4.99311 0
M  V30 670 N 60.6021 -1.18246 1.0419 0
M  V30 671 C 61.8511 -1.87588 0.741194 0
M  V30 672 C 62.1641 -1.81303 -0.734066 0
M  V30 673 O 63.3701 -2.46019 -1.14834 0
M  V30 674 C 61.8261 -3.36538 1.27555 0
M  V30 675 C 61.4341 -3.51349 2.77953 0
M  V30 676 C 63.1781 -4.11273 1.05143 0
M  V30 677 C 61.0851 -4.94265 3.2474 0
M  V30 678 H 60.0151 -0.702622 0.273565 0
M  V30 679 H 62.6661 -1.33601 1.25789 0
M  V30 680 H 61.0481 -3.9 0.686703 0
M  V30 681 H 62.2221 -3.08153 3.42605 0
M  V30 682 H 60.5371 -2.90022 2.98791 0
M  V30 683 H 63.1341 -5.16689 1.37611 0
M  V30 684 H 63.4771 -4.16298 -0.0112774 0
M  V30 685 H 64.0101 -3.63987 1.60495 0
M  V30 686 H 60.7491 -4.94408 4.30396 0
M  V30 687 H 60.2691 -5.38172 2.64823 0
M  V30 688 H 61.9481 -5.62987 3.18834 0
M  V30 689 N 62.0802 -0.821533 -1.34494 0
M  V30 690 C 63.3102 -0.421272 -2.02259 0
M  V30 691 C 63.7182 0.977047 -1.6202 0
M  V30 692 O 63.0612 1.64348 -0.820703 0
M  V30 693 C 63.1232 -0.44231 -3.56769 0
M  V30 694 C 62.7872 -1.79372 -4.20327 0
M  V30 695 C 63.7842 -2.75435 -4.40944 0
M  V30 696 C 61.4692 -2.08182 -4.57127 0
M  V30 697 C 63.4632 -3.98482 -4.97484 0
M  V30 698 C 61.1502 -3.31489 -5.13379 0
M  V30 699 C 62.1482 -4.26457 -5.33501 0
M  V30 700 O 61.8362 -5.47585 -5.88562 0
M  V30 701 H 61.5682 -0.167473 -0.654927 0
M  V30 702 H 64.1222 -1.11073 -1.72777 0
M  V30 703 H 62.3522 0.303836 -3.85505 0
M  V30 704 H 64.0412 -0.0622925 -4.05852 0
M  V30 705 H 64.8072 -2.54473 -4.12878 0
M  V30 706 H 60.6862 -1.35066 -4.4077 0
M  V30 707 H 64.2302 -4.72618 -5.13106 0
M  V30 708 H 60.1272 -3.52316 -5.40873 0
M  V30 709 H 60.8952 -5.49086 -6.06998 0
M  V30 710 N 63.5583 1.46682 -0.576371 0
M  V30 711 C 64.7983 2.04306 -0.0621356 0
M  V30 712 C 65.1623 1.4389 1.2712 0
M  V30 713 O 66.3633 1.92675 1.87429 0
M  V30 714 C 64.6343 3.57399 0.00927922 0
M  V30 715 S 66.1933 4.36309 0.466859 0
M  V30 716 H 63.0113 0.710167 -0.0344016 0
M  V30 717 H 65.6133 1.79807 -0.767437 0
M  V30 718 H 64.3173 3.98889 -0.965178 0
M  V30 719 H 63.8483 3.86424 0.737547 0
M  V30 720 H 65.8633 4.6533 1.72287 0
M  V30 721 N 65.0364 0.313813 1.54444 0
M  V30 722 C 65.9844 -0.572171 2.25453 0
M  V30 723 C 66.9784 -1.12657 1.2651 0
M  V30 724 O 68.1844 -1.07573 1.44319 0
M  V30 725 H 64.5594 -0.203146 0.724041 0
M  V30 726 H 66.5304 0.0491145 2.9836 0
M  V30 727 C 65.2794 -1.72626 3.0182 0
M  V30 728 H 64.6024 -1.30891 3.77767 0
M  V30 729 H 66.0424 -2.32199 3.54767 0
M  V30 730 C 64.5014 -2.63806 2.09542 0
M  V30 731 O 65.0314 -3.65256 1.67185 0
M  V30 732 N 63.2374 -2.31824 1.75232 0
M  V30 733 H 62.7844 -1.49368 2.09873 0
M  V30 734 H 62.7424 -2.93095 1.13767 0
M  V30 735 N 66.5145 -1.57545 0.0417849 0
M  V30 736 C 67.7915 -1.83642 -0.673433 0
M  V30 737 C 68.1715 -0.928298 -1.89594 0
M  V30 738 O 67.5195 0.0129955 -2.28496 0
M  V30 739 C 67.7295 -3.33155 -1.03964 0
M  V30 740 C 69.0775 -3.99941 -1.42592 0
M  V30 741 O 70.1015 -3.37725 -1.13226 0
M  V30 742 O 68.9605 -5.09619 -1.9736 0
M  V30 743 H 66.0545 -0.757638 -0.331533 0
M  V30 744 H 68.6005 -1.69554 0.070433 0
M  V30 745 H 67.3725 -3.9093 -0.170098 0
M  V30 746 H 66.9955 -3.52396 -1.84126 0
M  V30 747 N 67.9926 0.231505 -1.5589 0
M  V30 748 C 69.2406 0.955461 -1.78088 0
M  V30 749 C 69.5616 1.85262 -0.608533 0
M  V30 750 O 68.8316 1.92277 0.375035 0
M  V30 751 H 67.4116 0.355787 -0.656829 0
M  V30 752 H 70.0736 0.245751 -1.93344 0
M  V30 753 H 69.1696 1.56814 -2.69844 0
M  V30 754 N 69.4707 1.49531 0.497807 0
M  V30 755 C 70.7177 1.59179 1.25173 0
M  V30 756 C 71.0457 0.279932 1.92475 0
M  V30 757 O 70.3007 -0.732383 1.81479 0
M  V30 758 C 70.5997 2.70252 2.33878 0
M  V30 759 C 70.2657 4.11644 1.84012 0
M  V30 760 C 68.9277 4.50121 1.70132 0
M  V30 761 C 71.2797 5.00121 1.46725 0
M  V30 762 C 68.6077 5.74845 1.17348 0
M  V30 763 C 70.9597 6.25366 0.95392 0
M  V30 764 C 69.6237 6.6267 0.801538 0
M  V30 765 H 68.8937 0.582478 0.45804 0
M  V30 766 H 71.5407 1.83373 0.551948 0
M  V30 767 H 69.8457 2.40041 3.09657 0
M  V30 768 H 71.5427 2.74925 2.9192 0
M  V30 769 H 68.1327 3.81274 1.95775 0
M  V30 770 H 72.3167 4.71048 1.56294 0
M  V30 771 H 67.5727 6.02444 1.04264 0
M  V30 772 H 71.7467 6.93301 0.656225 0
M  V30 773 H 69.3737 7.59197 0.390351 0
M  V30 774 N 70.9488 -0.749086 1.3866 0
M  V30 775 C 72.1888 -1.52112 1.36534 0
M  V30 776 C 72.5528 -1.91951 -0.0432316 0
M  V30 777 O 73.7538 -2.68132 -0.189396 0
M  V30 778 C 72.0248 -2.73704 2.29828 0
M  V30 779 S 73.5838 -3.63519 2.45763 0
M  V30 780 H 70.4018 -0.520482 0.484375 0
M  V30 781 H 73.0038 -0.878963 1.74627 0
M  V30 782 H 71.7078 -2.42552 3.31054 0
M  V30 783 H 71.2388 -3.4286 1.929 0
M  V30 784 H 73.2538 -4.66712 1.68505 0
M  V30 785 N 72.4269 -1.23603 -0.977757 0
M  V30 786 C 73.3369 -1.03632 -2.1047 0
M  V30 787 C 74.3529 0.0199435 -1.73989 0
M  V30 788 O 75.5289 -0.176076 -2.00629 0
M  V30 789 C 72.5939 -0.63276 -3.40877 0
M  V30 790 C 71.6549 -1.76437 -3.91367 0
M  V30 791 C 70.8879 -1.37997 -5.15551 0
M  V30 792 O 71.1109 -0.265357 -5.69782 0
M  V30 793 O 70.0449 -2.20201 -5.60174 0
M  V30 794 H 73.8709 -1.98086 -2.30208 0
M  V30 795 H 71.4559 -1.02332 -1.08851 0
M  V30 796 H 73.3379 -0.418761 -4.19314 0
M  V30 797 H 72.0129 0.282754 -3.22463 0
M  V30 798 H 70.9199 -2.03304 -3.14036 0
M  V30 799 H 72.2529 -2.6583 -4.14241 0
M  V30 800 N 73.905 1.17692 -1.04816 0
M  V30 801 C 74.838 2.20436 -0.590173 0
M  V30 802 C 75.816 1.58115 0.379244 0
M  V30 803 O 77 1.86228 0.291762 0
M  V30 804 C 74.127 3.38424 0.136817 0
M  V30 805 C 73.173 4.19176 -0.787023 0
M  V30 806 S 74.006 4.84815 -2.27409 0
M  V30 807 C 75.162 6.06195 -1.55817 0
M  V30 808 H 75.395 2.58944 -1.46067 0
M  V30 809 H 72.928 1.28246 -0.859784 0
M  V30 810 H 74.886 4.06798 0.550076 0
M  V30 811 H 73.547 2.98312 0.983299 0
M  V30 812 H 72.74 5.03499 -0.224681 0
M  V30 813 H 72.342 3.56219 -1.13947 0
M  V30 814 H 74.634 6.72078 -0.855387 0
M  V30 815 H 75.577 6.6695 -2.37873 0
M  V30 816 H 75.985 5.54701 -1.04722 0
M  V30 817 N 75.3831 0.828654 1.34056 0
M  V30 818 C 76.6111 0.43262 2.02326 0
M  V30 819 C 77.0261 -0.963147 1.62385 0
M  V30 820 O 76.3831 -1.62425 0.832121 0
M  V30 821 C 76.4341 0.53182 3.57567 0
M  V30 822 O 76.1551 1.87258 3.96063 0
M  V30 823 C 77.6561 0.131422 4.43105 0
M  V30 824 H 74.8761 0.172923 0.648335 0
M  V30 825 H 77.4201 1.1184 1.71208 0
M  V30 826 H 75.5751 -0.105938 3.87255 0
M  V30 827 H 75.9891 1.85087 4.90758 0
M  V30 828 H 77.4631 0.251904 5.51425 0
M  V30 829 H 77.9401 -0.925645 4.29335 0
M  V30 830 H 78.5461 0.743207 4.18756 0
M  V30 831 N 76.8612 -1.46375 0.584142 0
M  V30 832 C 78.1092 -2.01978 0.0701287 0
M  V30 833 C 78.4302 -1.4579 -1.295 0
M  V30 834 O 77.7002 -0.64314 -1.85042 0
M  V30 835 H 76.2802 -0.746648 0.0229345 0
M  V30 836 H 78.9422 -1.79461 0.760245 0
M  V30 837 H 78.0382 -3.121 0.0022064 0
M  V30 838 N 78.3393 -0.321999 -1.54275 0
M  V30 839 C 79.5863 0.281044 -2.0054 0
M  V30 840 C 79.9143 1.52265 -1.21019 0
M  V30 841 O 79.1693 1.93687 -0.279982 0
M  V30 842 C 79.4683 0.661769 -3.5122 0
M  V30 843 C 79.1343 -0.480482 -4.48333 0
M  V30 844 C 77.7963 -0.794005 -4.74604 0
M  V30 845 C 80.1483 -1.24783 -5.06042 0
M  V30 846 C 77.4763 -1.87763 -5.55844 0
M  V30 847 C 79.8283 -2.32153 -5.88462 0
M  V30 848 C 78.4923 -2.64089 -6.13036 0
M  V30 849 H 77.7623 0.102841 -0.733829 0
M  V30 850 H 80.4093 -0.445453 -1.86247 0
M  V30 851 H 78.7143 1.46867 -3.63232 0
M  V30 852 H 80.4113 1.13989 -3.84457 0
M  V30 853 H 77.0013 -0.226039 -4.28004 0
M  V30 854 H 81.1853 -1.01887 -4.85729 0
M  V30 855 H 76.4413 -2.12954 -5.73115 0
M  V30 856 H 80.6153 -2.92057 -6.32199 0
M  V30 857 H 78.2423 -3.48185 -6.75775 0
M  V30 858 N 79.8174 1.5752 -0.0501392 0
M  V30 859 C 81.0424 1.97376 0.636997 0
M  V30 860 C 81.4674 0.927466 1.63645 0
M  V30 861 O 80.8254 -0.10941 1.8097 0
M  V30 862 C 80.8734 3.36304 1.30123 0
M  V30 863 O 79.9774 3.34156 2.41689 0
M  V30 864 H 79.3184 0.642998 0.165679 0
M  V30 865 H 81.8484 2.04258 -0.118233 0
M  V30 866 H 81.8584 3.73008 1.65315 0
M  V30 867 H 80.5334 4.11993 0.568746 0
M  V30 868 H 79.1104 3.09196 2.08451 0
M  V30 869 N 81.2955 -0.223234 1.56011 0
M  V30 870 C 82.7115 -0.572856 1.48965 0
M  V30 871 C 82.9115 -1.87225 0.74492 0
M  V30 872 O 81.9675 -2.50899 0.283896 0
M  V30 873 C 83.2805 -0.653646 2.9351 0
M  V30 874 C 84.8285 -0.744386 3.0402 0
M  V30 875 C 85.3035 -0.856535 4.49919 0
M  V30 876 N 86.7945 -0.9208 4.53955 0
M  V30 877 C 87.5295 -1.02726 5.64123 0
M  V30 878 N 87.0255 -1.09777 6.84047 0
M  V30 879 N 88.8185 -1.06226 5.51971 0
M  V30 880 H 80.9695 0.629462 2.02858 0
M  V30 881 H 83.2325 0.220621 0.921971 0
M  V30 882 H 82.9385 0.231518 3.50937 0
M  V30 883 H 82.8125 -1.51781 3.45315 0
M  V30 884 H 85.1995 -1.61999 2.46658 0
M  V30 885 H 85.2805 0.14541 2.55386 0
M  V30 886 H 84.9245 0.0146069 5.07898 0
M  V30 887 H 84.8545 -1.76172 4.96257 0
M  V30 888 H 87.3455 -0.876694 3.6759 0
M  V30 889 H 87.6585 -1.17872 7.63758 0
M  V30 890 H 86.0035 -1.06693 6.86762 0
M  V30 891 H 89.1945 -1.00382 4.5721 0
M  V30 892 H 89.3675 -1.14177 6.37862 0
M  V30 893 N 82.7736 -1.49793 -0.48987 0
M  V30 894 C 84.1846 -1.52914 -1.07118 0
M  V30 895 C 84.5356 -0.321738 -1.93544 0
M  V30 896 O 83.6606 0.567338 -2.08831 0
M  V30 897 C 84.2556 -2.771 -1.94938 0
M  V30 898 C 82.8146 -2.82963 -2.48212 0
M  V30 899 C 81.9616 -2.46972 -1.26096 0
M  V30 900 H 84.9126 -1.56329 -0.273289 0
M  V30 901 H 84.9336 -2.57892 -2.79771 0
M  V30 902 H 84.4456 -3.64959 -1.32009 0
M  V30 903 H 82.5466 -1.99411 -3.14748 0
M  V30 904 H 82.6596 -3.85406 -2.84603 0
M  V30 905 H 81.0236 -1.98994 -1.58976 0
M  V30 906 H 81.8066 -3.37118 -0.648581 0
M  V30 907 N 84.2517 0.741722 -1.39055 0
M  V30 908 C 85.5287 1.49252 -1.26425 0
M  V30 909 C 85.9087 2.10705 0.129144 0
M  V30 910 O 85.2567 1.98045 1.13976 0
M  V30 911 C 85.4667 2.54934 -2.38347 0
M  V30 912 C 86.8147 3.21506 -2.77343 0
M  V30 913 O 87.8387 2.65245 -2.37747 0
M  V30 914 O 86.6977 4.23294 -3.45665 0
M  V30 915 H 83.7917 0.662451 -0.495064 0
M  V30 916 H 86.3377 0.776121 -1.50912 0
M  V30 917 H 85.1097 2.07857 -3.31529 0
M  V30 918 H 84.7327 3.34141 -2.15489 0
M  V30 919 N 85.7298 1.2412 0.971189 0
M  V30 920 C 86.9758 1.08041 1.71625 0
M  V30 921 C 87.3088 -0.380407 1.90438 0
M  V30 922 O 86.5838 -1.28127 1.46334 0
M  V30 923 C 86.8668 1.81682 3.10908 0
M  V30 924 C 86.7198 3.35493 2.99608 0
M  V30 925 C 88.0388 1.58671 4.10501 0
M  V30 926 H 85.1578 0.39388 0.622919 0
M  V30 927 H 87.7998 1.52743 1.13003 0
M  V30 928 H 85.9498 1.43684 3.60953 0
M  V30 929 H 87.6218 3.83068 2.57015 0
M  V30 930 H 85.8648 3.64052 2.35899 0
M  V30 931 H 86.5358 3.82217 3.98264 0
M  V30 932 H 89.0118 1.91719 3.69301 0
M  V30 933 H 87.8878 2.1266 5.06031 0
M  V30 934 H 88.1488 0.524161 4.38982 0
M  V30 935 N 87.2079 -1.17134 1.05439 0
M  V30 936 C 88.1409 -2.2012 0.601855 0
M  V30 937 C 89.1189 -1.58314 -0.370854 0
M  V30 938 O 90.3029 -1.8638 -0.281882 0
M  V30 939 C 87.4299 -3.38491 -0.118868 0
M  V30 940 C 86.4759 -4.18752 0.809242 0
M  V30 941 S 87.3089 -4.83602 2.29977 0
M  V30 942 C 88.4649 -6.0536 1.59029 0
M  V30 943 H 88.6979 -2.58165 1.47438 0
M  V30 944 H 86.2309 -1.27788 0.866573 0
M  V30 945 H 88.1889 -4.07084 -0.528495 0
M  V30 946 H 86.8499 -2.98829 -0.967465 0
M  V30 947 H 86.0429 -5.03373 0.251379 0
M  V30 948 H 85.6449 -3.5561 1.15835 0
M  V30 949 H 87.9369 -6.71615 0.891017 0
M  V30 950 H 88.8799 -6.65679 2.41407 0
M  V30 951 H 89.2879 -5.54138 1.07663 0
M  V30 952 N 88.686 -0.835752 -1.33615 0
M  V30 953 C 89.618 -0.224151 -2.28101 0
M  V30 954 C 90.631 0.593331 -1.51603 0
M  V30 955 O 91.82 0.420911 -1.73466 0
M  V30 956 C 88.92 0.703309 -3.31522 0
M  V30 957 C 88.093 -0.0741528 -4.37337 0
M  V30 958 C 87.152 0.776176 -5.20444 0
M  V30 959 O 86.178 0.216506 -5.68788 0
M  V30 960 N 87.38 2.09401 -5.41416 0
M  V30 961 H 90.145 -1.03598 -2.81225 0
M  V30 962 H 87.706 -0.69392 -1.46275 0
M  V30 963 H 89.698 1.27707 -3.84022 0
M  V30 964 H 88.268 1.41585 -2.78698 0
M  V30 965 H 87.488 -0.82928 -3.85378 0
M  V30 966 H 88.776 -0.608863 -5.05144 0
M  V30 967 H 88.174 2.57229 -5.03835 0
M  V30 968 H 86.731 2.61633 -5.96985 0
M  V30 969 N 90.1641 1.46063 -0.591896 0
M  V30 970 C 91.1111 2.30399 0.136069 0
M  V30 971 C 92.0811 1.41169 0.875238 0
M  V30 972 O 93.2661 1.70112 0.86409 0
M  V30 973 C 90.4061 3.25804 1.13781 0
M  V30 974 C 89.5191 4.30134 0.401137 0
M  V30 975 C 88.6541 5.12659 1.39121 0
M  V30 976 C 87.6931 6.0873 0.641462 0
M  V30 977 N 86.8301 6.8409 1.58004 0
M  V30 978 H 91.6701 2.92118 -0.589144 0
M  V30 979 H 89.2071 1.43959 -0.302342 0
M  V30 980 H 91.1651 3.79569 1.73156 0
M  V30 981 H 89.7951 2.65872 1.83062 0
M  V30 982 H 88.8471 3.79152 -0.307826 0
M  V30 983 H 90.1591 4.98458 -0.184565 0
M  V30 984 H 89.3131 5.70747 2.05749 0
M  V30 985 H 88.0521 4.44316 2.01084 0
M  V30 986 H 87.0571 5.49786 -0.0385419 0
M  V30 987 H 88.2821 6.79095 0.0270945 0
M  V30 988 H 86.2281 6.18449 2.18761 0
M  V30 989 H 86.1451 7.48709 1.04738 0
M  V30 990 H 87.4131 7.4673 2.23639 0
M  V30 991 N 91.6422 0.330177 1.54103 0
M  V30 992 C 93.0532 -0.15652 1.86043 0
M  V30 993 C 93.4042 -1.51086 1.2517 0
M  V30 994 O 92.5292 -2.09023 0.560217 0
M  V30 995 C 93.1242 -0.290784 3.3755 0
M  V30 996 C 91.6832 -0.721705 3.69416 0
M  V30 997 C 90.8302 0.152622 2.7688 0
M  V30 998 H 93.7812 0.550237 1.48856 0
M  V30 999 H 93.8022 -1.12058 3.63625 0
M  V30 1000 H 93.3142 0.695068 3.81825 0
M  V30 1001 H 91.4152 -1.71706 3.30678 0
M  V30 1002 H 91.5282 -0.520869 4.7626 0
M  V30 1003 H 89.8922 -0.372894 2.51956 0
M  V30 1004 H 90.6752 1.13536 3.23982 0
M  V30 1005 N 93.1203 -1.57491 0.0584922 0
M  V30 1006 C 94.3603 -1.94851 -0.617458 0
M  V30 1007 C 94.7243 -0.937165 -1.67575 0
M  V30 1008 O 95.9253 -1.19795 -2.40629 0
M  V30 1009 C 94.1963 -3.36955 -1.19147 0
M  V30 1010 S 95.7553 -3.96277 -1.8844 0
M  V30 1011 H 92.5733 -0.681539 -0.202547 0
M  V30 1012 H 95.1753 -1.95073 0.129176 0
M  V30 1013 H 93.8793 -4.08355 -0.409215 0
M  V30 1014 H 93.4103 -3.40245 -1.97476 0
M  V30 1015 H 95.4253 -3.82099 -3.16568 0
M  V30 1016 N 94.5984 0.214957 -1.56127 0
M  V30 1017 C 95.8264 0.955092 -1.83536 0
M  V30 1018 C 96.2414 1.77677 -0.638472 0
M  V30 1019 O 95.5984 1.78219 0.392968 0
M  V30 1020 C 95.6494 1.86734 -3.09536 0
M  V30 1021 O 95.3704 1.07887 -4.24608 0
M  V30 1022 C 96.8714 2.72082 -3.4998 0
M  V30 1023 H 94.0914 0.279611 -0.609966 0
M  V30 1024 H 96.6354 0.228197 -2.03223 0
M  V30 1025 H 94.7904 2.5481 -2.91806 0
M  V30 1026 H 95.2044 1.69872 -4.9623 0
M  V30 1027 H 96.6784 3.31782 -4.41163 0
M  V30 1028 H 97.1554 3.44806 -2.7204 0
M  V30 1029 H 97.7614 2.09409 -3.70173 0
M  V30 1030 N 96.0765 1.50051 0.48192 0
M  V30 1031 C 97.3165 1.62128 1.24474 0
M  V30 1032 C 97.6805 0.309742 1.89485 0
M  V30 1033 O 98.8815 0.305854 2.67054 0
M  V30 1034 C 97.1525 2.76151 2.26882 0
M  V30 1035 S 98.7115 3.08297 3.12247 0
M  V30 1036 H 95.5295 0.571661 0.422759 0
M  V30 1037 H 98.1315 1.87791 0.54359 0
M  V30 1038 H 96.8355 3.69942 1.77683 0
M  V30 1039 H 96.3665 2.52541 3.0164 0
M  V30 1040 H 98.3815 2.51287 4.27866 0
M  V30 1041 N 97.5546 -0.734337 1.39446 0
M  V30 1042 C 98.8316 -1.48579 1.27215 0
M  V30 1043 C 99.2116 -2.1077 -0.117968 0
M  V30 1044 O 98.5596 -1.98646 -1.12924 0
M  V30 1045 C 98.7696 -2.53667 2.39696 0
M  V30 1046 C 100.118 -3.20031 2.79044 0
M  V30 1047 O 101.142 -2.6398 2.39151 0
M  V30 1048 O 100.001 -4.21455 3.47905 0
M  V30 1049 H 97.0946 -0.659816 0.49857 0
M  V30 1050 H 99.6406 -0.768106 1.51322 0
M  V30 1051 H 98.4126 -2.06096 3.32626 0
M  V30 1052 H 98.0356 -3.32994 2.17258 0
M  V30 1053 N 99.0327 -1.24633 -0.964593 0
M  V30 1054 C 100.28 -1.08788 -1.70796 0
M  V30 1055 C 100.608 0.372783 -1.90894 0
M  V30 1056 O 99.8627 1.29167 -1.47018 0
M  V30 1057 C 100.162 -1.7763 -3.10133 0
M  V30 1058 C 99.8277 -3.27557 -3.09866 0
M  V30 1059 C 98.4897 -3.6846 -3.09501 0
M  V30 1060 C 100.842 -4.23389 -3.03959 0
M  V30 1061 C 98.1697 -5.03624 -3.00965 0
M  V30 1062 C 100.522 -5.58565 -2.96965 0
M  V30 1063 C 99.1857 -5.98809 -2.9493 0
M  V30 1064 H 98.4557 -0.398084 -0.624988 0
M  V30 1065 H 101.103 -1.54777 -1.12767 0
M  V30 1066 H 99.4077 -1.24044 -3.71645 0
M  V30 1067 H 101.105 -1.62832 -3.66451 0
M  V30 1068 H 97.6947 -2.95006 -3.10917 0
M  V30 1069 H 101.879 -3.92787 -3.03368 0
M  V30 1070 H 97.1347 -5.33998 -2.97752 0
M  V30 1071 H 101.309 -6.32523 -2.91354 0
M  V30 1072 H 98.9357 -7.03505 -2.88071 0
M  V30 1073 N 100.511 1.16574 -1.06058 0
M  V30 1074 C 101.441 2.23057 -0.690488 0
M  V30 1075 C 102.422 1.67141 0.315901 0
M  V30 1076 O 103.607 1.93253 0.191556 0
M  V30 1077 C 100.737 3.47222 -0.073625 0
M  V30 1078 C 99.6908 4.16016 -1.00573 0
M  V30 1079 C 99.0168 5.34104 -0.252289 0
M  V30 1080 C 100.317 4.67264 -2.33371 0
M  V30 1081 H 102.011 2.54271 -1.58072 0
M  V30 1082 H 99.5568 1.22218 -0.76149 0
M  V30 1083 H 101.51 4.20939 0.19714 0
M  V30 1084 H 100.234 3.15302 0.85161 0
M  V30 1085 H 98.8928 3.44223 -1.2612 0
M  V30 1086 H 98.5408 4.98437 0.675988 0
M  V30 1087 H 98.2408 5.81072 -0.873455 0
M  V30 1088 H 99.7648 6.10599 0.0109857 0
M  V30 1089 H 101.179 5.32573 -2.12223 0
M  V30 1090 H 99.5758 5.24843 -2.90963 0
M  V30 1091 H 100.646 3.83602 -2.96611 0
M  V30 1092 N 101.989 0.842826 1.3317 0
M  V30 1093 C 102.939 0.250877 2.26616 0
M  V30 1094 C 103.923 -0.596427 1.49437 0
M  V30 1095 O 105.115 -0.447747 1.71243 0
M  V30 1096 C 102.244 -0.569779 3.38539 0
M  V30 1097 C 101.33 0.289254 4.23112 0
M  V30 1098 N 101.721 1.36987 4.86897 0
M  V30 1099 C 100.019 0.0769631 4.45934 0
M  V30 1100 C 100.72 1.89737 5.49886 0
M  V30 1101 N 99.6959 1.19827 5.30229 0
M  V30 1102 H 103.498 1.07718 2.73448 0
M  V30 1103 H 101.012 0.687693 1.47121 0
M  V30 1104 H 103.009 -1.01018 4.04476 0
M  V30 1105 H 101.669 -1.39401 2.93253 0
M  V30 1106 H 102.68 1.75277 4.87338 0
M  V30 1107 H 99.3569 -0.713507 4.11358 0
M  V30 1108 H 100.747 2.80253 6.10662 0
M  V30 1109 N 103.467 -1.45747 0.599634 0
M  V30 1110 C 104.715 -2.01893 0.0915472 0
M  V30 1111 C 105.036 -1.47155 -1.27946 0
M  V30 1112 O 104.306 -0.66273 -1.84349 0
M  V30 1113 H 102.886 -0.746363 0.0308524 0
M  V30 1114 H 105.548 -1.78645 0.779237 0
M  V30 1115 H 104.644 -3.1208 0.0353086 0
M  V30 1116 N 104.945 -0.338344 -1.53925 0
M  V30 1117 C 106.356 0.146651 -1.86123 0
M  V30 1118 C 106.707 1.5042 -1.2597 0
M  V30 1119 O 105.832 2.08723 -0.571294 0
M  V30 1120 C 106.427 0.272879 -3.37699 0
M  V30 1121 C 104.986 0.702103 -3.69794 0
M  V30 1122 C 104.133 -0.167304 -2.76795 0
M  V30 1123 H 107.084 -0.558123 -1.48562 0
M  V30 1124 H 107.105 1.10128 -3.64214 0
M  V30 1125 H 106.617 -0.715307 -3.81451 0
M  V30 1126 H 104.718 1.6995 -3.31584 0
M  V30 1127 H 104.831 0.495604 -4.7653 0
M  V30 1128 H 103.195 0.359527 -2.5215 0
M  V30 1129 H 103.978 -1.15253 -3.23375 0
M  V30 1130 N 106.423 1.57458 -0.0668435 0
M  V30 1131 C 107.333 2.15937 0.916975 0
M  V30 1132 C 108.349 1.12123 1.33058 0
M  V30 1133 O 109.525 1.44366 1.40429 0
M  V30 1134 C 106.59 2.70547 2.16807 0
M  V30 1135 C 105.651 3.89215 1.81135 0
M  V30 1136 C 104.884 4.41211 3.0028 0
M  V30 1137 O 105.107 3.92225 4.14144 0
M  V30 1138 O 104.041 5.32605 2.80384 0
M  V30 1139 H 107.867 3.00354 0.449561 0
M  V30 1140 H 105.452 1.48584 0.155949 0
M  V30 1141 H 107.334 3.0557 2.90181 0
M  V30 1142 H 106.009 1.89192 2.62656 0
M  V30 1143 H 104.916 3.59054 1.05028 0
M  V30 1144 H 106.249 4.71848 1.40073 0
M  V30 1145 N 107.901 -0.206675 1.56239 0
M  V30 1146 C 109.129 -0.945345 1.8404 0
M  V30 1147 C 109.544 -1.77336 0.647885 0
M  V30 1148 O 108.901 -1.78425 -0.383511 0
M  V30 1149 C 108.952 -1.8509 3.10522 0
M  V30 1150 O 108.673 -1.05634 4.25174 0
M  V30 1151 C 110.174 -2.70222 3.51418 0
M  V30 1152 H 107.394 -0.276372 0.61144 0
M  V30 1153 H 109.938 -0.217417 2.03341 0
M  V30 1154 H 108.093 -2.53259 2.93153 0
M  V30 1155 H 108.507 -1.67238 4.97124 0
M  V30 1156 H 109.981 -3.29438 4.42916 0
M  V30 1157 H 110.458 -3.43358 2.73864 0
M  V30 1158 H 111.064 -2.07443 3.71278 0
M  V30 1159 N 109.379 -1.50304 -0.473955 0
M  V30 1160 C 110.326 -1.68959 -1.57231 0
M  V30 1161 C 111.296 -0.530899 -1.57387 0
M  V30 1162 O 112.481 -0.761133 -1.74961 0
M  V30 1163 C 109.621 -1.7871 -2.95223 0
M  V30 1164 C 108.734 -3.06061 -3.04878 0
M  V30 1165 C 107.869 -3.06626 -4.33767 0
M  V30 1166 C 106.908 -4.28443 -4.37154 0
M  V30 1167 N 106.045 -4.26763 -5.5751 0
M  V30 1168 H 110.885 -2.6273 -1.40631 0
M  V30 1169 H 108.422 -1.30241 -0.683789 0
M  V30 1170 H 110.38 -1.82344 -3.75242 0
M  V30 1171 H 109.01 -0.883806 -3.10465 0
M  V30 1172 H 108.062 -3.11911 -2.17751 0
M  V30 1173 H 109.374 -3.96039 -3.0324 0
M  V30 1174 H 108.528 -3.08973 -5.22131 0
M  V30 1175 H 107.267 -2.14473 -4.3801 0
M  V30 1176 H 106.272 -4.2631 -3.47188 0
M  V30 1177 H 107.497 -5.2182 -4.34605 0
M  V30 1178 H 105.443 -3.37462 -5.62544 0
M  V30 1179 H 105.36 -5.10507 -5.57601 0
M  V30 1180 H 106.628 -4.33253 -6.48006 0
M  V30 1181 N 110.857 0.726932 -1.39834 0
M  V30 1182 C 112.273 1.03354 -1.21615 0
M  V30 1183 C 112.473 2.01327 -0.08338 0
M  V30 1184 O 111.529 2.46158 0.56238 0
M  V30 1185 C 112.842 1.58811 -2.55342 0
M  V30 1186 C 114.39 1.70851 -2.62257 0
M  V30 1187 C 114.865 2.29716 -3.96225 0
M  V30 1188 N 116.356 2.37116 -3.97907 0
M  V30 1189 C 117.091 2.83619 -4.98345 0
M  V30 1190 N 116.587 3.29958 -6.09179 0
M  V30 1191 N 118.38 2.82901 -4.8572 0
M  V30 1192 H 110.531 0.0773069 -2.12259 0
M  V30 1193 H 112.794 0.0969102 -0.943034 0
M  V30 1194 H 112.5 0.942855 -3.38826 0
M  V30 1195 H 112.374 2.57502 -2.75632 0
M  V30 1196 H 114.761 2.34497 -1.79152 0
M  V30 1197 H 114.842 0.707913 -2.45809 0
M  V30 1198 H 114.486 1.66696 -4.79765 0
M  V30 1199 H 114.416 3.30469 -4.09997 0
M  V30 1200 H 116.907 2.04374 -3.17868 0
M  V30 1201 H 117.22 3.63976 -6.8172 0
M  V30 1202 H 115.565 3.27946 -6.12761 0
M  V30 1203 H 118.756 2.46027 -3.98231 0
M  V30 1204 H 118.929 3.18827 -5.6414 0
M  V30 1205 N 112.336 1.25143 0.95797 0
M  V30 1206 C 113.286 1.01924 2.0395 0
M  V30 1207 C 114.27 -0.0427175 1.60843 0
M  V30 1208 O 115.462 0.17221 1.7616 0
M  V30 1209 C 112.591 0.636373 3.3735 0
M  V30 1210 C 111.677 1.73492 3.8699 0
M  V30 1211 N 112.068 2.96945 4.0946 0
M  V30 1212 C 110.366 1.61467 4.15746 0
M  V30 1213 C 111.067 3.68228 4.50315 0
M  V30 1214 N 110.043 2.95833 4.56053 0
M  V30 1215 H 113.845 1.95653 2.19311 0
M  V30 1216 H 111.359 1.15413 1.14253 0
M  V30 1217 H 113.356 0.451233 4.14451 0
M  V30 1218 H 112.016 -0.293621 3.2337 0
M  V30 1219 H 113.027 3.33025 3.96629 0
M  V30 1220 H 109.704 0.753394 4.10646 0
M  V30 1221 H 111.094 4.74178 4.76031 0
M  V30 1222 N 113.814 -1.1601 1.06675 0
M  V30 1223 C 115.091 -1.82679 0.699114 0
M  V30 1224 C 115.471 -1.94559 -0.819137 0
M  V30 1225 O 114.819 -1.49169 -1.73092 0
M  V30 1226 C 115.029 -3.19445 1.40555 0
M  V30 1227 C 116.377 -3.95171 1.55323 0
M  V30 1228 O 117.401 -3.28976 1.36577 0
M  V30 1229 O 116.26 -5.13833 1.86112 0
M  V30 1230 H 113.354 -0.788954 0.247951 0
M  V30 1231 H 115.9 -1.23179 1.16726 0
M  V30 1232 H 114.672 -3.05856 2.44065 0
M  V30 1233 H 114.295 -3.86625 0.927733 0
M  V30 1234 N 115.292 -0.849877 -1.32721 0
M  V30 1235 C 116.541 -0.447175 -1.96681 0
M  V30 1236 C 116.854 1.00135 -1.68025 0
M  V30 1237 O 118.06 1.50926 -2.25685 0
M  V30 1238 C 116.516 -0.7487 -3.52026 0
M  V30 1239 C 116.124 -2.21264 -3.89546 0
M  V30 1240 C 117.868 -0.413487 -4.22481 0
M  V30 1241 C 115.775 -2.45763 -5.37917 0
M  V30 1242 H 114.705 -0.163486 -0.736063 0
M  V30 1243 H 117.356 -1.03999 -1.51183 0
M  V30 1244 H 115.738 -0.0853727 -3.95908 0
M  V30 1245 H 116.912 -2.91736 -3.56689 0
M  V30 1246 H 115.227 -2.5119 -3.32103 0
M  V30 1247 H 117.824 -0.574017 -5.3161 0
M  V30 1248 H 118.167 0.644492 -4.11281 0
M  V30 1249 H 118.7 -1.03251 -3.84167 0
M  V30 1250 H 115.439 -3.50168 -5.54132 0
M  V30 1251 H 114.959 -1.79864 -5.72197 0
M  V30 1252 H 116.638 -2.29471 -6.0494 0
M  V30 1253 N 116.77 1.45427 -0.607355 0
M  V30 1254 C 117.733 2.28974 0.101693 0
M  V30 1255 C 118.733 1.39754 0.795329 0
M  V30 1256 O 119.923 1.61878 0.643527 0
M  V30 1257 C 117.055 3.20768 1.15414 0
M  V30 1258 H 118.248 2.93147 -0.632844 0
M  V30 1259 H 115.801 1.51945 -0.366391 0
M  V30 1260 H 116.536 2.61395 1.91945 0
M  V30 1261 H 116.321 3.86489 0.66098 0
M  V30 1262 H 117.811 3.83589 1.65073 0
M  V30 1263 N 118.248 0.346503 1.53744 0
M  V30 1264 C 119.18 -0.543316 2.22667 0
M  V30 1265 C 120.193 -1.06159 1.23427 0
M  V30 1266 O 121.382 -0.971235 1.49764 0
M  V30 1267 C 118.482 -1.76076 2.89569 0
M  V30 1268 C 117.655 -1.37727 4.15151 0
M  V30 1269 C 116.714 -2.45471 4.65436 0
M  V30 1270 O 115.74 -2.08655 5.29577 0
M  V30 1271 N 116.942 -3.7677 4.41616 0
M  V30 1272 H 119.707 0.0469703 2.99663 0
M  V30 1273 H 117.268 0.170766 1.60997 0
M  V30 1274 H 119.26 -2.47593 3.20125 0
M  V30 1275 H 117.83 -2.25835 2.16142 0
M  V30 1276 H 117.05 -0.492746 3.91108 0
M  V30 1277 H 118.338 -1.09708 4.96832 0
M  V30 1278 H 117.736 -4.09467 3.90325 0
M  V30 1279 H 116.293 -4.44448 4.7677 0
M  V30 1280 N 119.726 -1.57421 0.075193 0
M  V30 1281 C 120.975 -1.92794 -0.592731 0
M  V30 1282 C 121.288 -0.957478 -1.70563 0
M  V30 1283 O 122.494 -1.20417 -2.43335 0
M  V30 1284 C 120.95 -3.42495 -1.10569 0
M  V30 1285 C 120.558 -4.47994 -0.0236121 0
M  V30 1286 C 122.302 -3.86864 -1.74748 0
M  V30 1287 C 120.209 -5.88829 -0.550803 0
M  V30 1288 H 119.139 -0.719591 -0.225177 0
M  V30 1289 H 121.79 -1.82902 0.147978 0
M  V30 1290 H 120.172 -3.47471 -1.89947 0
M  V30 1291 H 121.346 -4.54637 0.751099 0
M  V30 1292 H 119.661 -4.13113 0.522159 0
M  V30 1293 H 122.258 -4.8947 -2.15229 0
M  V30 1294 H 122.601 -3.24417 -2.60882 0
M  V30 1295 H 123.134 -3.84504 -1.01986 0
M  V30 1296 H 119.873 -6.54929 0.273457 0
M  V30 1297 H 119.393 -5.85698 -1.29296 0
M  V30 1298 H 121.072 -6.38811 -1.02613 0
M  V30 1299 N 121.204 0.198386 -1.56346 0
M  V30 1300 C 122.167 1.22952 -1.93431 0
M  V30 1301 C 123.167 1.38611 -0.815092 0
M  V30 1302 O 124.357 1.36479 -1.08255 0
M  V30 1303 C 121.489 2.59946 -2.20546 0
M  V30 1304 H 122.682 0.912626 -2.85677 0
M  V30 1305 H 120.235 0.43977 -1.49986 0
M  V30 1306 H 120.97 2.96696 -1.30927 0
M  V30 1307 H 120.755 2.49953 -3.02102 0
M  V30 1308 H 122.245 3.3431 -2.50253 0
M  V30 1309 N 122.682 1.50554 0.465978 0
M  V30 1310 C 123.614 1.65949 1.58093 0
M  V30 1311 C 124.627 0.540827 1.53554 0
M  V30 1312 O 125.816 0.814187 1.5885 0
M  V30 1313 C 122.916 1.63261 2.96983 0
M  V30 1314 C 122.089 2.91245 3.26336 0
M  V30 1315 C 121.148 2.8113 4.44806 0
M  V30 1316 O 120.174 3.55086 4.44862 0
M  V30 1317 N 121.376 1.95032 5.46756 0
M  V30 1318 H 124.141 2.62122 1.45301 0
M  V30 1319 H 121.702 1.48082 0.65448 0
M  V30 1320 H 123.694 1.54101 3.74212 0
M  V30 1321 H 122.264 0.748032 3.03518 0
M  V30 1322 H 121.484 3.14493 2.37672 0
M  V30 1323 H 122.772 3.76022 3.42761 0
M  V30 1324 H 122.17 1.3427 5.49534 0
M  V30 1325 H 120.727 1.91772 6.2295 0
M  V30 1326 N 124.16 -0.719506 1.40217 0
M  V30 1327 C 125.123 -1.8153 1.39927 0
M  V30 1328 C 126.123 -1.58095 0.293723 0
M  V30 1329 O 127.313 -1.65209 0.552429 0
M  V30 1330 C 124.445 -3.19561 1.18716 0
M  V30 1331 H 125.638 -1.83186 2.37451 0
M  V30 1332 H 123.191 -0.924746 1.26008 0
M  V30 1333 H 123.926 -3.23557 0.219366 0
M  V30 1334 H 123.711 -3.3797 1.98793 0
M  V30 1335 H 125.201 -3.99598 1.21291 0
M  V30 1336 N 125.638 -1.25649 -0.95132 0
M  V30 1337 C 126.568 -1.08808 -2.06599 0
M  V30 1338 C 127.549 0.00382547 -1.701 0
M  V30 1339 O 128.734 -0.166325 -1.93486 0
M  V30 1340 C 125.864 -0.709542 -3.39975 0
M  V30 1341 C 124.818 -1.75206 -3.90496 0
M  V30 1342 C 124.144 -1.22811 -5.20405 0
M  V30 1343 C 125.444 -3.15153 -4.16504 0
M  V30 1344 H 127.138 -2.02048 -2.20946 0
M  V30 1345 H 124.684 -0.972835 -1.06169 0
M  V30 1346 H 126.637 -0.578649 -4.17408 0
M  V30 1347 H 125.361 0.258556 -3.25575 0
M  V30 1348 H 124.02 -1.87145 -3.15234 0
M  V30 1349 H 123.668 -0.250145 -5.02378 0
M  V30 1350 H 123.368 -1.92492 -5.55176 0
M  V30 1351 H 124.892 -1.10968 -6.00432 0
M  V30 1352 H 126.306 -3.06349 -4.84586 0
M  V30 1353 H 124.703 -3.82333 -4.62538 0
M  V30 1354 H 125.773 -3.61966 -3.22658 0
M  V30 1355 N 127.117 1.15442 -1.07289 0
M  V30 1356 C 128.047 2.22312 -0.714107 0
M  V30 1357 C 129.028 1.67467 0.298155 0
M  V30 1358 O 130.213 1.93445 0.171048 0
M  V30 1359 C 127.343 3.47124 -0.110448 0
M  V30 1360 C 126.297 4.14926 -1.04979 0
M  V30 1361 C 125.623 5.33807 -0.308924 0
M  V30 1362 C 126.923 4.64762 -2.38314 0
M  V30 1363 H 128.617 2.5258 -1.6076 0
M  V30 1364 H 126.163 1.21404 -0.77441 0
M  V30 1365 H 128.116 4.21124 0.152482 0
M  V30 1366 H 126.84 3.16187 0.81812 0
M  V30 1367 H 125.499 3.42866 -1.29764 0
M  V30 1368 H 125.147 4.99126 0.623084 0
M  V30 1369 H 124.847 5.80113 -0.935036 0
M  V30 1370 H 126.371 6.10576 -0.0537771 0
M  V30 1371 H 127.785 5.30292 -2.1786 0
M  V30 1372 H 126.182 5.21728 -2.96514 0
M  V30 1373 H 127.252 3.80434 -3.00663 0
M  V30 1374 N 128.595 0.856903 1.32268 0
M  V30 1375 C 129.843 0.460474 1.96784 0
M  V30 1376 C 130.164 -0.987701 1.68135 0
M  V30 1377 O 129.434 -1.69058 0.989765 0
M  V30 1378 H 128.014 0.167289 0.728027 0
M  V30 1379 H 130.676 1.09383 1.61312 0
M  V30 1380 H 129.772 0.60739 3.06133 0
M  V30 1381 N 130.073 -1.45103 0.615059 0
M  V30 1382 C 131.298 -2.07064 0.117988 0
M  V30 1383 C 131.723 -1.4554 -1.19163 0
M  V30 1384 O 131.081 -0.550855 -1.72729 0
M  V30 1385 C 131.129 -3.606 -0.000288387 0
M  V30 1386 O 130.233 -3.98847 -1.04856 0
M  V30 1387 H 129.574 -0.659467 0.0774581 0
M  V30 1388 H 132.104 -1.86236 0.847186 0
M  V30 1389 H 132.114 -4.07529 -0.196091 0
M  V30 1390 H 130.789 -4.04765 0.955932 0
M  V30 1391 H 129.366 -3.63577 -0.828619 0
M  V30 1392 N 131.551 -0.354651 -1.53558 0
M  V30 1393 C 132.461 0.50515 -2.29097 0
M  V30 1394 C 133.477 1.10223 -1.34636 0
M  V30 1395 O 134.653 1.11553 -1.67684 0
M  V30 1396 C 131.718 1.63479 -3.05738 0
M  V30 1397 C 130.779 1.06636 -4.15845 0
M  V30 1398 C 130.012 2.14217 -4.88822 0
M  V30 1399 O 130.235 3.35137 -4.61562 0
M  V30 1400 O 129.169 1.77887 -5.75013 0
M  V30 1401 H 132.995 -0.109237 -3.03503 0
M  V30 1402 H 130.58 -0.119357 -1.48922 0
M  V30 1403 H 132.462 2.2918 -3.5363 0
M  V30 1404 H 131.137 2.23478 -2.34178 0
M  V30 1405 H 130.044 0.373565 -3.7223 0
M  V30 1406 H 131.377 0.511081 -4.89539 0
M  V30 1407 N 133.029 1.57378 -0.0835403 0
M  V30 1408 C 133.939 2.16897 0.894021 0
M  V30 1409 C 134.955 1.13528 1.31861 0
M  V30 1410 O 136.131 1.45848 1.3889 0
M  V30 1411 C 133.196 2.72831 2.13925 0
M  V30 1412 C 132.257 3.91115 1.76997 0
M  V30 1413 C 131.49 4.44371 2.95584 0
M  V30 1414 O 131.713 3.96596 4.09961 0
M  V30 1415 O 130.647 5.35549 2.74719 0
M  V30 1416 H 134.473 3.00814 0.417679 0
M  V30 1417 H 132.058 1.48741 0.140181 0
M  V30 1418 H 133.94 3.0863 2.86924 0
M  V30 1419 H 132.615 1.91967 2.60635 0
M  V30 1420 H 131.522 3.60148 1.01214 0
M  V30 1421 H 132.855 4.73307 1.3506 0
M  V30 1422 N 134.507 -0.190092 1.56449 0
M  V30 1423 C 135.923 -0.54113 1.50146 0
M  V30 1424 C 136.123 -1.85603 0.784465 0
M  V30 1425 O 135.179 -2.5024 0.337051 0
M  V30 1426 C 136.492 -0.591241 2.9483 0
M  V30 1427 C 138.04 -0.679732 3.0553 0
M  V30 1428 C 138.515 -0.760908 4.51635 0
M  V30 1429 N 140.006 -0.824302 4.55806 0
M  V30 1430 C 140.741 -0.907365 5.66175 0
M  V30 1431 N 140.237 -0.952422 6.86222 0
M  V30 1432 N 142.03 -0.94494 5.541 0
M  V30 1433 H 134.181 0.67235 2.01478 0
M  V30 1434 H 136.444 0.240127 0.917084 0
M  V30 1435 H 136.15 0.305905 3.50367 0
M  V30 1436 H 136.024 -1.44422 3.48457 0
M  V30 1437 H 138.411 -1.56731 2.50039 0
M  V30 1438 H 138.492 0.199549 2.5502 0
M  V30 1439 H 138.136 0.122336 5.07753 0
M  V30 1440 H 138.066 -1.65606 4.99882 0
M  V30 1441 H 140.557 -0.798526 3.69367 0
M  V30 1442 H 140.87 -1.01645 7.66086 0
M  V30 1443 H 139.215 -0.921014 6.8887 0
M  V30 1444 H 142.406 -0.906612 4.59236 0
M  V30 1445 H 142.579 -1.00622 6.4014 0
M  V30 1446 N 135.985 -1.50799 -0.457987 0
M  V30 1447 C 136.932 -1.70617 -1.5543 0
M  V30 1448 C 137.902 -0.547562 -1.56815 0
M  V30 1449 O 139.087 -0.779647 -1.74144 0
M  V30 1450 C 136.227 -1.81831 -2.93311 0
M  V30 1451 C 135.34 -3.09278 -3.01615 0
M  V30 1452 C 134.475 -3.11209 -4.30491 0
M  V30 1453 C 133.514 -4.33055 -4.32585 0
M  V30 1454 N 132.651 -4.32652 -5.52952 0
M  V30 1455 H 137.491 -2.64207 -1.37836 0
M  V30 1456 H 135.028 -1.30959 -0.669937 0
M  V30 1457 H 136.986 -1.86314 -3.73287 0
M  V30 1458 H 135.616 -0.916685 -3.0951 0
M  V30 1459 H 134.668 -3.14203 -2.1443 0
M  V30 1460 H 135.98 -3.99233 -2.99022 0
M  V30 1461 H 135.134 -3.14494 -5.18824 0
M  V30 1462 H 133.873 -2.19106 -4.35711 0
M  V30 1463 H 132.878 -4.29969 -3.42647 0
M  V30 1464 H 134.103 -5.264 -4.29046 0
M  V30 1465 H 132.049 -3.43409 -5.58933 0
M  V30 1466 H 131.966 -5.16392 -5.52155 0
M  V30 1467 H 133.234 -4.40101 -6.43375 0
M  V30 1468 N 137.463 0.71206 -1.40597 0
M  V30 1469 C 138.709 1.47416 -1.39271 0
M  V30 1470 C 139.042 1.942 0.00388791 0
M  V30 1471 O 138.317 1.68403 0.973179 0
M  V30 1472 C 138.6 2.69774 -2.38525 0
M  V30 1473 C 138.453 2.28861 -3.87224 0
M  V30 1474 C 139.772 3.71939 -2.35264 0
M  V30 1475 H 136.891 0.534713 -0.5072 0
M  V30 1476 H 139.533 0.812375 -1.71757 0
M  V30 1477 H 137.683 3.26238 -2.10953 0
M  V30 1478 H 139.355 1.77852 -4.25636 0
M  V30 1479 H 137.598 1.60824 -4.02887 0
M  V30 1480 H 138.269 3.16584 -4.52193 0
M  V30 1481 H 140.745 3.25113 -2.59694 0
M  V30 1482 H 139.621 4.55186 -3.06753 0
M  V30 1483 H 139.882 4.20484 -1.36549 0
M  V30 1484 N 138.941 1.26152 0.944643 0
M  V30 1485 C 139.851 1.09176 2.07648 0
M  V30 1486 C 140.867 0.0261935 1.7398 0
M  V30 1487 O 142.043 0.229208 2.00091 0
M  V30 1488 C 139.108 0.722915 3.39079 0
M  V30 1489 C 138.169 1.86752 3.86552 0
M  V30 1490 C 137.402 1.51617 5.11711 0
M  V30 1491 O 137.625 0.416331 5.68879 0
M  V30 1492 O 136.559 2.34975 5.54139 0
M  V30 1493 H 140.385 2.0412 2.24875 0
M  V30 1494 H 137.97 1.05182 1.061 0
M  V30 1495 H 139.852 0.529787 4.18056 0
M  V30 1496 H 138.527 -0.197159 3.23099 0
M  V30 1497 H 137.434 2.11558 3.08535 0
M  V30 1498 H 138.767 2.76719 4.07047 0
M  V30 1499 N 140.419 -1.14872 1.07899 0
M  V30 1500 C 141.665 -1.86064 0.806725 0
M  V30 1501 C 141.998 -1.82434 -0.665706 0
M  V30 1502 O 141.273 -1.25138 -1.48899 0
M  V30 1503 C 141.556 -3.34929 1.32267 0
M  V30 1504 C 141.409 -3.47161 2.86006 0
M  V30 1505 C 142.728 -4.29863 0.943717 0
M  V30 1506 H 139.847 -0.675591 0.294526 0
M  V30 1507 H 142.489 -1.34925 1.33773 0
M  V30 1508 H 140.639 -3.78611 0.870974 0
M  V30 1509 H 142.311 -3.12302 3.39507 0
M  V30 1510 H 140.554 -2.88539 3.23925 0
M  V30 1511 H 141.225 -4.51777 3.17177 0
M  V30 1512 H 143.701 -3.9417 1.33302 0
M  V30 1513 H 142.577 -5.32494 1.33198 0
M  V30 1514 H 142.838 -4.41846 -0.149796 0
M  V30 1515 N 141.898 -0.863906 -1.31812 0
M  V30 1516 C 143.126 -0.486111 -2.01108 0
M  V30 1517 C 143.541 0.919755 -1.64882 0
M  V30 1518 O 142.898 1.60162 -0.874893 0
M  V30 1519 C 142.949 -0.626435 -3.56031 0
M  V30 1520 O 142.67 -1.97693 -3.90959 0
M  V30 1521 C 144.171 -0.248857 -4.42601 0
M  V30 1522 H 141.391 -0.190052 -0.643523 0
M  V30 1523 H 143.935 -1.1634 -1.68182 0
M  V30 1524 H 142.09 0.00322717 -3.874 0
M  V30 1525 H 142.504 -1.98034 -4.85678 0
M  V30 1526 H 143.978 -0.398016 -5.50563 0
M  V30 1527 H 144.455 0.811489 -4.31638 0
M  V30 1528 H 145.061 -0.853971 -4.16638 0
M  V30 1529 N 143.376 1.44774 -0.622745 0
M  V30 1530 C 144.606 2.06187 -0.130532 0
M  V30 1531 C 145.014 1.46547 1.19669 0
M  V30 1532 O 144.357 0.579636 1.74316 0
M  V30 1533 C 144.419 3.59437 0.0674983 0
M  V30 1534 C 144.083 4.41496 -1.18026 0
M  V30 1535 C 145.08 4.75512 -2.102 0
M  V30 1536 C 142.765 4.82007 -1.41333 0
M  V30 1537 C 144.759 5.48912 -3.23998 0
M  V30 1538 C 142.446 5.55157 -2.55429 0
M  V30 1539 C 143.444 5.88528 -3.46589 0
M  V30 1540 O 143.132 6.60191 -4.58697 0
M  V30 1541 H 142.864 0.672045 -0.0730162 0
M  V30 1542 H 145.418 1.86768 -0.854802 0
M  V30 1543 H 143.648 3.77314 0.846825 0
M  V30 1544 H 145.337 4.02642 0.513209 0
M  V30 1545 H 146.103 4.4476 -1.93425 0
M  V30 1546 H 141.982 4.55457 -0.712709 0
M  V30 1547 H 145.526 5.74877 -3.95174 0
M  V30 1548 H 141.423 5.85324 -2.72151 0
M  V30 1549 H 142.191 6.78654 -4.57571 0
M  V30 1550 N 144.854 0.36279 1.53368 0
M  V30 1551 C 146.084 -0.228281 2.05335 0
M  V30 1552 C 146.492 -1.43226 1.23625 0
M  V30 1553 O 145.835 -1.81717 0.269206 0
M  V30 1554 C 145.897 -0.688549 3.52845 0
M  V30 1555 C 145.561 0.398362 4.5526 0
M  V30 1556 C 146.558 1.24732 5.04716 0
M  V30 1557 C 144.243 0.557805 4.99193 0
M  V30 1558 C 146.237 2.2411 5.96702 0
M  V30 1559 C 143.924 1.55495 5.90986 0
M  V30 1560 C 144.922 2.39503 6.39631 0
M  V30 1561 O 144.61 3.37517 7.29615 0
M  V30 1562 H 144.342 -0.044395 0.674541 0
M  V30 1563 H 146.896 0.518668 1.98744 0
M  V30 1564 H 145.126 -1.48706 3.56964 0
M  V30 1565 H 146.815 -1.20231 3.87685 0
M  V30 1566 H 147.581 1.13532 4.71525 0
M  V30 1567 H 143.46 -0.0862959 4.60919 0
M  V30 1568 H 147.004 2.89718 6.34594 0
M  V30 1569 H 142.901 1.66744 6.23592 0
M  V30 1570 H 143.669 3.33213 7.47604 0
M  V30 1571 N 146.332 -1.57332 0.0918853 0
M  V30 1572 C 147.282 -2.10385 -0.87876 0
M  V30 1573 C 148.266 -1.01814 -1.24591 0
M  V30 1574 O 149.458 -1.28093 -1.22152 0
M  V30 1575 C 146.587 -2.68517 -2.13901 0
M  V30 1576 C 145.673 -3.84126 -1.79744 0
M  V30 1577 N 146.064 -4.92288 -1.1613 0
M  V30 1578 C 144.362 -3.93801 -2.09373 0
M  V30 1579 C 145.063 -5.7295 -1.00513 0
M  V30 1580 N 144.039 -5.21876 -1.5214 0
M  V30 1581 H 147.841 -2.91395 -0.38293 0
M  V30 1582 H 145.355 -1.62017 -0.111423 0
M  V30 1583 H 147.352 -3.04852 -2.84378 0
M  V30 1584 H 146.012 -1.88961 -2.64053 0
M  V30 1585 H 147.023 -5.1123 -0.828504 0
M  V30 1586 H 143.7 -3.25249 -2.61762 0
M  V30 1587 H 145.09 -6.69978 -0.507902 0
M  V30 1588 N 147.81 0.181792 -1.56548 0
M  V30 1589 C 148.757 1.22521 -1.95595 0
M  V30 1590 C 149.727 1.4454 -0.818373 0
M  V30 1591 O 150.912 1.57454 -1.07763 0
M  V30 1592 C 148.052 2.56193 -2.31212 0
M  V30 1593 C 147.165 2.41641 -3.58097 0
M  V30 1594 C 146.3 3.68108 -3.82975 0
M  V30 1595 C 145.339 3.48445 -5.03242 0
M  V30 1596 N 144.476 4.66956 -5.24306 0
M  V30 1597 H 149.316 0.885226 -2.84548 0
M  V30 1598 H 146.853 0.425718 -1.40805 0
M  V30 1599 H 148.811 3.34088 -2.49882 0
M  V30 1600 H 147.441 2.88208 -1.45382 0
M  V30 1601 H 146.493 1.54976 -3.474 0
M  V30 1602 H 147.805 2.23052 -4.46149 0
M  V30 1603 H 146.959 4.54441 -4.01956 0
M  V30 1604 H 145.698 3.89666 -2.93278 0
M  V30 1605 H 144.703 2.60499 -4.8417 0
M  V30 1606 H 145.928 3.2832 -5.9446 0
M  V30 1607 H 143.874 4.88752 -4.37559 0
M  V30 1608 H 143.791 4.51242 -6.06561 0
M  V30 1609 H 145.059 5.54602 -5.47756 0
M  V30 1610 N 149.288 1.51039 0.449983 0
M  V30 1611 C 150.236 1.71995 1.5659 0
M  V30 1612 C 151.23 0.586029 1.5894 0
M  V30 1613 O 152.436 0.76709 1.62837 0
M  V30 1614 H 148.811 0.543233 0.520001 0
M  V30 1615 H 150.782 2.65562 1.36085 0
M  V30 1616 C 149.531 1.8506 2.9436 0
M  V30 1617 H 148.854 2.71712 2.93279 0
M  V30 1618 H 150.294 2.0374 3.71842 0
M  V30 1619 C 148.753 0.607277 3.31382 0
M  V30 1620 O 149.283 -0.243903 4.00959 0
M  V30 1621 N 147.489 0.455073 2.87015 0
M  V30 1622 H 147.036 1.14879 2.30566 0
M  V30 1623 H 146.994 -0.375611 3.12148 0
M  V30 1624 N 150.766 -0.704594 1.40972 0
M  V30 1625 C 152.014 -1.46169 1.39568 0
M  V30 1626 C 152.335 -1.95 0.00253745 0
M  V30 1627 O 151.605 -1.71095 -0.954114 0
M  V30 1628 H 150.185 -0.542326 0.513704 0
M  V30 1629 H 152.847 -0.834553 1.76128 0
M  V30 1630 H 151.943 -2.32922 2.07735 0
M  V30 1631 N 152.244 -1.26651 -0.937939 0
M  V30 1632 C 153.469 -1.15279 -1.72411 0
M  V30 1633 C 153.894 0.287866 -1.85884 0
M  V30 1634 O 153.252 1.20855 -1.35143 0
M  V30 1635 C 153.3 -1.83028 -3.10698 0
M  V30 1636 O 152.404 -1.12128 -3.96864 0
M  V30 1637 H 151.745 -0.401504 -0.528858 0
M  V30 1638 H 154.275 -1.67531 -1.1745 0
M  V30 1639 H 154.285 -1.89981 -3.6107 0
M  V30 1640 H 152.96 -2.87833 -3.00208 0
M  V30 1641 H 151.537 -1.13173 -3.55312 0
M  V30 1642 N 153.722 1.14298 -1.08507 0
M  V30 1643 C 154.95 1.89219 -0.836876 0
M  V30 1644 C 155.365 1.78638 0.611054 0
M  V30 1645 O 154.722 1.14643 1.41998 0
M  V30 1646 C 154.773 3.39158 -1.25116 0
M  V30 1647 O 154.494 3.49449 -2.64229 0
M  V30 1648 C 155.995 4.31073 -1.03398 0
M  V30 1649 H 153.215 0.599328 -0.301739 0
M  V30 1650 H 155.759 1.44746 -1.44461 0
M  V30 1651 H 153.914 3.81251 -0.687514 0
M  V30 1652 H 154.328 4.42589 -2.81452 0
M  V30 1653 H 155.802 5.34646 -1.37323 0
M  V30 1654 H 156.279 4.3919 0.0289259 0
M  V30 1655 H 156.885 3.94738 -1.58311 0
M  V30 1656 N 155.201 0.870884 1.31352 0
M  V30 1657 C 156.448 0.482273 1.96673 0
M  V30 1658 C 156.776 -0.965638 1.68836 0
M  V30 1659 O 156.031 -1.69514 0.977937 0
M  V30 1660 C 156.33 0.687157 3.50732 0
M  V30 1661 C 155.996 2.108 3.9859 0
M  V30 1662 C 154.658 2.49656 4.1137 0
M  V30 1663 C 157.01 3.03459 4.23748 0
M  V30 1664 C 154.338 3.80412 4.46659 0
M  V30 1665 C 156.69 4.3373 4.60501 0
M  V30 1666 C 155.354 4.725 4.71487 0
M  V30 1667 H 154.624 0.176476 0.719679 0
M  V30 1668 H 157.271 1.10405 1.56471 0
M  V30 1669 H 155.576 -0.0177476 3.91796 0
M  V30 1670 H 157.273 0.366284 3.99324 0
M  V30 1671 H 153.863 1.79633 3.8914 0
M  V30 1672 H 158.047 2.74665 4.13368 0
M  V30 1673 H 153.303 4.1021 4.53362 0
M  V30 1674 H 157.477 5.05578 4.78919 0
M  V30 1675 H 155.104 5.73859 4.98588 0
M  V30 1676 N 156.679 -1.44442 0.630414 0
M  V30 1677 C 157.928 -2.01267 0.132073 0
M  V30 1678 C 158.241 -1.50172 -1.25331 0
M  V30 1679 O 159.447 -1.9912 -1.84562 0
M  V30 1680 C 157.903 -3.59422 0.185362 0
M  V30 1681 C 157.511 -4.19514 1.57201 0
M  V30 1682 C 159.255 -4.23724 -0.256553 0
M  V30 1683 C 157.162 -5.69891 1.58045 0
M  V30 1684 H 156.092 -0.752619 0.0456092 0
M  V30 1685 H 158.743 -1.65666 0.789106 0
M  V30 1686 H 157.125 -3.92318 -0.538759 0
M  V30 1687 H 158.299 -3.98156 2.31966 0
M  V30 1688 H 156.614 -3.67496 1.95795 0
M  V30 1689 H 159.211 -5.34019 -0.269767 0
M  V30 1690 H 159.554 -3.96013 -1.28372 0
M  V30 1691 H 160.087 -3.95629 0.41505 0
M  V30 1692 H 156.826 -6.02336 2.58597 0
M  V30 1693 H 156.346 -5.93373 0.875725 0
M  V30 1694 H 158.025 -6.33515 1.31408 0
M  V30 1695 N 158.157 -0.370918 -1.53173 0
M  V30 1696 C 159.397 0.217106 -2.03244 0
M  V30 1697 C 159.761 1.45558 -1.25207 0
M  V30 1698 O 160.962 2.11957 -1.65311 0
M  V30 1699 C 159.233 0.496664 -3.53932 0
M  V30 1700 S 160.792 1.0576 -4.25864 0
M  V30 1701 H 157.61 0.0627827 -0.708223 0
M  V30 1702 H 160.212 -0.515019 -1.88594 0
M  V30 1703 H 158.916 -0.412096 -4.08326 0
M  V30 1704 H 158.447 1.25772 -3.72753 0
M  V30 1705 H 160.462 2.34145 -4.37482 0
M  V30 1706 N 159.635 1.57281 -0.100228 0
M  V30 1707 C 160.583 2.15542 0.874328 0
M  V30 1708 C 161.577 1.09962 1.28859 0
M  V30 1709 O 162.783 1.28298 1.26252 0
M  V30 1710 H 159.158 0.689567 0.300003 0
M  V30 1711 H 161.129 2.96241 0.35829 0
M  V30 1712 C 159.878 2.75454 2.1218 0
M  V30 1713 H 159.201 3.56384 1.81193 0
M  V30 1714 H 160.641 3.19781 2.78417 0
M  V30 1715 C 159.1 1.71602 2.89921 0
M  V30 1716 O 159.63 1.15804 3.84646 0
M  V30 1717 N 157.836 1.41975 2.53558 0
M  V30 1718 H 157.383 1.87539 1.76598 0
M  V30 1719 H 157.341 0.727274 3.05873 0
M  V30 1720 N 161.113 -0.173488 1.56642 0
M  V30 1721 C 162.341 -0.906095 1.86004 0
M  V30 1722 C 162.756 -1.75921 0.685355 0
M  V30 1723 O 162.113 -1.79198 -0.345578 0
M  V30 1724 C 162.164 -1.78462 3.14378 0
M  V30 1725 O 161.885 -0.965914 4.27319 0
M  V30 1726 C 163.386 -2.62707 3.57071 0
M  V30 1727 H 160.606 -0.263341 0.617165 0
M  V30 1728 H 163.15 -0.174236 2.03756 0
M  V30 1729 H 161.305 -2.46984 2.98459 0
M  V30 1730 H 161.719 -1.56655 5.00559 0
M  V30 1731 H 163.193 -3.19969 4.49804 0
M  V30 1732 H 163.67 -3.37472 2.81086 0
M  V30 1733 H 164.276 -1.99521 3.75595 0
M  V30 1734 N 162.591 -1.51276 -0.441967 0
M  V30 1735 C 163.541 -1.6864 -1.53442 0
M  V30 1736 C 164.525 -0.540444 -1.51552 0
M  V30 1737 O 165.717 -0.796157 -1.58083 0
M  V30 1738 C 162.846 -1.8106 -2.91672 0
M  V30 1739 C 161.932 -3.01424 -2.98336 0
M  V30 1740 N 162.323 -4.2467 -2.74752 0
M  V30 1741 C 160.621 -3.00584 -3.29493 0
M  V30 1742 C 161.322 -5.05891 -2.87139 0
M  V30 1743 N 160.298 -4.40442 -3.18609 0
M  V30 1744 H 164.1 -2.61598 -1.33954 0
M  V30 1745 H 161.614 -1.4886 -0.6492 0
M  V30 1746 H 163.611 -1.91609 -3.70259 0
M  V30 1747 H 162.271 -0.892795 -3.12185 0
M  V30 1748 H 163.282 -4.53691 -2.49769 0
M  V30 1749 H 159.959 -2.18417 -3.55809 0
M  V30 1750 H 161.349 -6.13983 -2.72899 0
M  V30 1751 N 164.069 0.697108 -1.41344 0
M  V30 1752 C 165.318 1.45279 -1.39918 0
M  V30 1753 C 165.631 1.95597 -0.0109624 0
M  V30 1754 O 166.837 2.71208 0.125919 0
M  V30 1755 C 165.293 2.62695 -2.46007 0
M  V30 1756 C 164.901 2.19169 -3.90729 0
M  V30 1757 C 166.645 3.40336 -2.53715 0
M  V30 1758 C 164.552 3.33535 -4.88373 0
M  V30 1759 H 163.482 0.545692 -0.520323 0
M  V30 1760 H 166.133 0.756929 -1.67161 0
M  V30 1761 H 164.515 3.34541 -2.11892 0
M  V30 1762 H 165.689 1.54623 -4.34083 0
M  V30 1763 H 164.004 1.54525 -3.86666 0
M  V30 1764 H 166.601 4.2547 -3.2385 0
M  V30 1765 H 166.944 3.85418 -1.5735 0
M  V30 1766 H 167.477 2.75546 -2.86913 0
M  V30 1767 H 164.216 2.93468 -5.86137 0
M  V30 1768 H 163.736 3.96936 -4.49668 0
M  V30 1769 H 165.415 3.99335 -5.09059 0
M  V30 1770 N 165.547 1.27147 0.931209 0
M  V30 1771 C 166.796 1.12664 1.67302 0
M  V30 1772 C 167.109 -0.327718 1.92835 0
M  V30 1773 O 168.315 -0.593392 2.64936 0
M  V30 1774 C 166.771 1.9683 3.01307 0
M  V30 1775 C 166.379 3.46901 2.83485 0
M  V30 1776 C 168.123 1.90985 3.79111 0
M  V30 1777 C 166.03 4.23279 4.13024 0
M  V30 1778 H 164.96 0.41803 0.627509 0
M  V30 1779 H 167.611 1.51539 1.03481 0
M  V30 1780 H 165.993 1.50797 3.66164 0
M  V30 1781 H 167.167 4.00773 2.27415 0
M  V30 1782 H 165.482 3.54088 2.19113 0
M  V30 1783 H 168.079 2.45328 4.75098 0
M  V30 1784 H 168.422 0.882718 4.06834 0
M  V30 1785 H 168.955 2.34895 3.21044 0
M  V30 1786 H 165.694 5.26503 3.90481 0
M  V30 1787 H 165.214 3.74186 4.6877 0
M  V30 1788 H 166.893 4.32265 4.81411 0
M  V30 1789 N 167.025 -1.13721 1.09112 0
M  V30 1790 C 168.436 -1.6648 0.845068 0
M  V30 1791 C 168.787 -1.85911 -0.62701 0
M  V30 1792 O 167.912 -1.57556 -1.48341 0
M  V30 1793 C 168.507 -3.02413 1.52748 0
M  V30 1794 C 167.066 -3.52176 1.32849 0
M  V30 1795 C 166.213 -2.27492 1.58564 0
M  V30 1796 H 169.164 -0.976872 1.25072 0
M  V30 1797 H 169.185 -3.68223 0.958752 0
M  V30 1798 H 168.697 -2.88238 2.59885 0
M  V30 1799 H 166.798 -3.7156 0.278137 0
M  V30 1800 H 166.911 -4.32499 2.0611 0
M  V30 1801 H 165.275 -2.33923 1.00758 0
M  V30 1802 H 166.058 -2.15886 2.66924 0
M  V30 1803 N 168.503 -0.877838 -1.30888 0
M  V30 1804 C 169.749 -0.493426 -1.96706 0
M  V30 1805 C 170.082 0.953504 -1.6918 0
M  V30 1806 O 169.357 1.67266 -0.992594 0
M  V30 1807 C 169.64 -0.760429 -3.51979 0
M  V30 1808 C 169.493 -2.25747 -3.89048 0
M  V30 1809 C 170.812 -0.232148 -4.39487 0
M  V30 1810 H 167.931 -0.180746 -0.714493 0
M  V30 1811 H 170.573 -1.10052 -1.54882 0
M  V30 1812 H 168.723 -0.243715 -3.87735 0
M  V30 1813 H 170.395 -2.84204 -3.63354 0
M  V30 1814 H 168.638 -2.72694 -3.37373 0
M  V30 1815 H 169.309 -2.39491 -4.97341 0
M  V30 1816 H 171.785 -0.674314 -4.106 0
M  V30 1817 H 170.661 -0.448355 -5.47066 0
M  V30 1818 H 170.922 0.866297 -4.33529 0
M  V30 1819 N 169.982 1.44106 -0.638065 0
M  V30 1820 C 170.929 2.30715 0.062701 0
M  V30 1821 C 171.899 1.43882 0.829883 0
M  V30 1822 O 173.084 1.72775 0.809532 0
M  V30 1823 C 170.224 3.29258 1.03358 0
M  V30 1824 C 169.337 4.31192 0.26409 0
M  V30 1825 C 168.472 5.16825 1.22741 0
M  V30 1826 C 167.511 6.10462 0.447475 0
M  V30 1827 N 166.648 6.8877 1.36161 0
M  V30 1828 H 171.488 2.90096 -0.681781 0
M  V30 1829 H 169.025 1.42925 -0.347988 0
M  V30 1830 H 170.983 3.84886 1.60992 0
M  V30 1831 H 169.613 2.71562 1.74511 0
M  V30 1832 H 168.665 3.77981 -0.428295 0
M  V30 1833 H 169.977 4.97619 -0.343052 0
M  V30 1834 H 169.131 5.77004 1.87487 0
M  V30 1835 H 167.87 4.50488 1.86847 0
M  V30 1836 H 166.875 5.49386 -0.213433 0
M  V30 1837 H 168.1 6.78837 -0.188968 0
M  V30 1838 H 166.046 6.25096 1.98975 0
M  V30 1839 H 165.963 7.51663 0.808656 0
M  V30 1840 H 167.231 7.53467 1.99769 0
M  V30 1841 N 171.46 0.379036 1.52974 0
M  V30 1842 C 172.408 -0.476033 2.27677 0
M  V30 1843 C 173.402 -1.0719 1.31174 0
M  V30 1844 O 174.608 -1.01355 1.48752 0
M  V30 1845 H 170.983 -0.172255 0.732006 0
M  V30 1846 H 172.954 0.175615 2.97883 0
M  V30 1847 C 171.703 -1.5967 3.0887 0
M  V30 1848 H 171.026 -1.1475 3.82978 0
M  V30 1849 H 172.466 -2.16943 3.64296 0
M  V30 1850 C 170.925 -2.54682 2.20542 0
M  V30 1851 O 171.455 -3.57836 1.82527 0
M  V30 1852 N 169.661 -2.24183 1.84907 0
M  V30 1853 H 169.208 -1.40333 2.1602 0
M  V30 1854 H 169.166 -2.88006 1.26096 0
M  V30 1855 N 172.938 -1.57226 0.108567 0
M  V30 1856 C 173.87 -2.11809 -0.875752 0
M  V30 1857 C 174.883 -1.05839 -1.23701 0
M  V30 1858 O 176.072 -1.33245 -1.18778 0
M  V30 1859 C 173.172 -2.59411 -2.18081 0
M  V30 1860 C 172.345 -3.89364 -1.99284 0
M  V30 1861 C 171.404 -4.22672 -3.13424 0
M  V30 1862 O 170.43 -4.91668 -2.86795 0
M  V30 1863 N 171.632 -3.79154 -4.3957 0
M  V30 1864 H 174.397 -2.9689 -0.409477 0
M  V30 1865 H 171.958 -1.61721 -0.076158 0
M  V30 1866 H 173.95 -2.7873 -2.93414 0
M  V30 1867 H 172.52 -1.79268 -2.5609 0
M  V30 1868 H 171.74 -3.79059 -1.08203 0
M  V30 1869 H 173.028 -4.74358 -1.84017 0
M  V30 1870 H 172.426 -3.23486 -4.64083 0
M  V30 1871 H 170.983 -4.03602 -5.11809 0
M  V30 1872 N 174.416 0.165178 -1.56732 0
M  V30 1873 C 175.326 1.22423 -2.00125 0
M  V30 1874 C 176.342 1.48084 -0.913619 0
M  V30 1875 O 177.518 1.60112 -1.22172 0
M  V30 1876 C 174.583 2.54197 -2.35764 0
M  V30 1877 C 173.644 2.36343 -3.58386 0
M  V30 1878 C 172.877 3.61834 -3.92316 0
M  V30 1879 O 173.1 4.67267 -3.27135 0
M  V30 1880 O 172.034 3.55579 -4.85641 0
M  V30 1881 H 175.86 0.885886 -2.90492 0
M  V30 1882 H 173.445 0.372518 -1.44681 0
M  V30 1883 H 175.327 3.3192 -2.59629 0
M  V30 1884 H 174.002 2.87598 -1.48557 0
M  V30 1885 H 172.909 1.56632 -3.39731 0
M  V30 1886 H 174.242 2.07865 -4.46154 0
M  V30 1887 N 175.894 1.51508 0.433938 0
M  V30 1888 C 177.142 1.6402 1.18075 0
M  V30 1889 C 177.463 0.360328 1.91642 0
M  V30 1890 O 176.733 -0.623945 1.85698 0
M  V30 1891 H 175.313 0.6045 0.43885 0
M  V30 1892 H 177.975 1.88452 0.497178 0
M  V30 1893 H 177.071 2.46949 1.90847 0
M  V30 1894 N 177.372 -0.689602 1.41712 0
M  V30 1895 C 178.618 -1.45181 1.41599 0
M  V30 1896 C 178.951 -1.94181 0.0270081 0
M  V30 1897 O 178.226 -1.6993 -0.946265 0
M  V30 1898 C 178.509 -2.65945 2.42787 0
M  V30 1899 C 178.362 -2.22672 3.90816 0
M  V30 1900 C 179.681 -3.68149 2.41151 0
M  V30 1901 H 176.8 -0.526576 0.515642 0
M  V30 1902 H 179.442 -0.784947 1.73028 0
M  V30 1903 H 177.592 -3.2284 2.16116 0
M  V30 1904 H 179.264 -1.71058 4.28412 0
M  V30 1905 H 177.507 -1.54394 4.05395 0
M  V30 1906 H 178.178 -3.0935 4.57172 0
M  V30 1907 H 180.654 -3.2094 2.64834 0
M  V30 1908 H 179.53 -4.50248 3.13955 0
M  V30 1909 H 179.791 -4.18259 1.43221 0
M  V30 1910 N 178.85 -1.27639 -0.924453 0
M  V30 1911 C 179.813 -1.10681 -2.00705 0
M  V30 1912 C 180.813 -0.0497823 -1.60723 0
M  V30 1913 O 182.003 -0.294654 -1.7169 0
M  V30 1914 C 179.135 -0.687164 -3.33902 0
M  V30 1915 H 180.328 -2.06817 -2.17179 0
M  V30 1916 H 177.881 -1.10473 -1.10569 0
M  V30 1917 H 178.616 0.275439 -3.23128 0
M  V30 1918 H 178.401 -1.45061 -3.6428 0
M  V30 1919 H 179.891 -0.590853 -4.13399 0
M  V30 1920 N 180.328 1.1314 -1.09713 0
M  V30 1921 C 181.261 2.17735 -0.683137 0
M  V30 1922 C 182.239 1.59582 0.311841 0
M  V30 1923 O 183.423 1.87298 0.212514 0
M  V30 1924 C 180.55 3.38699 -0.00684324 0
M  V30 1925 C 179.596 4.1546 -0.964102 0
M  V30 1926 S 180.429 4.74733 -2.47767 0
M  V30 1927 C 181.585 5.9904 -1.81387 0
M  V30 1928 H 181.818 2.52515 -1.56918 0
M  V30 1929 H 179.351 1.24484 -0.913404 0
M  V30 1930 H 181.309 4.08765 0.377044 0
M  V30 1931 H 179.97 3.02214 0.85589 0
M  V30 1932 H 179.163 5.02093 -0.43803 0
M  V30 1933 H 178.765 3.51066 -1.28953 0
M  V30 1934 H 181.057 6.67846 -1.13967 0
M  V30 1935 H 182 6.56261 -2.65947 0
M  V30 1936 H 182.408 5.4976 -1.28155 0
M  V30 1937 N 181.806 0.884767 1.30421 0
M  V30 1938 C 182.739 0.295999 2.26272 0
M  V30 1939 C 183.717 -0.58332 1.51777 0
M  V30 1940 O 184.901 -0.53346 1.80794 0
M  V30 1941 C 182.028 -0.57944 3.33707 0
M  V30 1942 C 181.074 0.230525 4.25877 0
M  V30 1943 S 181.907 1.61867 5.1045 0
M  V30 1944 C 183.063 0.749756 6.21393 0
M  V30 1945 H 183.296 1.10848 2.75862 0
M  V30 1946 H 180.829 0.684178 1.38414 0
M  V30 1947 H 182.787 -1.07879 3.96071 0
M  V30 1948 H 181.448 -1.36601 2.82841 0
M  V30 1949 H 180.641 -0.437542 5.02097 0
M  V30 1950 H 180.243 0.662493 3.68086 0
M  V30 1951 H 182.535 -0.0333547 6.77492 0
M  V30 1952 H 183.478 1.48356 6.92384 0
M  V30 1953 H 183.886 0.310751 5.63644 0
M  V30 1954 N 183.284 -1.43765 0.645699 0
M  V30 1955 C 184.531 -2.01898 0.15604 0
M  V30 1956 C 184.859 -1.50887 -1.22733 0
M  V30 1957 O 184.114 -0.689271 -1.8316 0
M  V30 1958 C 184.413 -3.57238 0.107679 0
M  V30 1959 C 184.079 -4.27564 1.43178 0
M  V30 1960 C 182.741 -4.46492 1.7944 0
M  V30 1961 C 185.093 -4.67454 2.30513 0
M  V30 1962 C 182.421 -5.02573 3.02716 0
M  V30 1963 C 184.773 -5.24901 3.53074 0
M  V30 1964 C 183.437 -5.42046 3.89541 0
M  V30 1965 H 182.707 -0.738797 0.057099 0
M  V30 1966 H 185.354 -1.72341 0.834912 0
M  V30 1967 H 183.659 -3.86293 -0.654618 0
M  V30 1968 H 185.356 -3.99965 -0.287938 0
M  V30 1969 H 181.946 -4.13171 1.13963 0
M  V30 1970 H 186.13 -4.5253 2.0379 0
M  V30 1971 H 181.386 -5.14033 3.31028 0
M  V30 1972 H 185.56 -5.54758 4.20971 0
M  V30 1973 H 183.187 -5.85268 4.85145 0
M  V30 1974 N 184.763 -0.387143 -1.52771 0
M  V30 1975 C 186.012 0.19697 -2.00736 0
M  V30 1976 C 186.325 1.48082 -1.27793 0
M  V30 1977 O 187.531 2.14485 -1.66458 0
M  V30 1978 C 185.987 0.401568 -3.57653 0
M  V30 1979 C 185.595 -0.868907 -4.39493 0
M  V30 1980 C 187.339 0.942164 -4.13912 0
M  V30 1981 C 185.246 -0.632705 -5.88006 0
M  V30 1982 H 184.176 0.0773827 -0.750019 0
M  V30 1983 H 186.827 -0.50921 -1.76293 0
M  V30 1984 H 185.209 1.16954 -3.78335 0
M  V30 1985 H 186.383 -1.64133 -4.30577 0
M  V30 1986 H 184.698 -1.33429 -3.94443 0
M  V30 1987 H 187.295 1.13455 -5.22525 0
M  V30 1988 H 187.638 1.9106 -3.69867 0
M  V30 1989 H 188.171 0.233814 -3.97112 0
M  V30 1990 H 184.91 -1.57208 -6.36369 0
M  V30 1991 H 184.43 0.100825 -5.99715 0
M  V30 1992 H 186.109 -0.26642 -6.46451 0
M  V30 1993 N 186.241 1.57166 -0.116904 0
M  V30 1994 C 187.49 1.94298 0.541407 0
M  V30 1995 C 187.803 1.00236 1.67964 0
M  V30 1996 O 189.009 1.26826 2.40057 0
M  V30 1997 C 187.465 3.45306 1.01449 0
M  V30 1998 C 187.073 4.47899 -0.0951738 0
M  V30 1999 C 188.817 3.91361 1.6443 0
M  V30 2000 C 186.724 5.90083 0.394491 0
M  V30 2001 H 185.654 0.725308 0.206019 0
M  V30 2002 H 188.305 1.82446 -0.196419 0
M  V30 2003 H 186.687 3.52385 1.80667 0
M  V30 2004 H 187.861 4.52486 -0.871374 0
M  V30 2005 H 186.176 4.11583 -0.631505 0
M  V30 2006 H 188.773 4.95004 2.02176 0
M  V30 2007 H 189.116 3.3122 2.52189 0
M  V30 2008 H 189.649 3.87073 0.917559 0
M  V30 2009 H 186.388 6.53974 -0.447004 0
M  V30 2010 H 185.908 5.88921 1.13722 0
M  V30 2011 H 187.587 6.41307 0.856399 0
M  V30 2012 N 187.719 -0.156864 1.56817 0
M  V30 2013 C 188.667 -1.21319 1.98455 0
M  V30 2014 C 189.661 -1.45025 0.875444 0
M  V30 2015 O 190.867 -1.45435 1.0606 0
M  V30 2016 H 187.242 -0.408142 0.631605 0
M  V30 2017 H 189.213 -0.835244 2.86472 0
M  V30 2018 C 187.962 -2.54148 2.37285 0
M  V30 2019 H 187.285 -2.36733 3.22176 0
M  V30 2020 H 188.725 -3.26712 2.70251 0
M  V30 2021 C 187.184 -3.13967 1.22173 0
M  V30 2022 O 187.714 -3.98357 0.517149 0
M  V30 2023 N 185.92 -2.7327 0.988536 0
M  V30 2024 H 185.467 -2.04744 1.56326 0
M  V30 2025 H 185.425 -3.13628 0.220209 0
M  V30 2026 N 189.197 -1.51736 -0.425897 0
M  V30 2027 C 190.444 -1.6497 -1.17436 0
M  V30 2028 C 190.772 -0.371445 -1.9092 0
M  V30 2029 O 190.027 0.644963 -1.84767 0
M  V30 2030 C 190.326 -2.81103 -2.20717 0
M  V30 2031 C 189.992 -4.19954 -1.64162 0
M  V30 2032 C 188.654 -4.57725 -1.48462 0
M  V30 2033 C 191.006 -5.06552 -1.22696 0
M  V30 2034 C 188.334 -5.79789 -0.897873 0
M  V30 2035 C 190.686 -6.29205 -0.654464 0
M  V30 2036 C 189.35 -6.6574 -0.484456 0
M  V30 2037 H 188.62 -0.603668 -0.429727 0
M  V30 2038 H 191.267 -1.85798 -0.463829 0
M  V30 2039 H 189.572 -2.54542 -2.97852 0
M  V30 2040 H 191.269 -2.8854 -2.78471 0
M  V30 2041 H 187.859 -3.90181 -1.77361 0
M  V30 2042 H 192.043 -4.77968 -1.33642 0
M  V30 2043 H 187.299 -6.06733 -0.75402 0
M  V30 2044 H 191.473 -6.95643 -0.324694 0
M  V30 2045 H 189.1 -7.60195 -0.0276833 0
M  V30 2046 N 190.675 0.682077 -1.42076 0
M  V30 2047 C 191.585 1.82535 -1.47371 0
M  V30 2048 C 192.601 1.7017 -0.363079 0
M  V30 2049 O 193.777 1.91848 -0.612875 0
M  V30 2050 C 190.842 3.18624 -1.36674 0
M  V30 2051 C 189.903 3.42999 -2.58167 0
M  V30 2052 C 189.136 4.72595 -2.4797 0
M  V30 2053 O 189.359 5.50006 -1.5116 0
M  V30 2054 O 188.293 4.98054 -3.37974 0
M  V30 2055 H 192.119 1.81023 -2.43853 0
M  V30 2056 H 189.704 0.836887 -1.2376 0
M  V30 2057 H 191.586 3.99847 -1.33043 0
M  V30 2058 H 190.261 3.20789 -0.433138 0
M  V30 2059 H 189.168 2.61653 -2.67373 0
M  V30 2060 H 190.501 3.45659 -3.50401 0
M  V30 2061 N 192.153 1.28127 0.917671 0
M  V30 2062 C 193.383 1.17722 1.6978 0
M  V30 2063 C 193.791 -0.267261 1.87303 0
M  V30 2064 O 193.134 -1.19286 1.39702 0
M  V30 2065 C 193.196 1.79958 3.11216 0
M  V30 2066 C 192.86 3.29187 3.16993 0
M  V30 2067 C 193.857 4.25679 2.98485 0
M  V30 2068 C 191.542 3.70075 3.39632 0
M  V30 2069 C 193.536 5.61035 3.02521 0
M  V30 2070 C 191.223 5.05557 3.433 0
M  V30 2071 C 192.221 6.00847 3.24764 0
M  V30 2072 O 191.909 7.33859 3.28187 0
M  V30 2073 H 191.641 0.409788 0.537634 0
M  V30 2074 H 194.195 1.69694 1.15728 0
M  V30 2075 H 192.425 1.22475 3.66793 0
M  V30 2076 H 194.114 1.64125 3.71238 0
M  V30 2077 H 194.88 3.95426 2.80826 0
M  V30 2078 H 190.759 2.96373 3.53106 0
M  V30 2079 H 194.303 6.35388 2.87971 0
M  V30 2080 H 190.2 5.35462 3.60486 0
M  V30 2081 H 190.968 7.42436 3.44575 0
M  V30 2082 N 193.631 -1.12557 1.10312 0
M  V30 2083 C 194.877 -1.84311 0.846011 0
M  V30 2084 C 195.21 -1.83805 -0.626859 0
M  V30 2085 O 194.485 -1.28268 -1.46211 0
M  V30 2086 C 194.768 -3.32048 1.39341 0
M  V30 2087 C 194.621 -3.41016 2.93305 0
M  V30 2088 C 195.94 -4.27764 1.03468 0
M  V30 2089 H 193.059 -0.669192 0.30879 0
M  V30 2090 H 195.701 -1.32057 1.36605 0
M  V30 2091 H 193.851 -3.76678 0.951087 0
M  V30 2092 H 195.523 -3.05031 3.46055 0
M  V30 2093 H 193.766 -2.81603 3.29973 0
M  V30 2094 H 194.437 -4.44948 3.26689 0
M  V30 2095 H 196.913 -3.91253 1.41633 0
M  V30 2096 H 195.789 -5.29549 1.44463 0
M  V30 2097 H 196.05 -4.42064 -0.0560404 0
M  V30 2098 N 195.109 -0.891671 -1.2995 0
M  V30 2099 C 196.337 -0.52866 -2.00032 0
M  V30 2100 C 196.752 0.884574 -1.66795 0
M  V30 2101 O 196.109 1.5827 -0.908669 0
M  V30 2102 C 196.16 -0.701814 -3.54622 0
M  V30 2103 O 195.881 -2.05942 -3.86678 0
M  V30 2104 C 197.382 -0.342683 -4.41973 0
M  V30 2105 H 194.602 -0.203659 -0.639347 0
M  V30 2106 H 197.146 -1.19881 -1.65677 0
M  V30 2107 H 195.301 -0.0789468 -3.8732 0
M  V30 2108 H 195.715 -2.08291 -4.81368 0
M  V30 2109 H 197.189 -0.514709 -5.49595 0
M  V30 2110 H 197.666 0.71975 -4.33262 0
M  V30 2111 H 198.272 -0.942154 -4.14733 0
M  V30 2112 N 196.587 1.43421 -0.653314 0
M  V30 2113 C 197.864 1.95361 -0.0966581 0
M  V30 2114 C 198.244 1.59461 1.38331 0
M  V30 2115 O 197.592 0.879777 2.10884 0
M  V30 2116 C 197.802 3.47311 -0.342988 0
M  V30 2117 C 199.15 4.23875 -0.24798 0
M  V30 2118 O 200.174 3.55133 -0.275553 0
M  V30 2119 O 199.033 5.4623 -0.171771 0
M  V30 2120 H 196.127 0.826945 0.00956291 0
M  V30 2121 H 198.673 1.5336 -0.726558 0
M  V30 2122 H 197.445 3.66569 -1.36906 0
M  V30 2123 H 197.068 3.9631 0.319975 0
M  V30 2124 N 198.065 0.39524 1.52563 0
M  V30 2125 C 199.013 -0.451859 2.28169 0
M  V30 2126 C 200.007 -1.05792 1.32304 0
M  V30 2127 O 201.213 -0.997718 1.49818 0
M  V30 2128 H 197.588 -0.164481 0.733792 0
M  V30 2129 H 199.559 0.207199 2.9768 0
M  V30 2130 C 198.308 -1.56385 3.10546 0
M  V30 2131 H 197.631 -1.10682 3.84174 0
M  V30 2132 H 199.071 -2.13067 3.66577 0
M  V30 2133 C 197.53 -2.52328 2.23231 0
M  V30 2134 O 198.06 -3.5588 1.86312 0
M  V30 2135 N 196.266 -2.22209 1.87274 0
M  V30 2136 H 195.813 -1.38033 2.17496 0
M  V30 2137 H 195.771 -2.86652 1.29143 0
M  V30 2138 N 199.544 -1.57102 0.125237 0
M  V30 2139 C 200.454 -2.19191 -0.8362 0
M  V30 2140 C 201.47 -1.16985 -1.28805 0
M  V30 2141 O 202.646 -1.49479 -1.34974 0
M  V30 2142 C 199.711 -2.78407 -2.06617 0
M  V30 2143 C 198.772 -3.9567 -1.66565 0
M  V30 2144 C 198.005 -4.52052 -2.83698 0
M  V30 2145 O 198.228 -4.07326 -3.99302 0
M  V30 2146 O 197.162 -5.42645 -2.60423 0
M  V30 2147 H 200.988 -3.01816 -0.337776 0
M  V30 2148 H 198.573 -1.4906 -0.100695 0
M  V30 2149 H 200.455 -3.16129 -2.7864 0
M  V30 2150 H 199.13 -1.9881 -2.55453 0
M  V30 2151 H 198.037 -3.62705 -0.916296 0
M  V30 2152 H 199.37 -4.76722 -1.22464 0
M  V30 2153 N 201.022 0.148545 -1.56898 0
M  V30 2154 C 201.97 1.20265 -1.99096 0
M  V30 2155 C 202.964 1.44559 -0.883123 0
M  V30 2156 O 204.17 1.4487 -1.0683 0
M  V30 2157 H 200.545 0.404786 -0.63376 0
M  V30 2158 H 202.516 0.82004 -2.86911 0
M  V30 2159 C 201.265 2.52886 -2.3863 0
M  V30 2160 H 200.588 2.35021 -3.23427 0
M  V30 2161 H 202.028 3.25274 -2.7198 0
M  V30 2162 C 200.487 3.13315 -1.23837 0
M  V30 2163 O 201.017 3.98077 -0.538268 0
M  V30 2164 N 199.223 2.72742 -1.00301 0
M  V30 2165 H 198.77 2.03912 -1.5741 0
M  V30 2166 H 198.728 3.13507 -0.236838 0
M  V30 2167 N 202.5 1.5196 0.417844 0
M  V30 2168 C 203.463 1.74065 1.49111 0
M  V30 2169 C 204.463 0.610537 1.48758 0
M  V30 2170 O 205.653 0.87832 1.50437 0
M  V30 2171 C 202.785 1.81502 2.88565 0
M  V30 2172 H 203.978 2.69869 1.30807 0
M  V30 2173 H 201.531 1.42244 0.647785 0
M  V30 2174 H 202.266 0.875813 3.1225 0
M  V30 2175 H 202.051 2.63651 2.90225 0
M  V30 2176 H 203.541 2.00376 3.66387 0
M  V30 2177 N 203.978 -0.674533 1.42435 0
M  V30 2178 C 204.941 -1.76986 1.45632 0
M  V30 2179 C 205.941 -1.5708 0.343871 0
M  V30 2180 O 207.131 -1.63367 0.604709 0
M  V30 2181 C 204.263 -3.15623 1.28822 0
M  V30 2182 H 205.456 -1.75539 2.43158 0
M  V30 2183 H 203.009 -0.884189 1.28887 0
M  V30 2184 H 203.744 -3.22696 0.322193 0
M  V30 2185 H 203.529 -3.31475 2.09444 0
M  V30 2186 H 205.019 -3.95537 1.33942 0
M  V30 2187 N 205.456 -1.28612 -0.910864 0
M  V30 2188 C 206.684 -1.18792 -1.69399 0
M  V30 2189 C 207.099 0.253039 -1.87097 0
M  V30 2190 O 206.456 1.17071 -1.40003 0
M  V30 2191 C 206.507 -1.88511 -3.08457 0
M  V30 2192 O 206.228 -3.26979 -2.91576 0
M  V30 2193 C 207.729 -1.85029 -4.02839 0
M  V30 2194 H 204.949 -0.412233 -0.529438 0
M  V30 2195 H 207.493 -1.69788 -1.13984 0
M  V30 2196 H 205.648 -1.41379 -3.60681 0
M  V30 2197 H 206.062 -3.61936 -3.79608 0
M  V30 2198 H 207.536 -2.38395 -4.97867 0
M  V30 2199 H 208.013 -0.823303 -4.31414 0
M  V30 2200 H 208.619 -2.31853 -3.56545 0
M  V30 2201 N 206.934 1.1197 -1.10907 0
M  V30 2202 C 208.345 1.65114 -0.871446 0
M  V30 2203 C 208.696 1.86885 0.597353 0
M  V30 2204 O 207.821 1.59896 1.45816 0
M  V30 2205 C 208.416 2.99944 -1.5754 0
M  V30 2206 C 206.975 3.50018 -1.38435 0
M  V30 2207 C 206.122 2.24941 -1.62164 0
M  V30 2208 H 209.073 0.956851 -1.2661 0
M  V30 2209 H 209.094 3.66651 -1.01721 0
M  V30 2210 H 208.606 2.84067 -2.64438 0
M  V30 2211 H 206.707 3.71071 -0.337214 0
M  V30 2212 H 206.82 4.29165 -2.12965 0
M  V30 2213 H 205.184 2.3229 -1.04467 0
M  V30 2214 H 205.967 2.11612 -2.70324 0
M  V30 2215 N 208.412 0.89855 1.29475 0
M  V30 2216 C 209.322 0.379974 2.31502 0
M  V30 2217 C 210.338 -0.524695 1.659 0
M  V30 2218 O 211.514 -0.414551 1.97087 0
M  V30 2219 C 208.579 -0.385138 3.44554 0
M  V30 2220 C 207.64 0.550914 4.2575 0
M  V30 2221 C 206.873 -0.177778 5.33404 0
M  V30 2222 O 207.096 -1.40189 5.52904 0
M  V30 2223 O 206.03 0.479106 5.9999 0
M  V30 2224 H 209.856 1.22639 2.77837 0
M  V30 2225 H 207.441 0.662834 1.33891 0
M  V30 2226 H 209.323 -0.817841 4.13388 0
M  V30 2227 H 207.998 -1.20763 3.0033 0
M  V30 2228 H 206.905 1.03271 3.59564 0
M  V30 2229 H 208.238 1.33979 4.73614 0
M  V30 2230 N 209.89 -1.43072 0.660911 0
M  V30 2231 C 211.306 -1.56169 0.329173 0
M  V30 2232 C 211.506 -1.64317 -1.16629 0
M  V30 2233 O 210.562 -1.60245 -1.95135 0
M  V30 2234 C 211.875 -2.81873 1.04729 0
M  V30 2235 C 213.423 -2.95627 1.02828 0
M  V30 2236 C 213.898 -4.24174 1.72744 0
M  V30 2237 N 215.389 -4.31055 1.69545 0
M  V30 2238 C 216.124 -5.29304 2.20511 0
M  V30 2239 N 215.62 -6.33786 2.79799 0
M  V30 2240 N 217.413 -5.21008 2.10966 0
M  V30 2241 H 209.564 -1.36027 1.63127 0
M  V30 2242 H 211.827 -0.653823 0.686454 0
M  V30 2243 H 211.533 -2.81942 2.10242 0
M  V30 2244 H 211.407 -3.72338 0.603702 0
M  V30 2245 H 213.794 -2.95094 -0.0184742 0
M  V30 2246 H 213.875 -2.06431 1.51063 0
M  V30 2247 H 213.519 -4.25467 2.7738 0
M  V30 2248 H 213.449 -5.1228 1.2197 0
M  V30 2249 H 215.94 -3.56174 1.26288 0
M  V30 2250 H 216.253 -7.05086 3.16344 0
M  V30 2251 H 214.598 -6.34387 2.83863 0
M  V30 2252 H 217.789 -4.38301 1.64347 0
M  V30 2253 H 217.962 -5.97416 2.50993 0
M  V30 2254 N 211.368 -0.403325 -1.52352 0
M  V30 2255 C 212.614 0.174605 -2.02047 0
M  V30 2256 C 212.947 1.45282 -1.28867 0
M  V30 2257 O 212.222 1.90483 -0.393257 0
M  V30 2258 C 212.505 0.428238 -3.57545 0
M  V30 2259 C 212.358 -0.866248 -4.4138 0
M  V30 2260 C 213.677 1.21287 -4.23057 0
M  V30 2261 H 210.796 0.0619851 -0.734389 0
M  V30 2262 H 213.438 -0.53565 -1.82293 0
M  V30 2263 H 211.588 1.03327 -3.74507 0
M  V30 2264 H 213.26 -1.50265 -4.3614 0
M  V30 2265 H 211.503 -1.47851 -4.07827 0
M  V30 2266 H 212.174 -0.643249 -5.48239 0
M  V30 2267 H 214.65 0.700703 -4.10158 0
M  V30 2268 H 213.526 1.35909 -5.31808 0
M  V30 2269 H 213.787 2.23193 -3.81625 0
M  V30 2270 N 212.846 1.57033 -0.133567 0
M  V30 2271 C 213.794 2.17348 0.828412 0
M  V30 2272 C 214.788 1.12671 1.26498 0
M  V30 2273 O 215.994 1.30947 1.23502 0
M  V30 2274 H 212.369 0.695775 0.285309 0
M  V30 2275 H 214.34 2.96935 0.295372 0
M  V30 2276 C 213.089 2.79893 2.06289 0
M  V30 2277 H 212.412 3.60147 1.73592 0
M  V30 2278 H 213.852 3.25615 2.71572 0
M  V30 2279 C 212.311 1.77713 2.86216 0
M  V30 2280 O 212.841 1.23937 3.82103 0
M  V30 2281 N 211.047 1.47321 2.50489 0
M  V30 2282 H 210.594 1.91243 1.7258 0
M  V30 2283 H 210.552 0.79199 3.04261 0
M  V30 2284 N 214.325 -0.140222 1.56975 0
M  V30 2285 C 215.736 -0.699596 1.73097 0
M  V30 2286 C 216.087 -1.8134 0.749022 0
M  V30 2287 O 215.212 -2.16241 -0.0828503 0
M  V30 2288 C 215.807 -1.27582 3.1386 0
M  V30 2289 C 214.366 -1.78169 3.31561 0
M  V30 2290 C 213.513 -0.672855 2.69013 0
M  V30 2291 H 216.464 0.0855115 1.58469 0
M  V30 2292 H 216.485 -2.14561 3.14235 0
M  V30 2293 H 215.997 -0.464955 3.85305 0
M  V30 2294 H 214.098 -2.61801 2.65124 0
M  V30 2295 H 214.211 -1.90574 4.39566 0
M  V30 2296 H 212.575 -1.10118 2.29665 0
M  V30 2297 H 213.358 0.126679 3.43066 0
M  V30 2298 N 215.803 -1.52179 -0.40978 0
M  V30 2299 C 217.052 -1.65434 -1.15388 0
M  V30 2300 C 217.365 -0.390056 -1.91671 0
M  V30 2301 O 218.571 -0.402399 -2.68501 0
M  V30 2302 C 217.027 -2.92279 -2.10003 0
M  V30 2303 C 216.635 -4.25813 -1.39239 0
M  V30 2304 C 218.379 -3.14897 -2.84675 0
M  V30 2305 C 216.286 -5.43782 -2.32498 0
M  V30 2306 H 215.216 -0.616267 -0.434432 0
M  V30 2307 H 217.867 -1.78666 -0.418401 0
M  V30 2308 H 216.249 -2.72744 -2.871 0
M  V30 2309 H 217.423 -4.55828 -0.675099 0
M  V30 2310 H 215.738 -4.09292 -0.766097 0
M  V30 2311 H 218.335 -4.0021 -3.54593 0
M  V30 2312 H 218.678 -2.29103 -3.47588 0
M  V30 2313 H 219.211 -3.34901 -2.14677 0
M  V30 2314 H 215.95 -6.3192 -1.74233 0
M  V30 2315 H 215.47 -5.18106 -3.02201 0
M  V30 2316 H 217.149 -5.76834 -2.93038 0
M  V30 2317 N 217.281 0.66697 -1.42791 0
M  V30 2318 C 218.211 1.79218 -1.49677 0
M  V30 2319 C 219.192 1.66405 -0.352623 0
M  V30 2320 O 220.377 1.85708 -0.567993 0
M  V30 2321 C 217.507 3.17565 -1.40605 0
M  V30 2322 C 216.461 3.45124 -2.53127 0
M  V30 2323 C 215.787 4.83127 -2.29112 0
M  V30 2324 C 217.087 3.41236 -3.95418 0
M  V30 2325 H 218.781 1.73713 -2.43853 0
M  V30 2326 H 216.327 0.83432 -1.17367 0
M  V30 2327 H 218.28 3.96022 -1.44029 0
M  V30 2328 H 217.004 3.23767 -0.429271 0
M  V30 2329 H 215.663 2.69031 -2.49034 0
M  V30 2330 H 215.311 4.85988 -1.29709 0
M  V30 2331 H 215.011 5.02528 -3.04531 0
M  V30 2332 H 216.535 5.63859 -2.34297 0
M  V30 2333 H 217.949 4.09651 -4.01073 0
M  V30 2334 H 216.346 3.72173 -4.70752 0
M  V30 2335 H 217.416 2.39665 -4.21532 0
M  V30 2336 N 218.759 1.29093 0.90403 0
M  V30 2337 C 220.17 1.15186 1.46932 0
M  V30 2338 C 220.521 -0.254587 1.94541 0
M  V30 2339 O 219.646 -1.14972 1.83332 0
M  V30 2340 C 220.241 2.08492 2.67051 0
M  V30 2341 C 218.8 1.98621 3.19729 0
M  V30 2342 C 217.947 1.9967 1.92425 0
M  V30 2343 H 220.898 1.41641 0.715789 0
M  V30 2344 H 220.919 1.65461 3.42641 0
M  V30 2345 H 220.431 3.10847 2.3237 0
M  V30 2346 H 218.532 0.993389 3.59114 0
M  V30 2347 H 218.645 2.86068 3.8432 0
M  V30 2348 H 217.009 1.44208 2.09943 0
M  V30 2349 H 217.792 3.03721 1.60026 0
M  V30 2350 N 220.237 -1.11381 1.11499 0
M  V30 2351 C 221.486 -1.82494 0.858993 0
M  V30 2352 C 221.799 -1.85605 -0.617278 0
M  V30 2353 O 223.005 -2.52824 -0.989552 0
M  V30 2354 C 221.461 -3.27745 1.48699 0
M  V30 2355 C 221.069 -3.32961 2.99735 0
M  V30 2356 C 222.813 -4.03754 1.31085 0
M  V30 2357 C 220.72 -4.72612 3.55516 0
M  V30 2358 H 219.65 -0.683802 0.317696 0
M  V30 2359 H 222.301 -1.25331 1.34031 0
M  V30 2360 H 220.683 -3.84844 0.933339 0
M  V30 2361 H 221.857 -2.85741 3.61509 0
M  V30 2362 H 220.172 -2.70433 3.16631 0
M  V30 2363 H 222.769 -5.06891 1.70192 0
M  V30 2364 H 223.112 -4.15527 0.253496 0
M  V30 2365 H 223.645 -3.53043 1.83318 0
M  V30 2366 H 220.384 -4.66036 4.60967 0
M  V30 2367 H 219.904 -5.2024 2.98513 0
M  V30 2368 H 221.583 -5.4157 3.53992 0
M  V30 2369 N 221.715 -0.905404 -1.28997 0
M  V30 2370 C 222.662 -0.385892 -2.27551 0
M  V30 2371 C 223.632 0.535113 -1.57244 0
M  V30 2372 O 224.817 0.459119 -1.85194 0
M  V30 2373 C 221.957 0.375461 -3.43051 0
M  V30 2374 C 221.07 -0.577092 -4.28128 0
M  V30 2375 C 220.205 0.201879 -5.30816 0
M  V30 2376 C 219.244 -0.744829 -6.07551 0
M  V30 2377 N 218.381 9.42587e-05 -7.021 0
M  V30 2378 H 223.221 -1.23139 -2.71368 0
M  V30 2379 H 220.758 -0.618542 -1.33463 0
M  V30 2380 H 222.716 0.832992 -4.088 0
M  V30 2381 H 221.346 1.18537 -3.00248 0
M  V30 2382 H 220.398 -1.15315 -3.62501 0
M  V30 2383 H 221.71 -1.30152 -4.8152 0
M  V30 2384 H 220.864 0.720351 -6.02408 0
M  V30 2385 H 219.603 0.959413 -4.7817 0
M  V30 2386 H 218.608 -1.27475 -5.34818 0
M  V30 2387 H 219.833 -1.50178 -6.62286 0
M  V30 2388 H 217.779 0.739791 -6.51815 0
M  V30 2389 H 217.696 -0.664321 -7.53076 0
M  V30 2390 H 218.964 0.498644 -7.77903 0
M  V30 2391 N 223.193 1.4272 -0.668489 0
M  V30 2392 C 224.421 2.05966 -0.196348 0
M  V30 2393 C 224.836 1.50191 1.14403 0
M  V30 2394 O 224.193 0.639208 1.7094 0
M  V30 2395 C 224.244 3.61314 -0.115815 0
M  V30 2396 O 223.965 4.1502 -1.40322 0
M  V30 2397 C 225.466 4.41663 0.380579 0
M  V30 2398 H 222.686 0.663954 -0.0969829 0
M  V30 2399 H 225.23 1.82966 -0.913446 0
M  V30 2400 H 223.385 3.83448 0.551931 0
M  V30 2401 H 223.799 5.08832 -1.27243 0
M  V30 2402 H 225.273 5.5065 0.385848 0
M  V30 2403 H 225.75 4.15792 1.41471 0
M  V30 2404 H 226.356 4.24534 -0.255209 0
M  V30 2405 N 224.671 0.411399 1.52136 0
M  V30 2406 C 225.917 -0.163888 2.02137 0
M  V30 2407 C 226.25 -1.44597 1.29636 0
M  V30 2408 O 225.525 -1.90272 0.403353 0
M  V30 2409 C 225.808 -0.40927 3.57767 0
M  V30 2410 C 225.661 0.889643 4.40914 0
M  V30 2411 C 226.98 -1.19042 4.23694 0
M  V30 2412 H 224.099 -0.0580896 0.734707 0
M  V30 2413 H 226.741 0.54531 1.82007 0
M  V30 2414 H 224.891 -1.0134 3.7505 0
M  V30 2415 H 226.563 1.52575 4.35337 0
M  V30 2416 H 224.806 1.50011 4.07037 0
M  V30 2417 H 225.477 0.672314 5.4789 0
M  V30 2418 H 227.953 -0.678942 4.10524 0
M  V30 2419 H 226.829 -1.33086 5.32522 0
M  V30 2420 H 227.09 -2.21166 3.82803 0
M  V30 2421 N 226.149 -1.5696 0.141893 0
M  V30 2422 C 227.097 -2.17784 -0.816874 0
M  V30 2423 C 228.091 -1.1334 -1.25899 0
M  V30 2424 O 229.297 -1.316 -1.22806 0
M  V30 2425 H 225.672 -0.697278 -0.281615 0
M  V30 2426 H 227.643 -2.97087 -0.279621 0
M  V30 2427 C 226.392 -2.80983 -2.04802 0
M  V30 2428 H 225.715 -3.61062 -1.7168 0
M  V30 2429 H 227.155 -3.2705 -2.69841 0
M  V30 2430 C 225.614 -1.79228 -2.8527 0
M  V30 2431 O 226.144 -1.25962 -3.8144 0
M  V30 2432 N 224.35 -1.48647 -2.49704 0
M  V30 2433 H 223.897 -1.92155 -1.71564 0
M  V30 2434 H 223.855 -0.808115 -3.03837 0
M  V30 2435 N 227.627 0.131896 -1.57047 0
M  V30 2436 C 229.043 0.485031 -1.52051 0
M  V30 2437 C 229.243 1.82563 -0.85281 0
M  V30 2438 O 228.299 2.48817 -0.429694 0
M  V30 2439 C 229.612 0.481409 -2.96821 0
M  V30 2440 C 231.16 0.565868 -3.07842 0
M  V30 2441 C 231.635 0.592762 -4.54148 0
M  V30 2442 N 233.126 0.654564 -4.58552 0
M  V30 2443 C 233.861 0.696608 -5.69153 0
M  V30 2444 N 233.357 0.697078 -6.89284 0
M  V30 2445 N 235.15 0.738639 -5.57226 0
M  V30 2446 H 227.301 -0.746664 -1.98843 0
M  V30 2447 H 229.564 -0.273999 -0.90754 0
M  V30 2448 H 229.27 -0.435731 -3.4899 0
M  V30 2449 H 229.144 1.3139 -3.53577 0
M  V30 2450 H 231.531 1.47343 -2.55684 0
M  V30 2451 H 231.612 -0.29406 -2.54104 0
M  V30 2452 H 231.256 -0.310701 -5.06949 0
M  V30 2453 H 231.186 1.46939 -5.05684 0
M  V30 2454 H 233.677 0.660887 -3.72076 0
M  V30 2455 H 233.99 0.731426 -7.69331 0
M  V30 2456 H 232.335 0.66471 -6.91814 0
M  V30 2457 H 235.526 0.735545 -4.62285 0
M  V30 2458 H 235.699 0.767938 -6.43434 0
M  V30 2459 N 229.106 1.52395 0.401703 0
M  V30 2460 C 230.053 1.76268 1.48991 0
M  V30 2461 C 231.023 0.605386 1.54675 0
M  V30 2462 O 232.208 0.843742 1.7113 0
M  V30 2463 C 229.348 1.92592 2.86361 0
M  V30 2464 C 228.461 3.20259 2.89928 0
M  V30 2465 C 227.596 3.26972 4.18644 0
M  V30 2466 C 226.635 4.48812 4.16214 0
M  V30 2467 N 225.772 4.52877 5.36514 0
M  V30 2468 H 230.612 2.6914 1.27935 0
M  V30 2469 H 228.149 1.33355 0.620871 0
M  V30 2470 H 230.107 2.0004 3.66115 0
M  V30 2471 H 228.737 1.03093 3.05895 0
M  V30 2472 H 227.789 3.21945 2.02621 0
M  V30 2473 H 229.101 4.10056 2.83999 0
M  V30 2474 H 228.255 3.33533 5.06794 0
M  V30 2475 H 226.994 2.35126 4.27278 0
M  V30 2476 H 225.999 4.4239 3.26453 0
M  V30 2477 H 227.224 5.41961 4.09213 0
M  V30 2478 H 225.17 3.63917 5.45802 0
M  V30 2479 H 225.087 5.36529 5.32609 0
M  V30 2480 H 226.355 4.63676 6.26597 0
M  V30 2481 N 230.584 -0.659388 1.43143 0
M  V30 2482 C 231.831 -1.41935 1.44433 0
M  V30 2483 C 232.159 -1.94387 0.0663522 0
M  V30 2484 O 231.414 -1.72314 -0.927706 0
M  V30 2485 C 231.713 -2.62206 2.42864 0
M  V30 2486 C 231.379 -2.28208 3.88886 0
M  V30 2487 C 230.041 -2.18647 4.28657 0
M  V30 2488 C 232.393 -2.00887 4.8093 0
M  V30 2489 C 229.721 -1.79914 5.58433 0
M  V30 2490 C 232.073 -1.63653 6.11065 0
M  V30 2491 C 230.737 -1.52614 6.49819 0
M  V30 2492 H 230.007 -0.519376 0.528517 0
M  V30 2493 H 232.654 -0.750453 1.76183 0
M  V30 2494 H 230.959 -3.34199 2.04495 0
M  V30 2495 H 232.656 -3.2041 2.41119 0
M  V30 2496 H 229.246 -2.36557 3.57406 0
M  V30 2497 H 233.43 -2.07198 4.5098 0
M  V30 2498 H 228.686 -1.69948 5.87305 0
M  V30 2499 H 232.86 -1.41543 6.81864 0
M  V30 2500 H 230.487 -1.22371 7.50286 0
M  V30 2501 N 232.062 -1.29571 -0.897171 0
M  V30 2502 C 233.309 -1.17689 -1.6479 0
M  V30 2503 C 233.637 0.27107 -1.92602 0
M  V30 2504 O 232.892 1.21193 -1.53658 0
M  V30 2505 C 233.191 -1.9382 -3.00281 0
M  V30 2506 C 232.857 -3.43522 -2.92068 0
M  V30 2507 C 231.519 -3.84348 -2.89535 0
M  V30 2508 C 233.871 -4.38906 -2.81089 0
M  V30 2509 C 231.199 -5.18869 -2.73846 0
M  V30 2510 C 233.551 -5.73521 -2.66939 0
M  V30 2511 C 232.215 -6.13601 -2.62774 0
M  V30 2512 H 231.485 -0.430654 -0.603008 0
M  V30 2513 H 234.132 -1.60536 -1.04404 0
M  V30 2514 H 232.437 -1.4357 -3.64547 0
M  V30 2515 H 234.134 -1.82028 -3.57305 0
M  V30 2516 H 230.724 -3.11072 -2.94842 0
M  V30 2517 H 234.908 -4.08315 -2.82121 0
M  V30 2518 H 230.164 -5.4903 -2.69027 0
M  V30 2519 H 234.338 -6.47078 -2.57416 0
M  V30 2520 H 231.965 -7.17786 -2.50375 0
M  V30 2521 N 233.54 1.10788 -1.12088 0
M  V30 2522 C 234.788 1.8231 -0.872205 0
M  V30 2523 C 235.109 1.85419 0.603709 0
M  V30 2524 O 234.379 1.32963 1.43867 0
M  V30 2525 H 232.959 0.675137 -0.319686 0
M  V30 2526 H 235.621 1.34068 -1.41463 0
M  V30 2527 H 234.717 2.85955 -1.25045 0
M  V30 2528 N 235.018 0.912232 1.28515 0
M  V30 2529 C 236.265 0.544599 1.95039 0
M  V30 2530 C 236.593 -0.911435 1.71823 0
M  V30 2531 O 235.848 -1.66317 1.03137 0
M  V30 2532 C 236.147 0.798392 3.48368 0
M  V30 2533 C 235.813 2.23374 3.91682 0
M  V30 2534 C 234.475 2.62617 4.03219 0
M  V30 2535 C 236.827 3.16786 4.13879 0
M  V30 2536 C 234.155 3.94429 4.3433 0
M  V30 2537 C 236.507 4.48161 4.46469 0
M  V30 2538 C 235.171 4.8726 4.56217 0
M  V30 2539 H 234.441 0.199283 0.7137 0
M  V30 2540 H 237.088 1.15327 1.52879 0
M  V30 2541 H 235.393 0.106908 3.91654 0
M  V30 2542 H 237.09 0.493141 3.97956 0
M  V30 2543 H 233.68 1.91922 3.83228 0
M  V30 2544 H 237.864 2.87677 4.0442 0
M  V30 2545 H 233.12 4.24426 4.40082 0
M  V30 2546 H 237.294 5.20559 4.62592 0
M  V30 2547 H 234.921 5.89431 4.80078 0
M  V30 2548 N 236.496 -1.42363 0.676048 0
M  V30 2549 C 237.443 -2.308 -0.00150904 0
M  V30 2550 C 238.413 -1.46032 -0.791444 0
M  V30 2551 O 239.598 -1.74861 -0.76344 0
M  V30 2552 C 236.738 -3.31883 -0.945919 0
M  V30 2553 C 235.851 -4.31741 -0.149675 0
M  V30 2554 C 234.986 -5.19898 -1.08995 0
M  V30 2555 C 234.025 -6.11434 -0.285465 0
M  V30 2556 N 233.162 -6.92138 -1.17851 0
M  V30 2557 H 238.002 -2.88187 0.758455 0
M  V30 2558 H 235.539 -1.41952 0.38576 0
M  V30 2559 H 237.497 -3.89019 -1.50731 0
M  V30 2560 H 236.127 -2.76093 -1.6725 0
M  V30 2561 H 235.179 -3.76713 0.528359 0
M  V30 2562 H 236.491 -4.96534 0.474866 0
M  V30 2563 H 235.645 -5.81772 -1.72123 0
M  V30 2564 H 234.384 -4.55284 -1.74837 0
M  V30 2565 H 233.389 -5.48627 0.359018 0
M  V30 2566 H 234.614 -6.78097 0.368883 0
M  V30 2567 H 232.56 -6.30152 -1.82332 0
M  V30 2568 H 232.477 -7.53542 -0.609082 0
M  V30 2569 H 233.745 -7.58499 -1.79722 0
M  V30 2570 N 237.974 -0.419461 -1.51915 0
M  V30 2571 C 239.221 0.152939 -2.01922 0
M  V30 2572 C 239.549 1.4426 -1.30458 0
M  V30 2573 O 238.804 1.91514 -0.402593 0
M  V30 2574 C 239.103 0.437067 -3.54717 0
M  V30 2575 C 238.769 -0.764632 -4.44369 0
M  V30 2576 C 237.431 -1.09423 -4.68594 0
M  V30 2577 C 239.783 -1.56713 -4.97082 0
M  V30 2578 C 237.111 -2.22732 -5.42777 0
M  V30 2579 C 239.463 -2.69107 -5.72507 0
M  V30 2580 C 238.127 -3.02541 -5.95 0
M  V30 2581 H 237.397 0.0559644 -0.738884 0
M  V30 2582 H 240.044 -0.562998 -1.83037 0
M  V30 2583 H 238.349 1.23469 -3.71837 0
M  V30 2584 H 240.046 0.893083 -3.90928 0
M  V30 2585 H 236.636 -0.497775 -4.257 0
M  V30 2586 H 240.82 -1.32571 -4.78266 0
M  V30 2587 H 236.076 -2.48971 -5.58411 0
M  V30 2588 H 240.25 -3.31671 -6.12346 0
M  V30 2589 H 237.877 -3.90457 -6.52264 0
M  V30 2590 N 239.452 1.56882 -0.150215 0
M  V30 2591 C 240.863 1.82995 0.370076 0
M  V30 2592 C 241.214 1.06907 1.64515 0
M  V30 2593 O 240.339 0.315369 2.1409 0
M  V30 2594 C 240.934 3.31942 0.678208 0
M  V30 2595 C 239.493 3.58625 1.14301 0
M  V30 2596 C 238.64 2.76792 0.167778 0
M  V30 2597 H 241.591 1.54209 -0.374858 0
M  V30 2598 H 241.612 3.48272 1.53254 0
M  V30 2599 H 241.124 3.87294 -0.249991 0
M  V30 2600 H 239.225 3.08664 2.08704 0
M  V30 2601 H 239.338 4.67073 1.06676 0
M  V30 2602 H 237.702 2.45972 0.661037 0
M  V30 2603 H 238.485 3.34916 -0.754069 0
M  V30 2604 N 240.93 -0.123565 1.57115 0
M  V30 2605 C 242.178 -0.83051 1.84247 0
M  V30 2606 C 242.499 -1.80629 0.73471 0
M  V30 2607 O 241.769 -1.94403 -0.241688 0
M  V30 2608 H 240.349 -0.309694 0.679778 0
M  V30 2609 H 243.011 -0.111976 1.94578 0
M  V30 2610 H 242.107 -1.37852 2.80006 0
M  V30 2611 N 242.408 -1.52605 -0.393616 0
M  V30 2612 C 243.338 -1.80022 -1.48709 0
M  V30 2613 C 244.319 -0.651995 -1.57108 0
M  V30 2614 O 245.504 -0.89913 -1.72132 0
M  V30 2615 C 242.634 -1.96492 -2.86371 0
M  V30 2616 C 241.588 -3.12161 -2.92813 0
M  V30 2617 C 240.914 -3.13877 -4.3288 0
M  V30 2618 C 242.214 -4.51322 -2.6288 0
M  V30 2619 H 243.908 -2.71589 -1.26015 0
M  V30 2620 H 241.454 -1.30684 -0.604778 0
M  V30 2621 H 243.407 -2.14255 -3.62867 0
M  V30 2622 H 242.131 -1.01611 -3.10391 0
M  V30 2623 H 240.79 -2.94173 -2.18764 0
M  V30 2624 H 240.438 -2.16687 -4.53933 0
M  V30 2625 H 240.138 -3.91576 -4.38112 0
M  V30 2626 H 241.662 -3.33789 -5.1129 0
M  V30 2627 H 243.076 -4.69435 -3.29096 0
M  V30 2628 H 241.473 -5.31053 -2.79468 0
M  V30 2629 H 242.543 -4.58353 -1.58242 0
M  V30 2630 N 243.887 0.651787 -1.4349 0
M  V30 2631 C 245.303 0.96762 -1.26922 0
M  V30 2632 C 245.503 2.00602 -0.189982 0
M  V30 2633 O 244.559 2.48793 0.431107 0
M  V30 2634 C 245.872 1.45052 -2.63401 0
M  V30 2635 C 247.42 1.5671 -2.70945 0
M  V30 2636 C 247.895 2.0839 -4.07845 0
M  V30 2637 N 249.386 2.1569 -4.09917 0
M  V30 2638 C 250.121 2.56804 -5.12679 0
M  V30 2639 N 249.617 2.97203 -6.25813 0
M  V30 2640 N 251.41 2.56756 -5.00033 0
M  V30 2641 H 243.561 -0.0353158 -2.12371 0
M  V30 2642 H 245.824 0.0467858 -0.946845 0
M  V30 2643 H 245.53 0.761926 -3.43348 0
M  V30 2644 H 245.404 2.42529 -2.88894 0
M  V30 2645 H 247.791 2.2467 -1.9133 0
M  V30 2646 H 247.872 0.57662 -2.49216 0
M  V30 2647 H 247.516 1.41031 -4.87927 0
M  V30 2648 H 247.446 3.08271 -4.26938 0
M  V30 2649 H 249.937 1.87237 -3.28254 0
M  V30 2650 H 250.25 3.27328 -7.00055 0
M  V30 2651 H 248.595 2.95004 -6.29283 0
M  V30 2652 H 251.786 2.24572 -4.10713 0
M  V30 2653 H 251.959 2.88475 -5.80247 0
M  V30 2654 N 245.365 1.30045 0.890287 0
M  V30 2655 C 246.611 1.18737 1.64406 0
M  V30 2656 C 246.944 -0.258525 1.92472 0
M  V30 2657 O 246.219 -1.18562 1.54186 0
M  V30 2658 C 246.502 2.01087 2.98724 0
M  V30 2659 C 246.355 3.53867 2.77665 0
M  V30 2660 C 247.674 1.84457 3.9958 0
M  V30 2661 H 244.793 0.432698 0.596608 0
M  V30 2662 H 247.435 1.5962 1.0306 0
M  V30 2663 H 245.585 1.66349 3.51084 0
M  V30 2664 H 247.257 3.98637 2.32133 0
M  V30 2665 H 245.5 3.78318 2.12269 0
M  V30 2666 H 246.171 4.06772 3.7315 0
M  V30 2667 H 248.647 2.14817 3.56361 0
M  V30 2668 H 247.523 2.44411 4.91482 0
M  V30 2669 H 247.784 0.802276 4.3476 0
M  V30 2670 N 246.843 -1.10192 1.12674 0
M  V30 2671 C 247.773 -2.18652 0.819362 0
M  V30 2672 C 248.754 -1.68698 -0.217915 0
M  V30 2673 O 249.939 -1.94041 -0.0785581 0
M  V30 2674 C 247.069 -3.46202 0.27594 0
M  V30 2675 C 246.023 -4.09444 1.24656 0
M  V30 2676 C 245.349 -5.31725 0.563258 0
M  V30 2677 C 246.649 -4.52863 2.60217 0
M  V30 2678 H 248.343 -2.44622 1.72628 0
M  V30 2679 H 245.889 -1.17571 0.831451 0
M  V30 2680 H 247.842 -4.21372 0.0486149 0
M  V30 2681 H 246.566 -3.1973 -0.666331 0
M  V30 2682 H 245.225 -3.36284 1.45974 0
M  V30 2683 H 244.873 -5.0153 -0.384235 0
M  V30 2684 H 244.573 -5.74991 1.21075 0
M  V30 2685 H 246.097 -6.09624 0.34503 0
M  V30 2686 H 247.511 -5.19294 2.42913 0
M  V30 2687 H 245.908 -5.06986 3.21068 0
M  V30 2688 H 246.978 -3.65656 3.18471 0
M  V30 2689 N 248.321 -0.919034 -1.28029 0
M  V30 2690 C 249.549 -0.570971 -1.98866 0
M  V30 2691 C 249.964 0.848996 -1.68634 0
M  V30 2692 O 249.321 1.56307 -0.942036 0
M  V30 2693 C 249.372 -0.776876 -3.53054 0
M  V30 2694 O 249.093 -2.14097 -3.82222 0
M  V30 2695 C 250.594 -0.436356 -4.41147 0
M  V30 2696 H 247.814 -0.217175 -0.634883 0
M  V30 2697 H 250.358 -1.23368 -1.63097 0
M  V30 2698 H 248.513 -0.161085 -3.87065 0
M  V30 2699 H 248.927 -2.18455 -4.76841 0
M  V30 2700 H 250.401 -0.63117 -5.4838 0
M  V30 2701 H 250.878 0.627686 -4.34692 0
M  V30 2702 H 251.484 -1.02991 -4.12641 0
M  V30 2703 N 249.799 1.42003 -0.683588 0
M  V30 2704 C 251.029 2.05448 -0.217866 0
M  V30 2705 C 251.437 1.51491 1.13346 0
M  V30 2706 O 250.78 0.653048 1.717 0
M  V30 2707 C 250.842 3.59399 -0.0850118 0
M  V30 2708 C 250.506 4.36093 -1.36645 0
M  V30 2709 C 251.503 4.66169 -2.30179 0
M  V30 2710 C 249.188 4.75578 -1.61649 0
M  V30 2711 C 251.182 5.34676 -3.46988 0
M  V30 2712 C 248.869 5.43824 -2.78745 0
M  V30 2713 C 249.867 5.73299 -3.71238 0
M  V30 2714 O 249.555 6.40142 -4.86285 0
M  V30 2715 H 249.287 0.668344 -0.101454 0
M  V30 2716 H 251.841 1.82974 -0.933248 0
M  V30 2717 H 250.071 3.80566 0.686031 0
M  V30 2718 H 251.76 4.04457 0.341973 0
M  V30 2719 H 252.526 4.36156 -2.12115 0
M  V30 2720 H 248.405 4.52025 -0.905243 0
M  V30 2721 H 251.949 5.57599 -4.19201 0
M  V30 2722 H 247.846 5.73254 -2.96732 0
M  V30 2723 H 248.614 6.58636 -4.85944 0
M  V30 2724 N 251.277 0.427512 1.51691 0
M  V30 2725 C 252.693 0.0792977 1.59403 0
M  V30 2726 C 252.893 -1.41035 1.43914 0
M  V30 2727 O 251.949 -2.17922 1.27539 0
M  V30 2728 C 253.262 0.590636 2.94842 0
M  V30 2729 C 254.81 0.550215 3.08126 0
M  V30 2730 C 255.285 1.03836 4.46074 0
M  V30 2731 N 256.776 0.995943 4.52366 0
M  V30 2732 C 257.511 1.34463 5.57411 0
M  V30 2733 N 257.007 1.76569 6.69922 0
M  V30 2734 N 258.8 1.26343 5.47717 0
M  V30 2735 H 250.951 1.39687 1.60004 0
M  V30 2736 H 253.214 0.575003 0.753708 0
M  V30 2737 H 252.92 1.63251 3.11516 0
M  V30 2738 H 252.794 0.0102061 3.77199 0
M  V30 2739 H 255.181 -0.482654 2.91126 0
M  V30 2740 H 255.262 1.16693 2.27632 0
M  V30 2741 H 254.906 2.06965 4.63819 0
M  V30 2742 H 254.836 0.398286 5.25092 0
M  V30 2743 H 257.327 0.68661 3.7161 0
M  V30 2744 H 257.64 2.01438 7.46085 0
M  V30 2745 H 255.985 1.80488 6.71155 0
M  V30 2746 H 259.176 0.933209 4.58703 0
M  V30 2747 H 259.349 1.53846 6.29472 0
M  V30 2748 N 252.755 -1.56801 0.158532 0
M  V30 2749 C 253.702 -2.17337 -0.776729 0
M  V30 2750 C 254.672 -1.1096 -1.23601 0
M  V30 2751 O 255.857 -1.39054 -1.30647 0
M  V30 2752 C 252.997 -2.80822 -2.00582 0
M  V30 2753 C 252.11 -4.01624 -1.59129 0
M  V30 2754 C 251.245 -4.53072 -2.77306 0
M  V30 2755 C 250.284 -5.66314 -2.32282 0
M  V30 2756 N 249.421 -6.12329 -3.43508 0
M  V30 2757 H 254.261 -2.96918 -0.253701 0
M  V30 2758 H 251.798 -1.46661 -0.113504 0
M  V30 2759 H 253.756 -3.15779 -2.72652 0
M  V30 2760 H 252.386 -2.03866 -2.50277 0
M  V30 2761 H 251.438 -3.72571 -0.767806 0
M  V30 2762 H 252.75 -4.83633 -1.2207 0
M  V30 2763 H 251.904 -4.90145 -3.57551 0
M  V30 2764 H 250.643 -3.70095 -3.17617 0
M  V30 2765 H 249.648 -5.28806 -1.5048 0
M  V30 2766 H 250.873 -6.51085 -1.93043 0
M  V30 2767 H 248.819 -5.32284 -3.83418 0
M  V30 2768 H 248.736 -6.89293 -3.105 0
M  V30 2769 H 250.004 -6.5405 -4.24075 0
M  V30 2770 N 254.233 0.115231 -1.57178 0
M  V30 2771 C 255.165 1.16694 -1.97269 0
M  V30 2772 C 256.178 1.37445 -0.872502 0
M  V30 2773 O 257.367 1.36454 -1.15077 0
M  V30 2774 C 254.467 2.52627 -2.25905 0
M  V30 2775 C 253.64 2.52427 -3.57211 0
M  V30 2776 C 252.699 3.70134 -3.74016 0
M  V30 2777 O 251.725 3.53546 -4.46087 0
M  V30 2778 N 252.927 4.88844 -3.13068 0
M  V30 2779 H 255.692 0.82588 -2.88096 0
M  V30 2780 H 253.253 0.304461 -1.59011 0
M  V30 2781 H 255.245 3.29937 -2.34359 0
M  V30 2782 H 253.815 2.789 -1.41186 0
M  V30 2783 H 253.035 1.60805 -3.5991 0
M  V30 2784 H 254.323 2.49353 -4.43509 0
M  V30 2785 H 253.721 5.05225 -2.54489 0
M  V30 2786 H 252.278 5.63817 -3.27037 0
M  V30 2787 N 255.711 1.52812 0.385517 0
M  V30 2788 C 256.936 1.72207 1.15583 0
M  V30 2789 C 257.361 0.441034 1.82857 0
M  V30 2790 O 256.719 -0.603465 1.70962 0
M  V30 2791 C 256.767 2.87476 2.17692 0
M  V30 2792 O 255.871 2.54693 3.24354 0
M  V30 2793 H 255.212 0.572526 0.336319 0
M  V30 2794 H 257.742 1.99618 0.448744 0
M  V30 2795 H 257.752 3.13072 2.6163 0
M  V30 2796 H 256.427 3.80408 1.68115 0
M  V30 2797 H 255.004 2.3985 2.85529 0
M  V30 2798 N 257.189 -0.644168 1.43834 0
M  V30 2799 C 258.119 -1.76814 1.52509 0
M  V30 2800 C 259.1 -1.65823 0.379052 0
M  V30 2801 O 260.285 -1.84781 0.597466 0
M  V30 2802 C 257.415 -3.15288 1.4564 0
M  V30 2803 C 256.369 -3.41053 2.58586 0
M  V30 2804 C 255.695 -4.79421 2.36769 0
M  V30 2805 C 256.995 -3.34902 4.00797 0
M  V30 2806 H 258.689 -1.69812 2.46586 0
M  V30 2807 H 256.235 -0.815542 1.1868 0
M  V30 2808 H 258.188 -3.93681 1.50311 0
M  V30 2809 H 256.912 -3.23043 0.480725 0
M  V30 2810 H 255.571 -2.65035 2.53282 0
M  V30 2811 H 255.219 -4.83863 1.37424 0
M  V30 2812 H 254.919 -4.9762 3.12487 0
M  V30 2813 H 256.443 -5.6006 2.43238 0
M  V30 2814 H 257.857 -4.03218 4.07539 0
M  V30 2815 H 256.254 -3.64637 4.76613 0
M  V30 2816 H 257.324 -2.32928 4.25291 0
M  V30 2817 N 258.668 -1.30515 -0.883378 0
M  V30 2818 C 260.079 -1.17509 -1.45081 0
M  V30 2819 C 260.43 0.223605 -1.94922 0
M  V30 2820 O 259.555 1.12041 -1.85137 0
M  V30 2821 C 260.15 -2.12715 -2.63701 0
M  V30 2822 C 258.709 -2.03682 -3.16529 0
M  V30 2823 C 257.856 -2.02706 -1.89224 0
M  V30 2824 H 260.807 -1.42762 -0.693165 0
M  V30 2825 H 260.828 -1.70891 -3.39965 0
M  V30 2826 H 260.34 -3.14505 -2.27395 0
M  V30 2827 H 258.441 -1.05039 -3.57488 0
M  V30 2828 H 258.554 -2.92146 -3.7972 0
M  V30 2829 H 256.918 -1.4753 -2.07622 0
M  V30 2830 H 257.701 -3.06229 -1.55174 0
M  V30 2831 N 260.146 1.09593 -1.13257 0
M  V30 2832 C 261.078 2.16015 -0.766167 0
M  V30 2833 C 262.091 1.61423 0.211303 0
M  V30 2834 O 263.28 1.78498 -0.00863946 0
M  V30 2835 C 260.38 3.38706 -0.114662 0
M  V30 2836 C 259.553 4.22717 -1.12379 0
M  V30 2837 C 258.612 5.23835 -0.498301 0
M  V30 2838 O 257.638 5.573 -1.15781 0
M  V30 2839 N 258.84 5.75886 0.730417 0
M  V30 2840 H 261.605 2.48055 -1.68193 0
M  V30 2841 H 259.166 1.25292 -1.02535 0
M  V30 2842 H 261.158 4.03464 0.315991 0
M  V30 2843 H 259.728 3.04569 0.704011 0
M  V30 2844 H 258.948 3.54122 -1.73179 0
M  V30 2845 H 260.236 4.75673 -1.80589 0
M  V30 2846 H 259.634 5.50911 1.28504 0
M  V30 2847 H 258.191 6.42387 1.10376 0
M  V30 2848 N 261.624 0.925811 1.2754 0
M  V30 2849 C 262.534 0.428993 2.30644 0
M  V30 2850 C 263.55 -0.489387 1.66976 0
M  V30 2851 O 264.726 -0.372653 1.97922 0
M  V30 2852 C 261.791 -0.311967 3.45294 0
M  V30 2853 C 260.852 0.641098 4.24486 0
M  V30 2854 C 260.085 -0.0645955 5.33661 0
M  V30 2855 O 260.308 -1.28429 5.55754 0
M  V30 2856 O 259.242 0.606265 5.98839 0
M  V30 2857 H 263.068 1.28504 2.75173 0
M  V30 2858 H 260.653 0.691086 1.32455 0
M  V30 2859 H 262.535 -0.729972 4.15029 0
M  V30 2860 H 261.21 -1.14365 3.02824 0
M  V30 2861 H 260.117 1.10874 3.57292 0
M  V30 2862 H 261.45 1.43995 4.70666 0
M  V30 2863 N 263.102 -1.41638 0.69111 0
M  V30 2864 C 264.379 -1.95036 0.148421 0
M  V30 2865 C 264.759 -1.63072 -1.34055 0
M  V30 2866 O 264.107 -0.93538 -2.08478 0
M  V30 2867 C 264.317 -3.46279 0.434951 0
M  V30 2868 C 265.665 -4.23069 0.360275 0
M  V30 2869 O 266.689 -3.54277 0.369613 0
M  V30 2870 O 265.548 -5.45583 0.316534 0
M  V30 2871 H 262.642 -0.826908 0.0123654 0
M  V30 2872 H 265.188 -1.5138 0.766963 0
M  V30 2873 H 263.96 -3.6281 1.46576 0
M  V30 2874 H 263.583 -3.97019 -0.214787 0
M  V30 2875 N 264.58 -0.43555 -1.51462 0
M  V30 2876 C 265.991 0.0279871 -1.86679 0
M  V30 2877 C 266.342 1.42104 -1.35281 0
M  V30 2878 O 265.467 2.04667 -0.702878 0
M  V30 2879 C 266.062 0.0575626 -3.38751 0
M  V30 2880 C 264.621 0.465507 -3.7351 0
M  V30 2881 C 263.768 -0.342996 -2.75171 0
M  V30 2882 H 266.719 -0.651473 -1.44712 0
M  V30 2883 H 266.74 0.867421 -3.70481 0
M  V30 2884 H 266.252 -0.956448 -3.7613 0
M  V30 2885 H 264.353 1.48519 -3.41721 0
M  V30 2886 H 264.466 0.191546 -4.78717 0
M  V30 2887 H 262.83 0.198442 -2.53926 0
M  V30 2888 H 263.613 -1.35585 -3.15391 0
M  V30 2889 N 266.058 1.56714 -0.166846 0
M  V30 2890 C 267.335 1.88412 0.525373 0
M  V30 2891 C 267.715 1.07602 1.81618 0
M  V30 2892 O 267.063 0.168621 2.27877 0
M  V30 2893 C 267.273 3.40363 0.771613 0
M  V30 2894 C 268.621 4.10007 1.1036 0
M  V30 2895 O 269.645 3.45655 0.860304 0
M  V30 2896 O 268.504 5.2369 1.56239 0
M  V30 2897 H 265.598 0.781587 0.270278 0
M  V30 2898 H 268.144 1.68458 -0.204946 0
M  V30 2899 H 266.916 3.91046 -0.141093 0
M  V30 2900 H 266.539 3.65914 1.55541 0
M  V30 2901 N 267.536 -0.106894 1.57237 0
M  V30 2902 C 268.782 -0.81373 1.85759 0
M  V30 2903 C 269.115 -1.78952 0.754315 0
M  V30 2904 O 268.39 -1.93029 -0.23879 0
M  V30 2905 C 268.673 -1.55293 3.24894 0
M  V30 2906 C 268.526 -0.595929 4.45835 0
M  V30 2907 C 269.845 -2.5063 3.61763 0
M  V30 2908 H 266.964 -0.294369 0.67566 0
M  V30 2909 H 269.606 -0.0776472 1.89841 0
M  V30 2910 H 267.756 -2.1804 3.21544 0
M  V30 2911 H 269.428 0.0236262 4.61294 0
M  V30 2912 H 267.671 0.0916191 4.33703 0
M  V30 2913 H 268.342 -1.15004 5.39887 0
M  V30 2914 H 270.818 -1.97982 3.65981 0
M  V30 2915 H 269.694 -2.99376 4.60071 0
M  V30 2916 H 269.955 -3.3385 2.89821 0
M  V30 2917 N 269.014 -1.53014 -0.377408 0
M  V30 2918 C 270.26 -1.68872 -1.12294 0
M  V30 2919 C 270.593 -0.433224 -1.89306 0
M  V30 2920 O 269.868 0.569258 -1.85983 0
M  V30 2921 C 270.151 -2.93115 -2.09179 0
M  V30 2922 C 270.004 -4.28794 -1.35853 0
M  V30 2923 C 271.323 -3.12928 -3.09458 0
M  V30 2924 H 268.442 -0.614518 -0.406862 0
M  V30 2925 H 271.084 -1.85633 -0.40503 0
M  V30 2926 H 269.234 -2.78956 -2.70399 0
M  V30 2927 H 270.906 -4.54742 -0.775082 0
M  V30 2928 H 269.149 -4.28744 -0.660364 0
M  V30 2929 H 269.82 -5.11837 -2.06706 0
M  V30 2930 H 272.296 -3.26194 -2.58334 0
M  V30 2931 H 271.172 -4.01316 -3.74482 0
M  V30 2932 H 271.433 -2.27669 -3.78971 0
M  V30 2933 N 270.492 0.636531 -1.44174 0
M  V30 2934 C 271.738 1.39826 -1.4689 0
M  V30 2935 C 272.071 1.93947 -0.0990585 0
M  V30 2936 O 271.346 1.73325 0.882544 0
M  V30 2937 C 271.629 2.56751 -2.5249 0
M  V30 2938 C 271.482 2.08014 -3.98811 0
M  V30 2939 C 272.801 3.58946 -2.54649 0
M  V30 2940 H 269.92 0.507075 -0.53483 0
M  V30 2941 H 272.562 0.720188 -1.75822 0
M  V30 2942 H 270.712 3.14597 -2.2795 0
M  V30 2943 H 272.384 1.5504 -4.34466 0
M  V30 2944 H 270.627 1.39242 -4.10846 0
M  V30 2945 H 271.298 2.92169 -4.68339 0
M  V30 2946 H 273.774 3.1089 -2.76563 0
M  V30 2947 H 272.65 4.38286 -3.3045 0
M  V30 2948 H 272.911 4.12655 -1.58646 0
M  V30 2949 N 271.97 1.30982 0.876444 0
M  V30 2950 C 273.219 1.19658 1.62373 0
M  V30 2951 C 273.532 -0.245636 1.94052 0
M  V30 2952 O 274.738 -0.48049 2.67214 0
M  V30 2953 C 273.194 2.09433 2.92687 0
M  V30 2954 C 272.802 3.58613 2.68516 0
M  V30 2955 C 274.546 2.06893 3.70669 0
M  V30 2956 C 272.453 4.40416 3.94699 0
M  V30 2957 H 271.383 0.444268 0.609214 0
M  V30 2958 H 274.034 1.55791 0.969605 0
M  V30 2959 H 272.416 1.66191 3.59439 0
M  V30 2960 H 273.59 4.10058 2.10212 0
M  V30 2961 H 271.905 3.63063 2.03898 0
M  V30 2962 H 274.502 2.65258 4.64265 0
M  V30 2963 H 274.845 1.05448 4.02724 0
M  V30 2964 H 275.378 2.48301 3.10792 0
M  V30 2965 H 272.117 5.42591 3.67798 0
M  V30 2966 H 271.637 3.93731 4.52477 0
M  V30 2967 H 273.316 4.52294 4.62644 0
M  V30 2968 N 273.449 -1.08991 1.13837 0
M  V30 2969 C 274.726 -1.77863 0.813876 0
M  V30 2970 C 275.106 -1.99375 -0.693746 0
M  V30 2971 O 274.454 -1.59875 -1.63255 0
M  V30 2972 C 274.664 -3.0986 1.60586 0
M  V30 2973 C 276.012 -3.84493 1.8014 0
M  V30 2974 O 277.036 -3.19624 1.57222 0
M  V30 2975 O 275.895 -5.00957 2.18413 0
M  V30 2976 H 272.989 -0.771589 0.297624 0
M  V30 2977 H 275.535 -1.15507 1.24323 0
M  V30 2978 H 274.307 -2.89715 2.63022 0
M  V30 2979 H 273.93 -3.79942 1.17173 0
M  V30 2980 N 274.927 -0.932562 -1.27047 0
M  V30 2981 C 276.152 -0.591474 -1.98787 0
M  V30 2982 C 276.577 0.824601 -1.69062 0
M  V30 2983 O 275.935 1.5541 -0.933677 0
M  V30 2984 C 275.983 -0.829808 -3.50922 0
M  V30 2985 O 275.087 0.102266 -4.12273 0
M  V30 2986 H 274.428 -0.227185 -0.623926 0
M  V30 2987 H 276.958 -1.25314 -1.61733 0
M  V30 2988 H 276.968 -0.747292 -4.01098 0
M  V30 2989 H 275.643 -1.86201 -3.7189 0
M  V30 2990 H 274.22 -0.0305761 -3.72887 0
M  V30 2991 N 276.405 1.4127 -0.698611 0
M  V30 2992 C 277.63 2.06024 -0.238512 0
M  V30 2993 C 278.055 1.5224 1.10475 0
M  V30 2994 O 277.413 0.650623 1.69223 0
M  V30 2995 C 277.461 3.59988 -0.209952 0
M  V30 2996 O 276.565 4.04282 0.814235 0
M  V30 2997 H 275.906 0.653829 -0.115775 0
M  V30 2998 H 278.436 1.8098 -0.954326 0
M  V30 2999 H 278.446 4.07979 -0.0418436 0
M  V30 3000 H 277.121 3.98503 -1.1903 0
M  V30 3001 H 275.698 3.6779 0.615234 0
M  V30 3002 N 277.883 0.443576 1.51229 0
M  V30 3003 C 278.83 -0.364716 2.279 0
M  V30 3004 C 279.8 -1.0114 1.31757 0
M  V30 3005 O 280.985 -1.02912 1.60667 0
M  V30 3006 C 278.125 -1.45644 3.12861 0
M  V30 3007 C 277.238 -0.827269 4.24005 0
M  V30 3008 C 276.373 -1.89456 4.96266 0
M  V30 3009 C 275.412 -1.24416 5.99322 0
M  V30 3010 N 274.549 -2.25309 6.64966 0
M  V30 3011 H 279.389 0.295464 2.96532 0
M  V30 3012 H 276.926 0.157554 1.46254 0
M  V30 3013 H 278.884 -2.10076 3.6045 0
M  V30 3014 H 277.514 -2.08616 2.46331 0
M  V30 3015 H 276.566 -0.0710839 3.80334 0
M  V30 3016 H 277.878 -0.312481 4.9782 0
M  V30 3017 H 277.032 -2.61535 5.47434 0
M  V30 3018 H 275.771 -2.4431 4.22095 0
M  V30 3019 H 274.776 -0.508868 5.4744 0
M  V30 3020 H 276.001 -0.702882 6.75453 0
M  V30 3021 H 273.947 -2.79231 5.93604 0
M  V30 3022 H 273.864 -1.78739 7.34567 0
M  V30 3023 H 275.132 -2.96853 7.20763 0
M  V30 3024 N 279.361 -1.56624 0.175154 0
M  V30 3025 C 280.311 -2.14747 -0.766004 0
M  V30 3026 C 281.295 -1.08275 -1.19018 0
M  V30 3027 O 282.487 -1.34388 -1.15191 0
M  V30 3028 C 279.616 -2.79478 -1.99366 0
M  V30 3029 C 278.702 -3.93114 -1.5913 0
M  V30 3030 N 279.093 -4.97752 -0.89872 0
M  V30 3031 C 277.391 -4.04345 -1.88204 0
M  V30 3032 C 278.092 -5.77473 -0.700012 0
M  V30 3033 N 277.068 -5.29207 -1.24263 0
M  V30 3034 H 280.87 -2.93015 -0.22793 0
M  V30 3035 H 278.384 -1.6238 -0.0253843 0
M  V30 3036 H 280.381 -3.19498 -2.67818 0
M  V30 3037 H 279.041 -2.02692 -2.53665 0
M  V30 3038 H 280.052 -5.14903 -0.556347 0
M  V30 3039 H 276.729 -3.38667 -2.44153 0
M  V30 3040 H 278.119 -6.71728 -0.152047 0
M  V30 3041 N 280.839 0.0985539 -1.57292 0
M  V30 3042 C 282.064 0.820196 -1.90493 0
M  V30 3043 C 282.489 1.71658 -0.769094 0
M  V30 3044 O 281.847 1.79133 0.279495 0
M  V30 3045 C 281.895 1.61242 -3.22542 0
M  V30 3046 O 280.999 2.72108 -3.09888 0
M  V30 3047 H 280.34 0.225547 -0.62452 0
M  V30 3048 H 282.87 0.0748159 -2.04463 0
M  V30 3049 H 282.88 1.99737 -3.55766 0
M  V30 3050 H 281.555 0.954535 -4.04798 0
M  V30 3051 H 280.132 2.36667 -2.88172 0
M  V30 3052 N 282.317 1.53212 0.369288 0
M  V30 3053 C 283.594 1.59815 1.12776 0
M  V30 3054 C 283.974 0.403402 2.0721 0
M  V30 3055 O 283.322 -0.606667 2.20299 0
M  V30 3056 C 283.532 2.94664 1.87013 0
M  V30 3057 C 284.88 3.49109 2.41677 0
M  V30 3058 O 285.904 2.96669 1.97144 0
M  V30 3059 O 284.763 4.40775 3.23079 0
M  V30 3060 H 281.857 0.645376 0.517125 0
M  V30 3061 H 284.403 1.65553 0.37285 0
M  V30 3062 H 283.175 3.73061 1.18071 0
M  V30 3063 H 282.798 2.92401 2.69421 0
M  V30 3064 N 283.795 -0.628877 1.44509 0
M  V30 3065 C 285.072 -1.38733 1.37886 0
M  V30 3066 C 285.452 -2.11065 0.0387008 0
M  V30 3067 O 284.8 -2.06476 -0.97878 0
M  V30 3068 C 285.01 -2.35188 2.57852 0
M  V30 3069 C 286.358 -2.9845 3.02014 0
M  V30 3070 O 287.382 -2.45513 2.58073 0
M  V30 3071 O 286.241 -3.94487 3.78209 0
M  V30 3072 H 283.335 -0.621015 0.54614 0
M  V30 3073 H 285.881 -0.653744 1.56602 0
M  V30 3074 H 284.653 -1.80855 3.46998 0
M  V30 3075 H 284.276 -3.1596 2.4136 0
M  V30 3076 N 285.273 -1.31445 -0.869486 0
M  V30 3077 C 286.498 -1.24256 -1.66058 0
M  V30 3078 C 286.923 0.188928 -1.87149 0
M  V30 3079 O 286.281 1.13522 -1.4136 0
M  V30 3080 C 286.329 -1.9924 -3.00559 0
M  V30 3081 O 285.433 -1.33007 -3.90362 0
M  V30 3082 H 284.774 -0.428973 -0.506831 0
M  V30 3083 H 287.304 -1.73521 -1.08404 0
M  V30 3084 H 287.314 -2.08854 -3.50491 0
M  V30 3085 H 285.989 -3.03342 -2.84528 0
M  V30 3086 H 284.566 -1.31848 -3.48813 0
M  V30 3087 N 286.751 1.08385 -1.14413 0
M  V30 3088 C 287.997 1.81044 -0.913834 0
M  V30 3089 C 288.33 1.86004 0.558209 0
M  V30 3090 O 287.605 1.33606 1.4135 0
M  V30 3091 C 287.888 3.26648 -1.51569 0
M  V30 3092 C 287.741 3.29895 -3.0576 0
M  V30 3093 C 289.06 4.23629 -1.19273 0
M  V30 3094 H 286.179 0.65727 -0.333414 0
M  V30 3095 H 288.821 1.26896 -1.41412 0
M  V30 3096 H 286.971 3.72889 -1.09023 0
M  V30 3097 H 288.643 2.91977 -3.57137 0
M  V30 3098 H 286.886 2.69163 -3.40197 0
M  V30 3099 H 287.557 4.32516 -3.42977 0
M  V30 3100 H 290.033 3.85727 -1.56057 0
M  V30 3101 H 288.909 5.23822 -1.64017 0
M  V30 3102 H 289.17 4.41968 -0.108068 0
M  V30 3103 N 288.23 0.939286 1.26551 0
M  V30 3104 C 289.193 0.451987 2.24699 0
M  V30 3105 C 290.193 -0.435869 1.5478 0
M  V30 3106 O 291.383 -0.235314 1.72603 0
M  V30 3107 C 288.515 -0.348801 3.39111 0
M  V30 3108 H 289.708 1.3193 2.69322 0
M  V30 3109 H 287.261 0.721072 1.38673 0
M  V30 3110 H 287.996 -1.23444 2.99887 0
M  V30 3111 H 287.781 0.287945 3.91041 0
M  V30 3112 H 289.271 -0.679726 4.12031 0
M  V30 3113 N 289.708 -1.40897 0.706093 0
M  V30 3114 C 290.641 -2.282 -0.00328781 0
M  V30 3115 C 291.619 -1.42816 -0.77732 0
M  V30 3116 O 292.803 -1.72237 -0.765944 0
M  V30 3117 C 289.93 -3.23226 -1.01205 0
M  V30 3118 C 288.976 -4.25222 -0.329955 0
M  V30 3119 S 289.809 -5.27269 0.935298 0
M  V30 3120 C 290.965 -6.25859 -0.0716061 0
M  V30 3121 H 291.198 -2.88016 0.737143 0
M  V30 3122 H 288.731 -1.46191 0.496756 0
M  V30 3123 H 290.689 -3.78503 -1.58888 0
M  V30 3124 H 289.35 -2.62485 -1.72513 0
M  V30 3125 H 288.543 -4.92023 -1.09221 0
M  V30 3126 H 288.145 -3.73595 0.174069 0
M  V30 3127 H 290.437 -6.71204 -0.921521 0
M  V30 3128 H 291.38 -7.0586 0.562765 0
M  V30 3129 H 291.788 -5.62852 -0.431088 0
M  V30 3130 N 291.186 -0.45159 -1.50991 0
M  V30 3131 C 292.133 0.352625 -2.2809 0
M  V30 3132 C 293.103 1.0044 -1.32291 0
M  V30 3133 O 294.288 1.02058 -1.6121 0
M  V30 3134 C 291.428 1.43983 -3.13629 0
M  V30 3135 C 290.541 0.804772 -4.24438 0
M  V30 3136 C 289.676 1.86822 -4.97263 0
M  V30 3137 C 288.715 1.21236 -5.99973 0
M  V30 3138 N 287.852 2.2178 -6.66152 0
M  V30 3139 H 292.692 -0.311186 -2.96371 0
M  V30 3140 H 290.229 -0.165308 -1.46168 0
M  V30 3141 H 292.187 2.08161 -3.61559 0
M  V30 3142 H 290.817 2.07307 -2.47434 0
M  V30 3143 H 289.869 0.0509129 -3.80366 0
M  V30 3144 H 291.181 0.286076 -4.97979 0
M  V30 3145 H 290.335 2.58628 -5.48813 0
M  V30 3146 H 289.074 2.42068 -4.23385 0
M  V30 3147 H 288.079 0.479828 -5.47702 0
M  V30 3148 H 289.304 0.667051 -6.75816 0
M  V30 3149 H 287.25 2.76079 -5.95077 0
M  V30 3150 H 287.167 1.74841 -7.35504 0
M  V30 3151 H 288.435 2.93026 -7.22327 0
M  V30 3152 N 292.664 1.56529 -0.183458 0
M  V30 3153 C 293.614 2.1515 0.754605 0
M  V30 3154 C 294.598 1.08904 1.18443 0
M  V30 3155 O 295.79 1.34997 1.14476 0
M  V30 3156 C 292.919 2.80531 1.97881 0
M  V30 3157 C 292.005 3.93952 1.57043 0
M  V30 3158 N 292.396 4.98221 0.87231 0
M  V30 3159 C 290.694 4.05338 1.86057 0
M  V30 3160 C 291.395 5.77836 0.669377 0
M  V30 3161 N 290.371 5.29858 1.21454 0
M  V30 3162 H 294.173 2.93132 0.212387 0
M  V30 3163 H 291.687 1.62391 0.0167725 0
M  V30 3164 H 293.684 3.20914 2.6612 0
M  V30 3165 H 292.344 2.04035 2.52586 0
M  V30 3166 H 293.355 5.15191 0.529033 0
M  V30 3167 H 290.032 3.39957 2.42354 0
M  V30 3168 H 291.422 6.71799 0.116422 0
M  V30 3169 N 294.142 -0.090211 1.57342 0
M  V30 3170 C 295.389 -0.792807 1.86335 0
M  V30 3171 C 295.717 -1.78494 0.772662 0
M  V30 3172 O 294.972 -1.94305 -0.233258 0
M  V30 3173 C 295.271 -1.55222 3.21933 0
M  V30 3174 C 294.937 -0.701765 4.45406 0
M  V30 3175 C 293.599 -0.467334 4.78925 0
M  V30 3176 C 295.951 -0.11086 5.21082 0
M  V30 3177 C 293.279 0.367785 5.85546 0
M  V30 3178 C 295.631 0.711609 6.28585 0
M  V30 3179 C 294.295 0.956086 6.60617 0
M  V30 3180 H 293.565 -0.290109 0.681849 0
M  V30 3181 H 296.212 -0.0541332 1.91423 0
M  V30 3182 H 294.517 -2.3626 3.12551 0
M  V30 3183 H 296.214 -2.10032 3.41595 0
M  V30 3184 H 292.804 -0.894598 4.1916 0
M  V30 3185 H 296.988 -0.279129 4.95514 0
M  V30 3186 H 292.244 0.566128 6.08773 0
M  V30 3187 H 296.418 1.17632 6.86393 0
M  V30 3188 H 294.045 1.60499 7.43064 0
M  V30 3189 N 295.62 -1.53406 -0.361157 0
M  V30 3190 C 296.567 -1.80156 -1.44265 0
M  V30 3191 C 297.537 -0.646183 -1.53015 0
M  V30 3192 O 298.722 -0.888818 -1.68833 0
M  V30 3193 C 295.862 -2.00116 -2.81154 0
M  V30 3194 C 294.975 -3.27833 -2.81335 0
M  V30 3195 C 294.11 -3.37957 -4.09828 0
M  V30 3196 C 293.149 -4.59689 -4.04168 0
M  V30 3197 N 292.286 -4.66942 -5.24318 0
M  V30 3198 H 297.126 -2.72438 -1.20754 0
M  V30 3199 H 294.663 -1.34954 -0.585296 0
M  V30 3200 H 296.621 -2.09677 -3.60682 0
M  V30 3201 H 295.251 -1.11167 -3.03054 0
M  V30 3202 H 294.303 -3.27204 -1.94014 0
M  V30 3203 H 295.615 -4.17442 -2.73027 0
M  V30 3204 H 294.769 -3.46853 -4.97773 0
M  V30 3205 H 293.508 -2.46372 -4.20894 0
M  V30 3206 H 292.513 -4.50889 -3.14609 0
M  V30 3207 H 293.738 -5.5262 -3.947 0
M  V30 3208 H 291.684 -3.7826 -5.35962 0
M  V30 3209 H 291.601 -5.50462 -5.18197 0
M  V30 3210 H 292.869 -4.80127 -6.14084 0
M  V30 3211 N 297.098 0.621204 -1.44841 0
M  V30 3212 C 298.323 1.41244 -1.51871 0
M  V30 3213 C 298.748 1.87519 -0.147764 0
M  V30 3214 O 298.106 1.59334 0.865 0
M  V30 3215 C 298.154 2.60221 -2.49634 0
M  V30 3216 O 297.258 3.60395 -2.00473 0
M  V30 3217 H 296.599 0.42223 -0.512463 0
M  V30 3218 H 299.129 0.757305 -1.90069 0
M  V30 3219 H 299.139 3.0764 -2.67996 0
M  V30 3220 H 297.814 2.25887 -3.4921 0
M  V30 3221 H 296.391 3.19717 -1.91925 0
M  V30 3222 N 298.576 1.31904 0.862503 0
M  V30 3223 C 299.987 1.19803 1.43193 0
M  V30 3224 C 300.338 -0.192567 1.95253 0
M  V30 3225 O 299.463 -1.09081 1.86896 0
M  V30 3226 C 300.058 2.16883 2.60283 0
M  V30 3227 C 298.617 2.08692 3.13248 0
M  V30 3228 C 297.764 2.05691 1.85975 0
M  V30 3229 H 300.715 1.43846 0.670365 0
M  V30 3230 H 300.736 1.76278 3.37204 0
M  V30 3231 H 300.248 3.18083 2.22363 0
M  V30 3232 H 298.349 1.10713 3.55771 0
M  V30 3233 H 298.462 2.9815 3.75025 0
M  V30 3234 H 296.826 1.50814 2.05249 0
M  V30 3235 H 297.609 3.08659 1.50282 0
M  V30 3236 N 300.054 -1.07777 1.14986 0
M  V30 3237 C 301.282 -1.84018 0.945773 0
M  V30 3238 C 301.697 -1.81897 -0.505863 0
M  V30 3239 O 301.054 -1.22726 -1.35072 0
M  V30 3240 C 301.105 -3.31287 1.44677 0
M  V30 3241 O 300.826 -3.33449 2.84154 0
M  V30 3242 C 302.327 -4.24311 1.28355 0
M  V30 3243 H 299.547 -0.580716 0.336169 0
M  V30 3244 H 302.091 -1.36077 1.52654 0
M  V30 3245 H 300.246 -3.76594 0.908625 0
M  V30 3246 H 300.66 -4.25427 3.06777 0
M  V30 3247 H 302.134 -5.2573 1.68261 0
M  V30 3248 H 302.611 -4.38612 0.227184 0
M  V30 3249 H 303.217 -3.84836 1.81056 0
M  V30 3250 N 301.532 -0.945985 -1.26051 0
M  V30 3251 C 302.479 -0.45809 -2.26208 0
M  V30 3252 C 303.449 0.484816 -1.58867 0
M  V30 3253 O 304.634 0.399969 -1.86561 0
M  V30 3254 C 301.774 0.266131 -3.44072 0
M  V30 3255 C 300.887 -0.713005 -4.26075 0
M  V30 3256 C 300.022 0.0329013 -5.3119 0
M  V30 3257 C 299.061 -0.93774 -6.04874 0
M  V30 3258 N 298.198 -0.223274 -7.01745 0
M  V30 3259 H 303.038 -1.3171 -2.67313 0
M  V30 3260 H 300.575 -0.66069 -1.31428 0
M  V30 3261 H 302.533 0.702514 -4.11243 0
M  V30 3262 H 301.163 1.08925 -3.03867 0
M  V30 3263 H 300.215 -1.26789 -3.58648 0
M  V30 3264 H 301.527 -1.45406 -4.77136 0
M  V30 3265 H 300.681 0.528335 -6.04395 0
M  V30 3266 H 299.42 0.806801 -4.8098 0
M  V30 3267 H 298.425 -1.44425 -5.30492 0
M  V30 3268 H 299.65 -1.71172 -6.57173 0
M  V30 3269 H 297.596 0.532046 -6.53839 0
M  V30 3270 H 297.513 -0.90357 -7.50581 0
M  V30 3271 H 298.781 0.250907 -7.79096 0
M  V30 3272 N 303.011 1.40521 -0.713556 0
M  V30 3273 C 303.921 2.34522 -0.0606667 0
M  V30 3274 C 304.937 1.57193 0.74607 0
M  V30 3275 O 306.113 1.89591 0.679493 0
M  V30 3276 C 303.178 3.36081 0.851491 0
M  V30 3277 C 302.239 4.29286 0.0349339 0
M  V30 3278 C 301.472 5.25994 0.903649 0
M  V30 3279 O 301.695 5.28616 2.14292 0
M  V30 3280 O 300.629 6.00918 0.343723 0
M  V30 3281 H 304.455 2.91968 -0.835972 0
M  V30 3282 H 302.04 1.41681 -0.47402 0
M  V30 3283 H 303.922 3.98369 1.37404 0
M  V30 3284 H 302.597 2.81052 1.60598 0
M  V30 3285 H 301.504 3.70289 -0.532633 0
M  V30 3286 H 302.837 4.87462 -0.681287 0
M  V30 3287 N 304.489 0.459591 1.5075 0
M  V30 3288 C 305.714 -0.0996819 2.0716 0
M  V30 3289 C 306.139 -1.33761 1.32249 0
M  V30 3290 O 305.497 -1.77551 0.366786 0
M  V30 3291 C 305.545 -0.378226 3.58611 0
M  V30 3292 O 304.649 -1.46081 3.85661 0
M  V30 3293 H 303.99 0.00791392 0.663953 0
M  V30 3294 H 306.52 0.647329 1.9409 0
M  V30 3295 H 306.53 -0.622135 4.03229 0
M  V30 3296 H 305.205 0.526439 4.12555 0
M  V30 3297 H 303.782 -1.20511 3.5289 0
M  V30 3298 N 305.967 -1.56429 0.191757 0
M  V30 3299 C 307.207 -1.99383 -0.450099 0
M  V30 3300 C 307.571 -1.07581 -1.59029 0
M  V30 3301 O 308.772 -1.39758 -2.29611 0
M  V30 3302 C 307.043 -3.45841 -0.901611 0
M  V30 3303 S 308.602 -4.10822 -1.54177 0
M  V30 3304 H 305.42 -0.696253 -0.144057 0
M  V30 3305 H 308.022 -1.93276 0.294036 0
M  V30 3306 H 306.726 -4.10354 -0.0616596 0
M  V30 3307 H 306.257 -3.55757 -1.67929 0
M  V30 3308 H 308.272 -4.07553 -2.83046 0
M  V30 3309 N 307.445 0.0818655 -1.57387 0
M  V30 3310 C 308.67 0.799946 -1.91352 0
M  V30 3311 C 309.095 1.70833 -0.787258 0
M  V30 3312 O 308.453 1.79419 0.26048 0
M  V30 3313 C 308.501 1.57812 -3.24234 0
M  V30 3314 O 307.605 2.68806 -3.12757 0
M  V30 3315 H 306.946 0.21891 -0.626877 0
M  V30 3316 H 309.476 0.0531256 -2.04531 0
M  V30 3317 H 309.486 1.95952 -3.57864 0
M  V30 3318 H 308.161 0.911548 -4.05788 0
M  V30 3319 H 306.738 2.33597 -2.90666 0
M  V30 3320 N 308.923 1.53595 0.353017 0
M  V30 3321 C 310.334 1.61937 0.929153 0
M  V30 3322 C 310.685 0.494686 1.89861 0
M  V30 3323 O 309.81 -0.377017 2.1309 0
M  V30 3324 C 310.405 2.93526 1.69199 0
M  V30 3325 C 308.964 3.04161 2.21727 0
M  V30 3326 C 308.111 2.57322 1.03348 0
M  V30 3327 H 311.062 1.58155 0.131431 0
M  V30 3328 H 311.083 2.82034 2.55416 0
M  V30 3329 H 310.595 3.75362 0.986144 0
M  V30 3330 H 308.696 2.26938 2.95516 0
M  V30 3331 H 308.809 4.09465 2.48748 0
M  V30 3332 H 307.173 2.12499 1.40414 0
M  V30 3333 H 307.956 3.41588 0.342428 0
M  V30 3334 N 310.401 -0.613514 1.45168 0
M  V30 3335 C 311.626 -1.40437 1.52618 0
M  V30 3336 C 312.051 -1.87438 0.157707 0
M  V30 3337 O 311.409 -1.59791 -0.856537 0
M  V30 3338 C 311.457 -2.58894 2.51011 0
M  V30 3339 O 310.561 -3.59326 2.02382 0
M  V30 3340 H 309.902 -0.419506 0.514695 0
M  V30 3341 H 312.432 -0.747215 1.90467 0
M  V30 3342 H 312.442 -3.06214 2.69624 0
M  V30 3343 H 311.117 -2.24032 3.50403 0
M  V30 3344 H 309.694 -3.18695 1.93618 0
M  V30 3345 N 311.879 -1.3236 -0.855495 0
M  V30 3346 C 312.789 -1.23221 -1.99634 0
M  V30 3347 C 313.805 -0.145983 -1.73387 0
M  V30 3348 O 314.981 -0.366502 -1.98037 0
M  V30 3349 C 312.046 -0.954782 -3.33294 0
M  V30 3350 C 311.107 -2.12937 -3.72769 0
M  V30 3351 C 310.34 -1.86508 -5.00051 0
M  V30 3352 O 310.563 -0.807231 -5.64659 0
M  V30 3353 O 309.497 -2.72591 -5.36636 0
M  V30 3354 H 313.323 -2.19126 -2.1028 0
M  V30 3355 H 310.908 -1.12241 -0.986018 0
M  V30 3356 H 312.79 -0.816519 -4.13414 0
M  V30 3357 H 311.465 -0.0258854 -3.2369 0
M  V30 3358 H 310.372 -2.3231 -2.93228 0
M  V30 3359 H 311.705 -3.04102 -3.87018 0
M  V30 3360 N 313.357 1.07166 -1.15556 0
M  V30 3361 C 314.32 2.12589 -0.856644 0
M  V30 3362 C 315.32 1.6015 0.14444 0
M  V30 3363 O 316.51 1.7399 -0.0854163 0
M  V30 3364 C 313.642 3.39753 -0.279405 0
M  V30 3365 H 314.835 2.40539 -1.79112 0
M  V30 3366 H 312.388 1.23086 -0.963298 0
M  V30 3367 H 313.123 3.17447 0.663174 0
M  V30 3368 H 312.908 3.79117 -1.00063 0
M  V30 3369 H 314.398 4.17507 -0.0879113 0
M  V30 3370 N 314.835 0.952656 1.25548 0
M  V30 3371 C 316.112 0.523818 1.88456 0
M  V30 3372 C 316.492 -0.998871 1.85973 0
M  V30 3373 O 315.84 -1.86381 1.3219 0
M  V30 3374 C 316.05 1.0982 3.31271 0
M  V30 3375 C 317.398 1.17385 4.08051 0
M  V30 3376 O 318.422 1.04961 3.40384 0
M  V30 3377 O 317.281 1.36852 5.29088 0
M  V30 3378 H 314.375 0.172485 0.808813 0
M  V30 3379 H 316.921 1.04596 1.33633 0
M  V30 3380 H 315.693 2.1415 3.27499 0
M  V30 3381 H 315.316 0.559191 3.93648 0
M  V30 3382 N 316.313 -1.40141 0.720998 0
M  V30 3383 C 317.59 -1.94677 0.189757 0
M  V30 3384 C 317.97 -1.65879 -1.30566 0
M  V30 3385 O 317.318 -0.979391 -2.06447 0
M  V30 3386 C 317.528 -3.45279 0.508304 0
M  V30 3387 C 318.876 -4.22209 0.449934 0
M  V30 3388 O 319.9 -3.53413 0.444677 0
M  V30 3389 O 318.759 -5.44788 0.432189 0
M  V30 3390 H 315.853 -0.826459 0.0299026 0
M  V30 3391 H 318.399 -1.49719 0.7989 0
M  V30 3392 H 317.171 -3.59619 1.54239 0
M  V30 3393 H 316.794 -3.97386 -0.130525 0
M  V30 3394 N 317.792 -0.46758 -1.50504 0
M  V30 3395 C 319.02 0.0864133 -2.06719 0
M  V30 3396 C 319.435 1.33819 -1.33184 0
M  V30 3397 O 318.792 1.78061 -0.400083 0
M  V30 3398 C 318.843 0.378079 -3.59517 0
M  V30 3399 O 318.564 -0.824044 -4.3028 0
M  V30 3400 C 320.065 0.979426 -4.32345 0
M  V30 3401 H 317.285 -0.00551697 -0.670977 0
M  V30 3402 H 319.829 -0.655354 -1.93715 0
M  V30 3403 H 317.984 1.06977 -3.72337 0
M  V30 3404 H 318.398 -0.566518 -5.21432 0
M  V30 3405 H 319.872 1.1333 -5.40241 0
M  V30 3406 H 320.349 1.9686 -3.9261 0
M  V30 3407 H 320.955 0.326216 -4.24047 0
M  V30 3408 N 319.27 1.56325 -0.20005 0
M  V30 3409 C 320.217 2.1932 0.718833 0
M  V30 3410 C 321.187 1.14198 1.20615 0
M  V30 3411 O 322.372 1.42469 1.26914 0
M  V30 3412 C 319.512 2.86041 1.93066 0
M  V30 3413 C 318.625 4.05702 1.48425 0
M  V30 3414 C 317.76 4.60266 2.65196 0
M  V30 3415 C 316.799 5.72273 2.17185 0
M  V30 3416 N 315.936 6.21221 3.27152 0
M  V30 3417 H 320.776 2.97486 0.17489 0
M  V30 3418 H 318.313 1.46911 0.0745794 0
M  V30 3419 H 320.271 3.22897 2.64184 0
M  V30 3420 H 318.901 2.1043 2.44783 0
M  V30 3421 H 317.953 3.74475 0.668755 0
M  V30 3422 H 319.265 4.86699 1.09204 0
M  V30 3423 H 318.419 4.99453 3.4443 0
M  V30 3424 H 317.158 3.78386 3.07693 0
M  V30 3425 H 316.163 5.3261 1.36407 0
M  V30 3426 H 317.388 6.55974 1.75713 0
M  V30 3427 H 315.334 5.42263 3.69171 0
M  V30 3428 H 315.251 6.97284 2.92116 0
M  V30 3429 H 316.519 6.65063 4.06585 0
M  V30 3430 N 320.748 -0.0735177 1.57428 0
M  V30 3431 C 321.711 -1.07192 2.02589 0
M  V30 3432 C 322.711 -1.31695 0.922661 0
M  V30 3433 O 323.901 -1.27445 1.18758 0
M  V30 3434 C 321.033 -2.41599 2.40506 0
M  V30 3435 H 322.226 -0.682727 2.92025 0
M  V30 3436 H 319.779 -0.319193 1.53006 0
M  V30 3437 H 320.514 -2.85354 1.5409 0
M  V30 3438 H 320.299 -2.25156 3.21009 0
M  V30 3439 H 321.789 -3.13367 2.76027 0
M  V30 3440 N 322.226 -1.5378 -0.344866 0
M  V30 3441 C 323.156 -1.84662 -1.42906 0
M  V30 3442 C 324.137 -0.701648 -1.54955 0
M  V30 3443 O 325.322 -0.953438 -1.69184 0
M  V30 3444 C 322.452 -2.05503 -2.79974 0
M  V30 3445 C 321.406 -3.21318 -2.82734 0
M  V30 3446 C 320.732 -3.2749 -4.22675 0
M  V30 3447 C 322.032 -4.59456 -2.48389 0
M  V30 3448 H 323.726 -2.75461 -1.17311 0
M  V30 3449 H 321.272 -1.32542 -0.562896 0
M  V30 3450 H 323.225 -2.25691 -3.55867 0
M  V30 3451 H 321.949 -1.11434 -3.07002 0
M  V30 3452 H 320.608 -3.00984 -2.09294 0
M  V30 3453 H 320.256 -2.31019 -4.4681 0
M  V30 3454 H 319.956 -4.05316 -4.25433 0
M  V30 3455 H 321.48 -3.49887 -5.00412 0
M  V30 3456 H 322.894 -4.79667 -3.13995 0
M  V30 3457 H 321.291 -5.39675 -2.62432 0
M  V30 3458 H 322.361 -4.63155 -1.4358 0
M  V30 3459 N 323.704 0.605807 -1.45491 0
M  V30 3460 C 324.953 1.36086 -1.48874 0
M  V30 3461 C 325.266 1.95131 -0.135333 0
M  V30 3462 O 326.472 2.7146 -0.0468144 0
M  V30 3463 C 324.928 2.46518 -2.62215 0
M  V30 3464 C 324.536 1.93877 -4.03876 0
M  V30 3465 C 326.28 3.23512 -2.74846 0
M  V30 3466 C 324.187 3.01801 -5.08596 0
M  V30 3467 H 323.117 0.511497 -0.553974 0
M  V30 3468 H 325.768 0.649089 -1.71636 0
M  V30 3469 H 324.15 3.20388 -2.32739 0
M  V30 3470 H 325.324 1.26704 -4.43038 0
M  V30 3471 H 323.639 1.29622 -3.95711 0
M  V30 3472 H 326.236 4.04013 -3.50253 0
M  V30 3473 H 326.579 3.74631 -1.81542 0
M  V30 3474 H 327.112 2.56742 -3.03856 0
M  V30 3475 H 323.851 2.55597 -6.03614 0
M  V30 3476 H 323.371 3.67535 -4.74002 0
M  V30 3477 H 325.05 3.66152 -5.33424 0
M  V30 3478 N 325.182 1.32811 0.848464 0
M  V30 3479 C 326.114 1.18095 1.96433 0
M  V30 3480 C 327.127 0.114354 1.62398 0
M  V30 3481 O 328.316 0.363892 1.74751 0
M  V30 3482 C 325.416 0.786798 3.2964 0
M  V30 3483 C 324.589 1.943 3.91875 0
M  V30 3484 C 323.648 1.53138 5.03423 0
M  V30 3485 O 322.674 2.24432 5.23086 0
M  V30 3486 N 323.876 0.430915 5.78898 0
M  V30 3487 H 326.641 2.14218 2.09597 0
M  V30 3488 H 324.202 1.2543 1.02367 0
M  V30 3489 H 326.194 0.493715 4.01677 0
M  V30 3490 H 324.764 -0.0834541 3.12489 0
M  V30 3491 H 323.984 2.40224 3.12547 0
M  V30 3492 H 325.272 2.71689 4.30189 0
M  V30 3493 H 324.67 -0.162333 5.65467 0
M  V30 3494 H 323.227 0.197466 6.51501 0
M  V30 3495 N 326.66 -1.06551 1.16123 0
M  V30 3496 C 328.071 -1.60768 0.949232 0
M  V30 3497 C 328.422 -1.89523 -0.507508 0
M  V30 3498 O 327.547 -1.66671 -1.38021 0
M  V30 3499 C 328.142 -2.92086 1.71671 0
M  V30 3500 C 326.701 -3.43015 1.54977 0
M  V30 3501 C 325.848 -2.16947 1.72711 0
M  V30 3502 H 328.799 -0.895354 1.31031 0
M  V30 3503 H 328.82 -3.6138 1.19099 0
M  V30 3504 H 328.332 -2.71127 2.7769 0
M  V30 3505 H 326.433 -3.69039 0.513873 0
M  V30 3506 H 326.546 -4.18516 2.33198 0
M  V30 3507 H 324.91 -2.27041 1.15431 0
M  V30 3508 H 325.693 -1.98473 2.80113 0
M  V30 3509 N 328.138 -0.959301 -1.25041 0
M  V30 3510 C 329.363 -0.633507 -1.97488 0
M  V30 3511 C 329.788 0.788555 -1.70773 0
M  V30 3512 O 329.146 1.53394 -0.966431 0
M  V30 3513 C 329.194 -0.904057 -3.49083 0
M  V30 3514 O 328.298 0.0147939 -4.12397 0
M  V30 3515 H 327.639 -0.240368 -0.618966 0
M  V30 3516 H 330.169 -1.28717 -1.59038 0
M  V30 3517 H 330.179 -0.832203 -3.99423 0
M  V30 3518 H 328.854 -1.94048 -3.67856 0
M  V30 3519 H 327.431 -0.109664 -3.72739 0
M  V30 3520 N 329.616 1.39756 -0.72842 0
M  V30 3521 C 330.563 2.30647 -0.0841519 0
M  V30 3522 C 331.533 1.48869 0.7367 0
M  V30 3523 O 332.718 1.77574 0.698015 0
M  V30 3524 C 329.858 3.35165 0.822091 0
M  V30 3525 C 328.971 4.31999 -0.0106663 0
M  V30 3526 C 328.106 5.23585 0.896241 0
M  V30 3527 C 327.145 6.12072 0.0583381 0
M  V30 3528 N 326.282 6.96035 0.920818 0
M  V30 3529 H 331.122 2.85173 -0.864891 0
M  V30 3530 H 328.659 1.40422 -0.438179 0
M  V30 3531 H 330.617 3.94345 1.36189 0
M  V30 3532 H 329.247 2.8211 1.56888 0
M  V30 3533 H 328.299 3.74492 -0.66781 0
M  V30 3534 H 329.611 4.9443 -0.658825 0
M  V30 3535 H 328.765 5.87759 1.50412 0
M  V30 3536 H 327.504 4.61459 1.57819 0
M  V30 3537 H 326.509 5.46916 -0.562389 0
M  V30 3538 H 327.734 6.76261 -0.6203 0
M  V30 3539 H 325.68 6.36485 1.58818 0
M  V30 3540 H 325.597 7.55284 0.32899 0
M  V30 3541 H 326.865 7.64646 1.51447 0
M  V30 3542 N 331.094 0.475555 1.50254 0
M  V30 3543 C 332.334 -0.0765802 2.04256 0
M  V30 3544 C 332.698 -1.36587 1.34937 0
M  V30 3545 O 333.899 -2.00066 1.79519 0
M  V30 3546 C 332.17 -0.251668 3.56513 0
M  V30 3547 S 333.729 -0.761716 4.32138 0
M  V30 3548 H 330.547 -0.0138456 0.710865 0
M  V30 3549 H 333.149 0.643714 1.84598 0
M  V30 3550 H 331.853 0.692404 4.04517 0
M  V30 3551 H 331.384 -0.997946 3.80532 0
M  V30 3552 H 333.399 -2.03451 4.52573 0
M  V30 3553 N 332.573 -1.56217 0.208337 0
M  V30 3554 C 333.798 -2.02782 -0.435222 0
M  V30 3555 C 334.223 -1.08738 -1.53485 0
M  V30 3556 O 333.581 -0.0731855 -1.81152 0
M  V30 3557 C 333.629 -3.47687 -0.956335 0
M  V30 3558 O 332.733 -3.56773 -2.06849 0
M  V30 3559 H 332.074 -0.656403 -0.100158 0
M  V30 3560 H 334.604 -2.02033 0.3231 0
M  V30 3561 H 334.614 -3.87745 -1.26955 0
M  V30 3562 H 333.289 -4.15624 -0.15143 0
M  V30 3563 H 331.866 -3.28597 -1.76292 0
M  V30 3564 N 334.051 0.0651679 -1.57465 0
M  V30 3565 C 335.462 0.616213 -1.76238 0
M  V30 3566 C 335.813 1.7756 -0.834689 0
M  V30 3567 O 334.938 2.1639 -0.0204156 0
M  V30 3568 C 335.533 1.12462 -3.1959 0
M  V30 3569 C 334.092 1.62147 -3.39684 0
M  V30 3570 C 333.239 0.543739 -2.71917 0
M  V30 3571 H 336.19 -0.161022 -1.57881 0
M  V30 3572 H 336.211 1.99324 -3.24114 0
M  V30 3573 H 335.723 0.280592 -3.87084 0
M  V30 3574 H 333.824 2.48854 -2.77313 0
M  V30 3575 H 333.937 1.69385 -4.48158 0
M  V30 3576 H 332.301 0.990352 -2.34657 0
M  V30 3577 H 333.084 -0.290216 -3.42071 0
M  V30 3578 N 335.529 1.53961 0.336706 0
M  V30 3579 C 336.459 1.85417 1.41925 0
M  V30 3580 C 337.44 0.709856 1.5458 0
M  V30 3581 O 338.625 0.962396 1.68676 0
M  V30 3582 C 335.755 2.06985 2.78881 0
M  V30 3583 C 334.709 3.22813 2.81026 0
M  V30 3584 C 334.035 3.29727 4.20932 0
M  V30 3585 C 335.335 4.60767 2.45949 0
M  V30 3586 H 337.029 2.76079 1.15848 0
M  V30 3587 H 334.575 1.32839 0.555859 0
M  V30 3588 H 336.528 2.27575 3.54665 0
M  V30 3589 H 335.252 1.13061 3.06406 0
M  V30 3590 H 333.911 3.0209 2.07695 0
M  V30 3591 H 333.559 2.33385 4.45579 0
M  V30 3592 H 333.259 4.07566 4.23277 0
M  V30 3593 H 334.783 3.52536 4.98549 0
M  V30 3594 H 336.197 4.81325 3.11446 0
M  V30 3595 H 334.594 5.4106 2.59566 0
M  V30 3596 H 335.664 4.6391 1.41122 0
M  V30 3597 N 337.007 -0.598083 1.45811 0
M  V30 3598 C 338.253 -1.35882 1.50545 0
M  V30 3599 C 338.586 -1.93616 0.150445 0
M  V30 3600 O 337.861 -1.75604 -0.83628 0
M  V30 3601 C 338.144 -2.49966 2.59208 0
M  V30 3602 C 337.997 -1.97367 4.04186 0
M  V30 3603 C 339.316 -3.52068 2.64076 0
M  V30 3604 H 336.435 -0.492717 0.548087 0
M  V30 3605 H 339.077 -0.673319 1.77669 0
M  V30 3606 H 337.227 -3.08443 2.3621 0
M  V30 3607 H 338.899 -1.43466 4.38423 0
M  V30 3608 H 337.142 -1.283 4.14393 0
M  V30 3609 H 337.813 -2.79649 4.75921 0
M  V30 3610 H 340.289 -3.03448 2.84708 0
M  V30 3611 H 339.165 -4.2937 3.41954 0
M  V30 3612 H 339.426 -4.08304 1.69531 0
M  V30 3613 N 338.485 -1.33259 -0.841409 0
M  V30 3614 C 339.433 -1.23279 -1.97244 0
M  V30 3615 C 340.427 -0.134706 -1.68864 0
M  V30 3616 O 341.633 -0.298501 -1.77508 0
M  V30 3617 H 338.008 -0.382497 -0.647457 0
M  V30 3618 H 339.979 -2.18906 -2.02787 0
M  V30 3619 C 338.728 -0.986268 -3.33419 0
M  V30 3620 H 338.051 -1.82347 -3.55794 0
M  V30 3621 H 339.491 -0.956728 -4.13065 0
M  V30 3622 C 337.95 0.310842 -3.35463 0
M  V30 3623 O 338.48 1.31838 -3.79449 0
M  V30 3624 N 336.686 0.337485 -2.88634 0
M  V30 3625 H 336.233 -0.482967 -2.53032 0
M  V30 3626 H 336.191 1.20518 -2.90384 0
M  V30 3627 N 339.963 1.05934 -1.16686 0
M  V30 3628 C 341.212 1.78188 -0.945085 0
M  V30 3629 C 341.525 1.88338 0.528021 0
M  V30 3630 O 342.731 2.57258 0.867799 0
M  V30 3631 C 341.187 3.20277 -1.64167 0
M  V30 3632 C 340.795 3.18281 -3.15279 0
M  V30 3633 C 342.539 3.97039 -1.502 0
M  V30 3634 C 340.446 4.55112 -3.7766 0
M  V30 3635 H 339.376 0.667866 -0.349959 0
M  V30 3636 H 342.027 1.18794 -1.39858 0
M  V30 3637 H 340.409 3.79952 -1.11589 0
M  V30 3638 H 341.583 2.68167 -3.74731 0
M  V30 3639 H 339.898 2.55018 -3.29173 0
M  V30 3640 H 342.495 4.98194 -1.94183 0
M  V30 3641 H 342.838 4.13845 -0.451461 0
M  V30 3642 H 343.371 3.43894 -1.99954 0
M  V30 3643 H 340.11 4.43512 -4.82677 0
M  V30 3644 H 339.63 5.05406 -3.22994 0
M  V30 3645 H 341.309 5.24064 -3.79428 0
M  V30 3646 N 341.441 0.965919 1.2453 0
M  V30 3647 C 342.666 0.643971 1.97149 0
M  V30 3648 C 343.091 -0.779487 1.71189 0
M  V30 3649 O 342.449 -1.5288 0.974553 0
M  V30 3650 C 342.497 0.922557 3.48599 0
M  V30 3651 O 341.601 0.00707672 4.12399 0
M  V30 3652 H 340.942 0.243647 0.617683 0
M  V30 3653 H 343.472 1.29558 1.58353 0
M  V30 3654 H 343.482 0.853373 3.98976 0
M  V30 3655 H 342.157 1.95996 3.66822 0
M  V30 3656 H 340.734 0.12943 3.72675 0
M  V30 3657 N 342.919 -1.39368 0.735821 0
M  V30 3658 C 344.167 -2.00101 0.283562 0
M  V30 3659 C 344.488 -1.5868 -1.13338 0
M  V30 3660 O 343.758 -0.835423 -1.77193 0
M  V30 3661 H 342.338 -0.740024 0.101851 0
M  V30 3662 H 345 -1.70404 0.945962 0
M  V30 3663 H 344.096 -3.10323 0.332604 0
M  V30 3664 N 344.397 -0.483516 -1.5 0
M  V30 3665 C 345.808 -0.0314176 -1.86674 0
M  V30 3666 C 346.159 1.37728 -1.39733 0
M  V30 3667 O 345.284 2.02327 -0.767635 0
M  V30 3668 C 345.879 -0.0502376 -3.38763 0
M  V30 3669 C 344.438 0.346442 -3.74802 0
M  V30 3670 C 343.585 -0.430366 -2.7394 0
M  V30 3671 H 346.536 -0.697182 -1.42566 0
M  V30 3672 H 346.557 0.749116 -3.73053 0
M  V30 3673 H 346.069 -1.07563 -3.72897 0
M  V30 3674 H 344.17 1.37572 -3.46273 0
M  V30 3675 H 344.283 0.0391486 -4.79084 0
M  V30 3676 H 342.647 0.117557 -2.54429 0
M  V30 3677 H 343.43 -1.4555 -3.10918 0
M  V30 3678 N 345.875 1.56104 -0.216619 0
M  V30 3679 C 346.805 2.23063 0.690296 0
M  V30 3680 C 347.786 1.20072 1.20485 0
M  V30 3681 O 348.971 1.48643 1.24976 0
M  V30 3682 C 346.101 2.90672 1.90072 0
M  V30 3683 C 345.055 4.00092 1.5202 0
M  V30 3684 C 344.381 4.54972 2.80899 0
M  V30 3685 C 345.681 5.17398 0.71391 0
M  V30 3686 H 347.375 2.99109 0.132038 0
M  V30 3687 H 344.921 1.43866 0.0620664 0
M  V30 3688 H 346.874 3.36204 2.54057 0
M  V30 3689 H 345.598 2.12066 2.48386 0
M  V30 3690 H 344.257 3.55283 0.903839 0
M  V30 3691 H 343.905 3.73102 3.37348 0
M  V30 3692 H 343.605 5.28817 2.56176 0
M  V30 3693 H 345.129 5.0322 3.45836 0
M  V30 3694 H 346.543 5.59342 1.25735 0
M  V30 3695 H 344.94 5.97444 0.563951 0
M  V30 3696 H 346.01 4.84088 -0.280527 0
M  V30 3697 N 347.353 -0.0568162 1.57498 0
M  V30 3698 C 348.63 -0.786954 1.79071 0
M  V30 3699 C 349.01 -1.95028 0.80792 0
M  V30 3700 O 348.358 -2.27968 -0.155858 0
M  V30 3701 C 348.568 -1.24594 3.26002 0
M  V30 3702 C 349.916 -1.67323 3.90241 0
M  V30 3703 O 350.94 -1.34124 3.29984 0
M  V30 3704 O 349.799 -2.28842 4.9628 0
M  V30 3705 H 346.893 -0.378262 0.735423 0
M  V30 3706 H 349.439 -0.035734 1.69662 0
M  V30 3707 H 348.211 -0.41423 3.89101 0
M  V30 3708 H 347.834 -2.05803 3.40192 0
M  V30 3709 N 348.832 -1.54138 -0.328536 0
M  V30 3710 C 349.782 -1.79557 -1.4051 0
M  V30 3711 C 350.766 -0.651373 -1.47126 0
M  V30 3712 O 351.958 -0.911226 -1.51742 0
M  V30 3713 C 349.087 -2.02196 -2.77438 0
M  V30 3714 C 348.173 -3.22724 -2.75155 0
M  V30 3715 N 348.564 -4.43881 -2.42494 0
M  V30 3716 C 346.862 -3.24196 -3.06289 0
M  V30 3717 C 347.563 -5.25797 -2.48822 0
M  V30 3718 N 346.539 -4.62862 -2.8506 0
M  V30 3719 H 350.341 -2.70814 -1.1418 0
M  V30 3720 H 347.855 -1.53265 -0.536991 0
M  V30 3721 H 349.852 -2.18546 -3.55026 0
M  V30 3722 H 348.512 -1.12191 -3.04702 0
M  V30 3723 H 349.523 -4.70969 -2.15428 0
M  V30 3724 H 346.2 -2.44208 -3.38627 0
M  V30 3725 H 347.59 -6.32535 -2.26603 0
M  V30 3726 N 350.31 0.590341 -1.46126 0
M  V30 3727 C 351.535 1.37991 -1.54833 0
M  V30 3728 C 351.96 1.87163 -0.187506 0
M  V30 3729 O 351.318 1.61133 0.831008 0
M  V30 3730 C 351.366 2.54867 -2.55098 0
M  V30 3731 O 350.47 3.56061 -2.08073 0
M  V30 3732 H 349.811 0.411265 -0.521303 0
M  V30 3733 H 352.341 0.716819 -1.91632 0
M  V30 3734 H 352.351 3.01886 -2.74461 0
M  V30 3735 H 351.026 2.18429 -3.53923 0
M  V30 3736 H 349.603 3.15574 -1.98664 0
M  V30 3737 N 351.788 1.33704 0.83433 0
M  V30 3738 C 353.013 1.28615 1.62705 0
M  V30 3739 C 353.438 -0.139242 1.87584 0
M  V30 3740 O 352.796 -1.09734 1.4432 0
M  V30 3741 C 352.844 2.07139 2.95171 0
M  V30 3742 O 351.948 1.4331 3.86699 0
M  V30 3743 H 351.289 0.44226 0.49528 0
M  V30 3744 H 353.819 1.76335 1.03766 0
M  V30 3745 H 353.829 2.18073 3.44831 0
M  V30 3746 H 352.504 3.10779 2.76386 0
M  V30 3747 H 351.081 1.4105 3.45195 0
M  V30 3748 N 353.266 -1.05314 1.17247 0
M  V30 3749 C 354.677 -1.59753 0.96623 0
M  V30 3750 C 355.028 -1.9005 -0.487378 0
M  V30 3751 O 354.153 -1.68126 -1.36245 0
M  V30 3752 C 354.748 -2.90249 1.74759 0
M  V30 3753 C 353.307 -3.41352 1.58606 0
M  V30 3754 C 352.454 -2.15103 1.75002 0
M  V30 3755 H 355.405 -0.881406 1.31973 0
M  V30 3756 H 355.426 -3.60097 1.22925 0
M  V30 3757 H 354.938 -2.68166 2.8055 0
M  V30 3758 H 353.039 -3.68474 0.552985 0
M  V30 3759 H 353.152 -4.16019 2.37624 0
M  V30 3760 H 351.516 -2.25804 1.17833 0
M  V30 3761 H 352.299 -1.95491 2.82202 0
M  V30 3762 N 354.744 -0.972509 -1.24016 0
M  V30 3763 C 355.691 -0.505969 -2.25186 0
M  V30 3764 C 356.661 0.451009 -1.5986 0
M  V30 3765 O 357.846 0.360307 -1.87367 0
M  V30 3766 C 354.986 0.193089 -3.44559 0
M  V30 3767 C 354.099 -0.803222 -4.24467 0
M  V30 3768 C 353.234 -0.0797793 -5.3114 0
M  V30 3769 C 352.273 -1.06583 -6.02749 0
M  V30 3770 N 351.41 -0.372074 -7.01113 0
M  V30 3771 H 356.25 -1.37351 -2.64459 0
M  V30 3772 H 353.787 -0.688419 -1.29997 0
M  V30 3773 H 355.745 0.615125 -4.1264 0
M  V30 3774 H 354.375 1.02455 -3.06109 0
M  V30 3775 H 353.427 -1.34368 -3.55878 0
M  V30 3776 H 354.739 -1.55494 -4.73944 0
M  V30 3777 H 353.893 0.400015 -6.0538 0
M  V30 3778 H 352.632 0.704597 -4.82583 0
M  V30 3779 H 351.637 -1.55645 -5.27309 0
M  V30 3780 H 352.862 -1.85074 -6.53395 0
M  V30 3781 H 350.808 0.393238 -6.5482 0
M  V30 3782 H 350.725 -1.06258 -7.48495 0
M  V30 3783 H 351.993 0.0855932 -7.79453 0
M  V30 3784 N 356.222 1.38976 -0.743202 0
M  V30 3785 C 357.638 1.53984 -0.419664 0
M  V30 3786 C 357.838 1.70837 1.0685 0
M  V30 3787 O 356.894 1.7135 1.8546 0
M  V30 3788 C 358.207 2.75287 -1.20985 0
M  V30 3789 C 359.755 2.89129 -1.19889 0
M  V30 3790 C 360.23 4.13381 -1.97181 0
M  V30 3791 N 361.721 4.20437 -1.94389 0
M  V30 3792 C 362.456 5.15547 -2.50996 0
M  V30 3793 N 361.952 6.16395 -3.16274 0
M  V30 3794 N 363.745 5.07822 -2.40984 0
M  V30 3795 H 355.896 1.26285 -1.7078 0
M  V30 3796 H 358.159 0.612689 -0.723406 0
M  V30 3797 H 357.865 2.69204 -2.26323 0
M  V30 3798 H 357.739 3.68184 -0.819759 0
M  V30 3799 H 360.126 2.947 -0.153606 0
M  V30 3800 H 360.207 1.97272 -1.62841 0
M  V30 3801 H 359.851 4.08572 -3.01714 0
M  V30 3802 H 359.781 5.04298 -1.51629 0
M  V30 3803 H 362.272 3.48205 -1.46839 0
M  V30 3804 H 362.585 6.85443 -3.56915 0
M  V30 3805 H 360.93 6.16758 -3.20367 0
M  V30 3806 H 364.121 4.27973 -1.89622 0
M  V30 3807 H 364.294 5.81767 -2.85397 0
M  V30 3808 N 357.7 0.491464 1.49741 0
M  V30 3809 C 358.632 -0.328609 2.26832 0
M  V30 3810 C 359.645 -0.939113 1.32983 0
M  V30 3811 O 360.834 -0.824067 1.58339 0
M  V30 3812 C 357.934 -1.47675 3.05033 0
M  V30 3813 C 357.107 -0.975305 4.26388 0
M  V30 3814 C 356.166 -1.99991 4.86714 0
M  V30 3815 O 355.192 -1.57229 5.47054 0
M  V30 3816 N 356.394 -3.32962 4.75517 0
M  V30 3817 H 359.159 0.332377 2.97851 0
M  V30 3818 H 356.72 0.323441 1.58636 0
M  V30 3819 H 358.712 -2.15954 3.42266 0
M  V30 3820 H 357.282 -2.04206 2.36683 0
M  V30 3821 H 356.502 -0.117723 3.94024 0
M  V30 3822 H 357.79 -0.618531 5.05026 0
M  V30 3823 H 357.188 -3.70399 4.27576 0
M  V30 3824 H 355.745 -3.96982 5.16961 0
M  V30 3825 N 359.178 -1.55987 0.224894 0
M  V30 3826 C 360.424 -1.99433 -0.39973 0
M  V30 3827 C 360.779 -1.11004 -1.57149 0
M  V30 3828 O 360.072 -0.160725 -1.90925 0
M  V30 3829 C 360.266 -3.46394 -0.880106 0
M  V30 3830 C 360.095 -4.4904 0.243565 0
M  V30 3831 C 358.865 -5.00272 0.711056 0
M  V30 3832 C 361.063 -5.03195 1.06299 0
M  V30 3833 N 359.045 -5.86628 1.80944 0
M  V30 3834 C 360.416 -5.86508 2.01017 0
M  V30 3835 C 362.471 -4.8555 1.10205 0
M  V30 3836 C 361.174 -6.54062 2.99324 0
M  V30 3837 C 363.2 -5.53866 2.07332 0
M  V30 3838 C 362.562 -6.3695 3.00789 0
M  V30 3839 H 358.661 -0.773815 -0.112847 0
M  V30 3840 H 361.245 -1.91754 0.337432 0
M  V30 3841 H 359.416 -3.54515 -1.58662 0
M  V30 3842 H 361.148 -3.76752 -1.47783 0
M  V30 3843 H 357.903 -4.72655 0.29906 0
M  V30 3844 H 358.327 -6.34507 2.36073 0
M  V30 3845 H 362.969 -4.20966 0.39343 0
M  V30 3846 H 360.687 -7.17827 3.71147 0
M  V30 3847 H 364.273 -5.42178 2.11032 0
M  V30 3848 H 363.153 -6.8888 3.74718 0
M  V30 3849 N 360.656 0.0484629 -1.57525 0
M  V30 3850 C 361.933 0.777447 -1.79486 0
M  V30 3851 C 362.313 1.94597 -0.818251 0
M  V30 3852 O 361.661 2.28047 0.143767 0
M  V30 3853 C 361.871 1.22864 -3.26658 0
M  V30 3854 C 363.219 1.65251 -3.91123 0
M  V30 3855 O 364.243 1.32372 -3.3069 0
M  V30 3856 O 363.102 2.26207 -4.97486 0
M  V30 3857 H 360.196 0.374357 -0.737419 0
M  V30 3858 H 362.742 0.0267359 -1.69679 0
M  V30 3859 H 361.514 0.393589 -3.89316 0
M  V30 3860 H 361.137 2.03996 -3.41279 0
M  V30 3861 N 362.134 1.5431 0.320358 0
M  V30 3862 C 363.55 1.45091 0.664889 0
M  V30 3863 C 363.75 0.626382 1.91517 0
M  V30 3864 O 362.806 0.126443 2.52183 0
M  V30 3865 C 364.119 2.88848 0.83591 0
M  V30 3866 C 365.667 2.9877 0.933046 0
M  V30 3867 C 366.142 4.43683 1.13621 0
M  V30 3868 N 367.633 4.47309 1.20287 0
M  V30 3869 C 368.368 5.56595 1.37801 0
M  V30 3870 N 367.864 6.75844 1.52338 0
M  V30 3871 N 369.657 5.44248 1.40535 0
M  V30 3872 H 361.808 2.06398 -0.501374 0
M  V30 3873 H 364.071 0.933963 -0.162534 0
M  V30 3874 H 363.777 3.51698 -0.0116092 0
M  V30 3875 H 363.651 3.35148 1.73078 0
M  V30 3876 H 366.038 2.36045 1.77107 0
M  V30 3877 H 366.119 2.55796 0.0145782 0
M  V30 3878 H 365.763 5.06995 0.303032 0
M  V30 3879 H 365.693 4.84269 2.0686 0
M  V30 3880 H 368.184 3.61388 1.10485 0
M  V30 3881 H 368.497 7.54892 1.65403 0
M  V30 3882 H 366.842 6.78746 1.4943 0
M  V30 3883 H 370.033 4.50038 1.28777 0
M  V30 3884 H 370.206 6.29473 1.53842 0
M  V30 3885 N 363.613 -0.582584 1.46437 0
M  V30 3886 C 364.543 -1.70187 1.59871 0
M  V30 3887 C 365.524 -1.64066 0.449042 0
M  V30 3888 O 366.709 -1.82081 0.6753 0
M  V30 3889 C 363.839 -3.08827 1.58881 0
M  V30 3890 C 362.793 -3.29779 2.72819 0
M  V30 3891 C 362.119 -4.68947 2.5689 0
M  V30 3892 C 363.419 -3.17601 4.1464 0
M  V30 3893 H 365.113 -1.592 2.53566 0
M  V30 3894 H 362.659 -0.764472 1.22032 0
M  V30 3895 H 364.612 -3.86951 1.66873 0
M  V30 3896 H 363.336 -3.20713 0.617306 0
M  V30 3897 H 361.995 -2.54054 2.64296 0
M  V30 3898 H 361.643 -4.77599 1.57823 0
M  V30 3899 H 361.343 -4.83919 3.33312 0
M  V30 3900 H 362.867 -5.4924 2.66773 0
M  V30 3901 H 364.281 -3.8557 4.24274 0
M  V30 3902 H 362.678 -3.44094 4.9165 0
M  V30 3903 H 363.748 -2.14681 4.34788 0
M  V30 3904 N 365.091 -1.34144 -0.827227 0
M  V30 3905 C 366.321 -1.29138 -1.61267 0
M  V30 3906 C 366.729 0.137597 -1.88699 0
M  V30 3907 O 366.072 1.09379 -1.47587 0
M  V30 3908 C 366.134 -2.0097 -2.9808 0
M  V30 3909 C 365.798 -3.50242 -2.93563 0
M  V30 3910 C 366.795 -4.4523 -2.68452 0
M  V30 3911 C 364.48 -3.92592 -3.13331 0
M  V30 3912 C 366.474 -5.80542 -2.63154 0
M  V30 3913 C 364.161 -5.28005 -3.07658 0
M  V30 3914 C 365.159 -6.21792 -2.82602 0
M  V30 3915 O 364.847 -7.54723 -2.76853 0
M  V30 3916 H 364.579 -0.445851 -0.508127 0
M  V30 3917 H 367.133 -1.77263 -1.03763 0
M  V30 3918 H 365.363 -1.47451 -3.57484 0
M  V30 3919 H 367.052 -1.89309 -3.5905 0
M  V30 3920 H 367.818 -4.13832 -2.52919 0
M  V30 3921 H 363.697 -3.19994 -3.31851 0
M  V30 3922 H 367.241 -6.53717 -2.43516 0
M  V30 3923 H 363.138 -5.59023 -3.22743 0
M  V30 3924 H 363.906 -7.64409 -2.92611 0
M  V30 3925 N 366.569 1.04691 -1.17803 0
M  V30 3926 C 367.98 1.59238 -0.974689 0
M  V30 3927 C 368.331 1.90306 0.477292 0
M  V30 3928 O 367.456 1.68846 1.35352 0
M  V30 3929 C 368.051 2.89318 -1.76296 0
M  V30 3930 C 366.61 3.40506 -1.60414 0
M  V30 3931 C 365.757 2.14172 -1.76141 0
M  V30 3932 H 368.708 0.874395 -1.32439 0
M  V30 3933 H 368.729 3.5944 -1.24833 0
M  V30 3934 H 368.241 2.66675 -2.81968 0
M  V30 3935 H 366.342 3.68175 -0.572519 0
M  V30 3936 H 366.455 4.14753 -2.39827 0
M  V30 3937 H 364.819 2.25176 -1.19028 0
M  V30 3938 H 365.602 1.93992 -2.83235 0
M  V30 3939 N 368.047 0.979072 1.23499 0
M  V30 3940 C 369.324 0.563674 1.87302 0
M  V30 3941 C 369.704 -0.959199 1.88049 0
M  V30 3942 O 369.052 -1.83535 1.36114 0
M  V30 3943 C 369.262 1.16822 3.28867 0
M  V30 3944 C 370.61 1.26014 4.0547 0
M  V30 3945 O 371.634 1.12158 3.38082 0
M  V30 3946 O 370.493 1.48044 5.26066 0
M  V30 3947 H 367.587 0.189602 0.804972 0
M  V30 3948 H 370.133 1.07407 1.31384 0
M  V30 3949 H 368.905 2.21049 3.22883 0
M  V30 3950 H 368.528 0.642564 3.92373 0
M  V30 3951 N 369.525 -1.3858 0.750561 0
M  V30 3952 C 370.458 -2.28095 0.0693139 0
M  V30 3953 C 371.436 -1.45217 -0.731491 0
M  V30 3954 O 372.62 -1.74587 -0.71076 0
M  V30 3955 C 369.747 -3.26282 -0.90871 0
M  V30 3956 C 368.793 -4.26056 -0.194507 0
M  V30 3957 S 369.626 -5.24026 1.10257 0
M  V30 3958 C 370.782 -6.2577 0.127542 0
M  V30 3959 H 371.015 -2.85526 0.8284 0
M  V30 3960 H 368.548 -1.44536 0.543014 0
M  V30 3961 H 370.506 -3.83367 -1.46766 0
M  V30 3962 H 369.167 -2.6784 -1.64075 0
M  V30 3963 H 368.36 -4.95249 -0.93512 0
M  V30 3964 H 367.962 -3.72852 0.292837 0
M  V30 3965 H 370.254 -6.73796 -0.707516 0
M  V30 3966 H 371.197 -7.03712 0.787044 0
M  V30 3967 H 371.605 -5.63938 -0.251803 0
M  V30 3968 N 371.003 -0.499398 -1.49478 0
M  V30 3969 C 371.933 0.269244 -2.31943 0
M  V30 3970 C 372.914 0.964054 -1.40143 0
M  V30 3971 O 374.099 0.955767 -1.69052 0
M  V30 3972 C 371.229 1.33504 -3.20615 0
M  V30 3973 C 370.183 0.760202 -4.21195 0
M  V30 3974 C 369.509 1.9264 -4.98792 0
M  V30 3975 C 370.809 -0.247661 -5.21712 0
M  V30 3976 H 372.503 -0.419082 -2.96452 0
M  V30 3977 H 370.049 -0.202988 -1.42562 0
M  V30 3978 H 372.002 1.88048 -3.77115 0
M  V30 3979 H 370.726 2.05253 -2.54045 0
M  V30 3980 H 369.385 0.23653 -3.65836 0
M  V30 3981 H 369.033 2.63154 -4.28671 0
M  V30 3982 H 368.733 1.54785 -5.66847 0
M  V30 3983 H 370.257 2.4762 -5.58137 0
M  V30 3984 H 371.671 0.209579 -5.72917 0
M  V30 3985 H 370.068 -0.541962 -5.97648 0
M  V30 3986 H 371.138 -1.16409 -4.7072 0
M  V30 3987 N 372.481 1.55866 -0.233164 0
M  V30 3988 C 373.413 2.18099 0.704668 0
M  V30 3989 C 374.426 1.15334 1.14899 0
M  V30 3990 O 375.615 1.42262 1.07814 0
M  V30 3991 C 372.715 2.7592 1.96777 0
M  V30 3992 C 371.888 4.03969 1.67713 0
M  V30 3993 C 370.947 4.46242 2.78845 0
M  V30 3994 O 369.973 5.12903 2.46818 0
M  V30 3995 N 371.175 4.12886 4.08051 0
M  V30 3996 H 373.94 2.99205 0.172258 0
M  V30 3997 H 371.501 1.61815 -0.0525945 0
M  V30 3998 H 373.493 3.01165 2.70337 0
M  V30 3999 H 372.063 1.99051 2.41034 0
M  V30 4000 H 371.283 3.86459 0.777391 0
M  V30 4001 H 372.571 4.8748 1.4574 0
M  V30 4002 H 371.969 3.59342 4.3691 0
M  V30 4003 H 370.526 4.42997 4.78118 0
M  V30 4004 N 373.959 -0.0401083 1.57549 0
M  V30 4005 C 375.184 -0.748931 1.93406 0
M  V30 4006 C 375.609 -1.68686 0.832274 0
M  V30 4007 O 374.967 -1.80047 -0.212818 0
M  V30 4008 C 375.015 -1.4916 3.28304 0
M  V30 4009 O 374.119 -2.6042 3.19774 0
M  V30 4010 H 373.46 -0.202212 0.63246 0
M  V30 4011 H 375.99 0.00112086 2.046 0
M  V30 4012 H 376 -1.86395 3.62934 0
M  V30 4013 H 374.675 -0.80364 4.08062 0
M  V30 4014 H 373.252 -2.25808 2.96758 0
M  V30 4015 N 375.437 -1.54477 -0.31217 0
M  V30 4016 C 376.662 -1.77526 -1.07235 0
M  V30 4017 C 377.087 -0.527775 -1.80544 0
M  V30 4018 O 376.445 0.52121 -1.73646 0
M  V30 4019 C 376.493 -2.97535 -2.03728 0
M  V30 4020 O 375.597 -2.69878 -3.11833 0
M  V30 4021 H 374.938 -0.58792 -0.30862 0
M  V30 4022 H 377.468 -2.01532 -0.352993 0
M  V30 4023 H 377.478 -3.25198 -2.46395 0
M  V30 4024 H 376.153 -3.87996 -1.49774 0
M  V30 4025 H 374.73 -2.53199 -2.7376 0
M  V30 4026 N 376.915 0.57481 -1.46744 0
M  V30 4027 C 378.14 1.36341 -1.56288 0
M  V30 4028 C 378.565 1.86954 -0.207347 0
M  V30 4029 O 377.923 1.62006 0.813871 0
M  V30 4030 C 377.971 2.52147 -2.57787 0
M  V30 4031 O 377.075 3.53834 -2.11838 0
M  V30 4032 H 376.416 0.405713 -0.525636 0
M  V30 4033 H 378.946 0.696453 -1.92382 0
M  V30 4034 H 378.956 2.98958 -2.77648 0
M  V30 4035 H 377.631 2.14663 -3.5622 0
M  V30 4036 H 376.208 3.1345 -2.01999 0
M  V30 4037 N 378.394 1.34581 0.820102 0
M  V30 4038 C 379.326 1.22236 1.93884 0
M  V30 4039 C 380.339 0.148776 1.62119 0
M  V30 4040 O 381.528 0.400877 1.7394 0
M  V30 4041 C 378.628 0.856542 3.27897 0
M  V30 4042 C 377.801 2.02569 3.87666 0
M  V30 4043 C 376.86 1.63782 5.00062 0
M  V30 4044 O 375.886 2.35477 5.18208 0
M  V30 4045 N 377.088 0.553611 5.77854 0
M  V30 4046 H 379.853 2.18615 2.05006 0
M  V30 4047 H 377.414 1.27573 0.99683 0
M  V30 4048 H 379.406 0.578806 4.0054 0
M  V30 4049 H 377.976 -0.0171518 3.12595 0
M  V30 4050 H 377.196 2.468 3.07382 0
M  V30 4051 H 378.484 2.80752 4.24329 0
M  V30 4052 H 377.882 -0.0423528 5.65684 0
M  V30 4053 H 376.439 0.335614 6.50935 0
M  V30 4054 N 379.872 -1.04064 1.18357 0
M  V30 4055 C 380.802 -2.14001 0.934113 0
M  V30 4056 C 381.783 -1.69616 -0.128186 0
M  V30 4057 O 382.968 -1.94185 0.0244093 0
M  V30 4058 C 380.098 -3.44253 0.459066 0
M  V30 4059 C 379.052 -4.02261 1.46185 0
M  V30 4060 C 378.378 -5.27992 0.844322 0
M  V30 4061 C 379.678 -4.38432 2.83856 0
M  V30 4062 H 381.372 -2.35127 1.85352 0
M  V30 4063 H 378.918 -1.12998 0.892604 0
M  V30 4064 H 380.871 -4.20522 0.271907 0
M  V30 4065 H 379.595 -3.22813 -0.495912 0
M  V30 4066 H 378.254 -3.28074 1.63595 0
M  V30 4067 H 377.902 -5.02862 -0.117845 0
M  V30 4068 H 377.602 -5.67765 1.51384 0
M  V30 4069 H 379.126 -6.06938 0.667693 0
M  V30 4070 H 380.54 -5.05688 2.70098 0
M  V30 4071 H 378.937 -4.89254 3.47491 0
M  V30 4072 H 380.007 -3.4826 3.37406 0
M  V30 4073 N 381.35 -0.985608 -1.22978 0
M  V30 4074 C 382.575 -0.675254 -1.961 0
M  V30 4075 C 383 0.752154 -1.72407 0
M  V30 4076 O 382.358 1.5131 -0.998751 0
M  V30 4077 C 382.406 -0.977899 -3.47087 0
M  V30 4078 O 381.51 -0.072685 -4.12336 0
M  V30 4079 H 380.851 -0.253443 -0.613728 0
M  V30 4080 H 383.381 -1.32061 -1.56272 0
M  V30 4081 H 383.391 -0.916739 -3.97567 0
M  V30 4082 H 382.066 -2.01807 -3.63657 0
M  V30 4083 H 380.643 -0.188703 -3.72422 0
M  V30 4084 N 382.828 1.3818 -0.7579 0
M  V30 4085 C 383.778 2.27741 -0.108674 0
M  V30 4086 C 384.762 1.45415 0.688709 0
M  V30 4087 O 385.954 1.68108 0.553956 0
M  V30 4088 C 383.083 3.34313 0.780367 0
M  V30 4089 C 382.169 4.24093 -0.0240977 0
M  V30 4090 N 382.56 4.9451 -1.06271 0
M  V30 4091 C 380.858 4.45542 0.202049 0
M  V30 4092 C 381.559 5.60675 -1.54979 0
M  V30 4093 N 380.535 5.36684 -0.864348 0
M  V30 4094 H 384.337 2.79649 -0.904071 0
M  V30 4095 H 381.851 1.51133 -0.594346 0
M  V30 4096 H 383.848 3.97368 1.26114 0
M  V30 4097 H 382.508 2.83962 1.57467 0
M  V30 4098 H 383.519 4.97345 -1.44459 0
M  V30 4099 H 380.196 4.06091 0.96935 0
M  V30 4100 H 381.586 6.26992 -2.41517 0
M  V30 4101 N 384.306 0.507319 1.49211 0
M  V30 4102 C 385.531 -0.033725 2.07373 0
M  V30 4103 C 385.956 -1.29485 1.36437 0
M  V30 4104 O 385.314 -1.76294 0.423087 0
M  V30 4105 C 385.362 -0.263945 3.59633 0
M  V30 4106 O 384.466 -1.33737 3.90113 0
M  V30 4107 H 383.807 0.0290331 0.663365 0
M  V30 4108 H 386.337 0.708749 1.91932 0
M  V30 4109 H 386.347 -0.493536 4.05004 0
M  V30 4110 H 385.022 0.657424 4.10671 0
M  V30 4111 H 383.599 -1.09224 3.56545 0
M  V30 4112 N 385.784 -1.5574 0.241426 0
M  V30 4113 C 387.2 -1.59196 -0.113548 0
M  V30 4114 C 387.4 -1.25852 -1.57364 0
M  V30 4115 O 386.456 -1.00322 -2.31715 0
M  V30 4116 C 387.769 -2.99814 0.230695 0
M  V30 4117 C 389.317 -3.12513 0.174547 0
M  V30 4118 C 389.792 -4.55342 0.492744 0
M  V30 4119 N 391.283 -4.61076 0.443043 0
M  V30 4120 C 392.018 -5.6956 0.662484 0
M  V30 4121 N 391.514 -6.86328 0.944761 0
M  V30 4122 N 393.307 -5.58957 0.593564 0
M  V30 4123 H 385.458 -1.75685 1.19368 0
M  V30 4124 H 387.721 -0.81756 0.479896 0
M  V30 4125 H 387.427 -3.28932 1.24485 0
M  V30 4126 H 387.301 -3.74568 -0.444833 0
M  V30 4127 H 389.688 -2.83179 -0.830277 0
M  V30 4128 H 389.769 -2.40045 0.883845 0
M  V30 4129 H 389.413 -4.85396 1.4951 0
M  V30 4130 H 389.343 -5.26062 -0.23797 0
M  V30 4131 H 391.834 -3.77179 0.233374 0
M  V30 4132 H 392.147 -7.64935 1.09977 0
M  V30 4133 H 390.492 -6.88025 0.982175 0
M  V30 4134 H 393.683 -4.66611 0.373123 0
M  V30 4135 H 393.856 -6.43433 0.767981 0
M  V30 4136 N 387.262 0.0317525 -1.57568 0
M  V30 4137 C 388.487 0.738664 -1.938 0
M  V30 4138 C 388.912 1.68242 -0.841208 0
M  V30 4139 O 388.27 1.80157 0.203267 0
M  V30 4140 C 388.318 1.47417 -3.29091 0
M  V30 4141 O 387.422 2.5872 -3.2115 0
M  V30 4142 H 386.763 0.198856 -0.633524 0
M  V30 4143 H 389.293 -0.0119713 -2.04596 0
M  V30 4144 H 389.303 1.84468 -3.63917 0
M  V30 4145 H 387.978 0.781988 -4.08482 0
M  V30 4146 H 386.555 2.24231 -2.97951 0
M  V30 4147 N 388.74 1.54641 0.303973 0
M  V30 4148 C 390.156 1.45788 0.649463 0
M  V30 4149 C 390.356 0.64666 1.90842 0
M  V30 4150 O 389.412 0.153183 2.52035 0
M  V30 4151 C 390.725 2.89718 0.805227 0
M  V30 4152 C 392.273 2.99742 0.901305 0
M  V30 4153 C 392.748 4.44863 1.08909 0
M  V30 4154 N 394.239 4.48559 1.15536 0
M  V30 4155 C 394.974 5.58026 1.3189 0
M  V30 4156 N 394.47 6.77422 1.45161 0
M  V30 4157 N 396.263 5.45708 1.34755 0
M  V30 4158 H 388.414 2.05854 -0.523237 0
M  V30 4159 H 390.677 0.932186 -0.172431 0
M  V30 4160 H 390.383 3.51666 -0.0489108 0
M  V30 4161 H 390.257 3.36964 1.69513 0
M  V30 4162 H 392.644 2.3791 1.74593 0
M  V30 4163 H 392.725 2.55797 -0.0125531 0
M  V30 4164 H 392.369 5.07288 0.249241 0
M  V30 4165 H 392.299 4.86436 2.01713 0
M  V30 4166 H 394.79 3.6254 1.06646 0
M  V30 4167 H 395.103 7.56604 1.57387 0
M  V30 4168 H 393.448 6.80292 1.42223 0
M  V30 4169 H 396.639 4.51378 1.23996 0
M  V30 4170 H 396.812 6.3107 1.47157 0
M  V30 4171 N 390.218 -0.567019 1.47046 0
M  V30 4172 C 391.128 -1.70247 1.6141 0
M  V30 4173 C 392.144 -1.66746 0.497157 0
M  V30 4174 O 393.32 -1.86371 0.763389 0
M  V30 4175 C 390.385 -3.06756 1.61561 0
M  V30 4176 C 389.446 -3.21399 2.84607 0
M  V30 4177 C 388.679 -4.51396 2.84741 0
M  V30 4178 O 388.902 -5.36255 1.94388 0
M  V30 4179 O 387.836 -4.69621 3.76483 0
M  V30 4180 H 391.662 -1.61073 2.57467 0
M  V30 4181 H 389.247 -0.735894 1.30019 0
M  V30 4182 H 391.129 -3.8801 1.64396 0
M  V30 4183 H 389.804 -3.16333 0.686684 0
M  V30 4184 H 388.711 -2.39579 2.8732 0
M  V30 4185 H 390.044 -3.16721 3.76761 0
M  V30 4186 N 391.696 -1.35014 -0.812953 0
M  V30 4187 C 392.921 -1.31187 -1.60639 0
M  V30 4188 C 393.346 0.109382 -1.87782 0
M  V30 4189 O 392.704 1.07424 -1.46047 0
M  V30 4190 C 392.752 -2.11809 -2.91838 0
M  V30 4191 O 391.856 -1.49444 -3.8437 0
M  V30 4192 H 391.197 -0.450084 -0.488181 0
M  V30 4193 H 393.727 -1.77963 -1.00947 0
M  V30 4194 H 393.737 -2.23531 -3.41318 0
M  V30 4195 H 392.412 -3.15137 -2.71407 0
M  V30 4196 H 390.989 -1.46524 -3.42907 0
M  V30 4197 N 393.175 1.03435 -1.18907 0
M  V30 4198 C 394.105 2.13503 -0.945448 0
M  V30 4199 C 395.086 1.69682 0.119189 0
M  V30 4200 O 396.271 1.94169 -0.034707 0
M  V30 4201 C 393.401 3.44004 -0.477316 0
M  V30 4202 C 392.355 4.0148 -1.48316 0
M  V30 4203 C 391.681 5.27537 -0.872311 0
M  V30 4204 C 392.981 4.36921 -2.86177 0
M  V30 4205 H 394.675 2.34141 -1.86597 0
M  V30 4206 H 392.221 1.12523 -0.898584 0
M  V30 4207 H 394.174 4.20372 -0.294204 0
M  V30 4208 H 392.898 3.23072 0.478786 0
M  V30 4209 H 391.557 3.27201 -1.65332 0
M  V30 4210 H 391.205 5.02917 0.0911752 0
M  V30 4211 H 390.905 5.66954 -1.54393 0
M  V30 4212 H 392.429 6.06576 -0.699871 0
M  V30 4213 H 393.843 5.04248 -2.72776 0
M  V30 4214 H 392.24 4.87405 -3.50081 0
M  V30 4215 H 393.31 3.46466 -3.39248 0
M  V30 4216 N 394.653 0.992116 1.22453 0
M  V30 4217 C 395.893 0.675727 1.92907 0
M  V30 4218 C 396.257 -0.777762 1.75542 0
M  V30 4219 O 397.458 -1.20553 2.40251 0
M  V30 4220 C 395.729 1.0696 3.4102 0
M  V30 4221 S 397.288 0.871456 4.30059 0
M  V30 4222 H 394.106 0.247089 0.666684 0
M  V30 4223 H 396.708 1.27423 1.48269 0
M  V30 4224 H 395.412 2.12383 3.51172 0
M  V30 4225 H 394.943 0.462858 3.90668 0
M  V30 4226 H 396.958 -0.238436 4.95627 0
M  V30 4227 N 396.131 -1.37776 0.765217 0
M  V30 4228 C 397.356 -2.04651 0.336537 0
M  V30 4229 C 397.781 -1.57337 -1.03086 0
M  V30 4230 O 397.139 -0.730621 -1.65927 0
M  V30 4231 C 397.187 -3.58577 0.381468 0
M  V30 4232 O 396.291 -4.07706 -0.62042 0
M  V30 4233 H 395.632 -0.64756 0.146838 0
M  V30 4234 H 398.162 -1.76221 1.03959 0
M  V30 4235 H 398.172 -4.07314 0.236448 0
M  V30 4236 H 396.847 -3.9237 1.37907 0
M  V30 4237 H 395.424 -3.70306 -0.439056 0
M  V30 4238 N 397.609 -0.515225 -1.4894 0
M  V30 4239 C 398.858 0.0261361 -2.01683 0
M  V30 4240 C 399.171 1.36719 -1.39883 0
M  V30 4241 O 400.377 1.99606 -1.84037 0
M  V30 4242 C 398.833 0.0970111 -3.59769 0
M  V30 4243 C 398.441 -1.23825 -4.30548 0
M  V30 4244 C 400.185 0.587981 -4.20408 0
M  V30 4245 C 398.092 -1.12877 -5.80528 0
M  V30 4246 H 397.022 0.0135398 -0.753878 0
M  V30 4247 H 399.673 -0.656787 -1.71343 0
M  V30 4248 H 398.055 0.844694 -3.86886 0
M  V30 4249 H 399.229 -2.00034 -4.15118 0
M  V30 4250 H 397.544 -1.66379 -3.81716 0
M  V30 4251 H 400.141 0.68763 -5.3026 0
M  V30 4252 H 400.484 1.59026 -3.84729 0
M  V30 4253 H 401.017 -0.103582 -3.97665 0
M  V30 4254 H 397.756 -2.10575 -6.20756 0
M  V30 4255 H 397.276 -0.407799 -5.98412 0
M  V30 4256 H 398.955 -0.813332 -6.41868 0
M  V30 4257 N 399.087 1.5561 -0.249682 0
M  V30 4258 C 400.503 1.59254 0.105103 0
M  V30 4259 C 400.703 1.26685 1.56694 0
M  V30 4260 O 399.759 1.0155 2.31179 0
M  V30 4261 C 401.072 2.99687 -0.246592 0
M  V30 4262 C 402.62 3.12416 -0.191118 0
M  V30 4263 C 403.095 4.55074 -0.516885 0
M  V30 4264 N 404.586 4.60835 -0.467489 0
M  V30 4265 C 405.321 5.69201 -0.69268 0
M  V30 4266 N 404.817 6.85817 -0.981146 0
M  V30 4267 N 406.61 5.58635 -0.623198 0
M  V30 4268 H 398.761 1.75049 -1.20298 0
M  V30 4269 H 401.024 0.815003 -0.484225 0
M  V30 4270 H 400.73 3.28267 -1.26228 0
M  V30 4271 H 400.604 3.74798 0.424962 0
M  V30 4272 H 402.991 2.83615 0.815247 0
M  V30 4273 H 403.072 2.39573 -0.896563 0
M  V30 4274 H 402.716 4.84596 -1.52082 0
M  V30 4275 H 402.646 5.26181 0.210068 0
M  V30 4276 H 405.137 3.7705 -0.253373 0
M  V30 4277 H 405.45 7.64341 -1.14032 0
M  V30 4278 H 403.795 6.87494 -1.01865 0
M  V30 4279 H 406.986 4.66406 -0.397863 0
M  V30 4280 H 407.159 6.43017 -0.802093 0
M  V30 4281 N 400.565 -0.0233959 1.57583 0
M  V30 4282 C 401.981 -0.379134 1.55031 0
M  V30 4283 C 402.181 -1.76255 0.976548 0
M  V30 4284 O 401.237 -2.45266 0.600078 0
M  V30 4285 C 402.55 -0.275792 2.99433 0
M  V30 4286 C 404.098 -0.352458 3.11009 0
M  V30 4287 C 404.573 -0.278501 4.57152 0
M  V30 4288 N 406.064 -0.337123 4.61972 0
M  V30 4289 C 406.799 -0.302876 5.726 0
M  V30 4290 N 406.295 -0.220589 6.92449 0
M  V30 4291 N 408.088 -0.353023 5.6099 0
M  V30 4292 H 400.239 0.881869 1.93227 0
M  V30 4293 H 402.502 0.335867 0.886509 0
M  V30 4294 H 402.208 0.675108 3.4516 0
M  V30 4295 H 402.082 -1.06721 3.61788 0
M  V30 4296 H 404.469 -1.29379 2.65226 0
M  V30 4297 H 404.55 0.468409 2.51475 0
M  V30 4298 H 404.194 0.659189 5.03604 0
M  V30 4299 H 404.124 -1.11755 5.14605 0
M  V30 4300 H 406.615 -0.403002 3.75745 0
M  V30 4301 H 406.928 -0.199713 7.72542 0
M  V30 4302 H 405.273 -0.186555 6.9475 0
M  V30 4303 H 408.464 -0.415339 4.66254 0
M  V30 4304 H 408.637 -0.322866 6.47195 0
M  V30 4305 N 402.043 -1.548 -0.295768 0
M  V30 4306 C 403.006 -1.85363 -1.34808 0
M  V30 4307 C 404.006 -0.726817 -1.43436 0
M  V30 4308 O 405.196 -0.995088 -1.42981 0
M  V30 4309 C 402.328 -2.03859 -2.73229 0
M  V30 4310 H 403.521 -2.7941 -1.08949 0
M  V30 4311 H 401.074 -1.46942 -0.532702 0
M  V30 4312 H 401.809 -1.12117 -3.04303 0
M  V30 4313 H 401.594 -2.8588 -2.68356 0
M  V30 4314 H 403.084 -2.28857 -3.49305 0
M  V30 4315 N 403.521 0.559213 -1.47345 0
M  V30 4316 C 404.746 1.34676 -1.57725 0
M  V30 4317 C 405.171 1.86723 -0.227164 0
M  V30 4318 O 404.529 1.6286 0.796642 0
M  V30 4319 C 404.577 2.49399 -2.60447 0
M  V30 4320 O 403.681 3.51567 -2.15578 0
M  V30 4321 H 403.022 0.400115 -0.52991 0
M  V30 4322 H 405.552 0.676009 -1.93109 0
M  V30 4323 H 405.562 2.95996 -2.80803 0
M  V30 4324 H 404.237 2.10873 -3.58477 0
M  V30 4325 H 402.814 3.11289 -2.05313 0
M  V30 4326 N 404.999 1.35443 0.805782 0
M  V30 4327 C 406.224 1.32037 1.59941 0
M  V30 4328 C 406.649 -0.0994215 1.87837 0
M  V30 4329 O 406.007 -1.06648 1.46615 0
M  V30 4330 C 406.055 2.13354 2.90711 0
M  V30 4331 O 405.159 1.5148 3.83572 0
M  V30 4332 H 404.5 0.452666 0.485787 0
M  V30 4333 H 407.03 1.78496 1.00002 0
M  V30 4334 H 407.04 2.25338 3.40128 0
M  V30 4335 H 405.715 3.16572 2.69732 0
M  V30 4336 H 404.292 1.4834 3.42125 0
M  V30 4337 N 406.477 -1.02803 1.19454 0
M  V30 4338 C 407.723 -1.76478 0.999171 0
M  V30 4339 C 408.056 -1.88456 -0.468828 0
M  V30 4340 O 407.331 -1.40198 -1.34814 0
M  V30 4341 C 407.614 -3.19044 1.66981 0
M  V30 4342 C 407.467 -3.14932 3.21151 0
M  V30 4343 C 408.786 -4.17456 1.39349 0
M  V30 4344 H 405.905 -0.640614 0.364393 0
M  V30 4345 H 408.547 -1.20005 1.47305 0
M  V30 4346 H 406.697 -3.67263 1.2669 0
M  V30 4347 H 408.369 -2.74605 3.70661 0
M  V30 4348 H 406.612 -2.52625 3.52652 0
M  V30 4349 H 407.283 -4.1566 3.63223 0
M  V30 4350 H 409.759 -3.77842 1.74283 0
M  V30 4351 H 408.635 -5.154 1.88823 0
M  V30 4352 H 408.896 -4.40949 0.318813 0
M  V30 4353 N 407.956 -0.998596 -1.21925 0
M  V30 4354 C 408.906 -0.524743 -2.21879 0
M  V30 4355 C 409.89 0.41017 -1.55584 0
M  V30 4356 O 411.082 0.236063 -1.75419 0
M  V30 4357 C 408.211 0.153636 -3.42956 0
M  V30 4358 C 407.297 -0.801918 -4.16449 0
M  V30 4359 N 407.688 -1.95211 -4.66611 0
M  V30 4360 C 405.986 -0.618972 -4.41684 0
M  V30 4361 C 406.687 -2.55234 -5.22715 0
M  V30 4362 N 405.663 -1.83451 -5.1171 0
M  V30 4363 H 409.465 -1.40189 -2.58311 0
M  V30 4364 H 406.979 -0.86159 -1.3766 0
M  V30 4365 H 408.976 0.510534 -4.13762 0
M  V30 4366 H 407.636 1.02684 -3.08036 0
M  V30 4367 H 408.647 -2.33271 -4.62391 0
M  V30 4368 H 405.324 0.207694 -4.16983 0
M  V30 4369 H 406.714 -3.52471 -5.72026 0
M  V30 4370 N 409.434 1.37368 -0.772513 0
M  V30 4371 C 410.711 1.93839 -0.26188 0
M  V30 4372 C 411.091 1.7061 1.24319 0
M  V30 4373 O 410.439 1.05534 2.02669 0
M  V30 4374 C 410.649 3.43154 -0.636102 0
M  V30 4375 C 411.997 4.20249 -0.606324 0
M  V30 4376 O 413.021 3.5152 -0.575538 0
M  V30 4377 O 411.88 5.42809 -0.634086 0
M  V30 4378 H 408.974 0.82478 -0.0605555 0
M  V30 4379 H 411.52 1.4665 -0.853917 0
M  V30 4380 H 410.292 3.53647 -1.6748 0
M  V30 4381 H 409.915 3.97596 -0.0170516 0
M  V30 4382 N 410.912 0.523116 1.48665 0
M  V30 4383 C 412.161 -0.01544 2.01694 0
M  V30 4384 C 412.474 -1.35975 1.40606 0
M  V30 4385 O 413.68 -1.98627 1.85093 0
M  V30 4386 C 412.136 -0.0779303 3.59816 0
M  V30 4387 C 411.744 1.26107 4.29885 0
M  V30 4388 C 413.488 -0.565678 4.20714 0
M  V30 4389 C 411.395 1.15954 5.79921 0
M  V30 4390 H 410.325 -0.00954163 0.75394 0
M  V30 4391 H 412.976 0.665865 1.70993 0
M  V30 4392 H 411.358 -0.824165 3.87329 0
M  V30 4393 H 412.532 2.02233 4.14051 0
M  V30 4394 H 410.847 1.68401 3.80828 0
M  V30 4395 H 413.444 -0.6595 5.30617 0
M  V30 4396 H 413.787 -1.56984 3.85567 0
M  V30 4397 H 414.32 0.12467 3.97605 0
M  V30 4398 H 411.059 2.13864 6.19631 0
M  V30 4399 H 410.579 0.439529 5.98187 0
M  V30 4400 H 412.258 0.847361 6.41427 0
M  V30 4401 N 412.39 -1.55475 0.257931 0
M  V30 4402 C 413.3 -2.2549 -0.647425 0
M  V30 4403 C 414.316 -1.2748 -1.18427 0
M  V30 4404 O 415.492 -1.6038 -1.2182 0
M  V30 4405 C 412.557 -2.94916 -1.82278 0
M  V30 4406 C 411.618 -4.08363 -1.32432 0
M  V30 4407 C 410.851 -4.74469 -2.44366 0
M  V30 4408 O 411.074 -4.39701 -3.63344 0
M  V30 4409 O 410.008 -5.62763 -2.13497 0
M  V30 4410 H 413.834 -3.03593 -0.0807707 0
M  V30 4411 H 411.419 -1.49377 0.0259962 0
M  V30 4412 H 413.301 -3.38606 -2.50846 0
M  V30 4413 H 411.976 -2.19744 -2.37685 0
M  V30 4414 H 410.883 -3.69166 -0.605605 0
M  V30 4415 H 412.216 -4.85385 -0.816211 0
M  V30 4416 N 413.868 0.0150385 -1.57593 0
M  V30 4417 C 415.116 0.701613 -1.8953 0
M  V30 4418 C 415.437 1.75139 -0.857396 0
M  V30 4419 O 414.707 1.95607 0.107194 0
M  V30 4420 H 413.287 0.26213 -0.699498 0
M  V30 4421 H 415.949 -0.0223304 -1.94887 0
M  V30 4422 H 415.045 1.18236 -2.88837 0
M  V30 4423 N 415.346 1.54954 0.287554 0
M  V30 4424 C 416.593 1.74873 1.02106 0
M  V30 4425 C 416.921 0.541829 1.86801 0
M  V30 4426 O 416.176 -0.475992 1.89823 0
M  V30 4427 C 416.475 2.99833 1.94512 0
M  V30 4428 C 416.141 4.33029 1.25686 0
M  V30 4429 C 414.803 4.69233 1.06649 0
M  V30 4430 C 417.155 5.15542 0.765913 0
M  V30 4431 C 414.483 5.85518 0.372222 0
M  V30 4432 C 416.835 6.32542 0.0853101 0
M  V30 4433 C 415.499 6.67398 -0.1169 0
M  V30 4434 H 414.769 0.639906 0.373632 0
M  V30 4435 H 417.416 1.89219 0.294665 0
M  V30 4436 H 415.721 2.80325 2.73725 0
M  V30 4437 H 417.418 3.1244 2.51361 0
M  V30 4438 H 414.008 4.04564 1.41512 0
M  V30 4439 H 418.192 4.88059 0.90066 0
M  V30 4440 H 413.448 6.11057 0.204695 0
M  V30 4441 H 417.622 6.95741 -0.302936 0
M  V30 4442 H 415.249 7.57357 -0.656859 0
M  V30 4443 N 416.824 -0.551391 1.4764 0
M  V30 4444 C 418.072 -1.30572 1.54258 0
M  V30 4445 C 418.393 -1.93877 0.208963 0
M  V30 4446 O 417.663 -1.80234 -0.767619 0
M  V30 4447 H 416.243 -0.484894 0.568231 0
M  V30 4448 H 418.905 -0.643402 1.83974 0
M  V30 4449 H 418.001 -2.09621 2.31226 0
M  V30 4450 N 418.302 -1.35869 -0.798587 0
M  V30 4451 C 419.548 -1.2978 -1.55836 0
M  V30 4452 C 419.881 0.125322 -1.93795 0
M  V30 4453 O 419.156 1.07658 -1.61987 0
M  V30 4454 C 419.439 -2.21188 -2.84162 0
M  V30 4455 C 419.292 -3.72155 -2.52628 0
M  V30 4456 C 420.611 -2.11545 -3.85923 0
M  V30 4457 H 417.73 -0.472769 -0.565383 0
M  V30 4458 H 420.372 -1.66341 -0.918192 0
M  V30 4459 H 418.522 -1.90139 -3.38791 0
M  V30 4460 H 420.194 -4.13682 -2.04121 0
M  V30 4461 H 418.437 -3.92042 -1.85704 0
M  V30 4462 H 419.108 -4.31511 -3.44242 0
M  V30 4463 H 421.584 -2.38855 -3.40716 0
M  V30 4464 H 420.46 -2.77688 -4.73477 0
M  V30 4465 H 420.721 -1.09987 -4.282 0
M  V30 4466 N 419.78 1.02168 -1.19998 0
M  V30 4467 C 420.73 2.08969 -0.911921 0
M  V30 4468 C 421.714 1.60404 0.12621 0
M  V30 4469 O 422.906 1.76817 -0.0804706 0
M  V30 4470 C 420.035 3.402 -0.460277 0
M  V30 4471 C 419.121 3.9548 -1.53155 0
M  V30 4472 N 419.512 4.24332 -2.75275 0
M  V30 4473 C 417.81 4.23572 -1.39653 0
M  V30 4474 C 418.511 4.68834 -3.44339 0
M  V30 4475 N 417.487 4.70804 -2.71744 0
M  V30 4476 H 421.289 2.29178 -1.83997 0
M  V30 4477 H 418.803 1.20094 -1.09322 0
M  V30 4478 H 420.8 4.16235 -0.235337 0
M  V30 4479 H 419.46 3.21408 0.4612 0
M  V30 4480 H 420.471 4.13393 -3.11973 0
M  V30 4481 H 417.148 4.14005 -0.539067 0
M  V30 4482 H 418.538 5.00019 -4.4881 0
M  V30 4483 N 421.258 1.00505 1.21394 0
M  V30 4484 C 422.669 0.721082 1.72213 0
M  V30 4485 C 423.02 -0.761263 1.80829 0
M  V30 4486 O 422.145 -1.59464 1.46288 0
M  V30 4487 C 422.74 1.30228 3.12772 0
M  V30 4488 C 421.299 1.06743 3.60947 0
M  V30 4489 C 420.446 1.41507 2.38477 0
M  V30 4490 H 423.397 1.17594 1.06571 0
M  V30 4491 H 423.418 0.686955 3.74247 0
M  V30 4492 H 422.93 2.38115 3.06468 0
M  V30 4493 H 421.031 0.00572162 3.726 0
M  V30 4494 H 421.144 1.73936 4.46411 0
M  V30 4495 H 419.508 0.833852 2.40664 0
M  V30 4496 H 420.291 2.50424 2.34824 0
M  V30 4497 N 422.737 -1.36956 0.779787 0
M  V30 4498 C 423.684 -2.30175 0.169697 0
M  V30 4499 C 424.654 -1.51501 -0.68094 0
M  V30 4500 O 425.839 -1.80042 -0.631629 0
M  V30 4501 C 422.979 -3.37985 -0.697131 0
M  V30 4502 C 422.092 -4.31661 0.170992 0
M  V30 4503 C 421.227 -5.2655 -0.701298 0
M  V30 4504 C 420.266 -6.11867 0.168869 0
M  V30 4505 N 419.403 -6.98973 -0.661855 0
M  V30 4506 H 424.243 -2.81767 0.970135 0
M  V30 4507 H 421.78 -1.38699 0.489994 0
M  V30 4508 H 423.738 -3.99128 -1.2146 0
M  V30 4509 H 422.368 -2.87739 -1.46309 0
M  V30 4510 H 421.42 -3.71756 0.80634 0
M  V30 4511 H 422.732 -4.91644 0.841875 0
M  V30 4512 H 421.886 -5.92937 -1.28494 0
M  V30 4513 H 420.625 -4.66998 -1.40584 0
M  V30 4514 H 419.63 -5.44452 0.764986 0
M  V30 4515 H 420.855 -6.73493 0.870863 0
M  V30 4516 H 418.801 -6.41941 -1.35086 0
M  V30 4517 H 418.718 -7.55984 -0.0484447 0
M  V30 4518 H 419.986 -7.6974 -1.22963 0
M  V30 4519 N 424.215 -0.530993 -1.48385 0
M  V30 4520 C 425.163 0.244595 -2.3131 0
M  V30 4521 C 426.157 0.93451 -1.41291 0
M  V30 4522 O 427.363 0.85878 -1.58193 0
M  V30 4523 H 423.738 0.0977472 -0.74562 0
M  V30 4524 H 425.709 -0.474369 -2.94605 0
M  V30 4525 C 424.458 1.2779 -3.23365 0
M  V30 4526 H 423.781 0.756439 -3.92579 0
M  V30 4527 H 425.221 1.79198 -3.84271 0
M  V30 4528 C 423.68 2.31205 -2.45042 0
M  V30 4529 O 424.21 3.37661 -2.17596 0
M  V30 4530 N 422.416 2.04446 -2.0652 0
M  V30 4531 H 421.963 1.17891 -2.2904 0
M  V30 4532 H 421.921 2.73861 -1.54427 0
M  V30 4533 N 425.693 1.55336 -0.266172 0
M  V30 4534 C 426.942 1.98574 0.353749 0
M  V30 4535 C 427.255 1.15789 1.57646 0
M  V30 4536 O 428.461 1.49129 2.26876 0
M  V30 4537 C 426.917 3.53403 0.680747 0
M  V30 4538 C 426.525 4.44953 -0.52165 0
M  V30 4539 C 428.269 4.05251 1.26379 0
M  V30 4540 C 426.176 5.91156 -0.169736 0
M  V30 4541 H 425.106 0.741643 0.135949 0
M  V30 4542 H 427.757 1.79743 -0.369421 0
M  V30 4543 H 426.139 3.68001 1.46257 0
M  V30 4544 H 427.313 4.42121 -1.29869 0
M  V30 4545 H 425.628 4.03691 -1.02093 0
M  V30 4546 H 428.225 5.12021 1.54074 0
M  V30 4547 H 428.568 3.53749 2.19471 0
M  V30 4548 H 429.101 3.94057 0.544447 0
M  V30 4549 H 425.84 6.46736 -1.0683 0
M  V30 4550 H 425.36 5.97079 0.570717 0
M  V30 4551 H 427.039 6.4655 0.241245 0
M  V30 4552 N 427.171 -0.0066808 1.57599 0
M  V30 4553 C 428.418 -0.69292 1.90276 0
M  V30 4554 C 428.746 -1.74148 0.866192 0
M  V30 4555 O 428.001 -1.95268 -0.129933 0
M  V30 4556 C 428.3 -1.37939 3.29708 0
M  V30 4557 C 427.966 -0.464679 4.48499 0
M  V30 4558 C 426.628 -0.212809 4.80729 0
M  V30 4559 C 428.98 0.16551 5.20937 0
M  V30 4560 C 426.308 0.677653 5.82773 0
M  V30 4561 C 428.66 1.04381 6.23929 0
M  V30 4562 C 427.324 1.30492 6.54621 0
M  V30 4563 H 426.594 -0.253558 0.696268 0
M  V30 4564 H 429.241 0.0474123 1.91441 0
M  V30 4565 H 427.546 -2.1936 3.24636 0
M  V30 4566 H 429.243 -1.9163 3.52249 0
M  V30 4567 H 425.833 -0.671153 4.23313 0
M  V30 4568 H 430.017 -0.0160756 4.96297 0
M  V30 4569 H 425.273 0.88803 6.04917 0
M  V30 4570 H 429.447 1.53851 6.79193 0
M  V30 4571 H 427.074 1.99662 7.33512 0
M  V30 4572 N 428.649 -1.55105 -0.279332 0
M  V30 4573 C 430.065 -1.46803 -0.626187 0
M  V30 4574 C 430.265 -0.676939 -1.89789 0
M  V30 4575 O 429.321 -0.19326 -2.51759 0
M  V30 4576 C 430.634 -2.90962 -0.759034 0
M  V30 4577 C 432.182 -3.01138 -0.853504 0
M  V30 4578 C 432.657 -4.46539 -1.01818 0
M  V30 4579 N 434.148 -4.50341 -1.08386 0
M  V30 4580 C 434.883 -5.60053 -1.22996 0
M  V30 4581 N 434.379 -6.79645 -1.34366 0
M  V30 4582 N 436.172 -5.47783 -1.26056 0
M  V30 4583 H 428.323 -2.04996 0.555921 0
M  V30 4584 H 430.586 -0.929325 0.187239 0
M  V30 4585 H 430.292 -3.51544 0.104852 0
M  V30 4586 H 430.166 -3.39619 -1.64131 0
M  V30 4587 H 432.553 -2.40658 -1.70786 0
M  V30 4588 H 432.634 -2.55745 0.0532466 0
M  V30 4589 H 432.278 -5.0762 -0.168504 0
M  V30 4590 H 432.208 -4.89583 -1.93948 0
M  V30 4591 H 434.699 -3.64191 -1.00864 0
M  V30 4592 H 435.012 -7.59012 -1.4533 0
M  V30 4593 H 433.357 -6.82469 -1.31382 0
M  V30 4594 H 436.548 -4.53294 -1.168 0
M  V30 4595 H 436.721 -6.33331 -1.37098 0
M  V30 4596 N 430.127 0.543554 -1.4793 0
M  V30 4597 C 431.404 1.30458 -1.4574 0
M  V30 4598 C 431.784 2.1048 -0.161692 0
M  V30 4599 O 431.132 2.11831 0.856734 0
M  V30 4600 C 431.342 2.19754 -2.71126 0
M  V30 4601 C 432.69 2.80334 -3.18901 0
M  V30 4602 O 433.714 2.30049 -2.71948 0
M  V30 4603 O 432.573 3.71766 -4.00565 0
M  V30 4604 H 429.667 0.588117 -0.581418 0
M  V30 4605 H 432.213 0.561328 -1.60147 0
M  V30 4606 H 430.985 1.60316 -3.56952 0
M  V30 4607 H 430.608 3.01351 -2.59371 0
M  V30 4608 N 431.605 1.3629 0.791371 0
M  V30 4609 C 433.021 1.16661 1.08914 0
M  V30 4610 C 433.221 -0.0106266 2.01497 0
M  V30 4611 O 432.277 -0.676596 2.43266 0
M  V30 4612 C 433.59 2.47656 1.70549 0
M  V30 4613 C 435.138 2.54002 1.82899 0
M  V30 4614 C 435.613 3.85078 2.47949 0
M  V30 4615 N 437.104 3.86413 2.5542 0
M  V30 4616 C 437.839 4.84572 3.06557 0
M  V30 4617 N 437.335 5.93124 3.58016 0
M  V30 4618 N 439.128 4.71994 3.05251 0
M  V30 4619 H 431.279 2.11668 0.176238 0
M  V30 4620 H 433.542 0.937486 0.140796 0
M  V30 4621 H 433.248 3.34059 1.09989 0
M  V30 4622 H 433.122 2.63319 2.70079 0
M  V30 4623 H 435.509 1.68018 2.42598 0
M  V30 4624 H 435.59 2.42239 0.821808 0
M  V30 4625 H 435.234 4.71467 1.88895 0
M  V30 4626 H 435.164 3.94135 3.49235 0
M  V30 4627 H 437.655 3.07988 2.18979 0
M  V30 4628 H 437.968 6.63999 3.95381 0
M  V30 4629 H 436.313 5.96796 3.56173 0
M  V30 4630 H 439.504 3.86321 2.64336 0
M  V30 4631 H 439.677 5.48653 3.44796 0
M  V30 4632 N 433.083 -1.0153 1.20538 0
M  V30 4633 C 434.033 -2.08482 0.922991 0
M  V30 4634 C 435.017 -1.60469 -0.117702 0
M  V30 4635 O 436.209 -1.76772 0.0898465 0
M  V30 4636 C 433.338 -3.39952 0.478312 0
M  V30 4637 C 432.424 -3.94662 1.5525 0
M  V30 4638 N 432.815 -4.22866 2.77521 0
M  V30 4639 C 431.113 -4.22825 1.41897 0
M  V30 4640 C 431.814 -4.67002 3.4682 0
M  V30 4641 N 430.79 -4.69356 2.74237 0
M  V30 4642 H 434.592 -2.28199 1.85209 0
M  V30 4643 H 432.106 -1.19512 1.09957 0
M  V30 4644 H 434.103 -4.16105 0.257408 0
M  V30 4645 H 432.763 -3.21648 -0.444148 0
M  V30 4646 H 433.774 -4.11732 3.1416 0
M  V30 4647 H 430.451 -4.13714 0.561015 0
M  V30 4648 H 431.841 -4.97632 4.51455 0
M  V30 4649 N 434.561 -1.01147 -1.20859 0
M  V30 4650 C 435.524 -0.582224 -2.21682 0
M  V30 4651 C 436.524 0.344887 -1.57058 0
M  V30 4652 O 437.714 0.134281 -1.73682 0
M  V30 4653 C 434.846 0.150496 -3.40568 0
M  V30 4654 H 436.039 -1.47408 -2.61172 0
M  V30 4655 H 433.592 -0.800695 -1.34233 0
M  V30 4656 H 434.327 1.0575 -3.06574 0
M  V30 4657 H 434.112 -0.515444 -3.88697 0
M  V30 4658 H 435.602 0.438344 -4.15293 0
M  V30 4659 N 436.039 1.36541 -0.78704 0
M  V30 4660 C 437.264 2.0409 -0.369053 0
M  V30 4661 C 437.689 1.58957 1.00569 0
M  V30 4662 O 437.047 0.756926 1.64743 0
M  V30 4663 C 437.095 3.57924 -0.438466 0
M  V30 4664 O 436.199 4.08642 0.555479 0
M  V30 4665 H 435.54 0.645142 -0.157122 0
M  V30 4666 H 438.07 1.74545 -1.06749 0
M  V30 4667 H 438.08 4.06887 -0.301218 0
M  V30 4668 H 436.755 3.90127 -1.44132 0
M  V30 4669 H 435.332 3.70958 0.380088 0
M  V30 4670 N 437.518 0.538854 1.48102 0
M  V30 4671 C 438.428 -0.222648 2.33541 0
M  V30 4672 C 439.444 -0.930225 1.47047 0
M  V30 4673 O 440.62 -0.903211 1.80011 0
M  V30 4674 C 437.685 -1.25064 3.23357 0
M  V30 4675 C 436.746 -0.552469 4.2573 0
M  V30 4676 C 435.979 -1.53149 5.11254 0
M  V30 4677 O 436.202 -2.76487 4.9891 0
M  V30 4678 O 435.136 -1.06602 5.92385 0
M  V30 4679 H 438.962 0.477707 2.99919 0
M  V30 4680 H 436.547 0.299669 1.46364 0
M  V30 4681 H 438.429 -1.8445 3.78888 0
M  V30 4682 H 437.104 -1.93325 2.59629 0
M  V30 4683 H 436.011 0.082114 3.7401 0
M  V30 4684 H 437.344 0.0883526 4.92121 0
M  V30 4685 N 438.996 -1.55193 0.274407 0
M  V30 4686 C 440.273 -1.91584 -0.394331 0
M  V30 4687 C 440.653 -1.19858 -1.73774 0
M  V30 4688 O 440.001 -0.3252 -2.26174 0
M  V30 4689 C 440.211 -3.4487 -0.535311 0
M  V30 4690 C 441.559 -4.16636 -0.818534 0
M  V30 4691 O 442.583 -3.5076 -0.620146 0
M  V30 4692 O 441.442 -5.33209 -1.19792 0
M  V30 4693 H 438.536 -0.798349 -0.215794 0
M  V30 4694 H 441.082 -1.66646 0.320507 0
M  V30 4695 H 439.854 -3.89145 0.410141 0
M  V30 4696 H 439.477 -3.75759 -1.29964 0
M  V30 4697 N 440.474 -0.00167713 -1.576 0
M  V30 4698 C 441.422 1.0074 -2.09652 0
M  V30 4699 C 442.416 1.35483 -1.01689 0
M  V30 4700 O 443.622 1.34028 -1.20152 0
M  V30 4701 H 439.997 0.342537 -0.669457 0
M  V30 4702 H 441.968 0.542841 -2.93421 0
M  V30 4703 C 440.717 2.2899 -2.61647 0
M  V30 4704 H 440.04 2.03124 -3.44355 0
M  V30 4705 H 441.48 2.9787 -3.01744 0
M  V30 4706 C 439.939 3.00085 -1.53136 0
M  V30 4707 O 440.469 3.91135 -0.91524 0
M  V30 4708 N 438.675 2.6194 -1.25841 0
M  V30 4709 H 438.222 1.8798 -1.76129 0
M  V30 4710 H 438.18 3.09822 -0.534576 0
M  V30 4711 N 441.952 1.55251 0.271103 0
M  V30 4712 C 443.2 1.75599 1.00047 0
M  V30 4713 C 443.521 0.561188 1.8675 0
M  V30 4714 O 442.791 -0.423846 1.9126 0
M  V30 4715 H 441.371 0.647562 0.372387 0
M  V30 4716 H 444.033 1.92656 0.294876 0
M  V30 4717 H 443.129 2.65766 1.6363 0
M  V30 4718 N 443.43 -0.535701 1.48216 0
M  V30 4719 C 444.846 -0.863701 1.3421 0
M  V30 4720 C 445.046 -1.98458 0.34879 0
M  V30 4721 O 444.102 -2.51432 -0.23204 0
M  V30 4722 C 445.415 -1.23662 2.74095 0
M  V30 4723 C 446.963 -1.34683 2.82541 0
M  V30 4724 C 447.438 -1.75322 4.23115 0
M  V30 4725 N 448.929 -1.82434 4.2576 0
M  V30 4726 C 449.664 -2.15252 5.31464 0
M  V30 4727 N 449.16 -2.46533 6.47452 0
M  V30 4728 N 450.953 -2.16209 5.18855 0
M  V30 4729 H 443.104 0.203965 2.11418 0
M  V30 4730 H 445.367 0.0286033 0.947568 0
M  V30 4731 H 445.073 -0.486674 3.48316 0
M  V30 4732 H 444.947 -2.18805 3.07253 0
M  V30 4733 H 447.334 -2.08756 2.08579 0
M  V30 4734 H 447.415 -0.376756 2.5301 0
M  V30 4735 H 447.059 -1.01812 4.97591 0
M  V30 4736 H 446.989 -2.7337 4.50085 0
M  V30 4737 H 449.48 -1.6056 3.42095 0
M  V30 4738 H 449.793 -2.70662 7.23852 0
M  V30 4739 H 448.138 -2.44065 6.50736 0
M  V30 4740 H 451.329 -1.91224 4.2726 0
M  V30 4741 H 451.502 -2.41453 6.01335 0
M  V30 4742 N 444.908 -1.36708 -0.784132 0
M  V30 4743 C 445.856 -1.31533 -1.91838 0
M  V30 4744 C 446.85 -0.206205 -1.6814 0
M  V30 4745 O 448.056 -0.373519 -1.76082 0
M  V30 4746 H 444.431 -0.409613 -0.630651 0
M  V30 4747 H 446.402 -2.2731 -1.9332 0
M  V30 4748 C 445.151 -1.12679 -3.28936 0
M  V30 4749 H 444.474 -1.97274 -3.4774 0
M  V30 4750 H 445.914 -1.13106 -4.08636 0
M  V30 4751 C 444.373 0.168281 -3.36479 0
M  V30 4752 O 444.903 1.15625 -3.84699 0
M  V30 4753 N 443.109 0.214762 -2.89805 0
M  V30 4754 H 442.656 -0.589852 -2.50756 0
M  V30 4755 H 442.614 1.08094 -2.95234 0
M  V30 4756 N 446.386 1.0089 -1.21074 0
M  V30 4757 C 447.632 1.74866 -1.02712 0
M  V30 4758 C 447.965 1.89178 0.438787 0
M  V30 4759 O 447.24 1.42325 1.32567 0
M  V30 4760 C 447.523 3.16347 -1.72036 0
M  V30 4761 C 447.376 3.09782 -3.26121 0
M  V30 4762 C 448.695 4.15187 -1.45973 0
M  V30 4763 H 445.814 0.634736 -0.374539 0
M  V30 4764 H 448.456 1.17646 -1.49196 0
M  V30 4765 H 446.606 3.65201 -1.32517 0
M  V30 4766 H 448.278 2.68673 -3.74983 0
M  V30 4767 H 446.521 2.46982 -3.56626 0
M  V30 4768 H 447.192 4.09829 -3.6979 0
M  V30 4769 H 449.668 3.75022 -1.80272 0
M  V30 4770 H 448.544 5.12331 -1.96999 0
M  V30 4771 H 448.805 4.40386 -0.388924 0
M  V30 4772 N 447.864 1.01787 1.20321 0
M  V30 4773 C 448.811 0.589197 2.23153 0
M  V30 4774 C 449.781 -0.391367 1.61423 0
M  V30 4775 O 450.966 -0.290518 1.88575 0
M  V30 4776 C 448.106 -0.0650747 3.45039 0
M  V30 4777 C 447.219 0.960207 4.21194 0
M  V30 4778 C 446.354 0.276854 5.30478 0
M  V30 4779 C 445.393 1.2888 5.98378 0
M  V30 4780 N 444.53 0.632031 6.99249 0
M  V30 4781 H 449.37 1.47071 2.59179 0
M  V30 4782 H 446.907 0.736192 1.27352 0
M  V30 4783 H 448.865 -0.461552 4.14639 0
M  V30 4784 H 447.495 -0.910233 3.09701 0
M  V30 4785 H 446.547 1.47484 3.50646 0
M  V30 4786 H 447.859 1.72977 4.67847 0
M  V30 4787 H 447.013 -0.175056 6.06447 0
M  V30 4788 H 445.752 -0.525004 4.84866 0
M  V30 4789 H 444.757 1.75109 5.21169 0
M  V30 4790 H 445.982 2.09196 6.46076 0
M  V30 4791 H 443.928 -0.149935 6.55829 0
M  V30 4792 H 443.845 1.33964 7.44036 0
M  V30 4793 H 445.113 0.203755 7.79234 0
M  V30 4794 N 449.342 -1.36122 0.79427 0
M  V30 4795 C 450.59 -1.98718 0.368177 0
M  V30 4796 C 450.911 -1.63345 -1.06506 0
M  V30 4797 O 450.181 -0.909825 -1.73491 0
M  V30 4798 H 448.761 -0.735038 0.133146 0
M  V30 4799 H 451.423 -1.66239 1.01739 0
M  V30 4800 H 450.519 -3.08633 0.463923 0
M  V30 4801 N 450.82 -0.546701 -1.47814 0
M  V30 4802 C 452.231 -0.110564 -1.86372 0
M  V30 4803 C 452.582 1.31678 -1.45449 0
M  V30 4804 O 451.707 1.98889 -0.852758 0
M  V30 4805 C 452.302 -0.193873 -3.38245 0
M  V30 4806 C 450.861 0.187164 -3.75934 0
M  V30 4807 C 450.008 -0.546166 -2.71868 0
M  V30 4808 H 452.959 -0.757022 -1.39481 0
M  V30 4809 H 452.98 0.590218 -3.75895 0
M  V30 4810 H 452.492 -1.23282 -3.67999 0
M  V30 4811 H 450.593 1.22762 -3.51796 0
M  V30 4812 H 450.706 -0.164083 -4.78819 0
M  V30 4813 H 449.07 0.00953904 -2.54698 0
M  V30 4814 H 449.853 -1.58606 -3.04465 0
M  V30 4815 N 452.299 1.55045 -0.282633 0
M  V30 4816 C 453.546 1.9976 0.33199 0
M  V30 4817 C 453.874 1.17105 1.55295 0
M  V30 4818 O 453.129 0.230599 1.94337 0
M  V30 4819 C 453.428 3.49422 0.750938 0
M  V30 4820 C 453.094 4.4941 -0.366228 0
M  V30 4821 C 451.756 4.76471 -0.672964 0
M  V30 4822 C 454.108 5.09054 -1.11864 0
M  V30 4823 C 451.436 5.60442 -1.73556 0
M  V30 4824 C 453.788 5.9418 -2.17102 0
M  V30 4825 C 452.452 6.19558 -2.48402 0
M  V30 4826 H 451.722 0.730974 0.121484 0
M  V30 4827 H 454.369 1.8732 -0.39791 0
M  V30 4828 H 452.674 3.59377 1.56063 0
M  V30 4829 H 454.371 3.81432 1.23736 0
M  V30 4830 H 450.961 4.2844 -0.117041 0
M  V30 4831 H 455.145 4.88165 -0.894925 0
M  V30 4832 H 450.401 5.78349 -1.983 0
M  V30 4833 H 454.575 6.39427 -2.75873 0
M  V30 4834 H 452.202 6.84417 -3.30874 0
M  V30 4835 N 453.777 0.010035 1.57597 0
M  V30 4836 C 454.725 -0.996272 2.10184 0
M  V30 4837 C 455.719 -1.34942 1.02406 0
M  V30 4838 O 456.925 -1.33389 1.20861 0
M  V30 4839 H 453.3 -0.338982 0.671264 0
M  V30 4840 H 455.271 -0.527272 2.93705 0
M  V30 4841 C 454.02 -2.27599 2.62857 0
M  V30 4842 H 453.343 -2.01295 3.45428 0
M  V30 4843 H 454.783 -2.96265 3.0332 0
M  V30 4844 C 453.242 -2.99269 1.54725 0
M  V30 4845 O 453.772 -3.90644 0.93597 0
M  V30 4846 N 451.978 -2.61269 1.27228 0
M  V30 4847 H 451.525 -1.87043 1.77123 0
M  V30 4848 H 451.483 -3.09534 0.550999 0
M  V30 4849 N 455.255 -1.55392 -0.262866 0
M  V30 4850 C 456.205 -1.85355 -1.32768 0
M  V30 4851 C 457.189 -0.713188 -1.44231 0
M  V30 4852 O 458.381 -0.974765 -1.47741 0
M  V30 4853 C 455.51 -2.13781 -2.68612 0
M  V30 4854 C 454.596 -3.34104 -2.61219 0
M  V30 4855 N 454.987 -4.53766 -2.2345 0
M  V30 4856 C 453.285 -3.36895 -2.92263 0
M  V30 4857 C 453.986 -5.35877 -2.26298 0
M  V30 4858 N 452.962 -4.74536 -2.65172 0
M  V30 4859 H 456.764 -2.75413 -1.02591 0
M  V30 4860 H 454.278 -1.55405 -0.471503 0
M  V30 4861 H 456.275 -2.33407 -3.45437 0
M  V30 4862 H 454.935 -1.25013 -2.99669 0
M  V30 4863 H 455.946 -4.79682 -1.95258 0
M  V30 4864 H 452.623 -2.58351 -3.27965 0
M  V30 4865 H 454.013 -6.41577 -1.99572 0
M  V30 4866 N 456.733 0.527833 -1.48498 0
M  V30 4867 C 457.982 1.28003 -1.55878 0
M  V30 4868 C 458.295 1.9414 -0.238577 0
M  V30 4869 O 459.501 2.7083 -0.190643 0
M  V30 4870 C 457.957 2.32272 -2.74914 0
M  V30 4871 C 457.565 1.72196 -4.13585 0
M  V30 4872 C 459.309 3.08488 -2.91608 0
M  V30 4873 C 457.216 2.74417 -5.23879 0
M  V30 4874 H 456.146 0.481413 -0.580308 0
M  V30 4875 H 458.797 0.557195 -1.74836 0
M  V30 4876 H 457.179 3.07601 -2.49395 0
M  V30 4877 H 458.353 1.03041 -4.49132 0
M  V30 4878 H 456.668 1.08464 -4.02025 0
M  V30 4879 H 459.265 3.84879 -3.71177 0
M  V30 4880 H 459.608 3.64481 -2.01145 0
M  V30 4881 H 460.141 2.40274 -3.17038 0
M  V30 4882 H 456.88 2.23242 -6.16314 0
M  V30 4883 H 456.4 3.41893 -4.92818 0
M  V30 4884 H 458.079 3.37362 -5.52083 0
M  V30 4885 N 458.211 1.37122 0.776871 0
M  V30 4886 C 459.158 1.3247 1.88998 0
M  V30 4887 C 460.128 0.191143 1.64997 0
M  V30 4888 O 461.313 0.379683 1.86984 0
M  V30 4889 C 458.453 1.13241 3.25992 0
M  V30 4890 C 457.566 2.35782 3.61982 0
M  V30 4891 C 456.701 2.09465 4.88158 0
M  V30 4892 C 455.74 3.279 5.16864 0
M  V30 4893 N 454.877 3.01167 6.34226 0
M  V30 4894 H 459.717 2.27642 1.9231 0
M  V30 4895 H 457.254 1.13125 0.94027 0
M  V30 4896 H 459.212 1.00115 4.0501 0
M  V30 4897 H 457.842 0.217186 3.22069 0
M  V30 4898 H 456.894 2.59666 2.77989 0
M  V30 4899 H 458.206 3.24125 3.79137 0
M  V30 4900 H 457.36 1.93341 5.75069 0
M  V30 4901 H 456.099 1.18452 4.73097 0
M  V30 4902 H 455.104 3.44569 4.2843 0
M  V30 4903 H 456.329 4.19757 5.33836 0
M  V30 4904 H 454.275 2.12779 6.20533 0
M  V30 4905 H 454.192 3.83052 6.51772 0
M  V30 4906 H 455.46 2.88649 7.24087 0
M  V30 4907 N 459.689 -1.00246 1.21608 0
M  V30 4908 C 460.914 -1.78167 1.06167 0
M  V30 4909 C 461.339 -1.84138 -0.384035 0
M  V30 4910 O 460.697 -1.28683 -1.27712 0
M  V30 4911 C 460.745 -3.19786 1.66642 0
M  V30 4912 O 459.849 -4.02153 0.913613 0
M  V30 4913 H 459.19 -0.549 0.37349 0
M  V30 4914 H 461.72 -1.25994 1.61204 0
M  V30 4915 H 461.73 -3.70451 1.70969 0
M  V30 4916 H 460.405 -3.14754 2.7185 0
M  V30 4917 H 458.982 -3.60711 0.945635 0
M  V30 4918 N 461.167 -1.02423 -1.1978 0
M  V30 4919 C 462.392 -0.7373 -1.93852 0
M  V30 4920 C 462.817 0.696923 -1.74713 0
M  V30 4921 O 462.175 1.48056 -1.04638 0
M  V30 4922 C 462.223 -1.08783 -3.438 0
M  V30 4923 O 461.327 -0.20383 -4.11896 0
M  V30 4924 H 460.668 -0.27284 -0.605355 0
M  V30 4925 H 463.198 -1.36966 -1.51992 0
M  V30 4926 H 463.208 -1.04276 -3.9445 0
M  V30 4927 H 461.883 -2.13274 -3.57053 0
M  V30 4928 H 460.46 -0.307091 -3.71633 0
M  V30 4929 N 462.645 1.35699 -0.801477 0
M  V30 4930 C 463.575 2.32436 -0.222658 0
M  V30 4931 C 464.556 1.5723 0.649057 0
M  V30 4932 O 465.741 1.85324 0.580387 0
M  V30 4933 C 462.871 3.41469 0.633719 0
M  V30 4934 C 461.825 4.27774 -0.139083 0
M  V30 4935 C 461.151 5.28082 0.838666 0
M  V30 4936 C 462.451 5.04946 -1.33517 0
M  V30 4937 H 464.145 2.81094 -1.03086 0
M  V30 4938 H 461.691 1.35146 -0.497155 0
M  V30 4939 H 463.644 4.08143 1.04868 0
M  V30 4940 H 462.368 2.91408 1.47475 0
M  V30 4941 H 461.027 3.62673 -0.535156 0
M  V30 4942 H 460.675 4.7429 1.67506 0
M  V30 4943 H 460.375 5.86695 0.32594 0
M  V30 4944 H 461.899 5.97628 1.25194 0
M  V30 4945 H 463.313 5.64593 -0.995349 0
M  V30 4946 H 461.71 5.7303 -1.78202 0
M  V30 4947 H 462.78 4.35886 -2.12442 0
M  V30 4948 N 464.123 0.554532 1.47522 0
M  V30 4949 C 465.053 -0.182974 2.32782 0
M  V30 4950 C 466.034 -0.911377 1.43624 0
M  V30 4951 O 467.219 -0.892366 1.72483 0
M  V30 4952 C 464.349 -1.21513 3.25349 0
M  V30 4953 C 463.303 -0.603355 4.23726 0
M  V30 4954 C 462.629 -1.73995 5.05598 0
M  V30 4955 C 463.929 0.441121 5.20434 0
M  V30 4956 H 465.623 0.52882 2.94693 0
M  V30 4957 H 463.169 0.255759 1.41711 0
M  V30 4958 H 465.122 -1.73922 3.83835 0
M  V30 4959 H 463.846 -1.95683 2.61487 0
M  V30 4960 H 462.505 -0.10059 3.66462 0
M  V30 4961 H 462.153 -2.47063 4.38143 0
M  V30 4962 H 461.853 -1.3364 5.72201 0
M  V30 4963 H 463.377 -2.26735 5.66942 0
M  V30 4964 H 464.791 0.00319931 5.733 0
M  V30 4965 H 463.188 0.763402 5.95224 0
M  V30 4966 H 464.258 1.33799 4.66075 0
M  V30 4967 N 465.601 -1.54893 0.290851 0
M  V30 4968 C 466.849 -1.99538 -0.320756 0
M  V30 4969 C 467.17 -1.18075 -1.55188 0
M  V30 4970 O 466.44 -0.274162 -1.93972 0
M  V30 4971 H 465.02 -0.737052 -0.121507 0
M  V30 4972 H 467.682 -1.90755 0.399832 0
M  V30 4973 H 466.778 -3.06282 -0.599802 0
M  V30 4974 N 467.08 -0.0183926 -1.57589 0
M  V30 4975 C 468.305 0.676634 -1.96052 0
M  V30 4976 C 468.73 1.6548 -0.894307 0
M  V30 4977 O 468.088 1.80712 0.145849 0
M  V30 4978 C 468.136 1.36872 -3.33614 0
M  V30 4979 O 467.24 2.48372 -3.29219 0
M  V30 4980 H 466.581 0.1786 -0.63953 0
M  V30 4981 H 469.111 -0.077056 -2.04455 0
M  V30 4982 H 469.121 1.72797 -3.69601 0
M  V30 4983 H 467.796 0.651636 -4.10763 0
M  V30 4984 H 466.373 2.14639 -3.04934 0
M  V30 4985 N 468.558 1.5553 0.254621 0
M  V30 4986 C 469.786 1.81046 1.00149 0
M  V30 4987 C 470.201 0.593047 1.79244 0
M  V30 4988 O 469.558 -0.438196 1.77161 0
M  V30 4989 C 469.609 3.04684 1.94551 0
M  V30 4990 O 469.33 4.21725 1.18658 0
M  V30 4991 C 470.831 3.42943 2.80901 0
M  V30 4992 H 468.051 0.602653 0.295044 0
M  V30 4993 H 470.595 2.02576 0.279842 0
M  V30 4994 H 468.75 2.85226 2.62154 0
M  V30 4995 H 469.164 4.91746 1.82445 0
M  V30 4996 H 470.638 4.32576 3.42902 0
M  V30 4997 H 471.115 2.63176 3.51617 0
M  V30 4998 H 471.721 3.64724 2.18762 0
M  V30 4999 N 470.036 -0.519951 1.48776 0
M  V30 5000 C 471.261 -1.30447 1.6124 0
M  V30 5001 C 471.686 -1.86055 0.276591 0
M  V30 5002 O 471.044 -1.64915 -0.753183 0
M  V30 5003 C 471.092 -2.42406 2.66967 0
M  V30 5004 O 470.196 -3.45728 2.24824 0
M  V30 5005 H 469.537 -0.385924 0.540332 0
M  V30 5006 H 472.067 -0.624572 1.94834 0
M  V30 5007 H 472.077 -2.88447 2.88552 0
M  V30 5008 H 470.752 -2.01294 3.63941 0
M  V30 5009 H 469.329 -3.05737 2.13494 0
M  V30 5010 N 471.514 -1.37532 -0.769588 0
M  V30 5011 C 472.791 -1.23392 -1.51768 0
M  V30 5012 C 473.171 0.17157 -2.10402 0
M  V30 5013 O 472.519 1.17943 -1.95708 0
M  V30 5014 C 472.729 -2.33163 -2.59685 0
M  V30 5015 C 474.077 -2.70809 -3.27028 0
M  V30 5016 O 475.101 -2.32355 -2.69981 0
M  V30 5017 O 473.96 -3.37066 -4.30173 0
M  V30 5018 H 471.054 -0.481617 -0.67229 0
M  V30 5019 H 473.6 -1.49318 -0.806368 0
M  V30 5020 H 472.372 -3.27273 -2.14494 0
M  V30 5021 H 471.995 -2.08713 -3.38415 0
M  V30 5022 N 472.992 0.995999 -1.22138 0
M  V30 5023 C 474.217 1.77601 -1.0711 0
M  V30 5024 C 474.642 1.84339 0.374264 0
M  V30 5025 O 474 1.29359 1.27028 0
M  V30 5026 C 474.048 3.18897 -1.68336 0
M  V30 5027 O 473.152 4.01663 -0.934928 0
M  V30 5028 H 472.493 0.547011 -0.376397 0
M  V30 5029 H 475.023 1.25137 -1.6187 0
M  V30 5030 H 475.033 3.69539 -1.72931 0
M  V30 5031 H 473.708 3.13308 -2.73516 0
M  V30 5032 H 472.285 3.60204 -0.964751 0
M  V30 5033 N 474.47 1.03057 1.19235 0
M  V30 5034 C 475.418 0.606391 2.24557 0
M  V30 5035 C 476.412 -0.361826 1.65491 0
M  V30 5036 O 477.618 -0.23022 1.78522 0
M  V30 5037 H 473.993 0.177838 0.730669 0
M  V30 5038 H 475.964 1.50529 2.5765 0
M  V30 5039 C 474.713 -0.0252127 3.47691 0
M  V30 5040 H 474.036 0.710838 3.9343 0
M  V30 5041 H 475.476 -0.284931 4.23042 0
M  V30 5042 C 473.935 -1.27229 3.11953 0
M  V30 5043 O 474.465 -2.36416 3.24762 0
M  V30 5044 N 472.671 -1.16169 2.6637 0
M  V30 5045 H 472.218 -0.273189 2.56147 0
M  V30 5046 H 472.176 -1.99703 2.42829 0
M  V30 5047 N 475.948 -1.35272 0.808662 0
M  V30 5048 C 476.878 -2.32315 0.234981 0
M  V30 5049 C 477.859 -1.57572 -0.64071 0
M  V30 5050 O 479.044 -1.8563 -0.570551 0
M  V30 5051 C 476.174 -3.41801 -0.615601 0
M  V30 5052 C 475.128 -4.27694 0.161767 0
M  V30 5053 C 474.454 -5.28519 -0.810649 0
M  V30 5054 C 475.754 -5.04231 1.36193 0
M  V30 5055 H 477.448 -2.80543 1.04575 0
M  V30 5056 H 474.994 -1.3488 0.504315 0
M  V30 5057 H 476.947 -4.08693 -1.02702 0
M  V30 5058 H 475.671 -2.92186 -1.45928 0
M  V30 5059 H 474.33 -3.62384 0.554382 0
M  V30 5060 H 473.978 -4.75171 -1.64988 0
M  V30 5061 H 473.678 -5.8686 -0.294822 0
M  V30 5062 H 475.202 -5.98283 -1.22023 0
M  V30 5063 H 476.616 -5.64058 1.02528 0
M  V30 5064 H 475.013 -5.72077 1.81239 0
M  V30 5065 H 476.083 -4.34753 2.14751 0
M  V30 5066 N 477.426 -0.562348 -1.47226 0
M  V30 5067 C 478.374 0.195476 -2.31777 0
M  V30 5068 C 479.368 0.90433 -1.43242 0
M  V30 5069 O 480.574 0.825031 -1.59979 0
M  V30 5070 H 476.949 0.0819095 -0.747526 0
M  V30 5071 H 478.92 -0.536753 -2.93533 0
M  V30 5072 C 477.669 1.20902 -3.26003 0
M  V30 5073 H 476.992 0.672997 -3.94095 0
M  V30 5074 H 478.432 1.71006 -3.87986 0
M  V30 5075 C 476.891 2.25955 -2.49891 0
M  V30 5076 O 477.421 3.32969 -2.2471 0
M  V30 5077 N 475.627 2.00019 -2.1081 0
M  V30 5078 H 475.174 1.13006 -2.31489 0
M  V30 5079 H 475.132 2.70523 -1.60201 0
M  V30 5080 N 478.904 1.54736 -0.299062 0
M  V30 5081 C 479.851 2.23448 0.577899 0
M  V30 5082 C 480.821 1.21637 1.13109 0
M  V30 5083 O 482.006 1.50252 1.17597 0
M  V30 5084 C 479.146 2.9774 1.74484 0
M  V30 5085 C 478.259 4.1432 1.22323 0
M  V30 5086 C 477.394 4.76199 2.35388 0
M  V30 5087 C 476.433 5.84927 1.80351 0
M  V30 5088 N 475.57 6.4077 2.86982 0
M  V30 5089 H 480.41 2.97996 -0.0146545 0
M  V30 5090 H 477.947 1.47088 -0.0190013 0
M  V30 5091 H 479.905 3.39045 2.43114 0
M  V30 5092 H 478.535 2.25572 2.30905 0
M  V30 5093 H 477.587 3.7797 0.429249 0
M  V30 5094 H 478.899 4.92659 0.780309 0
M  V30 5095 H 478.053 5.20346 3.11969 0
M  V30 5096 H 476.792 3.97188 2.83006 0
M  V30 5097 H 475.797 5.40207 1.02259 0
M  V30 5098 H 477.022 6.65821 1.3364 0
M  V30 5099 H 474.968 5.64643 3.33938 0
M  V30 5100 H 474.885 7.1445 2.4718 0
M  V30 5101 H 476.153 6.89574 3.63466 0
M  V30 5102 N 480.382 0.0267497 1.57577 0
M  V30 5103 C 481.612 -0.6617 1.95717 0
M  V30 5104 C 482.02 -1.66331 0.901706 0
M  V30 5105 O 481.363 -1.83273 -0.125241 0
M  V30 5106 C 481.425 -1.42649 3.29987 0
M  V30 5107 C 481.089 -0.583482 4.5326 0
M  V30 5108 C 482.086 0.140221 5.19711 0
M  V30 5109 C 479.771 -0.521581 4.99585 0
M  V30 5110 C 481.765 0.914523 6.30805 0
M  V30 5111 C 479.452 0.256428 6.10562 0
M  V30 5112 C 480.45 0.973189 6.76031 0
M  V30 5113 O 480.138 1.73845 7.84878 0
M  V30 5114 H 479.87 -0.187483 0.649481 0
M  V30 5115 H 482.424 0.0820847 2.05236 0
M  V30 5116 H 480.654 -2.21536 3.16952 0
M  V30 5117 H 482.343 -2.00282 3.53047 0
M  V30 5118 H 483.109 0.101716 4.84893 0
M  V30 5119 H 478.988 -1.06904 4.48433 0
M  V30 5120 H 482.532 1.4745 6.81839 0
M  V30 5121 H 478.429 0.296657 6.44818 0
M  V30 5122 H 479.197 1.65797 8.01532 0
M  V30 5123 N 481.861 -1.55662 -0.24637 0
M  V30 5124 C 483.086 -1.81914 -0.996093 0
M  V30 5125 C 483.511 -0.603875 -1.78143 0
M  V30 5126 O 482.869 0.447091 -1.75701 0
M  V30 5127 C 482.917 -3.05908 -1.90925 0
M  V30 5128 O 482.021 -2.82861 -3.00105 0
M  V30 5129 H 481.362 -0.600481 -0.283406 0
M  V30 5130 H 483.892 -2.02848 -0.267199 0
M  V30 5131 H 483.902 -3.35356 -2.3238 0
M  V30 5132 H 482.577 -3.93999 -1.33183 0
M  V30 5133 H 481.154 -2.64583 -2.62775 0
M  V30 5134 N 483.339 0.512053 -1.4905 0
M  V30 5135 C 484.567 1.29116 -1.61669 0
M  V30 5136 C 484.982 1.86655 -0.283787 0
M  V30 5137 O 484.339 1.67293 0.729331 0
M  V30 5138 C 484.39 2.4293 -2.67707 0
M  V30 5139 O 484.111 1.87758 -3.95826 0
M  V30 5140 C 485.612 3.34476 -2.90931 0
M  V30 5141 H 482.832 0.392009 -0.544583 0
M  V30 5142 H 485.376 0.615881 -1.95006 0
M  V30 5143 H 483.531 3.06308 -2.37179 0
M  V30 5144 H 483.945 2.62393 -4.54148 0
M  V30 5145 H 485.419 4.10642 -3.68886 0
M  V30 5146 H 485.896 3.90801 -2.00427 0
M  V30 5147 H 486.502 2.76874 -3.22832 0
M  V30 5148 N 484.817 1.37938 0.762283 0
M  V30 5149 C 486.066 1.32989 1.51647 0
M  V30 5150 C 486.379 -0.0802922 1.95435 0
M  V30 5151 O 487.585 -0.252295 2.70325 0
M  V30 5152 C 486.041 2.33485 2.73885 0
M  V30 5153 C 485.649 3.80079 2.37157 0
M  V30 5154 C 487.393 2.37563 3.51801 0
M  V30 5155 C 485.3 4.72283 3.55954 0
M  V30 5156 H 484.23 0.494301 0.56937 0
M  V30 5157 H 486.881 1.63448 0.834083 0
M  V30 5158 H 485.263 1.96056 3.44061 0
M  V30 5159 H 486.437 4.26398 1.74704 0
M  V30 5160 H 484.752 3.79037 1.72395 0
M  V30 5161 H 487.349 3.0365 4.40114 0
M  V30 5162 H 487.692 1.39199 3.92338 0
M  V30 5163 H 488.225 2.73747 2.8863 0
M  V30 5164 H 484.964 5.7181 3.2049 0
M  V30 5165 H 484.484 4.30663 4.1748 0
M  V30 5166 H 486.163 4.89876 4.22647 0
M  V30 5167 N 486.295 -0.989507 1.22664 0
M  V30 5168 C 487.243 -2.10148 0.997035 0
M  V30 5169 C 488.237 -1.6929 -0.0609783 0
M  V30 5170 O 489.443 -1.79766 0.0917523 0
M  V30 5171 H 485.818 -0.687256 0.305259 0
M  V30 5172 H 487.789 -2.26685 1.94053 0
M  V30 5173 C 486.538 -3.4257 0.595085 0
M  V30 5174 H 485.861 -3.74453 1.40089 0
M  V30 5175 H 487.301 -4.21344 0.473869 0
M  V30 5176 C 485.76 -3.29638 -0.695725 0
M  V30 5177 O 486.29 -3.61709 -1.74727 0
M  V30 5178 N 484.496 -2.82814 -0.668173 0
M  V30 5179 H 484.043 -2.56914 0.18787 0
M  V30 5180 H 484.001 -2.74544 -1.5321 0
M  V30 5181 N 487.773 -1.03688 -1.18687 0
M  V30 5182 C 488.72 -0.624624 -2.22187 0
M  V30 5183 C 489.69 0.365636 -1.62026 0
M  V30 5184 O 490.875 0.260481 -1.89014 0
M  V30 5185 C 488.015 0.0101738 -3.45099 0
M  V30 5186 C 487.128 -1.02709 -4.19613 0
M  V30 5187 C 486.263 -0.361213 -5.2997 0
M  V30 5188 C 485.302 -1.38384 -5.96252 0
M  V30 5189 N 484.439 -0.743196 -6.98155 0
M  V30 5190 H 489.279 -1.51176 -2.56807 0
M  V30 5191 H 486.816 -0.75636 -1.26165 0
M  V30 5192 H 488.774 0.395528 -4.15321 0
M  V30 5193 H 487.404 0.860848 -3.1111 0
M  V30 5194 H 486.456 -1.53043 -3.48256 0
M  V30 5195 H 487.768 -1.80398 -4.65036 0
M  V30 5196 H 486.922 0.0785537 -6.06649 0
M  V30 5197 H 485.661 0.447799 -4.8564 0
M  V30 5198 H 484.666 -1.83378 -5.18317 0
M  V30 5199 H 485.891 -2.19448 -6.42666 0
M  V30 5200 H 483.837 0.0455789 -6.55984 0
M  V30 5201 H 483.754 -1.45784 -7.41811 0
M  V30 5202 H 485.022 -0.327698 -7.78811 0
M  V30 5203 N 489.251 1.34841 -0.815825 0
M  V30 5204 C 490.5 1.97755 -0.396976 0
M  V30 5205 C 490.813 1.65422 1.04379 0
M  V30 5206 O 492.019 2.21771 1.5662 0
M  V30 5207 C 490.475 3.53818 -0.658869 0
M  V30 5208 C 490.083 3.95051 -2.11278 0
M  V30 5209 C 491.827 4.23397 -0.305834 0
M  V30 5210 C 489.734 5.43997 -2.31994 0
M  V30 5211 H 488.664 0.739985 -0.1447 0
M  V30 5212 H 491.315 1.53781 -1.00118 0
M  V30 5213 H 489.697 3.95997 0.0154112 0
M  V30 5214 H 490.871 3.63998 -2.82564 0
M  V30 5215 H 489.186 3.38388 -2.42657 0
M  V30 5216 H 491.783 5.32899 -0.43854 0
M  V30 5217 H 492.126 4.09508 0.748952 0
M  V30 5218 H 492.659 3.8667 -0.934403 0
M  V30 5219 H 489.398 5.62865 -3.35952 0
M  V30 5220 H 488.918 5.76589 -1.65244 0
M  V30 5221 H 490.597 6.10584 -2.14001 0
M  V30 5222 N 490.729 0.570148 1.46925 0
M  V30 5223 C 492.14 0.1402 1.86173 0
M  V30 5224 C 492.491 -1.29347 1.47526 0
M  V30 5225 O 491.616 -1.97508 0.884292 0
M  V30 5226 C 492.211 0.247661 3.37894 0
M  V30 5227 C 490.77 -0.127332 3.76185 0
M  V30 5228 C 489.917 0.589349 2.70965 0
M  V30 5229 H 492.868 0.779117 1.38259 0
M  V30 5230 H 492.889 -0.530341 3.76786 0
M  V30 5231 H 492.401 1.29121 3.65991 0
M  V30 5232 H 490.502 -1.17149 3.53704 0
M  V30 5233 H 490.615 0.240238 4.78497 0
M  V30 5234 H 488.979 0.0309824 2.54681 0
M  V30 5235 H 489.762 1.6343 3.01903 0
M  V30 5236 N 492.207 -1.54576 0.307264 0
M  V30 5237 C 493.139 -2.21212 -0.599807 0
M  V30 5238 C 494.152 -1.20685 -1.09266 0
M  V30 5239 O 495.341 -1.47244 -1.00903 0
M  V30 5240 C 492.441 -2.84994 -1.83389 0
M  V30 5241 C 491.614 -4.11511 -1.48248 0
M  V30 5242 C 490.673 -4.59038 -2.57237 0
M  V30 5243 O 489.699 -5.24095 -2.22065 0
M  V30 5244 N 490.901 -4.31884 -3.87887 0
M  V30 5245 H 493.666 -2.99686 -0.0293075 0
M  V30 5246 H 491.227 -1.61379 0.129738 0
M  V30 5247 H 493.219 -3.1372 -2.5566 0
M  V30 5248 H 491.789 -2.10324 -2.31263 0
M  V30 5249 H 491.009 -3.89728 -0.592122 0
M  V30 5250 H 492.297 -4.93879 -1.22316 0
M  V30 5251 H 491.695 -3.79778 -4.19268 0
M  V30 5252 H 490.252 -4.65304 -4.56438 0
M  V30 5253 N 493.685 -0.035106 -1.57561 0
M  V30 5254 C 494.615 0.942993 -2.13612 0
M  V30 5255 C 495.596 1.33531 -1.05373 0
M  V30 5256 O 496.781 1.41287 -1.33235 0
M  V30 5257 C 493.911 2.22332 -2.66807 0
M  V30 5258 C 492.865 1.97156 -3.79886 0
M  V30 5259 C 492.191 3.31506 -4.19533 0
M  V30 5260 C 493.491 1.30596 -5.05709 0
M  V30 5261 H 495.185 0.476179 -2.95589 0
M  V30 5262 H 492.731 0.227602 -1.4219 0
M  V30 5263 H 494.684 2.91142 -3.04654 0
M  V30 5264 H 493.408 2.7119 -1.81999 0
M  V30 5265 H 492.067 1.30763 -3.42486 0
M  V30 5266 H 491.715 3.78134 -3.31698 0
M  V30 5267 H 491.415 3.15465 -4.95738 0
M  V30 5268 H 492.939 4.01574 -4.59968 0
M  V30 5269 H 494.353 1.89416 -5.41105 0
M  V30 5270 H 492.75 1.24934 -5.86951 0
M  V30 5271 H 493.82 0.279742 -4.84092 0
M  V30 5272 N 495.163 1.55791 0.238111 0
M  V30 5273 C 496.391 1.82098 0.982233 0
M  V30 5274 C 496.806 0.612025 1.78605 0
M  V30 5275 O 496.163 -0.419381 1.77616 0
M  V30 5276 C 496.214 3.0673 1.91309 0
M  V30 5277 O 495.935 4.2296 1.14179 0
M  V30 5278 C 497.436 3.45903 2.77248 0
M  V30 5279 H 494.656 0.605748 0.288635 0
M  V30 5280 H 497.2 2.02862 0.258341 0
M  V30 5281 H 495.355 2.87991 2.59114 0
M  V30 5282 H 495.769 4.93653 1.7722 0
M  V30 5283 H 497.243 4.36189 3.38295 0
M  V30 5284 H 497.72 2.66891 3.48806 0
M  V30 5285 H 498.326 3.67024 2.14881 0
M  V30 5286 N 496.642 -0.504142 1.49319 0
M  V30 5287 C 497.572 -1.61473 1.68667 0
M  V30 5288 C 498.553 -1.61455 0.535378 0
M  V30 5289 O 499.738 -1.78245 0.770868 0
M  V30 5290 C 496.868 -2.99971 1.75028 0
M  V30 5291 C 495.822 -3.14854 2.89916 0
M  V30 5292 C 495.148 -4.54671 2.81387 0
M  V30 5293 C 496.448 -2.95176 4.30893 0
M  V30 5294 H 498.142 -1.45535 2.61648 0
M  V30 5295 H 495.688 -0.698711 1.25913 0
M  V30 5296 H 497.641 -3.77562 1.8715 0
M  V30 5297 H 496.365 -3.1699 0.786441 0
M  V30 5298 H 495.024 -2.39687 2.77391 0
M  V30 5299 H 494.672 -4.68562 1.82917 0
M  V30 5300 H 494.372 -4.6557 3.58494 0
M  V30 5301 H 495.896 -5.34327 2.95512 0
M  V30 5302 H 497.31 -3.62538 4.44116 0
M  V30 5303 H 495.707 -3.17549 5.09198 0
M  V30 5304 H 496.777 -1.91332 4.45556 0
M  V30 5305 N 498.12 -1.38341 -0.754957 0
M  V30 5306 C 499.068 -1.35573 -1.89005 0
M  V30 5307 C 500.062 -0.241824 -1.67665 0
M  V30 5308 O 501.268 -0.410785 -1.7525 0
M  V30 5309 H 497.643 -0.422898 -0.621821 0
M  V30 5310 H 499.614 -2.31359 -1.88455 0
M  V30 5311 C 498.363 -1.19631 -3.26471 0
M  V30 5312 H 497.686 -2.04605 -3.43477 0
M  V30 5313 H 499.126 -1.21748 -4.06144 0
M  V30 5314 C 497.585 0.0968705 -3.36761 0
M  V30 5315 O 498.115 1.07439 -3.87066 0
M  V30 5316 N 496.321 0.153242 -2.90196 0
M  V30 5317 H 495.868 -0.642908 -2.49448 0
M  V30 5318 H 495.826 1.01807 -2.9746 0
M  V30 5319 N 499.598 0.982988 -1.23187 0
M  V30 5320 C 500.845 1.72392 -1.06241 0
M  V30 5321 C 501.173 1.9032 0.40108 0
M  V30 5322 O 500.428 1.45084 1.31336 0
M  V30 5323 C 500.727 3.12736 -1.73006 0
M  V30 5324 C 500.393 3.14695 -3.22921 0
M  V30 5325 C 499.055 3.14937 -3.63824 0
M  V30 5326 C 501.407 3.10211 -4.1883 0
M  V30 5327 C 498.735 3.08408 -4.99101 0
M  V30 5328 C 501.087 3.05224 -5.54095 0
M  V30 5329 C 499.751 3.03787 -5.94365 0
M  V30 5330 H 499.021 0.630829 -0.388762 0
M  V30 5331 H 501.668 1.15053 -1.53085 0
M  V30 5332 H 499.973 3.73446 -1.18514 0
M  V30 5333 H 501.67 3.68828 -1.57374 0
M  V30 5334 H 498.26 3.15262 -2.90358 0
M  V30 5335 H 502.444 3.09166 -3.8824 0
M  V30 5336 H 497.7 3.05646 -5.29519 0
M  V30 5337 H 501.874 3.00712 -6.28128 0
M  V30 5338 H 499.501 2.98483 -6.99151 0
M  V30 5339 N 501.076 1.04316 1.18135 0
M  V30 5340 C 502.301 0.768047 1.92655 0
M  V30 5341 C 502.726 -0.66904 1.758 0
M  V30 5342 O 502.084 -1.46372 1.06981 0
M  V30 5343 C 502.132 1.14239 3.42026 0
M  V30 5344 O 501.236 0.269333 4.1152 0
M  V30 5345 H 500.577 0.282436 0.600937 0
M  V30 5346 H 503.107 1.39367 1.49793 0
M  V30 5347 H 503.117 1.10538 3.92741 0
M  V30 5348 H 501.792 2.18928 3.53615 0
M  V30 5349 H 500.369 0.366175 3.71098 0
M  V30 5350 N 502.554 -1.34406 0.822964 0
M  V30 5351 C 503.464 -2.33298 0.246838 0
M  V30 5352 C 504.48 -1.62625 -0.618797 0
M  V30 5353 O 505.656 -1.94391 -0.526685 0
M  V30 5354 C 502.721 -3.41785 -0.581731 0
M  V30 5355 C 501.782 -4.28206 0.306309 0
M  V30 5356 C 501.015 -5.31512 -0.48281 0
M  V30 5357 O 501.238 -5.43973 -1.71607 0
M  V30 5358 O 500.172 -6.01749 0.134884 0
M  V30 5359 H 503.998 -2.84401 1.06534 0
M  V30 5360 H 501.583 -1.37466 0.585108 0
M  V30 5361 H 503.465 -4.08028 -1.05313 0
M  V30 5362 H 502.14 -2.92925 -1.37756 0
M  V30 5363 H 501.047 -3.64885 0.825199 0
M  V30 5364 H 502.38 -4.80507 1.06649 0
M  V30 5365 N 504.032 -0.577932 -1.46621 0
M  V30 5366 C 505.278 -0.0617793 -2.02706 0
M  V30 5367 C 505.611 1.29294 -1.44903 0
M  V30 5368 O 504.886 1.8461 -0.61232 0
M  V30 5369 C 505.169 0.00911824 -3.60099 0
M  V30 5370 C 505.022 -1.37416 -4.28295 0
M  V30 5371 C 506.341 0.712159 -4.343 0
M  V30 5372 H 503.46 -0.0239246 -0.736612 0
M  V30 5373 H 506.102 -0.744211 -1.74818 0
M  V30 5374 H 504.252 0.590292 -3.83989 0
M  V30 5375 H 505.924 -2.00013 -4.15683 0
M  V30 5376 H 504.167 -1.94319 -3.87843 0
M  V30 5377 H 504.838 -1.27707 -5.37024 0
M  V30 5378 H 507.314 0.218486 -4.15526 0
M  V30 5379 H 506.19 0.730782 -5.44014 0
M  V30 5380 H 506.451 1.77251 -4.05012 0
M  V30 5381 N 505.51 1.54411 -0.315457 0
M  V30 5382 C 506.457 2.24048 0.554166 0
M  V30 5383 C 507.427 1.2283 1.11812 0
M  V30 5384 O 508.612 1.51491 1.15997 0
M  V30 5385 C 505.752 2.99574 1.71316 0
M  V30 5386 C 504.865 4.15594 1.17922 0
M  V30 5387 C 504 4.78669 2.30324 0
M  V30 5388 C 503.039 5.86807 1.74137 0
M  V30 5389 N 502.176 6.43777 2.8017 0
M  V30 5390 H 507.016 2.97964 -0.0462602 0
M  V30 5391 H 504.553 1.47059 -0.0346009 0
M  V30 5392 H 506.511 3.41604 2.39505 0
M  V30 5393 H 505.141 2.28008 2.285 0
M  V30 5394 H 504.193 3.78404 0.389136 0
M  V30 5395 H 505.505 4.93459 0.728012 0
M  V30 5396 H 504.659 5.23626 3.06433 0
M  V30 5397 H 503.398 4.00168 2.78778 0
M  V30 5398 H 502.403 5.41261 0.965236 0
M  V30 5399 H 503.628 6.67201 1.2657 0
M  V30 5400 H 501.574 5.68153 3.2793 0
M  V30 5401 H 501.491 7.17031 2.39588 0
M  V30 5402 H 502.759 6.9339 3.56132 0
M  V30 5403 N 506.988 0.0434614 1.5754 0
M  V30 5404 C 508.216 -0.641835 1.96693 0
M  V30 5405 C 508.631 -1.64832 0.920652 0
M  V30 5406 O 507.988 -1.82247 -0.095993 0
M  V30 5407 C 508.039 -1.33557 3.35924 0
M  V30 5408 O 507.76 -0.369403 4.3654 0
M  V30 5409 C 509.261 -2.11135 3.89791 0
M  V30 5410 H 506.481 -0.176013 0.647503 0
M  V30 5411 H 509.025 0.107478 2.04217 0
M  V30 5412 H 507.18 -2.03617 3.29574 0
M  V30 5413 H 507.594 -0.863674 5.1734 0
M  V30 5414 H 509.068 -2.55107 4.89514 0
M  V30 5415 H 509.545 -2.95634 3.24803 0
M  V30 5416 H 510.151 -1.46002 3.99454 0
M  V30 5417 N 508.466 -1.55915 -0.229846 0
M  V30 5418 C 509.376 -1.94891 -1.30593 0
M  V30 5419 C 510.392 -0.851604 -1.51736 0
M  V30 5420 O 511.568 -1.15447 -1.65027 0
M  V30 5421 C 508.633 -2.25052 -2.63728 0
M  V30 5422 C 507.694 -3.48306 -2.5096 0
M  V30 5423 C 506.927 -3.77019 -3.77747 0
M  V30 5424 O 507.15 -3.07534 -4.80395 0
M  V30 5425 O 506.084 -4.70523 -3.75356 0
M  V30 5426 H 509.91 -2.86581 -1.00525 0
M  V30 5427 H 507.495 -1.43017 -0.432025 0
M  V30 5428 H 509.377 -2.45682 -3.42372 0
M  V30 5429 H 508.052 -1.36538 -2.93495 0
M  V30 5430 H 506.959 -3.32964 -1.70546 0
M  V30 5431 H 508.292 -4.37177 -2.26136 0
M  V30 5432 N 509.944 0.496216 -1.49584 0
M  V30 5433 C 510.891 1.59722 -1.66606 0
M  V30 5434 C 511.861 1.58158 -0.507477 0
M  V30 5435 O 513.046 1.76072 -0.735076 0
M  V30 5436 C 510.186 2.97844 -1.74308 0
M  V30 5437 C 509.299 3.09388 -3.01502 0
M  V30 5438 C 508.434 4.38271 -3.00153 0
M  V30 5439 C 507.473 4.43466 -4.21906 0
M  V30 5440 N 506.61 5.63784 -4.1844 0
M  V30 5441 H 511.45 1.44515 -2.60613 0
M  V30 5442 H 508.987 0.703048 -1.29212 0
M  V30 5443 H 510.945 3.77907 -1.76754 0
M  V30 5444 H 509.575 3.11743 -0.837619 0
M  V30 5445 H 508.627 2.22357 -3.08645 0
M  V30 5446 H 509.939 3.09085 -3.91494 0
M  V30 5447 H 509.093 5.2666 -3.01188 0
M  V30 5448 H 507.832 4.41146 -2.07947 0
M  V30 5449 H 506.837 3.53478 -4.21109 0
M  V30 5450 H 508.062 4.42303 -5.1531 0
M  V30 5451 H 506.008 5.67491 -3.29074 0
M  V30 5452 H 505.925 5.65118 -5.02173 0
M  V30 5453 H 507.193 6.54367 -4.23585 0
M  V30 5454 N 511.423 1.38739 0.74761 0
M  V30 5455 C 512.37 1.36449 1.86146 0
M  V30 5456 C 513.34 0.226098 1.64554 0
M  V30 5457 O 514.525 0.41926 1.86137 0
M  V30 5458 C 511.665 1.2013 3.23516 0
M  V30 5459 C 510.778 2.43407 3.56899 0
M  V30 5460 C 509.913 2.19773 4.83605 0
M  V30 5461 C 508.952 3.3879 5.09792 0
M  V30 5462 N 508.089 3.14553 6.27695 0
M  V30 5463 H 512.929 2.3167 1.87438 0
M  V30 5464 H 510.466 1.15094 0.916063 0
M  V30 5465 H 512.424 1.08683 4.02795 0
M  V30 5466 H 511.054 0.285453 3.21535 0
M  V30 5467 H 510.106 2.65504 2.72418 0
M  V30 5468 H 511.418 3.32094 3.72176 0
M  V30 5469 H 510.572 2.05496 5.70838 0
M  V30 5470 H 509.311 1.28461 4.70478 0
M  V30 5471 H 508.316 3.53579 4.21025 0
M  V30 5472 H 509.541 4.30986 5.24812 0
M  V30 5473 H 507.487 2.25893 6.1588 0
M  V30 5474 H 507.404 3.96791 6.435 0
M  V30 5475 H 508.672 3.03943 7.17801 0
M  V30 5476 N 512.901 -0.976442 1.23707 0
M  V30 5477 C 513.849 -2.09078 1.01927 0
M  V30 5478 C 514.843 -1.69345 -0.0430193 0
M  V30 5479 O 516.049 -1.79659 0.110814 0
M  V30 5480 H 512.424 -0.68398 0.312531 0
M  V30 5481 H 514.395 -2.24614 1.96447 0
M  V30 5482 C 513.144 -3.41919 0.631385 0
M  V30 5483 H 512.467 -3.72946 1.44053 0
M  V30 5484 H 513.907 -4.20817 0.518532 0
M  V30 5485 C 512.366 -3.30357 -0.660723 0
M  V30 5486 O 512.896 -3.63542 -1.70881 0
M  V30 5487 N 511.102 -2.83507 -0.638139 0
M  V30 5488 H 510.649 -2.567 0.215108 0
M  V30 5489 H 510.607 -2.76153 -1.50289 0
M  V30 5490 N 514.379 -1.04941 -1.1758 0
M  V30 5491 C 515.604 -0.778253 -1.92245 0
M  V30 5492 C 516.029 0.659707 -1.76152 0
M  V30 5493 O 515.387 1.45803 -1.07755 0
M  V30 5494 C 515.435 -1.16051 -3.41416 0
M  V30 5495 O 514.539 -0.291153 -4.11371 0
M  V30 5496 H 513.88 -0.285619 -0.599431 0
M  V30 5497 H 516.41 -1.40159 -1.49052 0
M  V30 5498 H 516.42 -1.12619 -3.92149 0
M  V30 5499 H 515.095 -2.208 -3.52449 0
M  V30 5500 H 513.672 -0.385851 -3.70898 0
M  V30 5501 N 515.857 1.33968 -0.830081 0
M  V30 5502 C 517.082 2.02813 -0.433796 0
M  V30 5503 C 517.507 1.62076 0.954614 0
M  V30 5504 O 516.865 0.808955 1.62252 0
M  V30 5505 C 516.913 3.56348 -0.552115 0
M  V30 5506 O 516.017 4.10202 0.425191 0
M  V30 5507 H 515.358 0.639817 -0.177567 0
M  V30 5508 H 517.888 1.7106 -1.12248 0
M  V30 5509 H 517.898 4.05722 -0.430513 0
M  V30 5510 H 516.573 3.85344 -1.56471 0
M  V30 5511 H 515.15 3.71979 0.261878 0
M  V30 5512 N 517.335 0.585699 1.46312 0
M  V30 5513 C 518.746 0.159938 1.86014 0
M  V30 5514 C 519.097 -1.27775 1.48889 0
M  V30 5515 O 518.222 -1.96559 0.90519 0
M  V30 5516 C 518.817 0.283485 3.37612 0
M  V30 5517 C 517.376 -0.0874256 3.76298 0
M  V30 5518 C 516.523 0.618055 2.70325 0
M  V30 5519 H 519.474 0.793737 1.37425 0
M  V30 5520 H 519.495 -0.490348 3.77327 0
M  V30 5521 H 519.007 1.32995 3.64601 0
M  V30 5522 H 517.108 -1.13391 3.54927 0
M  V30 5523 H 517.221 0.290975 4.78216 0
M  V30 5524 H 515.585 0.057993 2.54634 0
M  V30 5525 H 516.368 1.66623 3.00153 0
M  V30 5526 N 518.813 -1.54241 0.323641 0
M  V30 5527 C 520.224 -1.85975 -0.164405 0
M  V30 5528 C 520.575 -1.24529 -1.51615 0
M  V30 5529 O 519.7 -0.551351 -2.09258 0
M  V30 5530 C 520.295 -3.37424 -0.305091 0
M  V30 5531 C 518.854 -3.69107 -0.737358 0
M  V30 5532 C 518.001 -2.76942 0.140884 0
M  V30 5533 H 520.952 -1.49088 0.543922 0
M  V30 5534 H 520.973 -3.63147 -1.13598 0
M  V30 5535 H 520.485 -3.82116 0.678876 0
M  V30 5536 H 518.586 -3.29947 -1.73107 0
M  V30 5537 H 518.699 -4.76035 -0.541053 0
M  V30 5538 H 517.063 -2.51795 -0.383572 0
M  V30 5539 H 517.846 -3.24461 1.12162 0
M  V30 5540 N 520.291 -0.0518155 -1.57515 0
M  V30 5541 C 521.516 0.634896 -1.97443 0
M  V30 5542 C 521.941 1.63546 -0.929207 0
M  V30 5543 O 521.299 1.80981 0.107484 0
M  V30 5544 C 521.347 1.29765 -3.36442 0
M  V30 5545 O 520.451 2.41333 -3.34413 0
M  V30 5546 H 519.792 0.164994 -0.643174 0
M  V30 5547 H 522.322 -0.120407 -2.04245 0
M  V30 5548 H 522.332 1.64918 -3.73184 0
M  V30 5549 H 521.007 0.564361 -4.12053 0
M  V30 5550 H 519.584 2.08122 -3.09418 0
M  V30 5551 N 521.769 1.56035 0.221574 0
M  V30 5552 C 522.994 1.83476 0.967026 0
M  V30 5553 C 523.419 0.632139 1.7716 0
M  V30 5554 O 522.777 -0.419082 1.7639 0
M  V30 5555 C 522.825 3.08907 1.86034 0
M  V30 5556 O 521.929 2.876 2.95567 0
M  V30 5557 H 521.27 0.604913 0.273817 0
M  V30 5558 H 523.8 2.03247 0.234893 0
M  V30 5559 H 523.81 3.3901 2.27016 0
M  V30 5560 H 522.485 3.96068 1.26898 0
M  V30 5561 H 521.062 2.6873 2.58532 0
M  V30 5562 N 523.247 -0.488276 1.49845 0
M  V30 5563 C 524.524 -1.24959 1.50481 0
M  V30 5564 C 524.904 -2.09735 0.239698 0
M  V30 5565 O 524.252 -2.14865 -0.777524 0
M  V30 5566 C 524.462 -2.0954 2.79095 0
M  V30 5567 C 525.81 -2.68305 3.29086 0
M  V30 5568 O 526.834 -2.19797 2.80299 0
M  V30 5569 O 525.693 -3.56643 4.14087 0
M  V30 5570 H 522.787 -0.566133 0.602845 0
M  V30 5571 H 525.333 -0.501504 1.6212 0
M  V30 5572 H 524.105 -1.46958 3.62656 0
M  V30 5573 H 523.728 -2.91517 2.70377 0
M  V30 5574 N 524.725 -1.39134 -0.740242 0
M  V30 5575 C 525.672 -1.37434 -1.8542 0
M  V30 5576 C 526.642 -0.234822 -1.64432 0
M  V30 5577 O 527.827 -0.429125 -1.85912 0
M  V30 5578 C 524.967 -1.21844 -3.22875 0
M  V30 5579 C 524.08 -2.45296 -3.55603 0
M  V30 5580 C 523.215 -2.22334 -4.82432 0
M  V30 5581 C 522.254 -3.41488 -5.07988 0
M  V30 5582 N 521.391 -3.17877 -6.26018 0
M  V30 5583 H 526.231 -2.3266 -1.86207 0
M  V30 5584 H 523.768 -1.15578 -0.909946 0
M  V30 5585 H 525.726 -1.10818 -4.02213 0
M  V30 5586 H 524.356 -0.3025 -3.21379 0
M  V30 5587 H 523.408 -2.66945 -2.71006 0
M  V30 5588 H 524.72 -3.34063 -3.7041 0
M  V30 5589 H 523.874 -2.0852 -5.69741 0
M  V30 5590 H 522.613 -1.30954 -4.6979 0
M  V30 5591 H 521.618 -3.55807 -4.19144 0
M  V30 5592 H 522.843 -4.33763 -5.22519 0
M  V30 5593 H 520.789 -2.29156 -6.14673 0
M  V30 5594 H 520.706 -4.00198 -6.41387 0
M  V30 5595 H 521.974 -3.07746 -7.16179 0
M  V30 5596 N 526.204 0.969867 -1.24223 0
M  V30 5597 C 527.432 1.74756 -1.10761 0
M  V30 5598 C 527.847 1.85713 0.340041 0
M  V30 5599 O 527.204 1.34389 1.23474 0
M  V30 5600 C 527.255 3.16915 -1.73917 0
M  V30 5601 O 526.976 3.06511 -3.13021 0
M  V30 5602 C 528.477 4.11032 -1.66036 0
M  V30 5603 H 525.697 0.548092 -0.387087 0
M  V30 5604 H 528.241 1.2178 -1.64286 0
M  V30 5605 H 526.396 3.66884 -1.244 0
M  V30 5606 H 526.81 3.96079 -3.43834 0
M  V30 5607 H 528.284 5.08446 -2.14911 0
M  V30 5608 H 528.761 4.34785 -0.621159 0
M  V30 5609 H 529.367 3.66972 -2.14969 0
M  V30 5610 N 527.682 1.05563 1.17022 0
M  V30 5611 C 528.931 0.763036 1.8671 0
M  V30 5612 C 529.244 -0.712857 1.82147 0
M  V30 5613 O 530.45 -1.11955 2.47343 0
M  V30 5614 C 528.906 1.31474 3.35026 0
M  V30 5615 C 528.514 2.82034 3.48081 0
M  V30 5616 C 530.258 1.09935 4.10018 0
M  V30 5617 C 528.165 3.30486 4.90442 0
M  V30 5618 H 527.095 0.281747 0.699382 0
M  V30 5619 H 529.746 1.2734 1.32124 0
M  V30 5620 H 528.128 0.732171 3.89173 0
M  V30 5621 H 529.302 3.46178 3.04133 0
M  V30 5622 H 527.617 3.02156 2.86515 0
M  V30 5623 H 530.214 1.43632 5.15048 0
M  V30 5624 H 530.557 0.0373072 4.16283 0
M  V30 5625 H 531.09 1.64732 3.62089 0
M  V30 5626 H 527.829 4.36137 4.89352 0
M  V30 5627 H 527.349 2.71086 5.35044 0
M  V30 5628 H 529.028 3.25382 5.59227 0
M  V30 5629 N 529.16 -1.33526 0.837174 0
M  V30 5630 C 530.409 -1.97098 0.428387 0
M  V30 5631 C 530.722 -1.67062 -1.01734 0
M  V30 5632 O 531.928 -2.24235 -1.53072 0
M  V30 5633 C 530.384 -3.52725 0.715075 0
M  V30 5634 C 529.992 -3.9164 2.17537 0
M  V30 5635 C 531.736 -4.22857 0.373154 0
M  V30 5636 C 529.643 -5.40237 2.40619 0
M  V30 5637 H 528.573 -0.737589 0.156455 0
M  V30 5638 H 531.224 -1.52169 1.02552 0
M  V30 5639 H 529.606 -3.95971 0.0475904 0
M  V30 5640 H 530.78 -3.59456 2.88319 0
M  V30 5641 H 529.095 -3.34485 2.4801 0
M  V30 5642 H 531.692 -5.32133 0.523264 0
M  V30 5643 H 532.035 -4.10647 -0.683708 0
M  V30 5644 H 532.568 -3.85135 0.995801 0
M  V30 5645 H 529.307 -5.57449 3.44864 0
M  V30 5646 H 528.827 -5.73887 1.74396 0
M  V30 5647 H 530.506 -6.07102 2.23688 0
M  V30 5648 N 530.638 -0.59345 -1.46 0
M  V30 5649 C 531.601 0.123538 -2.28867 0
M  V30 5650 C 532.601 0.808628 -1.38989 0
M  V30 5651 O 533.791 0.658945 -1.61256 0
M  V30 5652 C 530.923 1.1847 -3.19653 0
M  V30 5653 H 532.116 -0.604843 -2.93737 0
M  V30 5654 H 529.669 -0.351875 -1.52288 0
M  V30 5655 H 530.404 1.94431 -2.59552 0
M  V30 5656 H 530.189 0.69783 -3.8584 0
M  V30 5657 H 531.679 1.68726 -3.81997 0
M  V30 5658 N 532.116 1.54067 -0.331816 0
M  V30 5659 C 533.527 1.86059 0.15454 0
M  V30 5660 C 533.878 1.25331 1.50952 0
M  V30 5661 O 533.003 0.562441 2.08963 0
M  V30 5662 C 533.598 3.37581 0.287192 0
M  V30 5663 C 532.157 3.69493 0.717773 0
M  V30 5664 C 531.304 2.76863 -0.155569 0
M  V30 5665 H 534.255 1.48797 -0.55182 0
M  V30 5666 H 534.276 3.63744 1.11671 0
M  V30 5667 H 533.788 3.81751 -0.699131 0
M  V30 5668 H 531.889 3.3086 1.71354 0
M  V30 5669 H 532.002 4.76315 0.5158 0
M  V30 5670 H 530.366 2.51995 0.370213 0
M  V30 5671 H 531.149 3.23861 -1.13881 0
M  V30 5672 N 533.594 0.0601682 1.57485 0
M  V30 5673 C 534.541 -0.91112 2.12055 0
M  V30 5674 C 535.511 -1.30298 1.03013 0
M  V30 5675 O 536.696 -1.39087 1.30612 0
M  V30 5676 C 533.836 -2.1775 2.67729 0
M  V30 5677 C 532.949 -1.83933 3.90887 0
M  V30 5678 C 532.084 -3.05096 4.34845 0
M  V30 5679 C 531.123 -2.67241 5.5068 0
M  V30 5680 N 530.26 -3.81127 5.8965 0
M  V30 5681 H 535.1 -0.43888 2.9475 0
M  V30 5682 H 532.637 -0.204995 1.45665 0
M  V30 5683 H 534.595 -2.91866 2.98111 0
M  V30 5684 H 533.225 -2.62535 1.87816 0
M  V30 5685 H 532.277 -0.999287 3.6704 0
M  V30 5686 H 533.589 -1.52074 4.75052 0
M  V30 5687 H 532.743 -3.87502 4.66827 0
M  V30 5688 H 531.482 -3.40139 3.49509 0
M  V30 5689 H 530.487 -1.83254 5.18361 0
M  V30 5690 H 531.712 -2.3338 6.37738 0
M  V30 5691 H 529.658 -4.15954 5.07266 0
M  V30 5692 H 529.575 -3.52997 6.68528 0
M  V30 5693 H 530.843 -4.64145 6.2625 0
M  V30 5694 N 535.072 -1.5615 -0.213296 0
M  V30 5695 C 536.318 -1.79812 -0.937849 0
M  V30 5696 C 536.651 -0.631201 -1.83656 0
M  V30 5697 O 535.926 0.369165 -1.90964 0
M  V30 5698 C 536.209 -3.13613 -1.76972 0
M  V30 5699 C 536.062 -4.40766 -0.89695 0
M  V30 5700 C 537.381 -3.43931 -2.7459 0
M  V30 5701 H 534.5 -0.654138 -0.339518 0
M  V30 5702 H 537.142 -1.88877 -0.20623 0
M  V30 5703 H 535.292 -3.06015 -2.39347 0
M  V30 5704 H 536.964 -4.60392 -0.289306 0
M  V30 5705 H 535.207 -4.33326 -0.202756 0
M  V30 5706 H 535.878 -5.30843 -1.51358 0
M  V30 5707 H 538.354 -3.5171 -2.22349 0
M  V30 5708 H 537.23 -4.38706 -3.29891 0
M  V30 5709 H 537.491 -2.6651 -3.52739 0
M  V30 5710 N 536.55 0.480323 -1.50102 0
M  V30 5711 C 537.497 1.57946 -1.6829 0
M  V30 5712 C 538.467 1.57611 -0.524223 0
M  V30 5713 O 539.652 1.75282 -0.753709 0
M  V30 5714 C 536.792 2.95978 -1.77457 0
M  V30 5715 C 535.905 3.06173 -3.04766 0
M  V30 5716 C 535.04 4.35063 -3.04784 0
M  V30 5717 C 534.079 4.38966 -4.26586 0
M  V30 5718 N 533.216 5.59314 -4.24396 0
M  V30 5719 H 538.056 1.41743 -2.62131 0
M  V30 5720 H 535.593 0.689304 -1.2995 0
M  V30 5721 H 537.551 3.76011 -1.80752 0
M  V30 5722 H 536.181 3.10837 -0.870637 0
M  V30 5723 H 535.233 2.19071 -3.10986 0
M  V30 5724 H 536.545 3.04916 -3.9475 0
M  V30 5725 H 535.699 5.23436 -3.06757 0
M  V30 5726 H 534.438 4.38915 -2.12614 0
M  V30 5727 H 533.443 3.48992 -4.24835 0
M  V30 5728 H 534.668 4.36813 -5.19972 0
M  V30 5729 H 532.614 5.63969 -3.35074 0
M  V30 5730 H 532.531 5.5976 -5.08138 0
M  V30 5731 H 533.799 6.49837 -4.30502 0
M  V30 5732 N 538.028 1.39524 0.732853 0
M  V30 5733 C 539.305 1.27373 1.48444 0
M  V30 5734 C 539.685 -0.115725 2.10783 0
M  V30 5735 O 539.033 -1.12713 1.98766 0
M  V30 5736 C 539.243 2.39966 2.53412 0
M  V30 5737 C 540.591 2.79384 3.19733 0
M  V30 5738 O 541.615 2.39431 2.63725 0
M  V30 5739 O 540.474 3.48353 4.21085 0
M  V30 5740 H 537.568 0.499272 0.659285 0
M  V30 5741 H 540.114 1.51403 0.766496 0
M  V30 5742 H 538.886 3.32845 2.05742 0
M  V30 5743 H 538.509 2.17612 3.32762 0
M  V30 5744 N 539.506 -0.963266 1.24736 0
M  V30 5745 C 540.922 -1.23273 1.01371 0
M  V30 5746 C 541.122 -1.99618 -0.274776 0
M  V30 5747 O 540.178 -2.32293 -0.989769 0
M  V30 5748 C 541.491 -2.01554 2.23152 0
M  V30 5749 C 543.039 -2.14629 2.27823 0
M  V30 5750 C 543.514 -2.96307 3.49237 0
M  V30 5751 N 545.005 -3.03887 3.49581 0
M  V30 5752 C 545.74 -3.67456 4.40186 0
M  V30 5753 N 545.236 -4.32706 5.41052 0
M  V30 5754 N 547.029 -3.64511 4.27888 0
M  V30 5755 H 539.18 -0.452294 2.07528 0
M  V30 5756 H 541.443 -0.262521 0.910926 0
M  V30 5757 H 541.149 -1.52847 3.1675 0
M  V30 5758 H 541.023 -3.02278 2.25628 0
M  V30 5759 H 543.41 -2.62537 1.34753 0
M  V30 5760 H 543.491 -1.13238 2.2937 0
M  V30 5761 H 543.135 -2.49091 4.42624 0
M  V30 5762 H 543.065 -3.97905 3.44933 0
M  V30 5763 H 545.556 -2.57477 2.76611 0
M  V30 5764 H 545.869 -4.79042 6.06415 0
M  V30 5765 H 544.214 -4.31361 5.44934 0
M  V30 5766 H 547.405 -3.12715 3.4832 0
M  V30 5767 H 547.578 -4.13768 4.98698 0
M  V30 5768 N 540.985 -1.06182 -1.16461 0
M  V30 5769 C 542.213 -0.798583 -1.90867 0
M  V30 5770 C 542.628 0.646921 -1.77371 0
M  V30 5771 O 541.985 1.44279 -1.11758 0
M  V30 5772 C 542.036 -1.18258 -3.4161 0
M  V30 5773 O 541.757 -2.57135 -3.54701 0
M  V30 5774 C 543.258 -0.946917 -4.33069 0
M  V30 5775 H 540.478 -0.289603 -0.605286 0
M  V30 5776 H 543.022 -1.41515 -1.47627 0
M  V30 5777 H 541.177 -0.610562 -3.82558 0
M  V30 5778 H 541.591 -2.72477 -4.4817 0
M  V30 5779 H 543.065 -1.26523 -5.37304 0
M  V30 5780 H 543.542 0.117406 -4.39043 0
M  V30 5781 H 544.148 -1.50326 -3.97847 0
M  V30 5782 N 542.463 1.3308 -0.844243 0
M  V30 5783 C 543.413 2.26589 -0.253289 0
M  V30 5784 C 544.397 1.49501 0.594836 0
M  V30 5785 O 545.589 1.71291 0.445924 0
M  V30 5786 C 542.718 3.38599 0.566176 0
M  V30 5787 C 541.804 4.23081 -0.293756 0
M  V30 5788 N 542.195 4.86751 -1.37505 0
M  V30 5789 C 540.493 4.45925 -0.0817086 0
M  V30 5790 C 541.194 5.49684 -1.90323 0
M  V30 5791 N 540.17 5.30101 -1.20391 0
M  V30 5792 H 543.972 2.73334 -1.08009 0
M  V30 5793 H 541.486 1.47048 -0.689258 0
M  V30 5794 H 543.483 4.04584 1.00587 0
M  V30 5795 H 542.143 2.93401 1.39089 0
M  V30 5796 H 543.154 4.87151 -1.75796 0
M  V30 5797 H 539.831 4.11434 0.709129 0
M  V30 5798 H 541.221 6.10363 -2.80902 0
M  V30 5799 N 543.941 0.601185 1.45683 0
M  V30 5800 C 544.889 -0.133955 2.32214 0
M  V30 5801 C 545.883 -0.866034 1.45589 0
M  V30 5802 O 547.089 -0.782326 1.6211 0
M  V30 5803 H 543.464 -0.0620613 0.749435 0
M  V30 5804 H 545.435 0.614389 2.92007 0
M  V30 5805 C 544.184 -1.12216 3.29094 0
M  V30 5806 H 543.507 -0.568273 3.95741 0
M  V30 5807 H 544.947 -1.60659 3.92383 0
M  V30 5808 C 543.406 -2.19251 2.55794 0
M  V30 5809 O 543.936 -3.26894 2.33459 0
M  V30 5810 N 542.142 -1.9436 2.16039 0
M  V30 5811 H 541.689 -1.06829 2.34404 0
M  V30 5812 H 541.647 -2.66181 1.67318 0
M  V30 5813 N 545.419 -1.53889 0.339982 0
M  V30 5814 C 546.665 -2.01152 -0.258003 0
M  V30 5815 C 546.998 -1.22749 -1.50487 0
M  V30 5816 O 546.273 -0.314156 -1.91946 0
M  V30 5817 C 546.556 -3.55468 -0.575717 0
M  V30 5818 C 546.409 -4.44584 0.682996 0
M  V30 5819 C 547.728 -4.1768 -1.38677 0
M  V30 5820 H 544.847 -0.731198 -0.0922992 0
M  V30 5821 H 547.489 -1.84352 0.459814 0
M  V30 5822 H 545.639 -3.69914 -1.18725 0
M  V30 5823 H 547.311 -4.41981 1.32102 0
M  V30 5824 H 545.554 -4.13592 1.3086 0
M  V30 5825 H 546.225 -5.5043 0.416001 0
M  V30 5826 H 548.701 -4.0691 -0.869705 0
M  V30 5827 H 547.577 -5.25734 -1.57783 0
M  V30 5828 H 547.838 -3.72069 -2.38782 0
M  V30 5829 N 546.897 -0.0685191 -1.57451 0
M  V30 5830 C 548.125 0.610462 -1.97689 0
M  V30 5831 C 548.54 1.63346 -0.946758 0
M  V30 5832 O 547.897 1.82377 0.0669868 0
M  V30 5833 C 547.948 1.28196 -3.38006 0
M  V30 5834 O 547.669 0.299906 -4.37072 0
M  V30 5835 C 549.17 2.04907 -3.931 0
M  V30 5836 H 546.39 0.165689 -0.650222 0
M  V30 5837 H 548.934 -0.139953 -2.04021 0
M  V30 5838 H 547.089 1.98348 -3.32771 0
M  V30 5839 H 547.503 0.78126 -5.18649 0
M  V30 5840 H 548.977 2.47287 -4.93511 0
M  V30 5841 H 549.454 2.9043 -3.29465 0
M  V30 5842 H 550.06 1.39629 -4.01726 0
M  V30 5843 N 548.375 1.56261 0.205012 0
M  V30 5844 C 549.285 1.96944 1.27476 0
M  V30 5845 C 550.301 0.875636 1.50362 0
M  V30 5846 O 551.477 1.18058 1.6317 0
M  V30 5847 C 548.542 2.29219 2.60115 0
M  V30 5848 C 547.603 3.52255 2.45387 0
M  V30 5849 C 546.836 3.8298 3.71701 0
M  V30 5850 O 547.059 3.15138 4.75441 0
M  V30 5851 O 545.993 4.76435 3.67823 0
M  V30 5852 H 549.819 2.88144 0.959527 0
M  V30 5853 H 547.404 1.43686 0.409217 0
M  V30 5854 H 549.286 2.51098 3.3842 0
M  V30 5855 H 547.961 1.4119 2.91285 0
M  V30 5856 H 546.868 3.35635 1.65227 0
M  V30 5857 H 548.201 4.40719 2.19152 0
M  V30 5858 N 549.853 -0.472356 1.50355 0
M  V30 5859 C 550.8 -1.57051 1.69126 0
M  V30 5860 C 551.77 -1.5733 0.532574 0
M  V30 5861 O 552.955 -1.7488 0.762994 0
M  V30 5862 C 550.095 -2.95033 1.79024 0
M  V30 5863 C 549.208 -3.04552 3.06386 0
M  V30 5864 C 548.343 -4.33441 3.07087 0
M  V30 5865 C 547.382 -4.36697 4.28908 0
M  V30 5866 N 546.519 -5.57056 4.27356 0
M  V30 5867 H 551.359 -1.40351 2.62879 0
M  V30 5868 H 548.896 -0.682403 1.30314 0
M  V30 5869 H 550.854 -3.75048 1.82744 0
M  V30 5870 H 549.484 -3.10371 0.887109 0
M  V30 5871 H 548.536 -2.17419 3.12143 0
M  V30 5872 H 549.848 -3.02818 3.96362 0
M  V30 5873 H 549.002 -5.21801 3.09529 0
M  V30 5874 H 547.741 -4.37782 2.14939 0
M  V30 5875 H 546.746 -3.46734 4.2668 0
M  V30 5876 H 547.971 -4.34049 5.22282 0
M  V30 5877 H 545.917 -5.62184 3.3806 0
M  V30 5878 H 545.834 -5.57058 5.111 0
M  V30 5879 H 547.102 -6.47545 4.33942 0
M  V30 5880 N 551.331 -1.39911 -0.725443 0
M  V30 5881 C 552.577 -1.37858 -1.48738 0
M  V30 5882 C 552.91 0.0224187 -1.94187 0
M  V30 5883 O 552.185 0.989204 -1.67466 0
M  V30 5884 C 552.468 -2.3594 -2.72038 0
M  V30 5885 C 552.321 -3.85023 -2.32546 0
M  V30 5886 C 553.64 -2.31704 -3.74167 0
M  V30 5887 H 550.759 -0.502074 -0.539528 0
M  V30 5888 H 553.401 -1.70974 -0.828728 0
M  V30 5889 H 551.551 -2.0783 -3.28236 0
M  V30 5890 H 553.223 -4.2392 -1.81905 0
M  V30 5891 H 551.466 -4.01334 -1.64661 0
M  V30 5892 H 552.137 -4.49152 -3.20884 0
M  V30 5893 H 554.613 -2.5658 -3.27576 0
M  V30 5894 H 553.489 -3.02395 -4.58092 0
M  V30 5895 H 553.75 -1.3253 -4.21768 0
M  V30 5896 N 552.809 0.956637 -1.25245 0
M  V30 5897 C 554.037 1.73571 -1.12608 0
M  V30 5898 C 554.452 1.86063 0.320324 0
M  V30 5899 O 553.809 1.35691 1.22042 0
M  V30 5900 C 553.86 3.15053 -1.77268 0
M  V30 5901 O 553.581 3.03174 -3.16255 0
M  V30 5902 C 555.082 4.09248 -1.70386 0
M  V30 5903 H 552.302 0.543955 -0.392879 0
M  V30 5904 H 554.846 1.20031 -1.65568 0
M  V30 5905 H 553.001 3.65543 -1.28284 0
M  V30 5906 H 553.415 3.9241 -3.48015 0
M  V30 5907 H 554.889 5.06138 -2.20291 0
M  V30 5908 H 555.366 4.34102 -0.667239 0
M  V30 5909 H 555.972 3.64672 -2.18849 0
M  V30 5910 N 554.287 1.06798 1.15896 0
M  V30 5911 C 555.219 0.641263 2.20046 0
M  V30 5912 C 556.232 -0.303355 1.59949 0
M  V30 5913 O 557.421 -0.0935478 1.78255 0
M  V30 5914 C 554.521 -0.0794029 3.38807 0
M  V30 5915 C 553.694 0.879986 4.28457 0
M  V30 5916 C 552.753 0.197638 5.25829 0
M  V30 5917 O 551.779 0.836913 5.63014 0
M  V30 5918 N 552.981 -1.05886 5.70761 0
M  V30 5919 H 555.746 1.53718 2.57276 0
M  V30 5920 H 553.307 0.951951 1.30956 0
M  V30 5921 H 555.299 -0.546418 4.00994 0
M  V30 5922 H 553.869 -0.877193 3.0004 0
M  V30 5923 H 553.089 1.52625 3.63454 0
M  V30 5924 H 554.377 1.53065 4.8523 0
M  V30 5925 H 553.775 -1.59828 5.42652 0
M  V30 5926 H 552.332 -1.46965 6.35015 0
M  V30 5927 N 555.766 -1.3263 0.851289 0
M  V30 5928 C 557.012 -1.9766 0.453694 0
M  V30 5929 C 557.345 -1.67225 -0.987396 0
M  V30 5930 O 556.62 -0.958693 -1.69232 0
M  V30 5931 C 556.903 -3.5344 0.68936 0
M  V30 5932 C 556.756 -3.93517 2.17862 0
M  V30 5933 C 558.075 -4.39866 0.143555 0
M  V30 5934 H 555.194 -0.717989 0.166314 0
M  V30 5935 H 557.836 -1.57068 1.06909 0
M  V30 5936 H 555.986 -3.88147 0.165546 0
M  V30 5937 H 557.658 -3.69006 2.76826 0
M  V30 5938 H 555.901 -3.42798 2.65841 0
M  V30 5939 H 556.572 -5.02065 2.29422 0
M  V30 5940 H 559.048 -4.11875 0.591451 0
M  V30 5941 H 557.924 -5.47858 0.338043 0
M  V30 5942 H 558.185 -4.31696 -0.953466 0
M  V30 5943 N 557.244 -0.608902 -1.45362 0
M  V30 5944 C 558.174 0.0964526 -2.33301 0
M  V30 5945 C 559.155 0.857444 -1.46908 0
M  V30 5946 O 560.34 0.827735 -1.75676 0
M  V30 5947 C 557.47 1.09354 -3.29635 0
M  V30 5948 C 556.424 0.445676 -4.25673 0
M  V30 5949 C 555.75 1.5511 -5.11708 0
M  V30 5950 C 557.05 -0.633972 -5.18438 0
M  V30 5951 H 558.744 -0.637829 -2.92527 0
M  V30 5952 H 556.29 -0.308178 -1.40664 0
M  V30 5953 H 558.243 1.59556 -3.90025 0
M  V30 5954 H 556.967 1.85843 -2.6857 0
M  V30 5955 H 555.626 -0.0354897 -3.66583 0
M  V30 5956 H 555.274 2.30631 -4.4701 0
M  V30 5957 H 554.974 1.12311 -5.76767 0
M  V30 5958 H 556.498 2.05537 -5.74967 0
M  V30 5959 H 557.912 -0.215974 -5.72893 0
M  V30 5960 H 556.309 -0.983789 -5.91981 0
M  V30 5961 H 557.379 -1.51005 -4.60788 0
M  V30 5962 N 558.722 1.53707 -0.348139 0
M  V30 5963 C 559.947 2.05877 0.250883 0
M  V30 5964 C 560.372 1.22115 1.43072 0
M  V30 5965 O 559.73 0.235986 1.79758 0
M  V30 5966 C 559.778 3.54886 0.639416 0
M  V30 5967 O 558.882 3.73948 1.73888 0
M  V30 5968 H 558.223 0.662754 0.040653 0
M  V30 5969 H 560.753 1.98303 -0.503685 0
M  V30 5970 H 560.763 3.97601 0.915295 0
M  V30 5971 H 559.438 4.153 -0.223386 0
M  V30 5972 H 558.015 3.43134 1.45991 0
M  V30 5973 N 560.2 0.0768682 1.57412 0
M  V30 5974 C 561.13 -0.886026 2.16037 0
M  V30 5975 C 562.111 -1.30691 1.08876 0
M  V30 5976 O 563.296 -1.37705 1.36934 0
M  V30 5977 C 560.426 -2.1518 2.72608 0
M  V30 5978 C 559.38 -1.87015 3.8498 0
M  V30 5979 C 558.706 -3.20266 4.28175 0
M  V30 5980 C 560.006 -1.17143 5.08994 0
M  V30 5981 H 561.7 -0.397642 2.96748 0
M  V30 5982 H 559.246 -0.189823 1.42743 0
M  V30 5983 H 561.199 -2.82962 3.12266 0
M  V30 5984 H 559.923 -2.66269 1.89125 0
M  V30 5985 H 558.582 -1.21636 3.45833 0
M  V30 5986 H 558.23 -3.69207 3.41607 0
M  V30 5987 H 557.93 -3.0221 5.03927 0
M  V30 5988 H 559.454 -3.89237 4.70454 0
M  V30 5989 H 560.868 -1.75003 5.45937 0
M  V30 5990 H 559.265 -1.09328 5.90057 0
M  V30 5991 H 560.335 -0.151295 4.84664 0
M  V30 5992 N 561.678 -1.56367 -0.196722 0
M  V30 5993 C 562.926 -1.80172 -0.915554 0
M  V30 5994 C 563.247 -0.649649 -1.8386 0
M  V30 5995 O 562.517 0.332111 -1.93064 0
M  V30 5996 H 561.097 -0.664592 -0.341067 0
M  V30 5997 H 563.759 -1.93844 -0.202622 0
M  V30 5998 H 562.855 -2.7327 -1.50764 0
M  V30 5999 N 563.156 0.464375 -1.50603 0
M  V30 6000 C 564.119 1.54393 -1.69397 0
M  V30 6001 C 565.119 1.50566 -0.564504 0
M  V30 6002 O 566.309 1.53066 -0.831645 0
M  V30 6003 C 563.441 2.9401 -1.72543 0
M  V30 6004 H 564.634 1.39044 -2.65719 0
M  V30 6005 H 562.187 0.69122 -1.40185 0
M  V30 6006 H 562.922 3.14795 -0.77938 0
M  V30 6007 H 562.707 2.98195 -2.54602 0
M  V30 6008 H 564.197 3.72375 -1.89015 0
M  V30 6009 N 564.634 1.40294 0.718013 0
M  V30 6010 C 565.911 1.2894 1.47084 0
M  V30 6011 C 566.291 -0.0933625 2.10893 0
M  V30 6012 O 565.639 -1.10598 1.99951 0
M  V30 6013 C 565.849 2.4264 2.50852 0
M  V30 6014 C 567.197 2.8276 3.16752 0
M  V30 6015 O 568.221 2.42215 2.61171 0
M  V30 6016 O 567.08 3.528 4.17366 0
M  V30 6017 H 564.174 0.506236 0.653952 0
M  V30 6018 H 566.72 1.52208 0.750394 0
M  V30 6019 H 565.492 3.35009 2.022 0
M  V30 6020 H 565.115 2.21129 3.30435 0
M  V30 6021 N 566.112 -0.949982 1.2575 0
M  V30 6022 C 567.358 -1.69766 1.10938 0
M  V30 6023 C 567.691 -1.91056 -0.348028 0
M  V30 6024 O 566.966 -1.48488 -1.25625 0
M  V30 6025 C 567.249 -3.07779 1.86933 0
M  V30 6026 C 567.102 -2.9387 3.4053 0
M  V30 6027 C 568.421 -4.07749 1.65616 0
M  V30 6028 H 565.54 -0.616144 0.404396 0
M  V30 6029 H 568.182 -1.10394 1.54639 0
M  V30 6030 H 566.332 -3.58462 1.4979 0
M  V30 6031 H 568.004 -2.50476 3.87375 0
M  V30 6032 H 566.247 -2.29686 3.68004 0
M  V30 6033 H 566.918 -3.91719 3.88922 0
M  V30 6034 H 569.394 -3.65994 1.97959 0
M  V30 6035 H 568.27 -5.02348 2.21218 0
M  V30 6036 H 568.531 -4.38029 0.598595 0
M  V30 6037 N 567.59 -1.07411 -1.15328 0
M  V30 6038 C 568.52 -0.716472 -2.22236 0
M  V30 6039 C 569.501 0.296373 -1.67498 0
M  V30 6040 O 570.686 0.168989 -1.93463 0
M  V30 6041 C 567.816 -0.114142 -3.47112 0
M  V30 6042 C 566.77 -1.05421 -4.14814 0
M  V30 6043 C 566.096 -0.314604 -5.33774 0
M  V30 6044 C 567.396 -2.38808 -4.64508 0
M  V30 6045 H 569.09 -1.61029 -2.52408 0
M  V30 6046 H 566.636 -0.775702 -1.21321 0
M  V30 6047 H 568.589 0.148001 -4.2114 0
M  V30 6048 H 567.313 0.814755 -3.16274 0
M  V30 6049 H 565.972 -1.30128 -3.42728 0
M  V30 6050 H 565.62 0.617772 -4.99192 0
M  V30 6051 H 565.32 -0.941209 -5.80013 0
M  V30 6052 H 566.844 -0.0602747 -6.1057 0
M  V30 6053 H 568.258 -2.18424 -5.3006 0
M  V30 6054 H 566.655 -2.97069 -5.21412 0
M  V30 6055 H 567.725 -3.01067 -3.80114 0
M  V30 6056 N 569.068 1.32177 -0.85831 0
M  V30 6057 C 570.479 1.79381 -0.517621 0
M  V30 6058 C 570.83 1.70841 0.964769 0
M  V30 6059 O 569.955 1.26917 1.75274 0
M  V30 6060 C 570.55 3.25706 -0.932801 0
M  V30 6061 C 569.109 3.70851 -0.643953 0
M  V30 6062 C 568.256 2.53208 -1.13054 0
M  V30 6063 H 571.207 1.19424 -1.04516 0
M  V30 6064 H 571.228 3.79673 -0.250674 0
M  V30 6065 H 570.74 3.31889 -2.01174 0
M  V30 6066 H 568.841 3.70178 0.424112 0
M  V30 6067 H 568.954 4.63495 -1.21281 0
M  V30 6068 H 567.318 2.48676 -0.550679 0
M  V30 6069 H 568.101 2.62143 -2.21666 0
M  V30 6070 N 570.547 0.616602 1.45037 0
M  V30 6071 C 571.457 -0.0985401 2.34393 0
M  V30 6072 C 572.473 -0.850971 1.51771 0
M  V30 6073 O 573.649 -0.806521 1.84546 0
M  V30 6074 C 570.714 -1.07748 3.29532 0
M  V30 6075 C 569.775 -0.326022 4.2806 0
M  V30 6076 C 569.008 -1.25833 5.18654 0
M  V30 6077 O 569.231 -2.49652 5.12864 0
M  V30 6078 O 568.165 -0.750512 5.97203 0
M  V30 6079 H 571.991 0.636016 2.96966 0
M  V30 6080 H 569.576 0.376832 1.44569 0
M  V30 6081 H 571.458 -1.64107 3.88133 0
M  V30 6082 H 570.133 -1.79291 2.69512 0
M  V30 6083 H 569.04 0.280253 3.73049 0
M  V30 6084 H 570.373 0.349091 4.9096 0
M  V30 6085 N 572.025 -1.5352 0.356285 0
M  V30 6086 C 573.255 -2.05236 -0.236983 0
M  V30 6087 C 573.663 -1.23016 -1.43749 0
M  V30 6088 O 573.006 -0.2615 -1.81829 0
M  V30 6089 C 573.068 -3.52549 -0.7035 0
M  V30 6090 C 572.732 -4.55425 0.379059 0
M  V30 6091 C 573.729 -5.0524 1.22592 0
M  V30 6092 C 571.414 -4.99425 0.536638 0
M  V30 6093 C 573.408 -5.97647 2.21578 0
M  V30 6094 C 571.095 -5.9164 1.52988 0
M  V30 6095 C 572.093 -6.4064 2.3679 0
M  V30 6096 O 571.781 -7.31039 3.34421 0
M  V30 6097 H 571.513 -0.674346 -0.047254 0
M  V30 6098 H 574.067 -1.98962 0.510238 0
M  V30 6099 H 572.297 -3.56331 -1.50217 0
M  V30 6100 H 573.986 -3.87171 -1.21873 0
M  V30 6101 H 574.752 -4.72002 1.11532 0
M  V30 6102 H 570.631 -4.60879 -0.105834 0
M  V30 6103 H 574.175 -6.35816 2.87025 0
M  V30 6104 H 570.072 -6.24293 1.64099 0
M  V30 6105 H 570.84 -7.49009 3.30041 0
M  V30 6106 N 573.503 -0.0852151 -1.57369 0
M  V30 6107 C 574.45 0.877268 -2.13478 0
M  V30 6108 C 575.42 1.28642 -1.05073 0
M  V30 6109 O 576.605 1.36992 -1.32808 0
M  V30 6110 C 573.745 2.13464 -2.71159 0
M  V30 6111 C 572.858 1.77691 -3.93764 0
M  V30 6112 C 571.993 2.98139 -4.39643 0
M  V30 6113 C 571.032 2.58447 -5.54862 0
M  V30 6114 N 570.169 3.71698 -5.95639 0
M  V30 6115 H 575.009 0.391933 -2.95411 0
M  V30 6116 H 572.546 0.181796 -1.45972 0
M  V30 6117 H 574.504 2.87086 -3.02717 0
M  V30 6118 H 573.134 2.59514 -1.91969 0
M  V30 6119 H 572.186 0.940768 -3.68583 0
M  V30 6120 H 573.498 1.44497 -4.77412 0
M  V30 6121 H 572.652 3.80026 -4.72933 0
M  V30 6122 H 571.391 3.34536 -3.54876 0
M  V30 6123 H 570.396 1.74984 -5.21211 0
M  V30 6124 H 571.621 2.23205 -6.41371 0
M  V30 6125 H 569.567 4.07831 -5.13819 0
M  V30 6126 H 569.484 3.42317 -6.74059 0
M  V30 6127 H 570.752 4.54123 -6.33555 0
M  V30 6128 N 574.981 1.5647 0.188427 0
M  V30 6129 C 575.911 1.98101 1.23606 0
M  V30 6130 C 576.892 0.853961 1.47111 0
M  V30 6131 O 578.077 1.11879 1.58735 0
M  V30 6132 C 575.207 2.32624 2.57882 0
M  V30 6133 C 574.161 3.48129 2.48978 0
M  V30 6134 C 573.487 3.68347 3.87588 0
M  V30 6135 C 574.787 4.82112 2.00911 0
M  V30 6136 H 576.481 2.85864 0.890068 0
M  V30 6137 H 574.027 1.37532 0.426714 0
M  V30 6138 H 575.98 2.60343 3.3136 0
M  V30 6139 H 574.704 1.41751 2.94235 0
M  V30 6140 H 573.363 3.20511 1.77956 0
M  V30 6141 H 573.011 2.74793 4.21305 0
M  V30 6142 H 572.711 4.46055 3.82503 0
M  V30 6143 H 574.235 3.98449 4.62678 0
M  V30 6144 H 575.649 5.08819 2.64151 0
M  V30 6145 H 574.046 5.63337 2.06814 0
M  V30 6146 H 575.116 4.75249 0.96262 0
M  V30 6147 N 576.459 -0.456382 1.50847 0
M  V30 6148 C 577.391 -1.57033 1.66953 0
M  V30 6149 C 578.404 -1.53207 0.550593 0
M  V30 6150 O 579.593 -1.58328 0.824285 0
M  V30 6151 C 576.693 -2.95937 1.65149 0
M  V30 6152 C 575.866 -3.24475 2.93317 0
M  V30 6153 C 574.925 -4.43007 2.83957 0
M  V30 6154 O 573.951 -4.42592 3.57912 0
M  V30 6155 N 575.153 -5.45503 1.9851 0
M  V30 6156 H 577.918 -1.43629 2.63042 0
M  V30 6157 H 575.479 -0.645037 1.48495 0
M  V30 6158 H 577.471 -3.73224 1.56481 0
M  V30 6159 H 576.041 -3.03036 0.767343 0
M  V30 6160 H 575.261 -2.35664 3.16 0
M  V30 6161 H 576.549 -3.4036 3.78196 0
M  V30 6162 H 575.947 -5.48668 1.37766 0
M  V30 6163 H 574.504 -6.21716 1.95735 0
M  V30 6164 N 577.937 -1.40673 -0.710563 0
M  V30 6165 C 579.165 -1.42547 -1.4996 0
M  V30 6166 C 579.58 -0.0265485 -1.88781 0
M  V30 6167 O 578.937 0.950694 -1.55782 0
M  V30 6168 C 578.988 -2.32071 -2.77173 0
M  V30 6169 O 578.709 -3.66518 -2.39992 0
M  V30 6170 C 580.21 -2.42591 -3.71032 0
M  V30 6171 H 577.43 -0.486025 -0.462623 0
M  V30 6172 H 579.974 -1.84783 -0.876102 0
M  V30 6173 H 578.129 -1.93184 -3.35795 0
M  V30 6174 H 578.543 -4.14115 -3.21884 0
M  V30 6175 H 580.017 -3.09429 -4.57119 0
M  V30 6176 H 580.494 -1.4525 -4.14486 0
M  V30 6177 H 581.1 -2.82051 -3.18319 0
M  V30 6178 N 579.415 0.9433 -1.26252 0
M  V30 6179 C 580.826 1.50404 -1.10614 0
M  V30 6180 C 581.177 1.93666 0.31429 0
M  V30 6181 O 580.302 1.79709 1.20555 0
M  V30 6182 C 580.897 2.73336 -2.00182 0
M  V30 6183 C 579.456 3.25686 -1.88695 0
M  V30 6184 C 578.603 1.98474 -1.93658 0
M  V30 6185 H 581.554 0.759006 -1.39373 0
M  V30 6186 H 581.575 3.47567 -1.54847 0
M  V30 6187 H 581.087 2.41818 -3.03555 0
M  V30 6188 H 579.188 3.61998 -0.882489 0
M  V30 6189 H 579.301 3.92935 -2.74115 0
M  V30 6190 H 577.665 2.14278 -1.37684 0
M  V30 6191 H 578.448 1.6929 -2.98657 0
M  V30 6192 N 580.893 1.08022 1.14757 0
M  V30 6193 C 582.309 0.807072 1.3769 0
M  V30 6194 C 582.509 -0.585504 1.92806 0
M  V30 6195 O 581.565 -1.34301 2.13821 0
M  V30 6196 C 582.878 1.88651 2.34161 0
M  V30 6197 C 584.426 1.91206 2.47809 0
M  V30 6198 C 584.901 2.98253 3.47576 0
M  V30 6199 N 586.392 2.974 3.55117 0
M  V30 6200 C 587.127 3.76872 4.32152 0
M  V30 6201 N 586.623 4.66212 5.12463 0
M  V30 6202 N 588.416 3.6519 4.27309 0
M  V30 6203 H 580.567 1.97824 0.77326 0
M  V30 6204 H 582.83 0.85826 0.402608 0
M  V30 6205 H 582.536 2.88749 2.00791 0
M  V30 6206 H 582.41 1.75244 3.3402 0
M  V30 6207 H 584.797 0.917564 2.80472 0
M  V30 6208 H 584.878 2.08691 1.47925 0
M  V30 6209 H 584.522 3.97907 3.15646 0
M  V30 6210 H 584.452 2.78014 4.47231 0
M  V30 6211 H 586.943 2.32643 2.97801 0
M  V30 6212 H 587.256 5.23468 5.68508 0
M  V30 6213 H 585.601 4.70257 5.11745 0
M  V30 6214 H 588.792 2.94765 3.63636 0
M  V30 6215 H 588.965 4.27366 4.87095 0
M  V30 6216 N 582.371 -1.3172 0.865308 0
M  V30 6217 C 583.62 -1.96145 0.470098 0
M  V30 6218 C 583.933 -1.69182 -0.981674 0
M  V30 6219 O 585.139 -2.27431 -1.48281 0
M  V30 6220 C 583.595 -3.51129 0.789732 0
M  V30 6221 C 583.203 -3.86938 2.25795 0
M  V30 6222 C 584.947 -4.2197 0.462765 0
M  V30 6223 C 582.854 -5.35012 2.52024 0
M  V30 6224 H 581.784 -0.734105 0.172065 0
M  V30 6225 H 584.435 -1.49959 1.05757 0
M  V30 6226 H 582.817 -3.95781 0.131571 0
M  V30 6227 H 583.991 -3.5326 2.95879 0
M  V30 6228 H 582.306 -3.29149 2.55049 0
M  V30 6229 H 584.903 -5.30904 0.636019 0
M  V30 6230 H 585.246 -4.12005 -0.59645 0
M  V30 6231 H 585.779 -3.82936 1.07727 0
M  V30 6232 H 582.518 -5.50008 3.56611 0
M  V30 6233 H 582.038 -5.70058 1.8653 0
M  V30 6234 H 583.717 -6.0222 2.36515 0
M  V30 6235 N 583.85 -0.624285 -1.44708 0
M  V30 6236 C 584.798 0.0969952 -2.32398 0
M  V30 6237 C 585.792 0.842762 -1.46949 0
M  V30 6238 O 586.998 0.756436 -1.63334 0
M  V30 6239 H 583.373 0.0501306 -0.750327 0
M  V30 6240 H 585.344 -0.660767 -2.90992 0
M  V30 6241 C 584.093 1.06967 -3.30837 0
M  V30 6242 H 583.416 0.505242 -3.96595 0
M  V30 6243 H 584.856 1.54397 -3.94889 0
M  V30 6244 C 583.315 2.15153 -2.5925 0
M  V30 6245 O 583.845 3.23139 -2.3863 0
M  V30 6246 N 582.051 1.90898 -2.19103 0
M  V30 6247 H 581.598 1.03086 -2.36074 0
M  V30 6248 H 581.556 2.63485 -1.71531 0
M  V30 6249 N 585.328 1.53329 -0.364422 0
M  V30 6250 C 586.275 2.25698 0.482607 0
M  V30 6251 C 587.245 1.26325 1.07848 0
M  V30 6252 O 588.43 1.55104 1.11119 0
M  V30 6253 C 585.57 3.04873 1.61699 0
M  V30 6254 C 584.683 4.19135 1.0464 0
M  V30 6255 C 583.818 4.85754 2.14979 0
M  V30 6256 C 582.857 5.9205 1.5538 0
M  V30 6257 N 581.994 6.52365 2.59547 0
M  V30 6258 H 586.834 2.97666 -0.141032 0
M  V30 6259 H 584.371 1.46875 -0.0813692 0
M  V30 6260 H 586.329 3.49051 2.28516 0
M  V30 6261 H 584.959 2.35162 2.2113 0
M  V30 6262 H 584.011 3.79451 0.268553 0
M  V30 6263 H 585.323 4.95525 0.570653 0
M  V30 6264 H 584.477 5.3311 2.89619 0
M  V30 6265 H 583.216 4.08834 2.65906 0
M  V30 6266 H 582.221 5.44058 0.792549 0
M  V30 6267 H 583.446 6.7089 1.0528 0
M  V30 6268 H 581.392 5.78298 3.09689 0
M  V30 6269 H 581.309 7.2429 2.16655 0
M  V30 6270 H 582.577 7.0437 3.33892 0
M  V30 6271 N 586.806 0.0935595 1.57322 0
M  V30 6272 C 588.053 -0.570509 1.94297 0
M  V30 6273 C 588.381 -1.68286 0.97519 0
M  V30 6274 O 587.636 -1.95699 -0.00548655 0
M  V30 6275 C 587.935 -1.16692 3.37813 0
M  V30 6276 C 587.601 -0.178509 4.50547 0
M  V30 6277 C 586.263 0.0933475 4.81109 0
M  V30 6278 C 588.615 0.496472 5.1883 0
M  V30 6279 C 585.943 1.0469 5.77284 0
M  V30 6280 C 588.295 1.43849 6.16028 0
M  V30 6281 C 586.959 1.71859 6.44997 0
M  V30 6282 H 586.229 -0.208764 0.710984 0
M  V30 6283 H 588.876 0.169066 1.90752 0
M  V30 6284 H 587.181 -1.98271 3.37929 0
M  V30 6285 H 588.878 -1.6884 3.63722 0
M  V30 6286 H 585.468 -0.400584 4.26724 0
M  V30 6287 H 589.652 0.299584 4.95395 0
M  V30 6288 H 584.908 1.27094 5.98044 0
M  V30 6289 H 589.082 1.96734 6.68034 0
M  V30 6290 H 586.709 2.45906 7.19329 0
M  V30 6291 N 588.284 -1.56567 -0.180126 0
M  V30 6292 C 589.512 -1.85618 -0.913972 0
M  V30 6293 C 589.927 -0.677892 -1.7621 0
M  V30 6294 O 589.284 0.353171 -1.7905 0
M  V30 6295 C 589.335 -3.13619 -1.79793 0
M  V30 6296 O 589.056 -4.26906 -0.98402 0
M  V30 6297 C 590.557 -3.55954 -2.64219 0
M  V30 6298 H 587.777 -0.616043 -0.265954 0
M  V30 6299 H 590.321 -2.03681 -0.182872 0
M  V30 6300 H 588.476 -2.97409 -2.48247 0
M  V30 6301 H 588.89 -4.9989 -1.58776 0
M  V30 6302 H 590.364 -4.48444 -3.21873 0
M  V30 6303 H 590.841 -2.79653 -3.38661 0
M  V30 6304 H 591.447 -3.74746 -2.01111 0
M  V30 6305 N 589.762 0.448376 -1.51087 0
M  V30 6306 C 591.011 1.19561 -1.62444 0
M  V30 6307 C 591.324 1.92602 -0.341151 0
M  V30 6308 O 592.53 2.69439 -0.333936 0
M  V30 6309 C 590.986 2.17373 -2.8684 0
M  V30 6310 C 590.594 1.5003 -4.22131 0
M  V30 6311 C 592.338 2.92597 -3.0755 0
M  V30 6312 C 590.245 2.46262 -5.37689 0
M  V30 6313 H 589.175 0.449975 -0.605011 0
M  V30 6314 H 591.826 0.463735 -1.77544 0
M  V30 6315 H 590.208 2.93948 -2.65349 0
M  V30 6316 H 591.382 0.790886 -4.53962 0
M  V30 6317 H 589.697 0.870011 -4.0721 0
M  V30 6318 H 592.294 3.64663 -3.91056 0
M  V30 6319 H 592.637 3.53306 -2.20183 0
M  V30 6320 H 593.17 2.23131 -3.29329 0
M  V30 6321 H 589.909 1.90258 -6.27281 0
M  V30 6322 H 589.429 3.15289 -5.10248 0
M  V30 6323 H 591.108 3.07623 -5.6919 0
M  V30 6324 N 591.24 1.41047 0.703093 0
M  V30 6325 C 592.17 1.45067 1.82969 0
M  V30 6326 C 593.151 0.31016 1.67248 0
M  V30 6327 O 594.336 0.520548 1.87093 0
M  V30 6328 C 591.466 1.32478 3.2104 0
M  V30 6329 C 590.42 2.44262 3.51454 0
M  V30 6330 C 589.746 2.16742 4.88801 0
M  V30 6331 C 591.046 3.86606 3.51189 0
M  V30 6332 H 592.74 2.39353 1.79863 0
M  V30 6333 H 590.286 1.15206 0.863919 0
M  V30 6334 H 592.239 1.33904 3.99559 0
M  V30 6335 H 590.963 0.346735 3.24754 0
M  V30 6336 H 589.622 2.42107 2.75282 0
M  V30 6337 H 589.27 1.17299 4.89132 0
M  V30 6338 H 588.97 2.91643 5.10116 0
M  V30 6339 H 590.494 2.19872 5.69639 0
M  V30 6340 H 591.908 3.90517 4.19725 0
M  V30 6341 H 590.305 4.61128 3.84033 0
M  V30 6342 H 591.375 4.15296 2.50315 0
M  V30 6343 N 592.718 -0.936591 1.26751 0
M  V30 6344 C 593.668 -2.0219 1.05371 0
M  V30 6345 C 594.652 -1.60893 -0.0154112 0
M  V30 6346 O 595.844 -1.75843 0.202085 0
M  V30 6347 C 592.973 -3.36222 0.693541 0
M  V30 6348 C 592.059 -3.8399 1.80035 0
M  V30 6349 N 592.45 -4.0436 3.03852 0
M  V30 6350 C 590.748 -4.12945 1.685 0
M  V30 6351 C 591.449 -4.44 3.75818 0
M  V30 6352 N 590.425 -4.50966 3.03531 0
M  V30 6353 H 594.227 -2.15958 1.99347 0
M  V30 6354 H 591.741 -1.12277 1.17335 0
M  V30 6355 H 593.738 -4.13625 0.521513 0
M  V30 6356 H 592.398 -3.23821 -0.238693 0
M  V30 6357 H 593.409 -3.9092 3.39709 0
M  V30 6358 H 590.086 -4.09308 0.822986 0
M  V30 6359 H 591.476 -4.67914 4.82189 0
M  V30 6360 N 594.196 -1.08629 -1.14182 0
M  V30 6361 C 595.426 -0.837673 -1.88856 0
M  V30 6362 C 595.834 0.614024 -1.78959 0
M  V30 6363 O 595.177 1.43384 -1.14833 0
M  V30 6364 C 595.239 -1.18355 -3.39459 0
M  V30 6365 C 594.903 -2.63848 -3.73139 0
M  V30 6366 C 595.9 -3.62099 -3.73069 0
M  V30 6367 C 593.585 -2.99761 -4.03049 0
M  V30 6368 C 595.579 -4.94292 -4.02435 0
M  V30 6369 C 593.266 -4.32147 -4.32078 0
M  V30 6370 C 594.264 -5.29223 -4.31755 0
M  V30 6371 O 593.952 -6.59229 -4.60079 0
M  V30 6372 H 593.684 -0.301609 -0.604986 0
M  V30 6373 H 596.238 -1.44961 -1.45518 0
M  V30 6374 H 594.468 -0.514628 -3.8326 0
M  V30 6375 H 596.157 -0.915391 -3.95443 0
M  V30 6376 H 596.923 -3.35698 -3.50046 0
M  V30 6377 H 592.802 -2.2484 -4.02453 0
M  V30 6378 H 596.346 -5.70055 -4.02098 0
M  V30 6379 H 592.243 -4.58296 -4.54571 0
M  V30 6380 H 593.011 -6.64578 -4.77785 0
M  V30 6381 N 595.674 1.31259 -0.872281 0
M  V30 6382 C 596.899 2.0133 -0.498099 0
M  V30 6383 C 597.324 1.65031 0.902568 0
M  V30 6384 O 596.682 0.860164 1.59596 0
M  V30 6385 C 596.73 3.54411 -0.665205 0
M  V30 6386 O 595.834 4.11347 0.294473 0
M  V30 6387 H 595.175 0.633844 -0.197832 0
M  V30 6388 H 597.705 1.67402 -1.17633 0
M  V30 6389 H 597.715 4.04147 -0.559373 0
M  V30 6390 H 596.39 3.80171 -1.68651 0
M  V30 6391 H 594.967 3.72624 0.143403 0
M  V30 6392 N 597.152 0.631951 1.44375 0
M  V30 6393 C 598.563 0.219036 1.85411 0
M  V30 6394 C 598.914 -1.22974 1.52879 0
M  V30 6395 O 598.039 -1.93579 0.967266 0
M  V30 6396 C 598.634 0.39075 3.36539 0
M  V30 6397 C 597.193 0.0323351 3.76386 0
M  V30 6398 C 596.34 0.703744 2.68221 0
M  V30 6399 H 599.291 0.837056 1.3483 0
M  V30 6400 H 599.312 -0.370056 3.78696 0
M  V30 6401 H 598.824 1.44527 3.60185 0
M  V30 6402 H 596.925 -1.02042 3.58355 0
M  V30 6403 H 597.038 0.442969 4.77048 0
M  V30 6404 H 595.402 0.138974 2.54321 0
M  V30 6405 H 596.185 1.76088 2.947 0
M  V30 6406 N 598.631 -1.53133 0.372548 0
M  V30 6407 C 599.878 -2.01356 -0.214959 0
M  V30 6408 C 600.206 -1.2596 -1.48204 0
M  V30 6409 O 599.461 -0.343511 -1.92662 0
M  V30 6410 C 599.76 -3.53206 -0.545938 0
M  V30 6411 C 599.426 -4.46511 0.627624 0
M  V30 6412 C 598.088 -4.71737 0.949615 0
M  V30 6413 C 600.44 -5.01666 1.41353 0
M  V30 6414 C 597.768 -5.4937 2.05936 0
M  V30 6415 C 600.12 -5.80511 2.51375 0
M  V30 6416 C 598.784 -6.04022 2.84101 0
M  V30 6417 H 598.054 -0.736813 -0.078659 0
M  V30 6418 H 600.701 -1.84682 0.506447 0
M  V30 6419 H 599.006 -3.67864 -1.34845 0
M  V30 6420 H 600.703 -3.87997 -1.01287 0
M  V30 6421 H 597.293 -4.27029 0.366635 0
M  V30 6422 H 601.477 -4.82117 1.17802 0
M  V30 6423 H 596.733 -5.65803 2.31682 0
M  V30 6424 H 600.907 -6.22255 3.12684 0
M  V30 6425 H 598.534 -6.63962 3.70214 0
M  V30 6426 N 600.109 -0.101901 -1.5727 0
M  V30 6427 C 601.056 0.854577 -2.14396 0
M  V30 6428 C 602.026 1.27521 -1.06432 0
M  V30 6429 O 603.211 1.35575 -1.34253 0
M  V30 6430 C 600.351 2.10576 -2.73408 0
M  V30 6431 C 599.464 1.73504 -3.95626 0
M  V30 6432 C 598.599 2.9346 -4.42781 0
M  V30 6433 C 597.638 2.52547 -5.57572 0
M  V30 6434 N 596.775 3.65359 -5.99547 0
M  V30 6435 H 601.615 0.360578 -2.9581 0
M  V30 6436 H 599.152 0.166303 -1.46157 0
M  V30 6437 H 601.11 2.83859 -3.05745 0
M  V30 6438 H 599.74 2.57463 -1.94711 0
M  V30 6439 H 598.792 0.901622 -3.6956 0
M  V30 6440 H 600.104 1.39426 -4.78917 0
M  V30 6441 H 599.258 3.74988 -4.76937 0
M  V30 6442 H 597.997 3.30753 -3.58404 0
M  V30 6443 H 597.002 1.69446 -5.23037 0
M  V30 6444 H 598.227 2.1639 -6.43702 0
M  V30 6445 H 596.173 4.02358 -5.18116 0
M  V30 6446 H 596.09 3.35148 -6.77652 0
M  V30 6447 H 597.358 4.47378 -6.38336 0
M  V30 6448 N 601.587 1.56661 0.17182 0
M  V30 6449 C 602.55 1.9549 1.19651 0
M  V30 6450 C 603.55 0.838501 1.37207 0
M  V30 6451 O 604.74 1.10556 1.34622 0
M  V30 6452 C 601.872 2.24927 2.56166 0
M  V30 6453 H 603.065 2.87184 0.864007 0
M  V30 6454 H 600.618 1.50711 0.41425 0
M  V30 6455 H 601.353 1.35944 2.94431 0
M  V30 6456 H 601.138 3.06301 2.4479 0
M  V30 6457 H 602.628 2.55891 3.30014 0
M  V30 6458 N 603.065 -0.440357 1.51323 0
M  V30 6459 C 604.311 -1.19181 1.64085 0
M  V30 6460 C 604.644 -1.90936 0.354575 0
M  V30 6461 O 603.919 -1.8347 -0.645675 0
M  V30 6462 C 604.202 -2.2112 2.84215 0
M  V30 6463 C 604.055 -1.53468 4.22809 0
M  V30 6464 C 605.374 -3.22133 2.99864 0
M  V30 6465 H 602.493 -0.431924 0.597169 0
M  V30 6466 H 605.135 -0.481443 1.83799 0
M  V30 6467 H 603.285 -2.81703 2.67537 0
M  V30 6468 H 604.957 -0.962455 4.51148 0
M  V30 6469 H 603.2 -0.837086 4.25647 0
M  V30 6470 H 603.871 -2.27694 5.02852 0
M  V30 6471 H 606.347 -2.71601 3.15233 0
M  V30 6472 H 605.223 -3.90756 3.85488 0
M  V30 6473 H 605.484 -3.88061 2.11804 0
M  V30 6474 N 604.543 -1.41418 -0.695603 0
M  V30 6475 C 605.789 -1.41983 -1.45645 0
M  V30 6476 C 606.144 -0.0282216 -1.92379 0
M  V30 6477 O 605.437 0.945916 -1.66622 0
M  V30 6478 C 605.631 -2.36112 -2.68302 0
M  V30 6479 C 605.46 -3.84288 -2.33566 0
M  V30 6480 C 604.23 -4.52971 -2.23932 0
M  V30 6481 C 606.428 -4.75264 -1.96543 0
M  V30 6482 N 604.41 -5.86276 -1.82081 0
M  V30 6483 C 605.781 -5.97517 -1.6545 0
M  V30 6484 C 607.836 -4.62911 -1.83352 0
M  V30 6485 C 606.539 -7.08793 -1.22492 0
M  V30 6486 C 608.565 -5.74149 -1.41799 0
M  V30 6487 C 607.927 -6.95501 -1.11617 0
M  V30 6488 H 604.026 -0.574771 -0.530247 0
M  V30 6489 H 606.61 -1.77289 -0.804788 0
M  V30 6490 H 604.781 -2.02902 -3.31188 0
M  V30 6491 H 606.513 -2.27397 -3.34773 0
M  V30 6492 H 603.268 -4.06909 -2.42327 0
M  V30 6493 H 603.692 -6.56926 -1.63638 0
M  V30 6494 H 608.334 -3.69588 -2.05341 0
M  V30 6495 H 606.052 -8.01982 -0.992482 0
M  V30 6496 H 609.638 -5.66595 -1.32143 0
M  V30 6497 H 608.518 -7.80114 -0.799493 0
M  V30 6498 N 606.021 0.929856 -1.27246 0
M  V30 6499 C 607.298 1.65544 -1.04186 0
M  V30 6500 C 607.678 2.06796 0.424097 0
M  V30 6501 O 607.026 1.80053 1.40688 0
M  V30 6502 C 607.236 2.85912 -2.00138 0
M  V30 6503 C 608.584 3.57305 -2.29387 0
M  V30 6504 O 609.608 2.96036 -1.98094 0
M  V30 6505 O 608.467 4.67688 -2.82719 0
M  V30 6506 H 605.561 0.725473 -0.397011 0
M  V30 6507 H 608.107 0.980583 -1.38501 0
M  V30 6508 H 606.879 2.52403 -2.99013 0
M  V30 6509 H 606.502 3.61118 -1.66371 0
M  V30 6510 N 607.499 1.09233 1.13605 0
M  V30 6511 C 608.745 0.838255 1.85324 0
M  V30 6512 C 609.1 -0.629314 1.81817 0
M  V30 6513 O 608.393 -1.45729 1.24393 0
M  V30 6514 C 608.587 1.305 3.32723 0
M  V30 6515 C 608.416 2.81641 3.50583 0
M  V30 6516 C 607.186 3.49494 3.64941 0
M  V30 6517 C 609.384 3.79789 3.46792 0
M  V30 6518 N 607.366 4.89082 3.71042 0
M  V30 6519 C 608.737 5.05319 3.59239 0
M  V30 6520 C 610.792 3.72673 3.30181 0
M  V30 6521 C 609.495 6.24574 3.56791 0
M  V30 6522 C 611.521 4.91413 3.29039 0
M  V30 6523 C 610.883 6.15785 3.42035 0
M  V30 6524 H 606.982 0.359572 0.69443 0
M  V30 6525 H 609.566 1.39232 1.36098 0
M  V30 6526 H 607.737 0.778411 3.8052 0
M  V30 6527 H 609.469 0.996465 3.92241 0
M  V30 6528 H 606.224 2.9992 3.66531 0
M  V30 6529 H 606.648 5.61787 3.77789 0
M  V30 6530 H 611.29 2.77444 3.19037 0
M  V30 6531 H 609.008 7.20105 3.66708 0
M  V30 6532 H 612.594 4.87604 3.17386 0
M  V30 6533 H 611.474 7.06126 3.41111 0
M  V30 6534 N 608.977 -1.30795 0.87923 0
M  V30 6535 C 609.907 -2.30742 0.357796 0
M  V30 6536 C 610.888 -1.60747 -0.556283 0
M  V30 6537 O 612.073 -1.88393 -0.47135 0
M  V30 6538 C 609.203 -3.44583 -0.433555 0
M  V30 6539 C 608.157 -4.26235 0.388251 0
M  V30 6540 C 607.483 -5.32073 -0.529352 0
M  V30 6541 C 608.783 -4.96303 1.62729 0
M  V30 6542 H 610.477 -2.74605 1.19299 0
M  V30 6543 H 608.023 -1.32017 0.575104 0
M  V30 6544 H 609.976 -4.13563 -0.808934 0
M  V30 6545 H 608.7 -2.99511 -1.30234 0
M  V30 6546 H 607.359 -3.58936 0.745695 0
M  V30 6547 H 607.007 -4.83249 -1.39569 0
M  V30 6548 H 606.707 -5.87598 0.0166741 0
M  V30 6549 H 608.231 -6.0391 -0.901373 0
M  V30 6550 H 609.645 -5.5783 1.32283 0
M  V30 6551 H 608.042 -5.61666 2.11309 0
M  V30 6552 H 609.112 -4.22758 2.37494 0
M  V30 6553 N 610.455 -0.639598 -1.44038 0
M  V30 6554 C 611.704 -0.144885 -2.01179 0
M  V30 6555 C 612.017 1.24372 -1.50967 0
M  V30 6556 O 613.223 1.83291 -2.00292 0
M  V30 6557 C 611.679 -0.208244 -3.59297 0
M  V30 6558 C 611.287 -1.59869 -4.18504 0
M  V30 6559 C 613.031 0.229568 -4.23879 0
M  V30 6560 C 610.938 -1.61671 -5.68873 0
M  V30 6561 H 609.868 -0.0504005 -0.752314 0
M  V30 6562 H 612.519 -0.799639 -1.65161 0
M  V30 6563 H 610.901 0.513767 -3.92653 0
M  V30 6564 H 612.075 -2.34496 -3.96671 0
M  V30 6565 H 610.39 -1.98131 -3.66242 0
M  V30 6566 H 612.987 0.235758 -5.3418 0
M  V30 6567 H 613.33 1.25848 -3.96822 0
M  V30 6568 H 613.863 -0.440233 -3.95357 0
M  V30 6569 H 610.602 -2.62427 -6.00677 0
M  V30 6570 H 610.122 -0.913489 -5.92803 0
M  V30 6571 H 611.801 -1.35439 -6.32665 0
M  V30 6572 N 611.933 1.52934 -0.380664 0
M  V30 6573 C 612.863 2.29118 0.450268 0
M  V30 6574 C 613.844 1.32153 1.07096 0
M  V30 6575 O 615.029 1.61038 1.08537 0
M  V30 6576 C 612.159 3.09161 1.58231 0
M  V30 6577 C 611.113 4.13938 1.0881 0
M  V30 6578 C 610.439 4.82153 2.31155 0
M  V30 6579 C 611.739 5.22048 0.162146 0
M  V30 6580 H 613.433 2.98826 -0.185361 0
M  V30 6581 H 610.979 1.43715 -0.0905886 0
M  V30 6582 H 612.932 3.61211 2.17036 0
M  V30 6583 H 611.656 2.3717 2.2454 0
M  V30 6584 H 610.315 3.62855 0.522633 0
M  V30 6585 H 609.963 4.06719 2.95953 0
M  V30 6586 H 609.663 5.52966 1.98752 0
M  V30 6587 H 611.187 5.37004 2.90618 0
M  V30 6588 H 612.601 5.6951 0.658126 0
M  V30 6589 H 610.998 6.00057 -0.0717122 0
M  V30 6590 H 612.068 4.78398 -0.791438 0
M  V30 6591 N 613.412 0.11024 1.57214 0
M  V30 6592 C 614.342 -0.840002 2.17867 0
M  V30 6593 C 615.323 -1.28352 1.11624 0
M  V30 6594 O 616.508 -1.3477 1.39824 0
M  V30 6595 C 613.638 -2.09349 2.77111 0
M  V30 6596 C 612.592 -1.78807 3.8886 0
M  V30 6597 C 611.918 -3.11112 4.34872 0
M  V30 6598 C 613.218 -1.0632 5.11364 0
M  V30 6599 H 614.912 -0.334608 2.97524 0
M  V30 6600 H 612.458 -0.159502 1.43114 0
M  V30 6601 H 614.411 -2.76275 3.18198 0
M  V30 6602 H 613.135 -2.62198 1.9473 0
M  V30 6603 H 611.794 -1.14273 3.48335 0
M  V30 6604 H 611.442 -3.61877 3.49362 0
M  V30 6605 H 611.142 -2.91453 5.10224 0
M  V30 6606 H 612.666 -3.79171 4.78604 0
M  V30 6607 H 614.08 -1.63383 5.49526 0
M  V30 6608 H 612.477 -0.967876 5.92243 0
M  V30 6609 H 613.547 -0.0484569 4.84876 0
M  V30 6610 N 614.89 -1.56749 -0.16351 0
M  V30 6611 C 615.82 -2.00042 -1.20438 0
M  V30 6612 C 616.801 -0.877256 -1.45733 0
M  V30 6613 O 617.986 -1.1439 -1.56935 0
M  V30 6614 C 615.116 -2.36697 -2.54149 0
M  V30 6615 C 614.07 -3.52046 -2.43408 0
M  V30 6616 C 613.396 -3.74466 -3.81679 0
M  V30 6617 C 614.696 -4.85247 -1.93216 0
M  V30 6618 H 616.39 -2.87244 -0.844477 0
M  V30 6619 H 613.936 -1.38194 -0.40478 0
M  V30 6620 H 615.889 -2.65582 -3.27176 0
M  V30 6621 H 614.613 -1.46414 -2.91943 0
M  V30 6622 H 613.272 -3.23301 -1.72834 0
M  V30 6623 H 612.92 -2.81461 -4.1688 0
M  V30 6624 H 612.62 -4.52084 -3.75359 0
M  V30 6625 H 614.144 -4.0576 -4.5628 0
M  V30 6626 H 615.558 -5.12957 -2.56023 0
M  V30 6627 H 613.955 -5.66556 -1.97825 0
M  V30 6628 H 615.025 -4.7672 -0.88689 0
M  V30 6629 N 616.368 0.432326 -1.51554 0
M  V30 6630 C 617.614 1.18309 -1.64714 0
M  V30 6631 C 617.947 1.90745 -0.364696 0
M  V30 6632 O 617.222 1.8381 0.635936 0
M  V30 6633 C 617.505 2.1961 -2.85383 0
M  V30 6634 C 617.358 1.51223 -4.23617 0
M  V30 6635 C 618.677 3.20538 -3.01569 0
M  V30 6636 H 615.796 0.428751 -0.599451 0
M  V30 6637 H 618.438 0.471689 -1.84052 0
M  V30 6638 H 616.588 2.8028 -2.69027 0
M  V30 6639 H 618.26 0.938516 -4.51652 0
M  V30 6640 H 616.503 0.814501 -4.26085 0
M  V30 6641 H 617.174 2.25024 -5.04052 0
M  V30 6642 H 619.65 2.69926 -3.16669 0
M  V30 6643 H 618.526 3.88706 -3.87555 0
M  V30 6644 H 618.787 3.86933 -2.13859 0
M  V30 6645 N 617.846 1.41785 0.688094 0
M  V30 6646 C 619.095 1.4084 1.44385 0
M  V30 6647 C 619.408 0.0234166 1.95586 0
M  V30 6648 O 620.614 -0.108647 2.71283 0
M  V30 6649 C 619.07 2.47675 2.61123 0
M  V30 6650 C 618.678 3.92116 2.16677 0
M  V30 6651 C 620.422 2.55877 3.38714 0
M  V30 6652 C 618.329 4.90487 3.30419 0
M  V30 6653 H 617.259 0.523787 0.542368 0
M  V30 6654 H 619.91 1.6764 0.74627 0
M  V30 6655 H 618.292 2.14018 3.33185 0
M  V30 6656 H 619.466 4.35059 1.51856 0
M  V30 6657 H 617.781 3.87642 1.5206 0
M  V30 6658 H 620.378 3.26553 4.234 0
M  V30 6659 H 620.721 1.59801 3.84408 0
M  V30 6660 H 621.254 2.88662 2.73714 0
M  V30 6661 H 617.993 5.87994 2.89729 0
M  V30 6662 H 617.513 4.52187 3.94065 0
M  V30 6663 H 619.192 5.11591 3.96085 0
M  V30 6664 N 619.324 -0.923095 1.27737 0
M  V30 6665 C 620.554 -1.70277 1.17001 0
M  V30 6666 C 620.962 -1.87188 -0.275199 0
M  V30 6667 O 620.305 -1.39195 -1.19877 0
M  V30 6668 C 620.367 -3.11976 1.78637 0
M  V30 6669 C 620.031 -3.18386 3.27841 0
M  V30 6670 C 621.028 -3.00287 4.2441 0
M  V30 6671 C 618.713 -3.41198 3.68632 0
M  V30 6672 C 620.707 -3.04896 5.59747 0
M  V30 6673 C 618.394 -3.4544 5.04097 0
M  V30 6674 C 619.392 -3.27309 5.99465 0
M  V30 6675 O 619.08 -3.31295 7.32461 0
M  V30 6676 H 618.812 -0.539366 0.407505 0
M  V30 6677 H 621.366 -1.16446 1.69202 0
M  V30 6678 H 619.596 -3.67308 1.20919 0
M  V30 6679 H 621.285 -3.7193 1.6255 0
M  V30 6680 H 622.051 -2.825 3.94232 0
M  V30 6681 H 617.93 -3.54359 2.94873 0
M  V30 6682 H 621.474 -2.90662 6.34162 0
M  V30 6683 H 617.371 -3.62753 5.33929 0
M  V30 6684 H 618.139 -3.47719 7.40968 0
M  V30 6685 N 620.802 -1.09834 -1.13024 0
M  V30 6686 C 622.03 -0.858902 -1.8823 0
M  V30 6687 C 622.445 0.590164 -1.79339 0
M  V30 6688 O 621.802 1.4065 -1.16292 0
M  V30 6689 C 621.853 -1.29066 -3.37675 0
M  V30 6690 O 621.574 -2.6829 -3.46341 0
M  V30 6691 C 623.075 -1.08421 -4.29837 0
M  V30 6692 H 620.295 -0.308713 -0.595766 0
M  V30 6693 H 622.839 -1.4614 -1.4305 0
M  V30 6694 H 620.994 -0.731961 -3.80422 0
M  V30 6695 H 621.408 -2.86598 -4.39274 0
M  V30 6696 H 622.882 -1.43553 -5.33007 0
M  V30 6697 H 623.359 -0.0223315 -4.39194 0
M  V30 6698 H 623.965 -1.62907 -3.92863 0
M  V30 6699 N 622.28 1.30327 -0.886154 0
M  V30 6700 C 623.243 2.26376 -0.358687 0
M  V30 6701 C 624.243 1.52845 0.499498 0
M  V30 6702 O 625.433 1.71483 0.306485 0
M  V30 6703 C 622.565 3.37379 0.488726 0
M  V30 6704 H 623.758 2.74547 -1.20681 0
M  V30 6705 H 621.311 1.41536 -0.663113 0
M  V30 6706 H 622.046 2.94526 1.35739 0
M  V30 6707 H 621.831 3.91897 -0.126003 0
M  V30 6708 H 623.321 4.08868 0.84952 0
M  V30 6709 N 623.758 0.647228 1.43697 0
M  V30 6710 C 625.007 0.155552 2.01099 0
M  V30 6711 C 625.32 -1.23569 1.51624 0
M  V30 6712 O 626.526 -1.82226 2.01261 0
M  V30 6713 C 624.982 0.227296 3.59182 0
M  V30 6714 C 624.59 1.62086 4.17651 0
M  V30 6715 C 626.334 -0.207085 4.23995 0
M  V30 6716 C 624.241 1.64685 5.68008 0
M  V30 6717 H 623.171 0.0543895 0.752036 0
M  V30 6718 H 625.822 0.808386 1.64734 0
M  V30 6719 H 624.204 -0.492937 3.9292 0
M  V30 6720 H 625.378 2.36597 3.95422 0
M  V30 6721 H 623.693 2.0007 3.65186 0
M  V30 6722 H 626.29 -0.207426 5.34298 0
M  V30 6723 H 626.633 -1.23742 3.97484 0
M  V30 6724 H 627.166 0.461193 3.95118 0
M  V30 6725 H 623.905 2.65608 5.99277 0
M  V30 6726 H 623.425 0.944914 5.9231 0
M  V30 6727 H 625.104 1.38792 6.31938 0
M  V30 6728 N 625.236 -1.5273 0.388769 0
M  V30 6729 C 626.483 -2.01573 -0.19359 0
M  V30 6730 C 626.811 -1.27525 -1.46859 0
M  V30 6731 O 626.066 -0.363926 -1.92286 0
M  V30 6732 C 626.365 -3.53765 -0.508445 0
M  V30 6733 C 626.031 -4.4582 0.674947 0
M  V30 6734 C 624.693 -4.70703 0.999596 0
M  V30 6735 C 627.045 -5.00138 1.46666 0
M  V30 6736 C 624.373 -5.47155 2.11751 0
M  V30 6737 C 626.725 -5.77812 2.57518 0
M  V30 6738 C 625.389 -6.00975 2.90492 0
M  V30 6739 H 624.659 -0.737606 -0.0708397 0
M  V30 6740 H 627.306 -1.84134 0.526006 0
M  V30 6741 H 625.611 -3.69274 -1.30936 0
M  V30 6742 H 627.308 -3.8905 -0.971664 0
M  V30 6743 H 623.898 -4.26616 0.411906 0
M  V30 6744 H 628.082 -4.8084 1.22909 0
M  V30 6745 H 623.338 -5.63314 2.3767 0
M  V30 6746 H 627.512 -6.18904 3.19267 0
M  V30 6747 H 625.139 -6.59998 3.77236 0
M  V30 6748 N 626.714 -0.118576 -1.57153 0
M  V30 6749 C 627.942 0.54726 -1.99531 0
M  V30 6750 C 628.357 1.60251 -0.998246 0
M  V30 6751 O 627.714 1.82498 0.00893106 0
M  V30 6752 C 627.765 1.17378 -3.41913 0
M  V30 6753 O 627.486 0.160703 -4.37805 0
M  V30 6754 C 628.987 1.92297 -3.9942 0
M  V30 6755 H 626.207 0.144919 -0.655164 0
M  V30 6756 H 628.751 -0.20479 -2.03472 0
M  V30 6757 H 626.906 1.87661 -3.38913 0
M  V30 6758 H 627.32 0.61586 -5.20872 0
M  V30 6759 H 628.794 2.31462 -5.01128 0
M  V30 6760 H 629.271 2.79801 -3.38538 0
M  V30 6761 H 629.877 1.26777 -4.05965 0
M  V30 6762 N 628.193 1.56834 0.155195 0
M  V30 6763 C 629.604 1.72421 0.716082 0
M  V30 6764 C 629.955 0.731685 1.82046 0
M  V30 6765 O 629.08 -0.103481 2.16152 0
M  V30 6766 C 629.675 3.12629 1.30571 0
M  V30 6767 C 628.234 3.29846 1.81325 0
M  V30 6768 C 627.381 2.68359 0.698494 0
M  V30 6769 H 630.332 1.58544 -0.0703861 0
M  V30 6770 H 630.353 3.12174 2.1755 0
M  V30 6771 H 629.865 3.84844 0.501701 0
M  V30 6772 H 627.966 2.62614 2.64319 0
M  V30 6773 H 628.079 4.37727 1.9476 0
M  V30 6774 H 626.443 2.28604 1.12305 0
M  V30 6775 H 627.226 3.43171 -0.0939366 0
M  V30 6776 N 629.671 -0.424282 1.51781 0
M  V30 6777 C 630.901 -1.19297 1.68677 0
M  V30 6778 C 631.309 -1.85152 0.389258 0
M  V30 6779 O 630.652 -1.72067 -0.643311 0
M  V30 6780 C 630.714 -2.30929 2.75521 0
M  V30 6781 C 630.378 -1.85335 4.17732 0
M  V30 6782 C 631.375 -1.34951 5.0208 0
M  V30 6783 C 629.06 -1.92629 4.63896 0
M  V30 6784 C 631.054 -0.924636 6.30658 0
M  V30 6785 C 628.741 -1.49754 5.92467 0
M  V30 6786 C 629.739 -0.997543 6.75676 0
M  V30 6787 O 629.427 -0.57492 8.01842 0
M  V30 6788 H 629.159 -0.36512 0.568914 0
M  V30 6789 H 631.713 -0.507327 1.99036 0
M  V30 6790 H 629.943 -3.02811 2.40505 0
M  V30 6791 H 631.632 -2.92748 2.81165 0
M  V30 6792 H 632.398 -1.287 4.67612 0
M  V30 6793 H 628.277 -2.30491 3.99243 0
M  V30 6794 H 631.821 -0.533682 6.95556 0
M  V30 6795 H 627.718 -1.55679 6.26446 0
M  V30 6796 H 628.486 -0.699597 8.15505 0
M  V30 6797 N 631.149 -1.42148 -0.680565 0
M  V30 6798 C 632.374 -1.45901 -1.47403 0
M  V30 6799 C 632.799 -0.0700985 -1.87969 0
M  V30 6800 O 632.157 0.930145 -1.55621 0
M  V30 6801 C 632.205 -2.38661 -2.70321 0
M  V30 6802 O 631.309 -1.85399 -3.68376 0
M  V30 6803 H 630.65 -0.494565 -0.443059 0
M  V30 6804 H 633.18 -1.86774 -0.835251 0
M  V30 6805 H 633.19 -2.55046 -3.18458 0
M  V30 6806 H 631.865 -3.39571 -2.40134 0
M  V30 6807 H 630.442 -1.78541 -3.2738 0
M  V30 6808 N 632.627 0.916307 -1.28225 0
M  V30 6809 C 633.59 1.99996 -1.11957 0
M  V30 6810 C 634.59 1.60688 -0.0600152 0
M  V30 6811 O 635.78 1.71499 -0.30558 0
M  V30 6812 C 632.912 3.33458 -0.708411 0
M  V30 6813 H 634.105 2.15858 -2.08196 0
M  V30 6814 H 631.658 1.09863 -1.11175 0
M  V30 6815 H 632.393 3.23297 0.254859 0
M  V30 6816 H 632.178 3.63349 -1.47377 0
M  V30 6817 H 633.668 4.13014 -0.617164 0
M  V30 6818 N 634.105 1.10431 1.1244 0
M  V30 6819 C 635.068 0.756542 2.16354 0
M  V30 6820 C 636.068 -0.21899 1.59302 0
M  V30 6821 O 637.258 0.00415969 1.742 0
M  V30 6822 C 634.39 0.120612 3.40687 0
M  V30 6823 H 635.583 1.67696 2.48632 0
M  V30 6824 H 633.136 0.904832 1.27446 0
M  V30 6825 H 633.871 -0.810536 3.14008 0
M  V30 6826 H 633.656 0.822693 3.83372 0
M  V30 6827 H 635.146 -0.106945 4.17463 0
M  V30 6828 N 635.583 -1.29855 0.893053 0
M  V30 6829 C 636.83 -1.95826 0.515585 0
M  V30 6830 C 637.158 -1.70451 -0.936842 0
M  V30 6831 O 636.413 -1.00657 -1.67829 0
M  V30 6832 C 636.712 -3.49515 0.746588 0
M  V30 6833 C 636.378 -3.94955 2.17535 0
M  V30 6834 C 635.04 -4.07073 2.56603 0
M  V30 6835 C 637.392 -4.18536 3.10607 0
M  V30 6836 C 634.72 -4.40138 3.87938 0
M  V30 6837 C 637.072 -4.53073 4.41484 0
M  V30 6838 C 635.736 -4.634 4.80434 0
M  V30 6839 H 635.006 -0.71658 0.188666 0
M  V30 6840 H 637.653 -1.54574 1.13045 0
M  V30 6841 H 635.958 -3.9177 0.0487551 0
M  V30 6842 H 637.655 -3.98644 0.434009 0
M  V30 6843 H 634.245 -3.86035 1.86212 0
M  V30 6844 H 638.429 -4.08646 2.81641 0
M  V30 6845 H 633.685 -4.46335 4.17846 0
M  V30 6846 H 637.859 -4.70269 5.13634 0
M  V30 6847 H 635.486 -4.88775 5.82239 0
M  V30 6848 N 637.061 -0.65484 -1.43351 0
M  V30 6849 C 637.991 0.0221809 -2.33489 0
M  V30 6850 C 638.972 0.810272 -1.49561 0
M  V30 6851 O 640.157 0.771426 -1.78221 0
M  V30 6852 C 637.287 0.988117 -3.32947 0
M  V30 6853 C 636.241 0.310026 -4.26876 0
M  V30 6854 C 635.567 1.38752 -5.16384 0
M  V30 6855 C 636.867 -0.798589 -5.16159 0
M  V30 6856 H 638.561 -0.730571 -2.9035 0
M  V30 6857 H 636.107 -0.352773 -1.39612 0
M  V30 6858 H 638.06 1.47067 -3.94904 0
M  V30 6859 H 636.784 1.77205 -2.74346 0
M  V30 6860 H 635.443 -0.152097 -3.66284 0
M  V30 6861 H 635.091 2.16293 -4.54121 0
M  V30 6862 H 634.791 0.939051 -5.80048 0
M  V30 6863 H 636.315 1.87141 -5.81215 0
M  V30 6864 H 637.729 -0.398126 -5.71916 0
M  V30 6865 H 636.126 -1.17163 -5.88552 0
M  V30 6866 H 637.196 -1.65588 -4.55751 0
M  V30 6867 N 638.539 1.52521 -0.396863 0
M  V30 6868 C 639.469 2.29582 0.425941 0
M  V30 6869 C 640.45 1.33281 1.05689 0
M  V30 6870 O 641.635 1.62181 1.06823 0
M  V30 6871 C 638.765 3.10821 1.54943 0
M  V30 6872 C 637.719 4.15069 1.04413 0
M  V30 6873 C 637.045 4.84578 2.26028 0
M  V30 6874 C 638.345 5.22191 0.106767 0
M  V30 6875 H 640.039 2.98612 -0.217045 0
M  V30 6876 H 637.585 1.43611 -0.105826 0
M  V30 6877 H 639.538 3.63492 2.13193 0
M  V30 6878 H 638.262 2.39538 2.22011 0
M  V30 6879 H 636.921 3.63389 0.484118 0
M  V30 6880 H 636.569 4.09835 2.91623 0
M  V30 6881 H 636.269 5.55043 1.92876 0
M  V30 6882 H 637.793 5.40056 2.84906 0
M  V30 6883 H 639.207 5.70176 0.597685 0
M  V30 6884 H 637.604 5.99947 -0.135352 0
M  V30 6885 H 638.674 4.77531 -0.842134 0
M  V30 6886 N 640.017 0.126909 1.57088 0
M  V30 6887 C 640.965 -0.837618 2.16995 0
M  V30 6888 C 641.959 -1.26974 1.12133 0
M  V30 6889 O 643.165 -1.24056 1.30423 0
M  V30 6890 H 639.54 -0.288256 0.694559 0
M  V30 6891 H 641.511 -0.307957 2.96807 0
M  V30 6892 C 640.26 -2.07474 2.79016 0
M  V30 6893 H 639.583 -1.75117 3.59408 0
M  V30 6894 H 641.023 -2.72949 3.24461 0
M  V30 6895 C 639.482 -2.86967 1.76498 0
M  V30 6896 O 640.012 -3.82625 1.22316 0
M  V30 6897 N 638.218 -2.51111 1.46258 0
M  V30 6898 H 637.765 -1.73389 1.90509 0
M  V30 6899 H 637.723 -3.04594 0.779085 0
M  V30 6900 N 641.495 -1.56914 -0.146875 0
M  V30 6901 C 642.772 -1.74273 -0.888165 0
M  V30 6902 C 643.152 -0.69496 -1.99333 0
M  V30 6903 O 642.5 0.286093 -2.26702 0
M  V30 6904 C 642.71 -3.18336 -1.43051 0
M  V30 6905 C 644.058 -3.80024 -1.89387 0
M  V30 6906 O 645.082 -3.21765 -1.52792 0
M  V30 6907 O 643.941 -4.82367 -2.56874 0
M  V30 6908 H 641.035 -0.712565 -0.419738 0
M  V30 6909 H 643.581 -1.6918 -0.132791 0
M  V30 6910 H 642.353 -3.86092 -0.636274 0
M  V30 6911 H 641.976 -3.27854 -2.24938 0
M  V30 6912 N 642.974 0.416227 -1.52004 0
M  V30 6913 C 644.39 0.754319 -1.40649 0
M  V30 6914 C 644.59 1.95059 -0.505392 0
M  V30 6915 O 643.646 2.5248 0.0315057 0
M  V30 6916 C 644.959 1.0149 -2.83055 0
M  V30 6917 C 646.507 1.11805 -2.9235 0
M  V30 6918 C 646.982 1.41144 -4.35709 0
M  V30 6919 N 648.473 1.48024 -4.38911 0
M  V30 6920 C 649.208 1.72338 -5.46889 0
M  V30 6921 N 648.704 1.94303 -6.64995 0
M  V30 6922 N 650.497 1.74294 -5.34395 0
M  V30 6923 H 642.648 -0.371324 -2.09129 0
M  V30 6924 H 644.911 -0.103811 -0.942299 0
M  V30 6925 H 644.617 0.208345 -3.51082 0
M  V30 6926 H 644.491 1.93697 -3.23668 0
M  V30 6927 H 646.878 1.91521 -2.24508 0
M  V30 6928 H 646.959 0.17451 -2.55204 0
M  V30 6929 H 646.603 0.619484 -5.04108 0
M  V30 6930 H 646.533 2.36739 -4.70385 0
M  V30 6931 H 649.024 1.32868 -3.53772 0
M  V30 6932 H 649.337 2.12286 -7.43071 0
M  V30 6933 H 647.682 1.91582 -6.68073 0
M  V30 6934 H 650.873 1.56667 -4.41104 0
M  V30 6935 H 651.046 1.92904 -6.18621 0
M  V30 6936 N 644.452 1.42507 0.673017 0
M  V30 6937 C 645.362 1.4853 1.81593 0
M  V30 6938 C 646.378 0.373907 1.69935 0
M  V30 6939 O 647.554 0.625078 1.91454 0
M  V30 6940 C 644.619 1.387 3.17747 0
M  V30 6941 C 643.68 2.60346 3.41348 0
M  V30 6942 C 642.913 2.50975 4.71007 0
M  V30 6943 O 643.136 1.54659 5.49033 0
M  V30 6944 O 642.07 3.41138 4.95892 0
M  V30 6945 H 645.896 2.45001 1.79467 0
M  V30 6946 H 643.481 1.2429 0.82899 0
M  V30 6947 H 645.363 1.35586 3.98992 0
M  V30 6948 H 644.038 0.453555 3.20507 0
M  V30 6949 H 642.945 2.69034 2.59945 0
M  V30 6950 H 644.278 3.52595 3.43421 0
M  V30 6951 N 645.93 -0.909495 1.28709 0
M  V30 6952 C 646.84 -2.04558 1.14861 0
M  V30 6953 C 647.856 -1.73842 0.0741621 0
M  V30 6954 O 649.032 -1.99383 0.2843 0
M  V30 6955 C 646.097 -3.36957 0.816148 0
M  V30 6956 C 645.158 -3.81255 1.97341 0
M  V30 6957 C 644.391 -5.07335 1.65671 0
M  V30 6958 O 644.614 -5.67514 0.573053 0
M  V30 6959 O 643.548 -5.47449 2.50167 0
M  V30 6960 H 647.374 -2.19161 2.10243 0
M  V30 6961 H 644.959 -1.03159 1.08068 0
M  V30 6962 H 646.841 -4.16436 0.644873 0
M  V30 6963 H 645.516 -3.2352 -0.107983 0
M  V30 6964 H 644.423 -3.02584 2.19986 0
M  V30 6965 H 645.756 -3.99261 2.87839 0
M  V30 6966 N 647.408 -1.11026 -1.11852 0
M  V30 6967 C 648.34 -0.72249 -2.17515 0
M  V30 6968 C 649.353 0.243782 -1.60964 0
M  V30 6969 O 650.542 0.0273252 -1.78479 0
M  V30 6970 C 647.642 -0.0463979 -3.38868 0
M  V30 6971 C 646.815 -1.0384 -4.24895 0
M  V30 6972 C 645.874 -0.392659 -5.24733 0
M  V30 6973 O 644.9 -1.0453 -5.5952 0
M  V30 6974 N 646.102 0.846296 -5.74298 0
M  V30 6975 H 648.867 -1.63161 -2.51393 0
M  V30 6976 H 646.428 -0.999899 -1.27333 0
M  V30 6977 H 648.42 0.397215 -4.02746 0
M  V30 6978 H 646.99 0.765231 -3.03089 0
M  V30 6979 H 646.21 -1.6601 -3.57539 0
M  V30 6980 H 647.498 -1.70968 -4.79215 0
M  V30 6981 H 646.896 1.39578 -5.4821 0
M  V30 6982 H 645.453 1.23296 -6.40032 0
M  V30 6983 N 648.886 1.2938 -0.899927 0
M  V30 6984 C 649.833 2.27713 -0.376243 0
M  V30 6985 C 650.803 1.57016 0.541774 0
M  V30 6986 O 651.988 1.84997 0.466966 0
M  V30 6987 C 649.128 3.42889 0.39 0
M  V30 6988 C 648.241 4.28369 -0.558938 0
M  V30 6989 C 647.376 5.30726 0.224379 0
M  V30 6990 C 646.415 6.07862 -0.719068 0
M  V30 6991 N 645.552 7.02094 0.0298569 0
M  V30 6992 H 650.392 2.71888 -1.21988 0
M  V30 6993 H 647.929 1.33724 -0.612879 0
M  V30 6994 H 649.887 4.08443 0.850314 0
M  V30 6995 H 648.517 2.99743 1.19809 0
M  V30 6996 H 647.569 3.62986 -1.13777 0
M  V30 6997 H 648.881 4.82068 -1.2811 0
M  V30 6998 H 648.035 6.02098 0.745881 0
M  V30 6999 H 646.774 4.77759 0.979674 0
M  V30 7000 H 645.779 5.35353 -1.25207 0
M  V30 7001 H 647.004 6.62917 -1.4737 0
M  V30 7002 H 644.95 6.51496 0.767415 0
M  V30 7003 H 644.867 7.5335 -0.632391 0
M  V30 7004 H 646.135 7.77685 0.531615 0
M  V30 7005 N 650.364 0.662433 1.43002 0
M  V30 7006 C 651.78 0.330835 1.56133 0
M  V30 7007 C 651.98 -1.16454 1.64441 0
M  V30 7008 O 651.036 -1.94964 1.60453 0
M  V30 7009 C 652.349 1.05029 2.81761 0
M  V30 7010 C 653.897 1.03142 2.95518 0
M  V30 7011 C 654.372 1.73196 4.2399 0
M  V30 7012 N 655.863 1.70004 4.30875 0
M  V30 7013 C 656.598 2.21074 5.29069 0
M  V30 7014 N 656.094 2.80473 6.33488 0
M  V30 7015 N 657.887 2.1152 5.20784 0
M  V30 7016 H 650.038 1.63272 1.35853 0
M  V30 7017 H 652.301 0.687149 0.653092 0
M  V30 7018 H 652.007 2.10542 2.81718 0
M  V30 7019 H 651.881 0.607664 3.72273 0
M  V30 7020 H 654.268 -0.0153339 2.95096 0
M  V30 7021 H 654.349 1.51282 2.0627 0
M  V30 7022 H 653.993 2.77833 4.25172 0
M  V30 7023 H 653.923 1.22515 5.1215 0
M  V30 7024 H 656.414 1.26667 3.56039 0
M  V30 7025 H 656.727 3.17094 7.04749 0
M  V30 7026 H 655.072 2.84538 6.34085 0
M  V30 7027 H 658.263 1.64814 4.38126 0
M  V30 7028 H 658.436 2.51629 5.97149 0
M  V30 7029 N 651.842 -1.52309 0.404946 0
M  V30 7030 C 653.258 -1.59503 0.0556255 0
M  V30 7031 C 653.458 -1.41805 -1.43156 0
M  V30 7032 O 652.514 -1.2429 -2.19792 0
M  V30 7033 C 653.827 -2.95687 0.546801 0
M  V30 7034 C 655.375 -3.08909 0.504413 0
M  V30 7035 C 655.85 -4.47566 0.97203 0
M  V30 7036 N 657.341 -4.53795 0.928679 0
M  V30 7037 C 658.076 -5.59346 1.26174 0
M  V30 7038 N 657.572 -6.72469 1.66604 0
M  V30 7039 N 659.365 -5.49532 1.18198 0
M  V30 7040 H 651.516 -1.6206 1.37296 0
M  V30 7041 H 653.779 -0.762161 0.563751 0
M  V30 7042 H 653.485 -3.13905 1.58609 0
M  V30 7043 H 653.359 -3.77172 -0.0457905 0
M  V30 7044 H 655.746 -2.90378 -0.525819 0
M  V30 7045 H 655.827 -2.2934 1.13301 0
M  V30 7046 H 655.471 -4.6684 2.00057 0
M  V30 7047 H 655.401 -5.25625 0.320292 0
M  V30 7048 H 657.892 -3.72588 0.631369 0
M  V30 7049 H 658.205 -7.48993 1.9034 0
M  V30 7050 H 656.55 -6.73761 1.70504 0
M  V30 7051 H 659.741 -4.60038 0.865011 0
M  V30 7052 H 659.914 -6.31687 1.44485 0
M  V30 7053 N 653.32 -0.135238 -1.57019 0
M  V30 7054 C 654.23 0.822226 -2.19719 0
M  V30 7055 C 655.246 1.28057 -1.17802 0
M  V30 7056 O 656.422 1.3402 -1.50335 0
M  V30 7057 C 653.487 2.0484 -2.79717 0
M  V30 7058 C 652.548 1.64042 -3.96723 0
M  V30 7059 C 651.781 2.80814 -4.53849 0
M  V30 7060 O 652.004 3.967 -4.0986 0
M  V30 7061 O 650.938 2.56963 -5.44292 0
M  V30 7062 H 654.764 0.318552 -3.02025 0
M  V30 7063 H 652.349 0.0912021 -1.49121 0
M  V30 7064 H 654.231 2.76622 -3.17897 0
M  V30 7065 H 652.906 2.54182 -2.00432 0
M  V30 7066 H 651.813 0.893182 -3.63281 0
M  V30 7067 H 653.146 1.19426 -4.77492 0
M  V30 7068 N 654.798 1.5699 0.138552 0
M  V30 7069 C 656.038 1.85619 0.855849 0
M  V30 7070 C 656.402 0.720663 1.77962 0
M  V30 7071 O 657.603 0.888221 2.53701 0
M  V30 7072 C 655.874 3.19447 1.60275 0
M  V30 7073 S 657.433 3.69656 2.36431 0
M  V30 7074 H 654.251 0.650926 0.286035 0
M  V30 7075 H 656.853 1.9516 0.115331 0
M  V30 7076 H 655.557 4.00053 0.915737 0
M  V30 7077 H 655.088 3.12935 2.38402 0
M  V30 7078 H 657.103 3.39595 3.61787 0
M  V30 7079 N 656.276 -0.40816 1.52223 0
M  V30 7080 C 657.524 -1.15274 1.66001 0
M  V30 7081 C 657.845 -1.91003 0.392803 0
M  V30 7082 O 657.115 -1.8673 -0.592336 0
M  V30 7083 H 655.695 -0.428526 0.611861 0
M  V30 7084 H 658.357 -0.46512 1.89269 0
M  V30 7085 H 657.453 -1.86628 2.50153 0
M  V30 7086 N 657.755 -1.42862 -0.66545 0
M  V30 7087 C 658.985 -1.47032 -1.45138 0
M  V30 7088 C 659.393 -0.0829977 -1.89018 0
M  V30 7089 O 658.736 0.914551 -1.59316 0
M  V30 7090 C 658.798 -2.34302 -2.72659 0
M  V30 7091 C 658.462 -3.82034 -2.50796 0
M  V30 7092 C 659.459 -4.73453 -2.14799 0
M  V30 7093 C 657.144 -4.26397 -2.655 0
M  V30 7094 C 659.138 -6.07228 -1.93785 0
M  V30 7095 C 656.825 -5.6023 -2.44103 0
M  V30 7096 C 657.823 -6.50462 -2.08299 0
M  V30 7097 O 657.511 -7.8182 -1.87116 0
M  V30 7098 H 657.243 -0.501969 -0.452772 0
M  V30 7099 H 659.797 -1.88137 -0.82423 0
M  V30 7100 H 658.027 -1.88063 -3.37889 0
M  V30 7101 H 659.716 -2.29818 -3.34572 0
M  V30 7102 H 660.482 -4.4046 -2.03026 0
M  V30 7103 H 656.361 -3.56448 -2.92345 0
M  V30 7104 H 659.905 -6.7762 -1.65763 0
M  V30 7105 H 655.802 -5.92793 -2.55475 0
M  V30 7106 H 656.57 -7.93274 -2.01639 0
M  V30 7107 N 659.233 0.902656 -1.29189 0
M  V30 7108 C 660.458 1.69167 -1.19989 0
M  V30 7109 C 660.883 1.86607 0.236495 0
M  V30 7110 O 660.241 1.38425 1.17082 0
M  V30 7111 C 660.289 3.05532 -1.91527 0
M  V30 7112 O 659.393 3.93621 -1.2303 0
M  V30 7113 H 658.734 0.517584 -0.415936 0
M  V30 7114 H 661.264 1.12785 -1.70706 0
M  V30 7115 H 661.274 3.55693 -1.99866 0
M  V30 7116 H 659.949 2.92156 -2.96003 0
M  V30 7117 H 658.526 3.52055 -1.22928 0
M  V30 7118 N 660.711 1.11618 1.11262 0
M  V30 7119 C 661.951 0.876154 1.8467 0
M  V30 7120 C 662.315 -0.587551 1.82789 0
M  V30 7121 O 663.516 -0.944411 2.51663 0
M  V30 7122 C 661.787 1.42461 3.2778 0
M  V30 7123 S 663.346 1.32185 4.18417 0
M  V30 7124 H 660.164 0.31628 0.636779 0
M  V30 7125 H 662.766 1.42404 1.33946 0
M  V30 7126 H 661.47 2.48367 3.26714 0
M  V30 7127 H 661.001 0.873844 3.83572 0
M  V30 7128 H 663.016 0.287607 4.95366 0
M  V30 7129 N 662.189 -1.289 0.906776 0
M  V30 7130 C 663.414 -1.99939 0.551303 0
M  V30 7131 C 663.839 -1.67366 -0.858496 0
M  V30 7132 O 663.197 -0.902176 -1.57259 0
M  V30 7133 C 663.245 -3.52523 0.758937 0
M  V30 7134 O 662.349 -4.11983 -0.185308 0
M  V30 7135 H 661.69 -0.628376 0.214568 0
M  V30 7136 H 664.22 -1.64225 1.2203 0
M  V30 7137 H 664.23 -4.02522 0.666329 0
M  V30 7138 H 662.905 -3.75566 1.78671 0
M  V30 7139 H 661.482 -3.72873 -0.0445577 0
M  V30 7140 N 663.667 -0.670007 -1.42649 0
M  V30 7141 C 665.078 -0.268118 -1.84765 0
M  V30 7142 C 665.429 1.18877 -1.56086 0
M  V30 7143 O 664.554 1.90947 -1.01825 0
M  V30 7144 C 665.149 -0.47984 -3.35385 0
M  V30 7145 C 663.708 -0.132116 -3.76168 0
M  V30 7146 C 662.855 -0.774611 -2.66261 0
M  V30 7147 H 665.806 -0.872509 -1.32563 0
M  V30 7148 H 665.827 0.269522 -3.79544 0
M  V30 7149 H 665.339 -1.54026 -3.56227 0
M  V30 7150 H 663.44 0.92505 -3.60934 0
M  V30 7151 H 663.553 -0.569294 -4.75706 0
M  V30 7152 H 661.917 -0.206353 -2.53863 0
M  V30 7153 H 662.7 -1.83839 -2.89928 0
M  V30 7154 N 665.145 1.52092 -0.413018 0
M  V30 7155 C 666.075 2.30021 0.401567 0
M  V30 7156 C 667.056 1.34395 1.04269 0
M  V30 7157 O 668.241 1.63304 1.05097 0
M  V30 7158 C 665.371 3.12447 1.51638 0
M  V30 7159 C 664.325 4.16153 1.00005 0
M  V30 7160 C 663.651 4.86948 2.20875 0
M  V30 7161 C 664.951 5.22275 0.0513757 0
M  V30 7162 H 666.645 2.98365 -0.248704 0
M  V30 7163 H 664.191 1.4349 -0.121052 0
M  V30 7164 H 666.144 3.65733 2.09326 0
M  V30 7165 H 664.868 2.41879 2.19458 0
M  V30 7166 H 663.527 3.63882 0.445549 0
M  V30 7167 H 663.175 4.12905 2.8726 0
M  V30 7168 H 662.875 5.57057 1.86978 0
M  V30 7169 H 664.399 5.43048 2.79162 0
M  V30 7170 H 665.813 5.70778 0.537176 0
M  V30 7171 H 664.21 5.9977 -0.198977 0
M  V30 7172 H 665.28 4.76611 -0.892736 0
M  V30 7173 N 666.623 0.143563 1.56945 0
M  V30 7174 C 667.571 -0.814556 2.17871 0
M  V30 7175 C 668.565 -1.25778 1.13474 0
M  V30 7176 O 669.771 -1.22666 1.31731 0
M  V30 7177 H 666.146 -0.280873 0.697578 0
M  V30 7178 H 668.117 -0.276459 2.97117 0
M  V30 7179 C 666.866 -2.04503 2.81201 0
M  V30 7180 H 666.189 -1.71296 3.61245 0
M  V30 7181 H 667.629 -2.69493 3.27337 0
M  V30 7182 C 666.088 -2.85079 1.79532 0
M  V30 7183 O 666.618 -3.81306 1.26368 0
M  V30 7184 N 664.824 -2.49546 1.48913 0
M  V30 7185 H 664.371 -1.71359 1.92338 0
M  V30 7186 H 664.329 -3.03751 0.811348 0
M  V30 7187 N 668.101 -1.57061 -0.130224 0
M  V30 7188 C 669.347 -1.8453 -0.841216 0
M  V30 7189 C 669.68 -0.727666 -1.80052 0
M  V30 7190 O 668.955 0.267419 -1.92653 0
M  V30 7191 C 669.238 -3.22553 -1.60099 0
M  V30 7192 C 669.091 -4.44901 -0.662048 0
M  V30 7193 C 670.41 -3.58003 -2.55973 0
M  V30 7194 H 667.529 -0.671215 -0.304366 0
M  V30 7195 H 670.171 -1.89705 -0.105821 0
M  V30 7196 H 668.321 -3.18272 -2.22789 0
M  V30 7197 H 669.993 -4.61278 -0.0448559 0
M  V30 7198 H 668.236 -4.33791 0.0272253 0
M  V30 7199 H 668.907 -5.3812 -1.23006 0
M  V30 7200 H 671.383 -3.63002 -2.03393 0
M  V30 7201 H 670.259 -4.55576 -3.06172 0
M  V30 7202 H 670.52 -2.84833 -3.38116 0
M  V30 7203 N 669.579 0.400081 -1.52437 0
M  V30 7204 C 670.825 1.14788 -1.67187 0
M  V30 7205 C 671.158 1.89928 -0.405074 0
M  V30 7206 O 670.433 1.85118 0.596804 0
M  V30 7207 C 670.716 2.13507 -2.89977 0
M  V30 7208 C 670.569 1.42204 -4.2673 0
M  V30 7209 C 671.888 3.14069 -3.083 0
M  V30 7210 H 669.007 0.415939 -0.608411 0
M  V30 7211 H 671.649 0.432542 -1.85011 0
M  V30 7212 H 669.799 2.7451 -2.74912 0
M  V30 7213 H 671.471 0.842503 -4.53541 0
M  V30 7214 H 669.714 0.723939 -4.27717 0
M  V30 7215 H 670.385 2.14281 -5.08712 0
M  V30 7216 H 672.861 2.63148 -3.22323 0
M  V30 7217 H 671.737 3.80398 -3.95713 0
M  V30 7218 H 671.998 3.82309 -2.22018 0
M  V30 7219 N 671.057 1.43213 0.657864 0
M  V30 7220 C 672.334 1.35063 1.41483 0
M  V30 7221 C 672.714 -0.0038314 2.111 0
M  V30 7222 O 672.062 -1.02018 2.04462 0
M  V30 7223 C 672.272 2.53061 2.40335 0
M  V30 7224 C 673.62 2.9594 3.04474 0
M  V30 7225 O 674.644 2.53074 2.50663 0
M  V30 7226 O 673.503 3.70184 4.02027 0
M  V30 7227 H 670.597 0.533517 0.631893 0
M  V30 7228 H 673.143 1.55253 0.685162 0
M  V30 7229 H 671.915 3.43283 1.87809 0
M  V30 7230 H 671.538 2.34945 3.20759 0
M  V30 7231 N 672.536 -0.895792 1.29666 0
M  V30 7232 C 673.466 -2.01673 1.17688 0
M  V30 7233 C 674.447 -1.69955 0.0701317 0
M  V30 7234 O 675.632 -1.9258 0.250289 0
M  V30 7235 C 672.762 -3.36568 0.856681 0
M  V30 7236 C 671.716 -3.82509 1.92017 0
M  V30 7237 C 671.042 -5.14574 1.4532 0
M  V30 7238 C 672.342 -4.02409 3.32963 0
M  V30 7239 H 674.036 -2.11953 2.11463 0
M  V30 7240 H 671.582 -1.01839 1.01807 0
M  V30 7241 H 673.535 -4.14498 0.759577 0
M  V30 7242 H 672.259 -3.26391 -0.116763 0
M  V30 7243 H 670.918 -3.068 2.00673 0
M  V30 7244 H 670.566 -5.00815 0.468325 0
M  V30 7245 H 670.266 -5.46283 2.16447 0
M  V30 7246 H 671.79 -5.9504 1.36968 0
M  V30 7247 H 673.204 -4.70808 3.27127 0
M  V30 7248 H 671.601 -4.45478 4.02082 0
M  V30 7249 H 672.671 -3.06616 3.75652 0
M  V30 7250 N 674.014 -1.12206 -1.10668 0
M  V30 7251 C 675.263 -0.870595 -1.81944 0
M  V30 7252 C 675.576 0.605447 -1.85994 0
M  V30 7253 O 676.782 0.973433 -2.53449 0
M  V30 7254 C 675.238 -1.50783 -3.26791 0
M  V30 7255 C 674.846 -3.01849 -3.31046 0
M  V30 7256 C 676.59 -1.33653 -4.02911 0
M  V30 7257 C 674.497 -3.58518 -4.70339 0
M  V30 7258 H 673.427 -0.322043 -0.681765 0
M  V30 7259 H 676.078 -1.34827 -1.24475 0
M  V30 7260 H 674.46 -0.957825 -3.84242 0
M  V30 7261 H 675.634 -3.63321 -2.83433 0
M  V30 7262 H 673.949 -3.18346 -2.68411 0
M  V30 7263 H 676.546 -1.73416 -5.05797 0
M  V30 7264 H 676.889 -0.279949 -4.15358 0
M  V30 7265 H 677.422 -1.85562 -3.51868 0
M  V30 7266 H 674.161 -4.63925 -4.63091 0
M  V30 7267 H 673.681 -3.01819 -5.18329 0
M  V30 7268 H 675.36 -3.57434 -5.39305 0
M  V30 7269 N 675.492 1.28418 -0.913599 0
M  V30 7270 C 676.738 1.9527 -0.547484 0
M  V30 7271 C 677.071 1.71745 0.906486 0
M  V30 7272 O 676.346 1.03834 1.64465 0
M  V30 7273 C 676.629 3.49748 -0.857205 0
M  V30 7274 C 676.482 3.82675 -2.3639 0
M  V30 7275 C 677.801 4.3868 -0.353258 0
M  V30 7276 H 674.92 0.709236 -0.200381 0
M  V30 7277 H 677.562 1.51789 -1.14281 0
M  V30 7278 H 675.712 3.86915 -0.350548 0
M  V30 7279 H 677.384 3.55378 -2.94116 0
M  V30 7280 H 675.627 3.29724 -2.81894 0
M  V30 7281 H 676.298 4.90547 -2.53115 0
M  V30 7282 H 678.774 4.08584 -0.787288 0
M  V30 7283 H 677.65 5.45621 -0.599049 0
M  V30 7284 H 677.911 4.35753 0.746413 0
M  V30 7285 N 676.97 0.677563 1.42291 0
M  V30 7286 C 678.247 0.129803 1.95169 0
M  V30 7287 C 678.627 -1.35605 1.61786 0
M  V30 7288 O 677.975 -2.09361 0.915444 0
M  V30 7289 C 678.185 0.401889 3.46678 0
M  V30 7290 C 679.533 0.319889 4.23393 0
M  V30 7291 O 680.557 0.33579 3.54614 0
M  V30 7292 O 679.416 0.264459 5.4586 0
M  V30 7293 H 676.51 0.00447433 0.826988 0
M  V30 7294 H 679.056 0.752483 1.52105 0
M  V30 7295 H 677.828 1.43108 3.64192 0
M  V30 7296 H 677.451 -0.252662 3.96796 0
M  V30 7297 N 678.448 -1.51871 0.421078 0
M  V30 7298 C 679.697 -2.01125 -0.152206 0
M  V30 7299 C 680.01 -1.3106 -1.45199 0
M  V30 7300 O 681.216 -1.71195 -2.10724 0
M  V30 7301 C 679.672 -3.58458 -0.3218 0
M  V30 7302 C 679.28 -4.37448 0.96659 0
M  V30 7303 C 681.024 -4.15908 -0.84973 0
M  V30 7304 C 678.931 -5.86451 0.763529 0
M  V30 7305 H 677.861 -0.751556 -0.0606565 0
M  V30 7306 H 680.512 -1.75115 0.548354 0
M  V30 7307 H 678.894 -3.80847 -1.08498 0
M  V30 7308 H 680.068 -4.26814 1.73684 0
M  V30 7309 H 678.383 -3.91373 1.42183 0
M  V30 7310 H 680.98 -5.24922 -1.01788 0
M  V30 7311 H 681.323 -3.74031 -1.82774 0
M  V30 7312 H 681.856 -3.97535 -0.145297 0
M  V30 7313 H 678.595 -6.3271 1.71344 0
M  V30 7314 H 678.115 -5.99791 0.0327889 0
M  V30 7315 H 679.794 -6.45697 0.410354 0
M  V30 7316 N 679.926 -0.151884 -1.56866 0
M  V30 7317 C 680.859 0.824094 -2.128 0
M  V30 7318 C 681.837 1.2391 -1.05286 0
M  V30 7319 O 683.021 1.33433 -1.33146 0
M  V30 7320 C 680.148 2.1072 -2.65169 0
M  V30 7321 C 679.194 1.83774 -3.84876 0
M  V30 7322 S 680.027 1.02436 -5.25611 0
M  V30 7323 C 681.183 2.31855 -5.81373 0
M  V30 7324 H 681.416 0.348456 -2.95251 0
M  V30 7325 H 678.949 0.0624794 -1.54274 0
M  V30 7326 H 680.907 2.84428 -2.95992 0
M  V30 7327 H 679.568 2.55398 -1.8284 0
M  V30 7328 H 678.761 2.78929 -4.19779 0
M  V30 7329 H 678.363 1.18172 -3.5484 0
M  V30 7330 H 680.655 3.27469 -5.93102 0
M  V30 7331 H 681.598 2.01449 -6.7884 0
M  V30 7332 H 682.006 2.42727 -5.09651 0
M  V30 7333 N 681.404 1.57128 0.121893 0
M  V30 7334 C 682.651 1.847 0.830188 0
M  V30 7335 C 682.979 0.736543 1.80015 0
M  V30 7336 O 682.234 -0.272358 1.93796 0
M  V30 7337 C 682.533 3.1874 1.61677 0
M  V30 7338 C 682.199 4.43901 0.791361 0
M  V30 7339 C 680.861 4.77887 0.563731 0
M  V30 7340 C 683.213 5.20753 0.215823 0
M  V30 7341 C 680.541 5.86168 -0.249737 0
M  V30 7342 C 682.893 6.29891 -0.584821 0
M  V30 7343 C 681.557 6.6241 -0.822794 0
M  V30 7344 H 680.827 0.675866 0.303787 0
M  V30 7345 H 683.474 1.91276 0.0926894 0
M  V30 7346 H 681.779 3.07728 2.42509 0
M  V30 7347 H 683.476 3.37295 2.16872 0
M  V30 7348 H 680.066 4.17272 0.978867 0
M  V30 7349 H 684.25 4.94851 0.378907 0
M  V30 7350 H 679.506 6.0979 -0.44336 0
M  V30 7351 H 683.68 6.88624 -1.03779 0
M  V30 7352 H 681.307 7.46147 -1.45496 0
M  V30 7353 N 682.882 -0.391992 1.52647 0
M  V30 7354 C 684.131 -1.13449 1.6677 0
M  V30 7355 C 684.444 -1.91203 0.412399 0
M  V30 7356 O 685.65 -2.68013 0.433707 0
M  V30 7357 C 684.106 -2.06577 2.9471 0
M  V30 7358 C 683.714 -1.3426 4.27409 0
M  V30 7359 C 685.458 -2.80981 3.18198 0
M  V30 7360 C 683.365 -2.26136 5.46458 0
M  V30 7361 H 682.295 -0.427211 0.621295 0
M  V30 7362 H 684.946 -0.397522 1.79142 0
M  V30 7363 H 683.328 -2.83898 2.76076 0
M  V30 7364 H 684.502 -0.621856 4.56585 0
M  V30 7365 H 682.817 -0.718279 4.10158 0
M  V30 7366 H 685.414 -3.49898 4.04321 0
M  V30 7367 H 685.757 -3.44891 2.33144 0
M  V30 7368 H 686.29 -2.10754 3.37383 0
M  V30 7369 H 683.029 -1.66846 6.33911 0
M  V30 7370 H 682.549 -2.96134 5.21598 0
M  V30 7371 H 684.228 -2.86286 5.80215 0
M  V30 7372 N 684.36 -1.4356 -0.65026 0
M  V30 7373 C 685.609 -1.44619 -1.406 0
M  V30 7374 C 685.922 -0.0752645 -1.95455 0
M  V30 7375 O 687.128 0.0366832 -2.71475 0
M  V30 7376 C 685.584 -2.54511 -2.54465 0
M  V30 7377 C 685.192 -3.97723 -2.06204 0
M  V30 7378 C 686.936 -2.64768 -3.31811 0
M  V30 7379 C 684.843 -4.99075 -3.17298 0
M  V30 7380 H 683.773 -0.537983 -0.52829 0
M  V30 7381 H 686.424 -1.69559 -0.701561 0
M  V30 7382 H 684.806 -2.22777 -3.27393 0
M  V30 7383 H 685.98 -4.38932 -1.40267 0
M  V30 7384 H 684.295 -3.91538 -1.41729 0
M  V30 7385 H 686.892 -3.37664 -4.14593 0
M  V30 7386 H 687.235 -1.69936 -3.80036 0
M  V30 7387 H 687.768 -2.95817 -2.65964 0
M  V30 7388 H 684.507 -5.95469 -2.74038 0
M  V30 7389 H 684.027 -4.62476 -3.81937 0
M  V30 7390 H 685.706 -5.21913 -3.82382 0
M  V30 7391 N 685.838 0.888903 -1.30139 0
M  V30 7392 C 687.115 1.62145 -1.094 0
M  V30 7393 C 687.495 2.08041 0.358091 0
M  V30 7394 O 686.843 1.84438 1.34888 0
M  V30 7395 C 687.053 2.794 -2.09133 0
M  V30 7396 C 688.401 3.49826 -2.40638 0
M  V30 7397 O 689.425 2.89583 -2.07412 0
M  V30 7398 O 688.284 4.58457 -2.97455 0
M  V30 7399 H 685.378 0.712475 -0.41989 0
M  V30 7400 H 687.924 0.936023 -1.41551 0
M  V30 7401 H 686.696 2.42762 -3.06891 0
M  V30 7402 H 686.319 3.55643 -1.77776 0
M  V30 7403 N 687.317 1.12792 1.10072 0
M  V30 7404 C 688.566 0.880232 1.81479 0
M  V30 7405 C 688.879 -0.595575 1.86312 0
M  V30 7406 O 690.085 -0.959979 2.53962 0
M  V30 7407 C 688.541 1.52514 3.25987 0
M  V30 7408 C 688.149 3.036 3.29441 0
M  V30 7409 C 689.893 1.35788 4.02196 0
M  V30 7410 C 687.8 3.61007 4.68431 0
M  V30 7411 H 686.73 0.325654 0.680048 0
M  V30 7412 H 689.381 1.35485 1.23758 0
M  V30 7413 H 687.763 0.978188 3.83728 0
M  V30 7414 H 688.937 3.64819 2.81502 0
M  V30 7415 H 687.252 3.19765 2.66719 0
M  V30 7416 H 689.849 1.76096 5.0487 0
M  V30 7417 H 690.192 0.301972 4.15203 0
M  V30 7418 H 690.725 1.87426 3.50879 0
M  V30 7419 H 687.464 4.66375 4.60625 0
M  V30 7420 H 686.984 3.04564 5.16721 0
M  V30 7421 H 688.663 3.60289 5.37402 0
M  V30 7422 N 688.795 -1.27931 0.920396 0
M  V30 7423 C 689.725 -2.29487 0.431024 0
M  V30 7424 C 690.706 -1.62435 -0.504861 0
M  V30 7425 O 691.891 -1.89797 -0.411176 0
M  V30 7426 C 689.021 -3.45788 -0.323709 0
M  V30 7427 C 687.975 -4.24784 0.523658 0
M  V30 7428 C 687.301 -5.33488 -0.359809 0
M  V30 7429 C 688.601 -4.90874 1.78437 0
M  V30 7430 H 690.295 -2.70671 1.27975 0
M  V30 7431 H 687.841 -1.30121 0.616813 0
M  V30 7432 H 689.794 -4.15927 -0.676952 0
M  V30 7433 H 688.518 -3.03502 -1.2064 0
M  V30 7434 H 687.177 -3.56382 0.85951 0
M  V30 7435 H 686.825 -4.87445 -1.24124 0
M  V30 7436 H 686.525 -5.87247 0.203605 0
M  V30 7437 H 688.049 -6.06472 -0.708787 0
M  V30 7438 H 689.463 -5.53339 1.49963 0
M  V30 7439 H 687.86 -5.54659 2.29071 0
M  V30 7440 H 688.93 -4.14988 2.50824 0
M  V30 7441 N 690.273 -0.685099 -1.4193 0
M  V30 7442 C 691.522 -0.208816 -2.00616 0
M  V30 7443 C 691.835 1.19506 -1.54847 0
M  V30 7444 O 693.041 1.76826 -2.06021 0
M  V30 7445 C 691.497 -0.322446 -3.58453 0
M  V30 7446 C 691.105 -1.73102 -4.13206 0
M  V30 7447 C 692.849 0.0945979 -4.24395 0
M  V30 7448 C 690.756 -1.79687 -5.63442 0
M  V30 7449 H 689.686 -0.0743092 -0.750329 0
M  V30 7450 H 692.337 -0.851778 -1.62533 0
M  V30 7451 H 690.719 0.388588 -3.94089 0
M  V30 7452 H 691.893 -2.46997 -3.8901 0
M  V30 7453 H 690.208 -2.09682 -3.59753 0
M  V30 7454 H 692.805 0.0656937 -5.3466 0
M  V30 7455 H 693.148 1.1316 -4.00625 0
M  V30 7456 H 693.681 -0.56579 -3.93756 0
M  V30 7457 H 690.42 -2.81404 -5.92024 0
M  V30 7458 H 689.94 -1.10162 -5.89597 0
M  V30 7459 H 691.619 -1.55498 -6.28036 0
M  V30 7460 N 691.751 1.51645 -0.429126 0
M  V30 7461 C 692.699 2.29119 0.400921 0
M  V30 7462 C 693.693 1.34628 1.02819 0
M  V30 7463 O 694.899 1.52004 0.964098 0
M  V30 7464 H 691.274 0.737273 0.148095 0
M  V30 7465 H 693.245 2.97144 -0.273457 0
M  V30 7466 C 691.994 3.13953 1.49429 0
M  V30 7467 H 691.317 3.86544 1.02097 0
M  V30 7468 H 692.757 3.71232 2.04849 0
M  V30 7469 C 691.216 2.28796 2.47293 0
M  V30 7470 O 691.746 1.94193 3.51642 0
M  V30 7471 N 689.952 1.92177 2.17982 0
M  V30 7472 H 689.499 2.20517 1.33154 0
M  V30 7473 H 689.457 1.35497 2.83704 0
M  V30 7474 N 693.229 0.160201 1.56784 0
M  V30 7475 C 694.476 -0.487588 1.96542 0
M  V30 7476 C 694.804 -1.63999 1.04569 0
M  V30 7477 O 694.059 -1.95546 0.0775211 0
M  V30 7478 C 694.358 -1.02259 3.42459 0
M  V30 7479 C 694.024 0.0127436 4.50898 0
M  V30 7480 C 692.686 0.297318 4.80281 0
M  V30 7481 C 695.038 0.716078 5.16257 0
M  V30 7482 C 692.366 1.29081 5.72324 0
M  V30 7483 C 694.718 1.69847 6.09372 0
M  V30 7484 C 693.382 1.99061 6.37127 0
M  V30 7485 H 692.652 -0.178421 0.719199 0
M  V30 7486 H 695.299 0.249818 1.89864 0
M  V30 7487 H 693.604 -1.8376 3.46034 0
M  V30 7488 H 695.301 -1.53261 3.70556 0
M  V30 7489 H 691.891 -0.219235 4.28039 0
M  V30 7490 H 696.075 0.509428 4.93679 0
M  V30 7491 H 691.331 1.52344 5.92116 0
M  V30 7492 H 695.505 2.2489 6.59088 0
M  V30 7493 H 693.132 2.76194 7.08252 0
M  V30 7494 N 694.707 -1.5719 -0.113559 0
M  V30 7495 C 696.123 -1.52607 -0.467253 0
M  V30 7496 C 696.323 -0.874058 -1.81556 0
M  V30 7497 O 695.379 -0.458703 -2.48299 0
M  V30 7498 C 696.692 -2.97363 -0.446736 0
M  V30 7499 C 698.24 -3.08482 -0.529903 0
M  V30 7500 C 698.715 -4.54809 -0.539721 0
M  V30 7501 N 700.206 -4.59284 -0.601005 0
M  V30 7502 C 700.941 -5.69927 -0.630138 0
M  V30 7503 N 700.437 -6.90051 -0.616589 0
M  V30 7504 N 702.23 -5.5805 -0.673558 0
M  V30 7505 H 694.381 -1.97958 0.769819 0
M  V30 7506 H 696.644 -0.90428 0.284572 0
M  V30 7507 H 696.35 -3.48458 0.47643 0
M  V30 7508 H 696.224 -3.55086 -1.27254 0
M  V30 7509 H 698.611 -2.57386 -1.44349 0
M  V30 7510 H 698.692 -2.53744 0.323695 0
M  V30 7511 H 698.336 -5.06552 0.369843 0
M  V30 7512 H 698.266 -5.07364 -1.41028 0
M  V30 7513 H 700.757 -3.72822 -0.617419 0
M  V30 7514 H 701.07 -7.70132 -0.641592 0
M  V30 7515 H 699.415 -6.92543 -0.583927 0
M  V30 7516 H 702.606 -4.63112 -0.681544 0
M  V30 7517 H 702.779 -6.44286 -0.692794 0
M  V30 7518 N 696.185 0.383891 -1.52853 0
M  V30 7519 C 697.413 1.1495 -1.7203 0
M  V30 7520 C 697.828 1.83578 -0.440957 0
M  V30 7521 O 697.185 1.72872 0.584925 0
M  V30 7522 C 697.236 2.19368 -2.87333 0
M  V30 7523 O 696.957 1.53536 -4.10315 0
M  V30 7524 C 698.458 3.08616 -3.18231 0
M  V30 7525 H 695.678 0.344445 -0.575846 0
M  V30 7526 H 698.222 0.448397 -1.99524 0
M  V30 7527 H 696.377 2.85105 -2.62286 0
M  V30 7528 H 696.791 2.2296 -4.74752 0
M  V30 7529 H 698.265 3.77902 -4.02361 0
M  V30 7530 H 698.742 3.72409 -2.32826 0
M  V30 7531 H 699.348 2.48518 -3.45136 0
M  V30 7532 N 697.663 1.43903 0.642637 0
M  V30 7533 C 698.891 1.4954 1.42988 0
M  V30 7534 C 699.306 0.116588 1.8844 0
M  V30 7535 O 698.663 -0.875285 1.60141 0
M  V30 7536 C 698.714 2.45031 2.65785 0
M  V30 7537 O 698.435 3.77551 2.22232 0
M  V30 7538 C 699.936 2.60017 3.59035 0
M  V30 7539 H 697.156 0.507544 0.438907 0
M  V30 7540 H 699.7 1.88752 0.786942 0
M  V30 7541 H 697.855 2.08985 3.26196 0
M  V30 7542 H 698.269 4.29001 3.01759 0
M  V30 7543 H 699.743 3.30887 4.41835 0
M  V30 7544 H 700.22 1.64861 4.07084 0
M  V30 7545 H 700.826 2.96918 3.045 0
M  V30 7546 N 699.141 -0.881989 1.30609 0
M  V30 7547 C 700.371 -1.66469 1.22359 0
M  V30 7548 C 700.779 -1.87969 -0.215507 0
M  V30 7549 O 700.122 -1.42938 -1.15388 0
M  V30 7550 C 700.184 -3.06135 1.88472 0
M  V30 7551 C 699.848 -3.07795 3.37804 0
M  V30 7552 C 700.845 -2.86633 4.33749 0
M  V30 7553 C 698.53 -3.29297 3.793 0
M  V30 7554 C 700.524 -2.86934 5.69164 0
M  V30 7555 C 698.211 -3.29228 5.14832 0
M  V30 7556 C 699.209 -3.08071 6.09574 0
M  V30 7557 O 698.897 -3.07824 7.4263 0
M  V30 7558 H 698.629 -0.526129 0.424458 0
M  V30 7559 H 701.183 -1.11004 1.72821 0
M  V30 7560 H 699.413 -3.63276 1.32543 0
M  V30 7561 H 701.102 -3.66571 1.74301 0
M  V30 7562 H 701.868 -2.69814 4.0302 0
M  V30 7563 H 697.747 -3.44799 3.05998 0
M  V30 7564 H 701.291 -2.70339 6.43088 0
M  V30 7565 H 697.188 -3.45583 5.452 0
M  V30 7566 H 697.956 -3.2397 7.51656 0
M  V30 7567 N 700.619 -1.13374 -1.09472 0
M  V30 7568 C 701.865 -0.896516 -1.81908 0
M  V30 7569 C 702.198 0.575933 -1.85463 0
M  V30 7570 O 701.473 1.42618 -1.32251 0
M  V30 7571 C 701.756 -1.48445 -3.28079 0
M  V30 7572 C 701.609 -3.02598 -3.32798 0
M  V30 7573 C 702.928 -1.15226 -4.24748 0
M  V30 7574 H 700.047 -0.327127 -0.660422 0
M  V30 7575 H 702.689 -1.40195 -1.2824 0
M  V30 7576 H 700.839 -1.0546 -3.73912 0
M  V30 7577 H 702.511 -3.54335 -2.95372 0
M  V30 7578 H 700.754 -3.37613 -2.72397 0
M  V30 7579 H 701.425 -3.38835 -4.3577 0
M  V30 7580 H 703.901 -1.52369 -3.87199 0
M  V30 7581 H 702.777 -1.59012 -5.25363 0
M  V30 7582 H 703.038 -0.0658891 -4.42051 0
M  V30 7583 N 702.098 1.27442 -0.927168 0
M  V30 7584 C 703.046 2.28844 -0.416333 0
M  V30 7585 C 704.04 1.61882 0.499057 0
M  V30 7586 O 705.246 1.75969 0.378817 0
M  V30 7587 H 701.621 0.742989 -0.116065 0
M  V30 7588 H 703.592 2.69344 -1.28438 0
M  V30 7589 C 702.341 3.4626 0.316107 0
M  V30 7590 H 701.664 3.97999 -0.379082 0
M  V30 7591 H 703.104 4.19173 0.637975 0
M  V30 7592 C 701.563 3.00211 1.5289 0
M  V30 7593 O 702.093 3.03837 2.62766 0
M  V30 7594 N 700.299 2.55713 1.38054 0
M  V30 7595 H 699.846 2.52962 0.4866 0
M  V30 7596 H 699.804 2.25264 2.19325 0
M  V30 7597 N 703.576 0.692616 1.41565 0
M  V30 7598 C 704.508 -0.0137132 2.29196 0
M  V30 7599 C 705.521 -0.747417 1.44629 0
M  V30 7600 O 706.71 -0.598611 1.68163 0
M  V30 7601 C 703.81 -1.04347 3.22436 0
M  V30 7602 C 702.983 -0.379985 4.35746 0
M  V30 7603 C 702.042 -1.31195 5.09583 0
M  V30 7604 O 701.068 -0.805455 5.63472 0
M  V30 7605 N 702.27 -2.64443 5.16769 0
M  V30 7606 H 705.035 0.738614 2.90456 0
M  V30 7607 H 702.596 0.538415 1.52685 0
M  V30 7608 H 704.588 -1.6686 3.687 0
M  V30 7609 H 703.158 -1.69736 2.62504 0
M  V30 7610 H 702.378 0.424975 3.91903 0
M  V30 7611 H 703.666 0.0814904 5.08735 0
M  V30 7612 H 703.064 -3.08114 4.74428 0
M  V30 7613 H 701.621 -3.22159 5.66619 0
M  V30 7614 N 705.054 -1.51416 0.437162 0
M  V30 7615 C 706.002 -2.29328 -0.388765 0
M  V30 7616 C 706.996 -1.35171 -1.02104 0
M  V30 7617 O 708.202 -1.52513 -0.956024 0
M  V30 7618 H 704.577 -0.738048 -0.144183 0
M  V30 7619 H 706.548 -2.96995 0.289212 0
M  V30 7620 C 705.297 -3.14741 -1.47761 0
M  V30 7621 H 704.62 -3.8708 -1.00045 0
M  V30 7622 H 706.06 -3.72313 -2.02877 0
M  V30 7623 C 704.519 -2.30105 -2.46076 0
M  V30 7624 O 705.049 -1.96055 -3.50607 0
M  V30 7625 N 703.255 -1.93331 -2.1696 0
M  V30 7626 H 702.802 -2.2122 -1.31983 0
M  V30 7627 H 702.76 -1.36999 -2.82982 0
M  V30 7628 N 706.532 -0.168513 -1.56696 0
M  V30 7629 C 707.442 0.775435 -2.21414 0
M  V30 7630 C 708.458 1.25529 -1.20492 0
M  V30 7631 O 709.634 1.30801 -1.53144 0
M  V30 7632 C 706.699 1.9886 -2.83999 0
M  V30 7633 C 705.76 1.5559 -4.00113 0
M  V30 7634 C 704.993 2.71124 -4.59704 0
M  V30 7635 O 705.216 3.87917 -4.18182 0
M  V30 7636 O 704.15 2.4536 -5.4962 0
M  V30 7637 H 707.976 0.254416 -3.02632 0
M  V30 7638 H 705.561 0.0595507 -1.49281 0
M  V30 7639 H 707.443 2.69816 -3.23693 0
M  V30 7640 H 706.118 2.49874 -2.05779 0
M  V30 7641 H 705.025 0.815924 -3.65094 0
M  V30 7642 H 706.358 1.09271 -4.79917 0
M  V30 7643 N 708.01 1.57248 0.105221 0
M  V30 7644 C 708.92 2.04653 1.14693 0
M  V30 7645 C 709.936 0.969488 1.44489 0
M  V30 7646 O 711.112 1.28196 1.55331 0
M  V30 7647 C 708.177 2.45297 2.45011 0
M  V30 7648 C 707.238 3.67148 2.22489 0
M  V30 7649 C 706.471 4.05844 3.46592 0
M  V30 7650 O 706.694 3.44736 4.54437 0
M  V30 7651 O 705.628 4.98862 3.36779 0
M  V30 7652 H 709.454 2.93663 0.774336 0
M  V30 7653 H 707.039 1.45998 0.31701 0
M  V30 7654 H 708.921 2.72112 3.21766 0
M  V30 7655 H 707.596 1.59429 2.81717 0
M  V30 7656 H 706.503 3.45463 1.43547 0
M  V30 7657 H 707.836 4.53764 1.9068 0
M  V30 7658 N 709.488 -0.375779 1.53054 0
M  V30 7659 C 710.734 -1.12114 1.68992 0
M  V30 7660 C 711.067 -1.8926 0.435238 0
M  V30 7661 O 710.342 -1.86044 -0.567278 0
M  V30 7662 C 710.625 -2.08867 2.93337 0
M  V30 7663 C 710.478 -1.35397 4.28938 0
M  V30 7664 C 711.797 -3.09124 3.13257 0
M  V30 7665 H 708.916 -0.406207 0.614951 0
M  V30 7666 H 711.558 -0.403054 1.85676 0
M  V30 7667 H 709.708 -2.70102 2.79244 0
M  V30 7668 H 711.38 -0.770242 4.54824 0
M  V30 7669 H 709.623 -0.655801 4.28814 0
M  V30 7670 H 710.294 -2.06161 5.12056 0
M  V30 7671 H 712.77 -2.57987 3.26469 0
M  V30 7672 H 711.646 -3.74054 4.01715 0
M  V30 7673 H 711.907 -3.78729 2.28072 0
M  V30 7674 N 710.966 -1.44241 -0.634997 0
M  V30 7675 C 712.212 -1.47038 -1.39669 0
M  V30 7676 C 712.545 -0.101122 -1.93937 0
M  V30 7677 O 711.82 0.880699 -1.73418 0
M  V30 7678 C 712.103 -2.52763 -2.56482 0
M  V30 7679 C 711.956 -3.99032 -2.07589 0
M  V30 7680 C 713.275 -2.55031 -3.58674 0
M  V30 7681 H 710.394 -0.53537 -0.506506 0
M  V30 7682 H 713.036 -1.75898 -0.718317 0
M  V30 7683 H 711.186 -2.28284 -3.14354 0
M  V30 7684 H 712.858 -4.3463 -1.54577 0
M  V30 7685 H 711.101 -4.10994 -1.38804 0
M  V30 7686 H 711.772 -4.68649 -2.91671 0
M  V30 7687 H 714.248 -2.76893 -3.10595 0
M  V30 7688 H 713.124 -3.30916 -4.37934 0
M  V30 7689 H 713.385 -1.59085 -4.12486 0
M  V30 7690 N 712.444 0.87505 -1.31075 0
M  V30 7691 C 713.669 1.66583 -1.23551 0
M  V30 7692 C 714.094 1.87067 0.19686 0
M  V30 7693 O 713.452 1.40877 1.1412 0
M  V30 7694 C 713.5 3.01401 -1.97965 0
M  V30 7695 O 712.604 3.90923 -1.31351 0
M  V30 7696 H 711.945 0.508645 -0.426821 0
M  V30 7697 H 714.475 1.09139 -1.7306 0
M  V30 7698 H 714.485 3.51374 -2.07366 0
M  V30 7699 H 713.16 2.85812 -3.02133 0
M  V30 7700 H 711.737 3.49369 -1.30368 0
M  V30 7701 N 713.922 1.13953 1.08869 0
M  V30 7702 C 715.199 0.815768 1.77777 0
M  V30 7703 C 715.579 -0.691624 1.99449 0
M  V30 7704 O 714.927 -1.63085 1.60049 0
M  V30 7705 C 715.137 1.60916 3.09689 0
M  V30 7706 C 716.485 1.80549 3.84301 0
M  V30 7707 O 717.509 1.57562 3.19457 0
M  V30 7708 O 716.368 2.18946 5.00724 0
M  V30 7709 H 713.462 0.298445 0.771271 0
M  V30 7710 H 716.008 1.24446 1.15374 0
M  V30 7711 H 714.78 2.6333 2.89435 0
M  V30 7712 H 714.403 1.17578 3.79817 0
M  V30 7713 N 715.4 -1.26948 0.933913 0
M  V30 7714 C 716.811 -1.76058 0.621324 0
M  V30 7715 C 717.162 -1.76175 -0.863522 0
M  V30 7716 O 716.287 -1.36921 -1.67576 0
M  V30 7717 C 716.882 -3.19713 1.12111 0
M  V30 7718 C 715.441 -3.66465 0.859074 0
M  V30 7719 C 714.588 -2.46186 1.27624 0
M  V30 7720 H 717.539 -1.13127 1.11301 0
M  V30 7721 H 717.56 -3.77566 0.471608 0
M  V30 7722 H 717.072 -3.19596 2.20182 0
M  V30 7723 H 715.173 -3.72021 -0.207566 0
M  V30 7724 H 715.286 -4.55636 1.48098 0
M  V30 7725 H 713.65 -2.45042 0.694727 0
M  V30 7726 H 714.433 -2.48774 2.36572 0
M  V30 7727 N 716.879 -0.700114 -1.41195 0
M  V30 7728 C 717.842 -0.0465706 -2.29153 0
M  V30 7729 C 718.842 0.703302 -1.44604 0
M  V30 7730 O 720.032 0.537513 -1.657 0
M  V30 7731 C 717.164 0.944324 -3.2756 0
M  V30 7732 H 718.357 -0.821064 -2.88442 0
M  V30 7733 H 715.91 -0.463869 -1.49258 0
M  V30 7734 H 716.645 1.74642 -2.73259 0
M  V30 7735 H 716.43 0.409701 -3.89954 0
M  V30 7736 H 717.92 1.39925 -3.9346 0
M  V30 7737 N 718.357 1.51182 -0.445186 0
M  V30 7738 C 719.304 2.27939 0.362291 0
M  V30 7739 C 720.274 1.31864 1.01 0
M  V30 7740 O 721.459 1.60776 1.02741 0
M  V30 7741 C 718.599 3.13016 1.45311 0
M  V30 7742 C 717.712 4.24093 0.822757 0
M  V30 7743 C 716.847 4.96467 1.88928 0
M  V30 7744 C 715.886 5.99454 1.23778 0
M  V30 7745 N 715.023 6.65206 2.24602 0
M  V30 7746 H 719.863 2.965 -0.29862 0
M  V30 7747 H 717.4 1.46237 -0.15911 0
M  V30 7748 H 719.358 3.60673 2.09692 0
M  V30 7749 H 717.988 2.46553 2.08354 0
M  V30 7750 H 717.04 3.80341 0.0670364 0
M  V30 7751 H 718.352 4.97853 0.307184 0
M  V30 7752 H 717.506 5.47712 2.60953 0
M  V30 7753 H 716.245 4.22355 2.4386 0
M  V30 7754 H 715.25 5.47494 0.503042 0
M  V30 7755 H 716.475 6.75527 0.695694 0
M  V30 7756 H 714.421 5.93901 2.78599 0
M  V30 7757 H 714.338 7.34756 1.77958 0
M  V30 7758 H 715.606 7.21078 2.96085 0
M  V30 7759 N 719.835 0.176821 1.56605 0
M  V30 7760 C 721.084 -0.466833 1.96223 0
M  V30 7761 C 721.397 -1.64015 1.06576 0
M  V30 7762 O 722.603 -2.3504 1.35898 0
M  V30 7763 C 721.059 -0.881921 3.48927 0
M  V30 7764 C 720.667 0.266102 4.47209 0
M  V30 7765 C 722.411 -1.49368 3.97353 0
M  V30 7766 C 720.318 -0.168923 5.91159 0
M  V30 7767 H 719.248 -0.178178 0.732645 0
M  V30 7768 H 721.899 0.265929 1.81563 0
M  V30 7769 H 720.281 -1.67082 3.59026 0
M  V30 7770 H 721.455 1.04349 4.4883 0
M  V30 7771 H 719.77 0.788178 4.08872 0
M  V30 7772 H 722.367 -1.8313 5.02362 0
M  V30 7773 H 722.71 -2.3936 3.40606 0
M  V30 7774 H 723.243 -0.769114 3.90294 0
M  V30 7775 H 719.982 0.696351 6.51791 0
M  V30 7776 H 719.502 -0.911552 5.92833 0
M  V30 7777 H 721.181 -0.610938 6.44109 0
M  V30 7778 N 721.313 -1.57302 -0.09688 0
M  V30 7779 C 722.276 -2.00976 -1.10188 0
M  V30 7780 C 723.276 -0.903009 -1.3305 0
M  V30 7781 O 724.466 -1.16853 -1.29194 0
M  V30 7782 C 721.598 -2.36893 -2.45142 0
M  V30 7783 H 722.791 -2.9098 -0.726003 0
M  V30 7784 H 720.344 -1.52515 -0.341872 0
M  V30 7785 H 721.079 -1.49837 -2.8761 0
M  V30 7786 H 720.864 -3.17632 -2.29897 0
M  V30 7787 H 722.354 -2.71345 -3.1743 0
M  V30 7788 N 722.791 0.367657 -1.53252 0
M  V30 7789 C 724.04 1.10782 -1.68554 0
M  V30 7790 C 724.353 1.90523 -0.442765 0
M  V30 7791 O 725.559 2.6729 -0.47629 0
M  V30 7792 C 724.015 2.01863 -2.97959 0
M  V30 7793 C 723.623 1.27443 -4.29491 0
M  V30 7794 C 725.367 2.75883 -3.22628 0
M  V30 7795 C 723.274 2.17414 -5.49987 0
M  V30 7796 H 722.204 0.417272 -0.628013 0
M  V30 7797 H 724.855 0.368971 -1.79752 0
M  V30 7798 H 723.237 2.7947 -2.80558 0
M  V30 7799 H 724.411 0.549138 -4.57516 0
M  V30 7800 H 722.726 0.652935 -4.11249 0
M  V30 7801 H 725.323 3.43421 -4.09837 0
M  V30 7802 H 725.666 3.41138 -2.38601 0
M  V30 7803 H 726.199 2.0536 -3.40693 0
M  V30 7804 H 722.938 1.5674 -6.36485 0
M  V30 7805 H 722.458 2.87799 -5.26243 0
M  V30 7806 H 724.137 2.77019 -5.84696 0
M  V30 7807 N 724.269 1.44576 0.627338 0
M  V30 7808 C 725.219 1.48168 1.73293 0
M  V30 7809 C 726.203 0.347045 1.57113 0
M  V30 7810 O 727.395 0.592605 1.66785 0
M  V30 7811 C 724.524 1.43236 3.11991 0
M  V30 7812 C 723.61 2.61828 3.33627 0
M  V30 7813 N 724.001 3.87053 3.25612 0
M  V30 7814 C 722.299 2.57104 3.64436 0
M  V30 7815 C 723 4.66093 3.48041 0
M  V30 7816 N 721.976 3.97228 3.71095 0
M  V30 7817 H 725.778 2.42832 1.6556 0
M  V30 7818 H 723.292 1.39592 0.829934 0
M  V30 7819 H 725.289 1.43893 3.91281 0
M  V30 7820 H 723.949 0.496133 3.20887 0
M  V30 7821 H 724.96 4.18966 3.04447 0
M  V30 7822 H 721.637 1.72295 3.8029 0
M  V30 7823 H 723.027 5.75117 3.47404 0
M  V30 7824 N 725.747 -0.868086 1.31537 0
M  V30 7825 C 726.977 -1.65162 1.24118 0
M  V30 7826 C 727.385 -1.88187 -0.195558 0
M  V30 7827 O 726.728 -1.44154 -1.13866 0
M  V30 7828 C 726.79 -3.04119 1.91708 0
M  V30 7829 C 726.454 -3.04194 3.4105 0
M  V30 7830 C 727.451 -2.82016 4.36764 0
M  V30 7831 C 725.136 -3.25256 3.82772 0
M  V30 7832 C 727.13 -2.80881 5.72175 0
M  V30 7833 C 724.817 -3.23749 5.18295 0
M  V30 7834 C 725.815 -3.01589 6.12808 0
M  V30 7835 O 725.503 -2.9993 7.45853 0
M  V30 7836 H 725.235 -0.521597 0.430015 0
M  V30 7837 H 727.789 -1.09165 1.73989 0
M  V30 7838 H 726.019 -3.61849 1.36389 0
M  V30 7839 H 727.708 -3.64701 1.78179 0
M  V30 7840 H 728.474 -2.65525 4.05859 0
M  V30 7841 H 724.353 -3.41534 3.09638 0
M  V30 7842 H 727.897 -2.63503 6.45919 0
M  V30 7843 H 723.794 -3.39781 5.48834 0
M  V30 7844 H 724.562 -3.15979 7.55049 0
M  V30 7845 N 727.225 -1.14528 -1.08264 0
M  V30 7846 C 728.472 -0.914405 -1.80679 0
M  V30 7847 C 728.8 0.558952 -1.86295 0
M  V30 7848 O 728.055 1.43017 -1.33584 0
M  V30 7849 C 728.354 -1.46226 -3.26117 0
M  V30 7850 C 728.02 -2.95451 -3.40616 0
M  V30 7851 C 726.682 -3.36191 -3.4428 0
M  V30 7852 C 729.034 -3.91399 -3.44175 0
M  V30 7853 C 726.362 -4.71539 -3.49096 0
M  V30 7854 C 728.714 -5.26606 -3.50526 0
M  V30 7855 C 727.378 -5.66856 -3.52464 0
M  V30 7856 H 726.648 -0.334604 -0.661151 0
M  V30 7857 H 729.295 -1.4292 -1.27461 0
M  V30 7858 H 727.6 -0.868442 -3.82054 0
M  V30 7859 H 729.297 -1.25955 -3.80705 0
M  V30 7860 H 725.887 -2.62955 -3.38456 0
M  V30 7861 H 730.071 -3.61004 -3.40573 0
M  V30 7862 H 725.327 -5.02082 -3.4889 0
M  V30 7863 H 729.501 -6.00758 -3.52225 0
M  V30 7864 H 727.128 -6.71718 -3.55948 0
M  V30 7865 N 728.703 1.26451 -0.940633 0
M  V30 7866 C 729.65 2.264 -0.448497 0
M  V30 7867 C 730.62 1.5866 0.491546 0
M  V30 7868 O 731.805 1.86389 0.407874 0
M  V30 7869 C 728.945 3.43956 0.280715 0
M  V30 7870 C 728.058 4.26374 -0.694937 0
M  V30 7871 C 727.193 5.31171 0.0554186 0
M  V30 7872 C 726.232 6.05266 -0.912091 0
M  V30 7873 N 725.369 7.01833 -0.193524 0
M  V30 7874 H 730.209 2.67869 -1.30576 0
M  V30 7875 H 727.746 1.31707 -0.655112 0
M  V30 7876 H 729.704 4.10941 0.71994 0
M  V30 7877 H 728.334 3.03403 1.10212 0
M  V30 7878 H 727.386 3.59183 -1.25267 0
M  V30 7879 H 728.698 4.77748 -1.43382 0
M  V30 7880 H 727.852 6.04166 0.553951 0
M  V30 7881 H 726.591 4.80634 0.827183 0
M  V30 7882 H 725.596 5.31099 -1.42175 0
M  V30 7883 H 726.821 6.57893 -1.68385 0
M  V30 7884 H 724.767 6.53607 0.559758 0
M  V30 7885 H 724.684 7.50957 -0.871744 0
M  V30 7886 H 725.952 7.78983 0.283932 0
M  V30 7887 N 730.181 0.707592 1.40822 0
M  V30 7888 C 731.429 0.243189 2.00632 0
M  V30 7889 C 731.75 -1.16512 1.56365 0
M  V30 7890 O 731.02 -1.78841 0.799553 0
M  V30 7891 H 729.6 0.0869203 0.741926 0
M  V30 7892 H 732.262 0.911438 1.72275 0
M  V30 7893 H 731.358 0.270014 3.1093 0
M  V30 7894 N 731.66 -1.50943 0.453197 0
M  V30 7895 C 732.906 -2.03153 -0.100277 0
M  V30 7896 C 733.261 -1.33032 -1.38997 0
M  V30 7897 O 732.554 -0.441423 -1.86446 0
M  V30 7898 C 732.748 -3.55603 -0.357944 0
M  V30 7899 C 732.577 -4.40495 0.905223 0
M  V30 7900 C 731.347 -4.84247 1.44337 0
M  V30 7901 C 733.545 -4.81931 1.79575 0
M  V30 7902 N 731.527 -5.53403 2.65742 0
M  V30 7903 C 732.898 -5.50314 2.85577 0
M  V30 7904 C 734.953 -4.63903 1.80828 0
M  V30 7905 C 733.656 -6.02581 3.92797 0
M  V30 7906 C 735.682 -5.17097 2.86993 0
M  V30 7907 C 735.044 -5.8544 3.91713 0
M  V30 7908 H 731.143 -0.781995 0.00287755 0
M  V30 7909 H 733.727 -1.84651 0.617411 0
M  V30 7910 H 731.898 -3.74087 -1.04467 0
M  V30 7911 H 733.63 -3.9447 -0.904175 0
M  V30 7912 H 730.385 -4.63029 0.995045 0
M  V30 7913 H 730.809 -5.92598 3.27348 0
M  V30 7914 H 735.451 -4.10512 1.0119 0
M  V30 7915 H 733.169 -6.55018 4.73262 0
M  V30 7916 H 736.755 -5.0499 2.88923 0
M  V30 7917 H 735.635 -6.25861 4.72512 0
M  V30 7918 N 733.138 -0.185124 -1.56509 0
M  V30 7919 C 734.385 0.456258 -1.97293 0
M  V30 7920 C 734.713 1.62314 -1.07165 0
M  V30 7921 O 733.968 1.95398 -0.108621 0
M  V30 7922 C 734.267 0.967977 -3.44042 0
M  V30 7923 C 733.933 -0.084476 -4.50821 0
M  V30 7924 C 732.595 -0.373689 -4.79747 0
M  V30 7925 C 734.947 -0.79812 -5.15053 0
M  V30 7926 C 732.275 -1.3817 -5.70198 0
M  V30 7927 C 734.627 -1.79521 -6.06593 0
M  V30 7928 C 733.291 -2.09172 -6.3388 0
M  V30 7929 H 732.561 0.166957 -0.721946 0
M  V30 7930 H 735.208 -0.279992 -1.89442 0
M  V30 7931 H 733.513 1.78231 -3.48914 0
M  V30 7932 H 735.21 1.47347 -3.72948 0
M  V30 7933 H 731.8 0.15111 -4.28334 0
M  V30 7934 H 735.984 -0.587903 -4.92806 0
M  V30 7935 H 731.24 -1.61745 -5.89617 0
M  V30 7936 H 735.414 -2.35347 -6.55427 0
M  V30 7937 H 733.041 -2.87427 -7.03768 0
M  V30 7938 N 734.616 1.57351 0.0885366 0
M  V30 7939 C 735.546 2.05561 1.10757 0
M  V30 7940 C 736.527 0.945789 1.41382 0
M  V30 7941 O 737.712 1.21747 1.51299 0
M  V30 7942 C 734.842 2.48554 2.42566 0
M  V30 7943 C 733.796 3.63259 2.26334 0
M  V30 7944 C 733.122 3.9225 3.63378 0
M  V30 7945 C 734.422 4.93913 1.69844 0
M  V30 7946 H 736.116 2.90946 0.706468 0
M  V30 7947 H 733.662 1.39968 0.338385 0
M  V30 7948 H 735.615 2.8089 3.14132 0
M  V30 7949 H 734.339 1.60176 2.84625 0
M  V30 7950 H 732.998 3.31179 1.57213 0
M  V30 7951 H 732.646 3.0103 4.02976 0
M  V30 7952 H 732.346 4.69478 3.53362 0
M  V30 7953 H 733.87 4.27067 4.36401 0
M  V30 7954 H 735.284 5.24588 2.31258 0
M  V30 7955 H 733.681 5.75349 1.70569 0
M  V30 7956 H 734.751 4.80409 0.65843 0
M  V30 7957 N 736.094 -0.359525 1.53444 0
M  V30 7958 C 737.343 -1.09886 1.69139 0
M  V30 7959 C 737.656 -1.90285 0.452863 0
M  V30 7960 O 738.862 -2.67033 0.490459 0
M  V30 7961 C 737.318 -2.0028 2.99025 0
M  V30 7962 C 736.926 -1.25164 4.30161 0
M  V30 7963 C 738.67 -2.74168 3.24086 0
M  V30 7964 C 736.577 -2.14494 5.51132 0
M  V30 7965 H 735.507 -0.413936 0.630217 0
M  V30 7966 H 738.158 -0.359434 1.79945 0
M  V30 7967 H 736.54 -2.77978 2.82036 0
M  V30 7968 H 737.714 -0.524867 4.57801 0
M  V30 7969 H 736.029 -0.631116 4.11589 0
M  V30 7970 H 738.626 -3.41243 4.11652 0
M  V30 7971 H 738.969 -3.39868 2.40407 0
M  V30 7972 H 739.502 -2.0355 3.41778 0
M  V30 7973 H 736.241 -1.53362 6.37307 0
M  V30 7974 H 735.761 -2.85004 5.27762 0
M  V30 7975 H 737.44 -2.73914 5.86157 0
M  V30 7976 N 737.572 -1.44907 -0.619662 0
M  V30 7977 C 738.849 -1.38766 -1.37852 0
M  V30 7978 C 739.229 -0.0521393 -2.11036 0
M  V30 7979 O 738.577 0.965613 -2.07095 0
M  V30 7980 C 738.787 -2.59344 -2.33541 0
M  V30 7981 C 740.135 -3.03909 -2.96521 0
M  V30 7982 O 741.159 -2.59631 -2.43865 0
M  V30 7983 O 740.018 -3.80713 -3.92071 0
M  V30 7984 H 737.112 -0.550083 -0.617525 0
M  V30 7985 H 739.658 -1.57015 -0.643759 0
M  V30 7986 H 738.43 -3.48142 -1.78642 0
M  V30 7987 H 738.053 -2.43367 -3.14417 0
M  V30 7988 N 739.05 0.861098 -1.31996 0
M  V30 7989 C 739.983 1.97266 -1.14724 0
M  V30 7990 C 740.961 1.62528 -0.0483789 0
M  V30 7991 O 742.145 1.87366 -0.206478 0
M  V30 7992 C 739.272 3.30181 -0.754861 0
M  V30 7993 C 738.318 3.839 -1.85804 0
M  V30 7994 S 739.151 4.08274 -3.46515 0
M  V30 7995 C 740.307 5.44174 -3.09235 0
M  V30 7996 H 740.54 2.11614 -2.08822 0
M  V30 7997 H 738.073 1.01232 -1.16582 0
M  V30 7998 H 740.031 4.06996 -0.535232 0
M  V30 7999 H 738.692 3.13655 0.167155 0
M  V30 8000 H 737.885 4.80013 -1.53633 0
M  V30 8001 H 737.487 3.13907 -2.03318 0
M  V30 8002 H 739.779 6.26172 -2.58679 0
M  V30 8003 H 740.722 5.81301 -4.04345 0
M  V30 8004 H 741.13 5.0787 -2.46431 0
M  V30 8005 N 740.528 1.15101 1.07655 0
M  V30 8006 C 741.774 0.925343 1.80458 0
M  V30 8007 C 742.107 -0.546354 1.86356 0
M  V30 8008 O 741.382 -1.40496 1.34503 0
M  V30 8009 C 741.665 1.53646 3.25676 0
M  V30 8010 C 741.518 3.07854 3.27942 0
M  V30 8011 C 742.837 1.21968 4.22861 0
M  V30 8012 H 739.956 0.337592 0.655134 0
M  V30 8013 H 742.598 1.42217 1.25993 0
M  V30 8014 H 740.748 1.11395 3.72187 0
M  V30 8015 H 742.42 3.58989 2.89697 0
M  V30 8016 H 740.663 3.41904 2.66991 0
M  V30 8017 H 741.334 3.45725 4.30324 0
M  V30 8018 H 743.81 1.5851 3.84726 0
M  V30 8019 H 742.686 1.67349 5.22767 0
M  V30 8020 H 742.947 0.136207 4.4189 0
M  V30 8021 N 742.006 -1.2595 0.947325 0
M  V30 8022 C 742.969 -2.24407 0.466285 0
M  V30 8023 C 743.969 -1.55054 -0.426005 0
M  V30 8024 O 745.159 -1.7275 -0.224319 0
M  V30 8025 C 742.291 -3.39326 -0.327201 0
M  V30 8026 H 743.484 -2.68477 1.33642 0
M  V30 8027 H 741.037 -1.38211 0.729887 0
M  V30 8028 H 741.772 -3.00667 -1.21532 0
M  V30 8029 H 741.557 -3.9085 0.312839 0
M  V30 8030 H 743.047 -4.12455 -0.653477 0
M  V30 8031 N 743.484 -0.715051 -1.40445 0
M  V30 8032 C 744.447 -0.0708726 -2.2909 0
M  V30 8033 C 745.447 0.687926 -1.45342 0
M  V30 8034 O 746.637 0.519908 -1.66261 0
M  V30 8035 C 743.769 0.909528 -3.28543 0
M  V30 8036 H 744.962 -0.851611 -2.87555 0
M  V30 8037 H 742.515 -0.479674 -1.48758 0
M  V30 8038 H 743.25 1.71734 -2.75096 0
M  V30 8039 H 743.035 0.368318 -3.90366 0
M  V30 8040 H 744.525 1.35744 -3.94922 0
M  V30 8041 N 744.962 1.50701 -0.461195 0
M  V30 8042 C 746.211 2.01458 0.0988277 0
M  V30 8043 C 746.524 1.34863 1.41673 0
M  V30 8044 O 747.73 1.76721 2.06111 0
M  V30 8045 C 746.186 3.59186 0.226648 0
M  V30 8046 C 745.794 4.34732 -1.08223 0
M  V30 8047 C 747.538 4.18015 0.73916 0
M  V30 8048 C 745.445 5.8422 -0.918747 0
M  V30 8049 H 744.375 0.7529 0.040709 0
M  V30 8050 H 747.026 1.736 -0.594589 0
M  V30 8051 H 745.408 3.83589 0.983621 0
M  V30 8052 H 746.582 4.22059 -1.84939 0
M  V30 8053 H 744.897 3.87466 -1.52509 0
M  V30 8054 H 747.494 5.27436 0.878347 0
M  V30 8055 H 747.837 3.78746 1.72793 0
M  V30 8056 H 748.37 3.9778 0.0398469 0
M  V30 8057 H 745.109 6.27944 -1.88059 0
M  V30 8058 H 744.629 5.99493 -0.191801 0
M  V30 8059 H 746.308 6.44382 -0.581405 0
M  V30 8060 N 746.441 0.193421 1.56409 0
M  V30 8061 C 747.852 -0.319471 1.83946 0
M  V30 8062 C 748.203 -1.61505 1.11403 0
M  V30 8063 O 747.328 -2.13139 0.374289 0
M  V30 8064 C 747.923 -0.586411 3.33686 0
M  V30 8065 C 746.482 -1.04368 3.61641 0
M  V30 8066 C 745.629 -0.0913834 2.77149 0
M  V30 8067 H 748.58 0.417242 1.53117 0
M  V30 8068 H 748.601 -1.43591 3.52366 0
M  V30 8069 H 748.113 0.356701 3.86457 0
M  V30 8070 H 746.214 -2.00113 3.14302 0
M  V30 8071 H 746.327 -0.937549 4.69837 0
M  V30 8072 H 744.691 -0.592954 2.47702 0
M  V30 8073 H 745.474 0.846142 3.32709 0
M  V30 8074 N 747.919 -1.57396 -0.0801906 0
M  V30 8075 C 749.166 -1.86836 -0.780927 0
M  V30 8076 C 749.494 -0.784012 -1.77999 0
M  V30 8077 O 748.749 0.220881 -1.94449 0
M  V30 8078 C 749.048 -3.22915 -1.53169 0
M  V30 8079 C 748.714 -4.45843 -0.67339 0
M  V30 8080 C 747.376 -4.79213 -0.436829 0
M  V30 8081 C 749.728 -5.21142 -0.0776786 0
M  V30 8082 C 747.056 -5.853 0.405062 0
M  V30 8083 C 749.408 -6.28119 0.751619 0
M  V30 8084 C 748.072 -6.59995 0.998131 0
M  V30 8085 H 747.342 -0.683682 -0.285761 0
M  V30 8086 H 749.989 -1.91454 -0.0419435 0
M  V30 8087 H 748.294 -3.14049 -2.34265 0
M  V30 8088 H 749.991 -3.42926 -2.07853 0
M  V30 8089 H 746.581 -4.19721 -0.867891 0
M  V30 8090 H 750.765 -4.95682 -0.247572 0
M  V30 8091 H 746.021 -6.084 0.60488 0
M  V30 8092 H 750.195 -6.8563 1.22 0
M  V30 8093 H 747.822 -7.42027 1.65227 0
M  V30 8094 N 749.397 0.351382 -1.53633 0
M  V30 8095 C 750.674 1.10903 -1.6112 0
M  V30 8096 C 751.054 2.06725 -0.427556 0
M  V30 8097 O 750.402 2.20992 0.580916 0
M  V30 8098 C 750.612 1.83561 -2.96827 0
M  V30 8099 C 751.96 2.37587 -3.51906 0
M  V30 8100 O 752.984 1.93669 -2.9895 0
M  V30 8101 O 751.843 3.17913 -4.44515 0
M  V30 8102 H 748.937 0.509558 -0.651368 0
M  V30 8103 H 751.483 0.353504 -1.65977 0
M  V30 8104 H 750.255 1.1371 -3.74414 0
M  V30 8105 H 749.878 2.6599 -2.95525 0
M  V30 8106 N 750.875 1.45233 0.611969 0
M  V30 8107 C 751.805 1.5641 1.73373 0
M  V30 8108 C 752.786 0.415896 1.64937 0
M  V30 8109 O 753.971 0.638478 1.83404 0
M  V30 8110 C 751.101 1.52627 3.11965 0
M  V30 8111 C 750.055 2.66119 3.35208 0
M  V30 8112 C 749.381 2.4739 4.74028 0
M  V30 8113 C 750.681 4.08157 3.25891 0
M  V30 8114 H 752.375 2.50307 1.64277 0
M  V30 8115 H 749.921 1.20467 0.788904 0
M  V30 8116 H 751.874 1.59043 3.90235 0
M  V30 8117 H 750.598 0.552564 3.21892 0
M  V30 8118 H 749.257 2.59123 2.59327 0
M  V30 8119 H 748.905 1.48168 4.80682 0
M  V30 8120 H 748.605 3.23494 4.90536 0
M  V30 8121 H 750.129 2.55653 5.54503 0
M  V30 8122 H 751.543 4.1642 3.9404 0
M  V30 8123 H 749.94 4.84617 3.5393 0
M  V30 8124 H 751.01 4.30374 2.23397 0
M  V30 8125 N 752.353 -0.854086 1.3245 0
M  V30 8126 C 753.283 -1.97827 1.24044 0
M  V30 8127 C 754.264 -1.69646 0.124166 0
M  V30 8128 O 755.449 -1.91687 0.31143 0
M  V30 8129 C 752.579 -3.33673 0.963324 0
M  V30 8130 C 751.533 -3.76207 2.04089 0
M  V30 8131 C 750.859 -5.0969 1.61618 0
M  V30 8132 C 752.159 -3.91612 3.45597 0
M  V30 8133 H 753.853 -2.05118 2.18099 0
M  V30 8134 H 751.399 -0.985489 1.04996 0
M  V30 8135 H 753.352 -4.11871 0.891061 0
M  V30 8136 H 752.076 -3.26597 -0.0128649 0
M  V30 8137 H 750.735 -3.0026 2.10332 0
M  V30 8138 H 750.383 -4.99072 0.627418 0
M  V30 8139 H 750.083 -5.3912 2.33717 0
M  V30 8140 H 751.607 -5.90381 1.55829 0
M  V30 8141 H 753.021 -4.60163 3.4194 0
M  V30 8142 H 751.418 -4.3246 4.16051 0
M  V30 8143 H 752.488 -2.9451 3.85217 0
M  V30 8144 N 753.831 -1.1567 -1.07043 0
M  V30 8145 C 755.08 -0.928039 -1.79082 0
M  V30 8146 C 755.393 0.545968 -1.87826 0
M  V30 8147 O 756.599 0.892308 -2.56418 0
M  V30 8148 C 755.055 -1.61103 -3.21829 0
M  V30 8149 C 754.663 -3.12228 -3.21275 0
M  V30 8150 C 756.407 -1.46404 -3.98455 0
M  V30 8151 C 754.314 -3.733 -4.58695 0
M  V30 8152 H 753.244 -0.34357 -0.671175 0
M  V30 8153 H 755.895 -1.38718 -1.20123 0
M  V30 8154 H 754.277 -1.07958 -3.81 0
M  V30 8155 H 755.451 -3.72155 -2.71731 0
M  V30 8156 H 753.766 -3.26725 -2.58147 0
M  V30 8157 H 756.363 -1.8942 -5.00024 0
M  V30 8158 H 756.706 -0.41195 -4.14257 0
M  V30 8159 H 757.239 -1.96663 -3.45787 0
M  V30 8160 H 753.978 -4.78423 -4.48098 0
M  V30 8161 H 753.498 -3.18157 -5.08465 0
M  V30 8162 H 755.177 -3.7441 -5.27661 0
M  V30 8163 N 755.309 1.25446 -0.953992 0
M  V30 8164 C 756.556 1.93143 -0.608429 0
M  V30 8165 C 756.884 1.74727 0.854451 0
M  V30 8166 O 756.139 1.0855 1.62836 0
M  V30 8167 C 756.438 3.45555 -0.912496 0
M  V30 8168 C 756.104 3.84126 -2.36131 0
M  V30 8169 C 754.766 3.94367 -2.75732 0
M  V30 8170 C 757.118 4.0324 -3.30223 0
M  V30 8171 C 754.446 4.21127 -4.08496 0
M  V30 8172 C 756.798 4.31493 -4.62598 0
M  V30 8173 C 755.462 4.3995 -5.01996 0
M  V30 8174 H 754.732 0.706762 -0.22264 0
M  V30 8175 H 757.379 1.49005 -1.20291 0
M  V30 8176 H 755.684 3.91091 -0.235618 0
M  V30 8177 H 757.381 3.9612 -0.623714 0
M  V30 8178 H 753.971 3.76711 -2.04418 0
M  V30 8179 H 758.155 3.94744 -3.00817 0
M  V30 8180 H 753.411 4.2589 -4.38665 0
M  V30 8181 H 757.585 4.45227 -5.35486 0
M  V30 8182 H 755.212 4.60439 -6.04896 0
M  V30 8183 N 756.787 0.722489 1.40064 0
M  V30 8184 C 758.035 0.264455 2.00362 0
M  V30 8185 C 758.356 -1.14847 1.57592 0
M  V30 8186 O 757.626 -1.77982 0.818477 0
M  V30 8187 H 756.206 0.0947846 0.740962 0
M  V30 8188 H 758.868 0.929659 1.71299 0
M  V30 8189 H 757.964 0.302977 3.10626 0
M  V30 8190 N 758.265 -1.50454 0.469181 0
M  V30 8191 C 759.49 -2.0722 -0.0864892 0
M  V30 8192 C 759.915 -1.33098 -1.32916 0
M  V30 8193 O 759.273 -0.378084 -1.77314 0
M  V30 8194 C 759.321 -3.58845 -0.355384 0
M  V30 8195 O 758.425 -3.86583 -1.43622 0
M  V30 8196 H 757.766 -0.663889 0.0121414 0
M  V30 8197 H 760.296 -1.93674 0.659674 0
M  V30 8198 H 760.306 -4.03617 -0.596447 0
M  V30 8199 H 758.981 -4.12211 0.552698 0
M  V30 8200 H 757.558 -3.5365 -1.18262 0
M  V30 8201 N 759.743 -0.201713 -1.56304 0
M  V30 8202 C 760.991 0.434447 -1.97375 0
M  V30 8203 C 761.312 1.61692 -1.08998 0
M  V30 8204 O 760.582 1.95223 -0.162682 0
M  V30 8205 H 759.162 0.163497 -0.728888 0
M  V30 8206 H 761.824 -0.289988 -1.92731 0
M  V30 8207 H 760.92 0.774136 -3.02347 0
M  V30 8208 N 761.222 1.57436 0.0718424 0
M  V30 8209 C 762.447 1.91858 0.787745 0
M  V30 8210 C 762.872 0.798119 1.70328 0
M  V30 8211 O 762.23 -0.24905 1.79581 0
M  V30 8212 C 762.278 3.25232 1.55744 0
M  V30 8213 O 761.382 3.14462 2.6681 0
M  V30 8214 H 760.723 0.628258 0.214914 0
M  V30 8215 H 763.253 2.04561 0.0401012 0
M  V30 8216 H 763.263 3.59105 1.9367 0
M  V30 8217 H 761.938 4.0636 0.885691 0
M  V30 8218 H 760.515 2.92148 2.31741 0
M  V30 8219 N 762.7 -0.34323 1.53817 0
M  V30 8220 C 763.977 -1.10047 1.61706 0
M  V30 8221 C 764.357 -2.06495 0.438514 0
M  V30 8222 O 763.705 -2.21297 -0.569188 0
M  V30 8223 C 763.915 -1.81985 2.97796 0
M  V30 8224 C 765.263 -2.35717 3.53161 0
M  V30 8225 O 766.287 -1.9208 2.99973 0
M  V30 8226 O 765.146 -3.15551 4.46195 0
M  V30 8227 H 762.24 -0.506096 0.654061 0
M  V30 8228 H 764.786 -0.344697 1.66162 0
M  V30 8229 H 763.558 -1.11722 3.75012 0
M  V30 8230 H 763.181 -2.64419 2.96931 0
M  V30 8231 N 764.178 -1.45556 -0.604258 0
M  V30 8232 C 765.088 -1.57025 -1.74299 0
M  V30 8233 C 766.104 -0.45456 -1.67958 0
M  V30 8234 O 767.28 -0.715711 -1.88254 0
M  V30 8235 C 764.345 -1.53702 -3.10768 0
M  V30 8236 C 763.406 -2.76335 -3.28538 0
M  V30 8237 C 762.639 -2.73161 -4.58496 0
M  V30 8238 O 762.862 -1.80678 -5.41028 0
M  V30 8239 O 761.796 -3.64409 -4.79051 0
M  V30 8240 H 765.622 -2.53284 -1.67573 0
M  V30 8241 H 763.207 -1.28104 -0.768745 0
M  V30 8242 H 765.089 -1.54468 -3.92068 0
M  V30 8243 H 763.764 -0.605957 -3.17978 0
M  V30 8244 H 762.671 -2.8113 -2.46813 0
M  V30 8245 H 764.004 -3.68578 -3.26207 0
M  V30 8246 N 765.656 0.84705 -1.32902 0
M  V30 8247 C 766.884 1.63403 -1.26913 0
M  V30 8248 C 767.299 1.88108 0.161483 0
M  V30 8249 O 766.656 1.45546 1.10103 0
M  V30 8250 C 766.707 2.98896 -2.03331 0
M  V30 8251 O 766.428 2.75281 -3.40811 0
M  V30 8252 C 767.929 3.93335 -2.04457 0
M  V30 8253 H 765.149 0.508701 -0.437566 0
M  V30 8254 H 767.693 1.05567 -1.75145 0
M  V30 8255 H 765.848 3.53356 -1.58802 0
M  V30 8256 H 766.262 3.61504 -3.8002 0
M  V30 8257 H 767.736 4.85647 -2.62394 0
M  V30 8258 H 768.213 4.26885 -1.03274 0
M  V30 8259 H 768.819 3.44812 -2.48967 0
M  V30 8260 N 767.134 1.16236 1.06428 0
M  V30 8261 C 768.362 0.967184 1.82902 0
M  V30 8262 C 768.777 -0.484601 1.82475 0
M  V30 8263 O 768.134 -1.33631 1.24294 0
M  V30 8264 C 768.185 1.48534 3.29576 0
M  V30 8265 O 767.906 2.88026 3.3011 0
M  V30 8266 C 769.407 1.33298 4.22784 0
M  V30 8267 H 766.627 0.342923 0.576754 0
M  V30 8268 H 769.171 1.54232 1.34286 0
M  V30 8269 H 767.326 0.952513 3.75508 0
M  V30 8270 H 767.74 3.11721 4.21818 0
M  V30 8271 H 769.214 1.74385 5.23731 0
M  V30 8272 H 769.691 0.278356 4.38317 0
M  V30 8273 H 770.297 1.85535 3.82697 0
M  V30 8274 N 768.612 -1.24939 0.960631 0
M  V30 8275 C 769.84 -1.96881 0.636045 0
M  V30 8276 C 770.255 -1.71334 -0.793093 0
M  V30 8277 O 769.612 -0.992917 -1.53125 0
M  V30 8278 C 769.663 -3.50309 0.892533 0
M  V30 8279 O 769.384 -3.74977 2.26548 0
M  V30 8280 C 770.885 -4.39474 0.581159 0
M  V30 8281 H 768.105 -0.627399 0.237931 0
M  V30 8282 H 770.649 -1.58952 1.28664 0
M  V30 8283 H 768.804 -3.86326 0.288257 0
M  V30 8284 H 769.218 -4.69401 2.34014 0
M  V30 8285 H 770.692 -5.46008 0.811125 0
M  V30 8286 H 771.169 -4.3652 -0.48443 0
M  V30 8287 H 771.775 -4.09032 1.16502 0
M  V30 8288 N 770.09 -0.729906 -1.39679 0
M  V30 8289 C 771.02 -0.101618 -2.33279 0
M  V30 8290 C 772.001 0.729854 -1.53646 0
M  V30 8291 O 773.186 0.67587 -1.82059 0
M  V30 8292 C 770.316 0.81024 -3.37716 0
M  V30 8293 C 769.27 0.0833126 -4.27919 0
M  V30 8294 C 768.596 1.11185 -5.23012 0
M  V30 8295 C 769.896 -1.07107 -5.112 0
M  V30 8296 H 771.59 -0.883452 -2.86069 0
M  V30 8297 H 769.136 -0.426283 -1.37546 0
M  V30 8298 H 771.089 1.25927 -4.02145 0
M  V30 8299 H 769.813 1.62413 -2.83354 0
M  V30 8300 H 768.472 -0.346043 -3.64963 0
M  V30 8301 H 768.12 1.91917 -4.64948 0
M  V30 8302 H 767.82 0.63026 -5.8421 0
M  V30 8303 H 769.344 1.56068 -5.90318 0
M  V30 8304 H 770.758 -0.700726 -5.69002 0
M  V30 8305 H 769.155 -1.48196 -5.81514 0
M  V30 8306 H 770.225 -1.89513 -4.46332 0
M  V30 8307 N 771.568 1.50203 -0.477153 0
M  V30 8308 C 772.817 2.01551 0.0774548 0
M  V30 8309 C 773.13 1.36359 1.40234 0
M  V30 8310 O 774.336 1.78898 2.04225 0
M  V30 8311 C 772.792 3.59406 0.188539 0
M  V30 8312 C 772.4 4.3356 -1.12828 0
M  V30 8313 C 774.144 4.18776 0.694782 0
M  V30 8314 C 772.051 5.83213 -0.98066 0
M  V30 8315 H 770.981 0.75329 0.0327212 0
M  V30 8316 H 773.632 1.72959 -0.612969 0
M  V30 8317 H 772.014 3.84611 0.942881 0
M  V30 8318 H 773.188 4.20074 -1.89405 0
M  V30 8319 H 771.503 3.85827 -1.5661 0
M  V30 8320 H 774.1 5.28338 0.822356 0
M  V30 8321 H 774.443 3.80557 1.68766 0
M  V30 8322 H 774.976 3.978 -0.00234519 0
M  V30 8323 H 771.715 6.25914 -1.94709 0
M  V30 8324 H 771.235 5.99256 -0.255375 0
M  V30 8325 H 772.914 6.4373 -0.649717 0
M  V30 8326 N 773.046 0.209999 1.56195 0
M  V30 8327 C 774.294 -0.423974 1.97603 0
M  V30 8328 C 774.615 -1.61112 1.09854 0
M  V30 8329 O 773.885 -1.95134 0.173032 0
M  V30 8330 H 772.465 -0.159629 0.729745 0
M  V30 8331 H 775.127 0.300205 1.92574 0
M  V30 8332 H 774.223 -0.75809 3.02753 0
M  V30 8333 N 774.524 -1.57472 -0.0634922 0
M  V30 8334 C 775.454 -2.07297 -1.07473 0
M  V30 8335 C 776.435 -0.968162 -1.39859 0
M  V30 8336 O 777.62 -1.24139 -1.49343 0
M  V30 8337 C 774.75 -2.52381 -2.38581 0
M  V30 8338 C 773.704 -3.66813 -2.20526 0
M  V30 8339 C 773.03 -3.97982 -3.57092 0
M  V30 8340 C 774.33 -4.96553 -1.61965 0
M  V30 8341 H 776.024 -2.92033 -0.660092 0
M  V30 8342 H 773.57 -1.40488 -0.316074 0
M  V30 8343 H 775.523 -2.85852 -3.09624 0
M  V30 8344 H 774.247 -1.64684 -2.8204 0
M  V30 8345 H 772.906 -3.33639 -1.51924 0
M  V30 8346 H 772.554 -3.07403 -3.98136 0
M  V30 8347 H 772.254 -4.7504 -3.45848 0
M  V30 8348 H 773.778 -4.33956 -4.29552 0
M  V30 8349 H 775.192 -5.28201 -2.22883 0
M  V30 8350 H 773.589 -5.7799 -1.61394 0
M  V30 8351 H 774.659 -4.81396 -0.581918 0
M  V30 8352 N 776.003 0.335068 -1.53997 0
M  V30 8353 C 776.933 1.41727 -1.85568 0
M  V30 8354 C 777.914 1.54505 -0.7115 0
M  V30 8355 O 779.099 1.68573 -0.964191 0
M  V30 8356 C 776.229 2.7866 -2.07282 0
M  V30 8357 C 775.183 2.80682 -3.23112 0
M  V30 8358 C 774.509 4.20581 -3.30175 0
M  V30 8359 C 775.809 2.45458 -4.61029 0
M  V30 8360 H 777.503 1.15555 -2.76202 0
M  V30 8361 H 775.049 0.554445 -1.32898 0
M  V30 8362 H 777.002 3.54423 -2.27952 0
M  V30 8363 H 775.726 3.06286 -1.13387 0
M  V30 8364 H 774.385 2.07373 -3.02311 0
M  V30 8365 H 774.033 4.4533 -2.33859 0
M  V30 8366 H 773.733 4.22843 -4.08016 0
M  V30 8367 H 775.257 4.98174 -3.53066 0
M  V30 8368 H 776.671 3.10934 -4.81656 0
M  V30 8369 H 775.068 2.5899 -5.41336 0
M  V30 8370 H 776.138 1.40628 -4.6406 0
M  V30 8371 N 777.481 1.45874 0.596531 0
M  V30 8372 C 778.428 1.55389 1.70655 0
M  V30 8373 C 779.398 0.399036 1.61236 0
M  V30 8374 O 780.583 0.61396 1.80652 0
M  V30 8375 C 777.723 1.53705 3.0898 0
M  V30 8376 C 776.836 2.79823 3.29125 0
M  V30 8377 C 775.971 2.69735 4.5762 0
M  V30 8378 C 775.01 3.90856 4.71061 0
M  V30 8379 N 774.147 3.79237 5.90867 0
M  V30 8380 H 778.987 2.50211 1.61859 0
M  V30 8381 H 776.524 1.24146 0.789069 0
M  V30 8382 H 778.482 1.50715 3.89026 0
M  V30 8383 H 777.112 0.624247 3.16706 0
M  V30 8384 H 776.164 2.92852 2.42779 0
M  V30 8385 H 777.476 3.69628 3.34927 0
M  V30 8386 H 776.63 2.64773 5.45875 0
M  V30 8387 H 775.369 1.77547 4.54234 0
M  V30 8388 H 774.374 3.96164 3.81227 0
M  V30 8389 H 775.599 4.84124 4.76236 0
M  V30 8390 H 773.545 2.89825 5.88504 0
M  V30 8391 H 773.462 4.62686 5.97877 0
M  V30 8392 H 774.73 3.78227 6.8159 0
M  V30 8393 N 778.959 -0.83999 1.33349 0
M  V30 8394 C 780.187 -1.62728 1.27778 0
M  V30 8395 C 780.602 -1.88191 -0.151505 0
M  V30 8396 O 779.959 -1.46128 -1.09329 0
M  V30 8397 C 780.01 -2.97813 2.04913 0
M  V30 8398 O 779.731 -2.73469 3.42266 0
M  V30 8399 C 781.232 -3.92245 2.0654 0
M  V30 8400 H 778.452 -0.506374 0.440257 0
M  V30 8401 H 780.996 -1.04637 1.75703 0
M  V30 8402 H 779.151 -3.52509 1.60674 0
M  V30 8403 H 779.565 -3.59483 3.81932 0
M  V30 8404 H 781.039 -4.84249 2.64966 0
M  V30 8405 H 781.516 -4.26332 1.05537 0
M  V30 8406 H 782.122 -3.43487 2.50793 0
M  V30 8407 N 780.437 -1.16799 -1.0581 0
M  V30 8408 C 781.4 -0.881396 -2.11575 0
M  V30 8409 C 782.4 0.12574 -1.60308 0
M  V30 8410 O 783.59 -0.105716 -1.73879 0
M  V30 8411 C 780.722 -0.319037 -3.39404 0
M  V30 8412 H 781.915 -1.81907 -2.38432 0
M  V30 8413 H 779.468 -0.977597 -1.21954 0
M  V30 8414 H 780.203 0.626082 -3.18199 0
M  V30 8415 H 779.988 -1.04481 -3.77923 0
M  V30 8416 H 781.478 -0.13663 -4.17376 0
M  V30 8417 N 781.915 1.24427 -0.967243 0
M  V30 8418 C 783.331 1.44684 -0.6737 0
M  V30 8419 C 783.531 1.86429 0.764625 0
M  V30 8420 O 782.587 2.00211 1.53857 0
M  V30 8421 C 783.9 2.509 -1.6574 0
M  V30 8422 C 785.448 2.64728 -1.66998 0
M  V30 8423 C 785.923 3.7414 -2.64165 0
M  V30 8424 N 787.414 3.81567 -2.62604 0
M  V30 8425 C 788.149 4.6575 -3.34462 0
M  V30 8426 N 787.645 5.54124 -4.15835 0
M  V30 8427 N 789.438 4.59827 -3.23288 0
M  V30 8428 H 781.589 0.956276 -1.89655 0
M  V30 8429 H 783.852 0.48171 -0.816492 0
M  V30 8430 H 783.558 2.27113 -2.68538 0
M  V30 8431 H 783.432 3.4905 -1.42981 0
M  V30 8432 H 785.819 2.87872 -0.649121 0
M  V30 8433 H 785.9 1.66936 -1.93819 0
M  V30 8434 H 785.544 3.51745 -3.66384 0
M  V30 8435 H 785.474 4.71444 -2.34623 0
M  V30 8436 H 787.965 3.18403 -2.03539 0
M  V30 8437 H 788.278 6.15316 -4.67553 0
M  V30 8438 H 786.623 5.53791 -4.19929 0
M  V30 8439 H 789.814 3.898 -2.59179 0
M  V30 8440 H 789.987 5.25208 -3.79553 0
M  V30 8441 N 783.393 0.737304 1.3929 0
M  V30 8442 C 784.323 0.113988 2.33222 0
M  V30 8443 C 785.304 -0.721695 1.54031 0
M  V30 8444 O 786.489 -0.666206 1.82415 0
M  V30 8445 C 783.619 -0.792319 3.38141 0
M  V30 8446 C 782.573 -0.0606178 4.27957 0
M  V30 8447 C 781.899 -1.08409 5.23595 0
M  V30 8448 C 783.199 1.09817 5.10625 0
M  V30 8449 H 784.893 0.898611 2.85596 0
M  V30 8450 H 782.439 0.433571 1.37318 0
M  V30 8451 H 784.392 -1.23793 4.02807 0
M  V30 8452 H 783.116 -1.60908 2.84211 0
M  V30 8453 H 781.775 0.365393 3.64775 0
M  V30 8454 H 781.423 -1.89449 4.6596 0
M  V30 8455 H 781.123 -0.599269 5.84536 0
M  V30 8456 H 782.647 -1.52936 5.91137 0
M  V30 8457 H 784.061 0.730892 5.68622 0
M  V30 8458 H 782.458 1.51278 5.80719 0
M  V30 8459 H 783.528 1.91878 4.45321 0
M  V30 8460 N 784.871 -1.49948 0.485112 0
M  V30 8461 C 785.801 -2.31675 -0.291364 0
M  V30 8462 C 786.782 -1.39216 -0.977383 0
M  V30 8463 O 787.967 -1.68133 -0.971855 0
M  V30 8464 C 785.097 -3.19326 -1.36558 0
M  V30 8465 C 784.051 -4.2045 -0.800359 0
M  V30 8466 C 783.377 -4.96931 -1.97391 0
M  V30 8467 C 784.677 -5.21925 0.197867 0
M  V30 8468 H 786.371 -2.96839 0.390775 0
M  V30 8469 H 783.917 -1.42749 0.189375 0
M  V30 8470 H 785.87 -3.75304 -1.91638 0
M  V30 8471 H 784.594 -2.52074 -2.07668 0
M  V30 8472 H 783.253 -3.65594 -0.271428 0
M  V30 8473 H 782.901 -4.26141 -2.67232 0
M  V30 8474 H 782.601 -5.65344 -1.60187 0
M  V30 8475 H 784.125 -5.55749 -2.52935 0
M  V30 8476 H 785.539 -5.72691 -0.264239 0
M  V30 8477 H 783.936 -5.98138 0.484908 0
M  V30 8478 H 785.006 -4.71809 1.11912 0
M  V30 8479 N 786.349 -0.21828 -1.56081 0
M  V30 8480 C 787.765 0.137168 -1.59009 0
M  V30 8481 C 787.965 1.59215 -1.23503 0
M  V30 8482 O 787.021 2.33178 -0.968716 0
M  V30 8483 C 788.334 -0.186162 -3.00123 0
M  V30 8484 C 789.882 -0.128135 -3.12738 0
M  V30 8485 C 790.357 -0.425094 -4.56023 0
M  V30 8486 N 791.848 -0.374547 -4.61683 0
M  V30 8487 C 792.583 -0.57786 -5.70481 0
M  V30 8488 N 792.079 -0.842771 -6.87655 0
M  V30 8489 N 793.872 -0.510521 -5.59777 0
M  V30 8490 H 786.023 -1.16746 -1.77437 0
M  V30 8491 H 788.286 -0.467706 -0.824594 0
M  V30 8492 H 787.992 -1.19589 -3.30744 0
M  V30 8493 H 787.866 0.500388 -3.73866 0
M  V30 8494 H 790.253 0.872224 -2.81915 0
M  V30 8495 H 790.334 -0.848112 -2.41331 0
M  V30 8496 H 789.978 -1.42288 -4.87562 0
M  V30 8497 H 789.908 0.316038 -5.25651 0
M  V30 8498 H 792.399 -0.177356 -3.77484 0
M  V30 8499 H 792.712 -0.986095 -7.66483 0
M  V30 8500 H 791.057 -0.879929 -6.89407 0
M  V30 8501 H 794.248 -0.303813 -4.67113 0
M  V30 8502 H 794.421 -0.672378 -6.44502 0
M  V30 8503 N 787.827 1.57504 0.0551401 0
M  V30 8504 C 788.757 2.07864 1.06372 0
M  V30 8505 C 789.738 0.975565 1.39344 0
M  V30 8506 O 790.923 1.24929 1.48682 0
M  V30 8507 C 788.053 2.53643 2.3724 0
M  V30 8508 C 787.007 3.67978 2.18578 0
M  V30 8509 C 786.333 3.9987 3.54976 0
M  V30 8510 C 787.633 4.97405 1.59329 0
M  V30 8511 H 789.327 2.92379 0.644595 0
M  V30 8512 H 786.873 1.40654 0.308619 0
M  V30 8513 H 788.826 2.8749 3.08103 0
M  V30 8514 H 787.55 1.66177 2.81163 0
M  V30 8515 H 786.209 3.3444 1.50152 0
M  V30 8516 H 785.857 3.0951 3.965 0
M  V30 8517 H 785.557 4.76867 3.43324 0
M  V30 8518 H 787.081 4.36228 4.27244 0
M  V30 8519 H 788.495 5.29375 2.20078 0
M  V30 8520 H 786.892 5.78837 1.58327 0
M  V30 8521 H 787.962 4.81697 0.55638 0
M  V30 8522 N 789.305 -0.326896 1.54172 0
M  V30 8523 C 790.551 -1.06681 1.72473 0
M  V30 8524 C 790.884 -1.87779 0.49523 0
M  V30 8525 O 790.159 -1.87754 -0.507803 0
M  V30 8526 C 790.442 -1.99429 2.99834 0
M  V30 8527 C 790.295 -1.21682 4.33028 0
M  V30 8528 C 791.614 -2.99002 3.22933 0
M  V30 8529 H 788.733 -0.386438 0.627563 0
M  V30 8530 H 791.375 -0.343779 1.86864 0
M  V30 8531 H 789.525 -2.61081 2.87696 0
M  V30 8532 H 791.197 -0.625153 4.57044 0
M  V30 8533 H 789.44 -0.519045 4.30684 0
M  V30 8534 H 790.111 -1.89766 5.18356 0
M  V30 8535 H 792.587 -2.4747 3.34511 0
M  V30 8536 H 791.463 -3.61085 4.13412 0
M  V30 8537 H 791.724 -3.71281 2.40006 0
M  V30 8538 N 790.784 -1.46188 -0.588786 0
M  V30 8539 C 792.2 -1.31009 -0.911524 0
M  V30 8540 C 792.4 -0.277017 -1.99587 0
M  V30 8541 O 791.456 0.322532 -2.50432 0
M  V30 8542 C 792.769 -2.69459 -1.33463 0
M  V30 8543 C 794.317 -2.77502 -1.44782 0
M  V30 8544 C 794.792 -4.1652 -1.90461 0
M  V30 8545 N 796.283 -4.18907 -1.97665 0
M  V30 8546 C 797.018 -5.23359 -2.34271 0
M  V30 8547 N 796.514 -6.38143 -2.69714 0
M  V30 8548 N 798.307 -5.10723 -2.34774 0
M  V30 8549 H 790.458 -2.12016 0.127614 0
M  V30 8550 H 792.721 -0.947984 -0.00557599 0
M  V30 8551 H 792.427 -3.46336 -0.611929 0
M  V30 8552 H 792.301 -2.99165 -2.2974 0
M  V30 8553 H 794.688 -2.00917 -2.1614 0
M  V30 8554 H 794.769 -2.51488 -0.467724 0
M  V30 8555 H 794.413 -4.93597 -1.19684 0
M  V30 8556 H 794.343 -4.39937 -2.89418 0
M  V30 8557 H 796.834 -3.36084 -1.72789 0
M  V30 8558 H 797.147 -7.13624 -2.96582 0
M  V30 8559 H 795.492 -6.41514 -2.67366 0
M  V30 8560 H 798.683 -4.20088 -2.06503 0
M  V30 8561 H 798.856 -5.9224 -2.62975 0
M  V30 8562 N 792.262 0.832906 -1.33792 0
M  V30 8563 C 793.508 1.59089 -1.25772 0
M  V30 8564 C 793.841 1.93414 0.174601 0
M  V30 8565 O 793.116 1.59195 1.11746 0
M  V30 8566 C 793.399 2.89699 -2.13885 0
M  V30 8567 C 793.252 2.62017 -3.65605 0
M  V30 8568 C 794.571 3.91182 -2.01654 0
M  V30 8569 H 791.69 0.577232 -0.458227 0
M  V30 8570 H 794.332 0.960227 -1.6395 0
M  V30 8571 H 792.482 3.4352 -1.81456 0
M  V30 8572 H 794.154 2.14582 -4.08353 0
M  V30 8573 H 792.397 1.95621 -3.87189 0
M  V30 8574 H 793.068 3.55112 -4.2261 0
M  V30 8575 H 795.544 3.46684 -2.30107 0
M  V30 8576 H 794.42 4.80391 -2.65548 0
M  V30 8577 H 794.681 4.30861 -0.990536 0
M  V30 8578 N 793.74 1.17359 1.05189 0
M  V30 8579 C 794.703 0.892604 2.11105 0
M  V30 8580 C 795.703 -0.117236 1.60372 0
M  V30 8581 O 796.893 0.114936 1.7382 0
M  V30 8582 C 794.025 0.337032 3.3923 0
M  V30 8583 H 795.218 1.83169 2.37464 0
M  V30 8584 H 792.771 0.984051 1.21434 0
M  V30 8585 H 793.506 -0.609198 3.18527 0
M  V30 8586 H 793.291 1.06484 3.77364 0
M  V30 8587 H 794.781 0.158763 4.17298 0
M  V30 8588 N 795.218 -1.23913 0.973828 0
M  V30 8589 C 796.634 -1.44325 0.681363 0
M  V30 8590 C 796.834 -1.86832 -0.754728 0
M  V30 8591 O 795.89 -2.01024 -1.52793 0
M  V30 8592 C 797.203 -2.50017 1.67069 0
M  V30 8593 C 798.751 -2.63838 1.68399 0
M  V30 8594 C 799.226 -3.72734 2.66145 0
M  V30 8595 N 800.717 -3.80169 2.64624 0
M  V30 8596 C 801.452 -4.6397 3.36927 0
M  V30 8597 N 800.948 -5.51911 4.18767 0
M  V30 8598 N 802.741 -4.58106 3.25722 0
M  V30 8599 H 794.892 -0.946204 1.9016 0
M  V30 8600 H 797.155 -0.477374 0.819035 0
M  V30 8601 H 796.861 -2.25686 2.69738 0
M  V30 8602 H 796.735 -3.48287 1.4483 0
M  V30 8603 H 799.122 -2.87524 0.664379 0
M  V30 8604 H 799.203 -1.65906 1.94702 0
M  V30 8605 H 798.847 -3.49797 3.68245 0
M  V30 8606 H 798.777 -4.70193 2.3712 0
M  V30 8607 H 801.268 -3.17319 2.05224 0
M  V30 8608 H 801.581 -6.12828 4.70809 0
M  V30 8609 H 799.926 -5.51556 4.2286 0
M  V30 8610 H 803.117 -3.8842 2.61242 0
M  V30 8611 H 803.29 -5.23188 3.82333 0
M  V30 8612 N 796.696 -0.74468 -1.38897 0
M  V30 8613 C 797.643 -0.111064 -2.30533 0
M  V30 8614 C 798.613 0.719276 -1.49719 0
M  V30 8615 O 799.798 0.677244 -1.78376 0
M  V30 8616 C 796.938 0.78292 -3.36102 0
M  V30 8617 C 796.051 -0.0610817 -4.31957 0
M  V30 8618 C 795.186 0.835075 -5.24595 0
M  V30 8619 C 794.225 -0.0130974 -6.12099 0
M  V30 8620 N 793.362 0.839525 -6.97063 0
M  V30 8621 H 798.202 -0.898113 -2.84144 0
M  V30 8622 H 795.739 -0.454537 -1.39901 0
M  V30 8623 H 797.697 1.31578 -3.95908 0
M  V30 8624 H 796.327 1.53585 -2.83922 0
M  V30 8625 H 795.379 -0.711469 -3.73687 0
M  V30 8626 H 796.691 -0.716482 -4.93627 0
M  V30 8627 H 795.845 1.43542 -5.89475 0
M  V30 8628 H 794.584 1.52423 -4.63269 0
M  V30 8629 H 793.589 -0.626179 -5.46223 0
M  V30 8630 H 794.814 -0.699181 -6.75491 0
M  V30 8631 H 792.76 1.5138 -6.38295 0
M  V30 8632 H 792.677 0.240823 -7.55616 0
M  V30 8633 H 793.945 1.42513 -7.66362 0
M  V30 8634 N 798.174 1.49689 -0.493057 0
M  V30 8635 C 799.104 2.31826 0.279073 0
M  V30 8636 C 800.085 1.39733 0.969987 0
M  V30 8637 O 801.27 1.68646 0.962925 0
M  V30 8638 C 798.4 3.20046 1.34862 0
M  V30 8639 C 797.354 4.20869 0.77805 0
M  V30 8640 C 796.68 4.97971 1.94753 0
M  V30 8641 C 797.98 5.21813 -0.225543 0
M  V30 8642 H 799.674 2.96627 -0.406512 0
M  V30 8643 H 797.22 1.42647 -0.196943 0
M  V30 8644 H 799.173 3.76315 1.89645 0
M  V30 8645 H 797.897 2.53172 2.06328 0
M  V30 8646 H 796.556 3.65733 0.252036 0
M  V30 8647 H 796.204 4.27552 2.64969 0
M  V30 8648 H 795.904 5.66186 1.57187 0
M  V30 8649 H 797.428 5.57082 2.49984 0
M  V30 8650 H 798.842 5.72823 0.233864 0
M  V30 8651 H 797.239 5.97872 -0.516622 0
M  V30 8652 H 798.309 4.71209 -1.14412 0
M  V30 8653 N 799.652 0.226554 1.55963 0
M  V30 8654 C 800.929 -0.453058 1.90281 0
M  V30 8655 C 801.309 -1.77377 1.14458 0
M  V30 8656 O 800.657 -2.27067 0.255496 0
M  V30 8657 C 800.867 -0.641108 3.43061 0
M  V30 8658 C 802.215 -0.946265 4.13921 0
M  V30 8659 O 803.239 -0.727713 3.48687 0
M  V30 8660 O 802.098 -1.36131 5.29274 0
M  V30 8661 H 799.192 -0.240242 0.791336 0
M  V30 8662 H 801.738 0.26911 1.67553 0
M  V30 8663 H 800.51 0.290283 3.90222 0
M  V30 8664 H 800.133 -1.41458 3.71585 0
M  V30 8665 N 801.13 -1.57531 -0.0467866 0
M  V30 8666 C 802.546 -1.54451 -0.402107 0
M  V30 8667 C 802.746 -0.950275 -1.77685 0
M  V30 8668 O 801.802 -0.563602 -2.4613 0
M  V30 8669 C 803.115 -2.9899 -0.320212 0
M  V30 8670 C 804.663 -3.10452 -0.398588 0
M  V30 8671 C 805.138 -4.56689 -0.346335 0
M  V30 8672 N 806.629 -4.6142 -0.405666 0
M  V30 8673 C 807.364 -5.72087 -0.387845 0
M  V30 8674 N 806.86 -6.92045 -0.32336 0
M  V30 8675 N 808.653 -5.60404 -0.436263 0
M  V30 8676 H 800.804 -1.94515 0.853087 0
M  V30 8677 H 803.067 -0.891397 0.322669 0
M  V30 8678 H 802.773 -3.46124 0.623794 0
M  V30 8679 H 802.647 -3.60164 -1.1208 0
M  V30 8680 H 805.034 -2.63276 -1.33302 0
M  V30 8681 H 805.115 -2.52142 0.431026 0
M  V30 8682 H 804.759 -5.04527 0.584356 0
M  V30 8683 H 804.689 -5.12889 -1.19382 0
M  V30 8684 H 807.18 -3.75105 -0.458737 0
M  V30 8685 H 807.493 -7.7216 -0.314375 0
M  V30 8686 H 805.838 -6.94396 -0.28967 0
M  V30 8687 H 809.029 -4.65586 -0.48451 0
M  V30 8688 H 809.202 -6.46645 -0.418907 0
M  V30 8689 N 802.608 0.318715 -1.54344 0
M  V30 8690 C 803.838 1.07394 -1.76494 0
M  V30 8691 C 804.246 1.82031 -0.515881 0
M  V30 8692 O 803.589 1.7609 0.52325 0
M  V30 8693 C 803.651 2.11401 -2.90775 0
M  V30 8694 C 803.315 1.56118 -4.29507 0
M  V30 8695 C 804.312 1.00043 -5.10184 0
M  V30 8696 C 801.997 1.60215 -4.76063 0
M  V30 8697 C 803.991 0.487993 -6.35529 0
M  V30 8698 C 801.678 1.08584 -6.01376 0
M  V30 8699 C 802.676 0.529714 -6.80943 0
M  V30 8700 O 802.364 0.0211823 -8.03897 0
M  V30 8701 H 802.096 0.325061 -0.592715 0
M  V30 8702 H 804.65 0.36901 -2.02058 0
M  V30 8703 H 802.88 2.85524 -2.60793 0
M  V30 8704 H 804.569 2.72683 -3.00664 0
M  V30 8705 H 805.335 0.961811 -4.75367 0
M  V30 8706 H 801.214 2.02441 -4.14172 0
M  V30 8707 H 804.758 0.0532608 -6.9758 0
M  V30 8708 H 800.655 1.12155 -6.35682 0
M  V30 8709 H 801.423 0.136151 -8.18387 0
M  V30 8710 N 804.086 1.46499 0.581025 0
M  V30 8711 C 805.311 1.55708 1.37002 0
M  V30 8712 C 805.736 0.19942 1.8704 0
M  V30 8713 O 805.094 -0.820731 1.61659 0
M  V30 8714 C 805.142 2.56716 2.53238 0
M  V30 8715 O 804.246 2.10336 3.54729 0
M  V30 8716 H 803.587 0.523912 0.407937 0
M  V30 8717 H 806.117 1.92085 0.704602 0
M  V30 8718 H 806.127 2.76378 3.00132 0
M  V30 8719 H 804.802 3.55307 2.16171 0
M  V30 8720 H 803.379 2.00669 3.14303 0
M  V30 8721 N 805.565 -0.825799 1.34232 0
M  V30 8722 C 806.475 -1.9684 1.27638 0
M  V30 8723 C 807.491 -1.73018 0.184569 0
M  V30 8724 O 808.667 -1.97172 0.410525 0
M  V30 8725 C 805.732 -3.31084 1.02879 0
M  V30 8726 C 804.793 -3.67933 2.21188 0
M  V30 8727 C 804.026 -4.95772 1.976 0
M  V30 8728 O 804.249 -5.62721 0.93281 0
M  V30 8729 O 803.183 -5.30431 2.84477 0
M  V30 8730 H 807.009 -2.05346 2.23756 0
M  V30 8731 H 804.594 -0.960772 1.1441 0
M  V30 8732 H 806.476 -4.11492 0.908406 0
M  V30 8733 H 805.151 -3.23552 0.0979821 0
M  V30 8734 H 804.058 -2.87981 2.38784 0
M  V30 8735 H 805.391 -3.80147 3.12648 0
M  V30 8736 N 807.043 -1.17915 -1.04565 0
M  V30 8737 C 808.273 -0.994716 -1.81077 0
M  V30 8738 C 808.681 0.460146 -1.83519 0
M  V30 8739 O 808.024 1.33136 -1.26572 0
M  V30 8740 C 808.086 -1.46698 -3.28207 0
M  V30 8741 C 807.75 -2.94523 -3.49436 0
M  V30 8742 C 808.747 -3.92414 -3.41038 0
M  V30 8743 C 806.432 -3.32841 -3.76194 0
M  V30 8744 C 808.426 -5.2662 -3.59096 0
M  V30 8745 C 806.113 -4.67212 -3.93899 0
M  V30 8746 C 807.111 -5.6391 -3.8535 0
M  V30 8747 O 806.799 -6.95849 -4.02554 0
M  V30 8748 H 806.531 -0.351797 -0.577248 0
M  V30 8749 H 809.085 -1.56772 -1.32709 0
M  V30 8750 H 807.315 -0.837592 -3.7752 0
M  V30 8751 H 809.004 -1.24724 -3.86263 0
M  V30 8752 H 809.77 -3.64157 -3.20336 0
M  V30 8753 H 805.649 -2.58139 -3.81949 0
M  V30 8754 H 809.193 -6.02082 -3.52339 0
M  V30 8755 H 805.09 -4.95172 -4.14095 0
M  V30 8756 H 805.858 -7.02679 -4.19743 0
M  V30 8757 N 808.521 1.23394 -0.980386 0
M  V30 8758 C 809.769 1.91431 -0.647978 0
M  V30 8759 C 810.09 1.76871 0.821066 0
M  V30 8760 O 809.36 1.14808 1.58732 0
M  V30 8761 H 807.94 0.708516 -0.236673 0
M  V30 8762 H 810.602 1.50019 -1.2442 0
M  V30 8763 H 809.698 2.98854 -0.899592 0
M  V30 8764 N 809.999 0.752036 1.385 0
M  V30 8765 C 810.962 0.131587 2.28822 0
M  V30 8766 C 811.962 -0.649149 1.47115 0
M  V30 8767 O 813.152 -0.475645 1.67581 0
M  V30 8768 C 810.284 -0.822101 3.30839 0
M  V30 8769 H 811.477 0.927551 2.85196 0
M  V30 8770 H 809.03 0.518945 1.47434 0
M  V30 8771 H 809.765 -1.6438 2.79553 0
M  V30 8772 H 809.55 -0.264689 3.91206 0
M  V30 8773 H 811.04 -1.25226 3.98382 0
M  V30 8774 N 811.477 -1.49425 0.500989 0
M  V30 8775 C 812.44 -2.27646 -0.266416 0
M  V30 8776 C 813.44 -1.3366 -0.893961 0
M  V30 8777 O 814.63 -1.5682 -0.758495 0
M  V30 8778 C 811.762 -3.11618 -1.38227 0
M  V30 8779 H 812.955 -2.96945 0.419973 0
M  V30 8780 H 810.508 -1.5419 0.255954 0
M  V30 8781 H 811.243 -2.46885 -2.10281 0
M  V30 8782 H 811.028 -3.80721 -0.937746 0
M  V30 8783 H 812.518 -3.70698 -1.92283 0
M  V30 8784 N 812.955 -0.234822 -1.55841 0
M  V30 8785 C 814.201 0.393843 -1.98939 0
M  V30 8786 C 814.534 1.58466 -1.1226 0
M  V30 8787 O 813.809 1.93635 -0.183242 0
M  V30 8788 C 814.092 0.815492 -3.50745 0
M  V30 8789 C 813.945 -0.379878 -4.48193 0
M  V30 8790 C 815.264 1.66687 -4.07312 0
M  V30 8791 H 812.383 0.141681 -0.723253 0
M  V30 8792 H 815.025 -0.333716 -1.87046 0
M  V30 8793 H 813.175 1.43541 -3.6101 0
M  V30 8794 H 814.847 -1.0182 -4.49923 0
M  V30 8795 H 813.09 -1.02507 -4.21515 0
M  V30 8796 H 813.761 -0.0417069 -5.51984 0
M  V30 8797 H 816.237 1.14369 -4.00074 0
M  V30 8798 H 815.113 1.93078 -5.13821 0
M  V30 8799 H 815.374 2.63468 -3.55017 0
M  V30 8800 N 814.433 1.57553 0.0384317 0
M  V30 8801 C 815.363 2.0898 1.04161 0
M  V30 8802 C 816.344 0.99029 1.38301 0
M  V30 8803 O 817.529 1.26499 1.47349 0
M  V30 8804 C 814.659 2.56145 2.34536 0
M  V30 8805 C 813.613 3.70275 2.14663 0
M  V30 8806 C 812.939 4.03612 3.50715 0
M  V30 8807 C 814.239 4.99067 1.54045 0
M  V30 8808 H 815.933 2.93046 0.613548 0
M  V30 8809 H 813.479 1.40973 0.293684 0
M  V30 8810 H 815.432 2.90741 3.05037 0
M  V30 8811 H 814.156 1.6915 2.79385 0
M  V30 8812 H 812.815 3.36013 1.46597 0
M  V30 8813 H 812.463 3.13698 3.93195 0
M  V30 8814 H 812.163 4.80482 3.38247 0
M  V30 8815 H 813.687 4.40735 4.22593 0
M  V30 8816 H 815.101 5.3168 2.14451 0
M  V30 8817 H 813.498 5.80484 1.52178 0
M  V30 8818 H 814.568 4.8226 0.505259 0
M  V30 8819 N 815.911 -0.310526 1.54511 0
M  V30 8820 C 816.844 -1.40693 1.79668 0
M  V30 8821 C 817.822 -1.49159 0.64734 0
M  V30 8822 O 819.006 -1.66367 0.886239 0
M  V30 8823 C 816.133 -2.78685 1.92491 0
M  V30 8824 C 815.179 -2.87688 3.14861 0
M  V30 8825 S 816.012 -2.50759 4.7316 0
M  V30 8826 C 817.168 -3.90797 4.88906 0
M  V30 8827 H 817.401 -1.19142 2.72383 0
M  V30 8828 H 814.934 -0.508103 1.458 0
M  V30 8829 H 816.892 -3.58168 2.00563 0
M  V30 8830 H 815.553 -2.9751 1.00731 0
M  V30 8831 H 814.746 -3.8888 3.20607 0
M  V30 8832 H 814.348 -2.16189 3.05186 0
M  V30 8833 H 816.64 -4.85693 4.72344 0
M  V30 8834 H 817.583 -3.90027 5.91003 0
M  V30 8835 H 817.991 -3.80357 4.1712 0
M  V30 8836 N 817.389 -1.46805 -0.573248 0
M  V30 8837 C 818.319 -1.60951 -1.69165 0
M  V30 8838 C 819.3 -0.45948 -1.63777 0
M  V30 8839 O 820.485 -0.68688 -1.81647 0
M  V30 8840 C 817.615 -1.60844 -3.07809 0
M  V30 8841 C 816.569 -2.74913 -3.28035 0
M  V30 8842 C 815.895 -2.59871 -4.67302 0
M  V30 8843 C 817.195 -4.16654 -3.14955 0
M  V30 8844 H 818.889 -2.54574 -1.57582 0
M  V30 8845 H 816.435 -1.22516 -0.756686 0
M  V30 8846 H 818.388 -1.69334 -3.85881 0
M  V30 8847 H 817.112 -0.637714 -3.20314 0
M  V30 8848 H 815.771 -2.65908 -2.52366 0
M  V30 8849 H 815.419 -1.60861 -4.76585 0
M  V30 8850 H 815.119 -3.36386 -4.81786 0
M  V30 8851 H 816.643 -2.70265 -5.4753 0
M  V30 8852 H 818.057 -4.26721 -3.82861 0
M  V30 8853 H 816.454 -4.93831 -3.40956 0
M  V30 8854 H 817.524 -4.36146 -2.11908 0
M  V30 8855 N 818.867 0.818669 -1.34668 0
M  V30 8856 C 819.797 1.94468 -1.29245 0
M  V30 8857 C 820.778 1.69257 -0.169101 0
M  V30 8858 O 821.963 1.90794 -0.362143 0
M  V30 8859 C 819.093 3.31001 -1.05145 0
M  V30 8860 C 818.047 3.70663 -2.13992 0
M  V30 8861 C 817.373 5.05226 -1.75074 0
M  V30 8862 C 818.673 3.82312 -3.55858 0
M  V30 8863 H 820.367 1.99263 -2.2346 0
M  V30 8864 H 817.913 0.957304 -1.07572 0
M  V30 8865 H 819.866 4.09364 -0.999949 0
M  V30 8866 H 818.59 3.26517 -0.0737312 0
M  V30 8867 H 817.249 2.94578 -2.18219 0
M  V30 8868 H 816.897 4.97233 -0.759518 0
M  V30 8869 H 816.597 5.32734 -2.47928 0
M  V30 8870 H 818.121 5.86042 -1.71427 0
M  V30 8871 H 819.535 4.50935 -3.5402 0
M  V30 8872 H 817.932 4.21278 -4.2737 0
M  V30 8873 H 819.002 2.84193 -3.9289 0
M  V30 8874 N 820.346 1.18468 1.03938 0
M  V30 8875 C 821.279 0.856251 2.11527 0
M  V30 8876 C 822.257 -0.182323 1.61575 0
M  V30 8877 O 823.441 -0.061 1.88401 0
M  V30 8878 C 820.568 0.279562 3.37544 0
M  V30 8879 C 819.614 1.29552 4.06348 0
M  V30 8880 S 820.447 2.85191 4.5324 0
M  V30 8881 C 821.603 2.29037 5.82489 0
M  V30 8882 H 821.836 1.76742 2.39059 0
M  V30 8883 H 819.369 1.01068 1.16725 0
M  V30 8884 H 821.327 -0.0466579 4.10473 0
M  V30 8885 H 819.988 -0.60975 3.08125 0
M  V30 8886 H 819.181 0.840922 4.96935 0
M  V30 8887 H 818.783 1.56804 3.39541 0
M  V30 8888 H 821.075 1.67376 6.565 0
M  V30 8889 H 822.018 3.17929 6.32714 0
M  V30 8890 H 822.426 1.72009 5.37655 0
M  V30 8891 N 821.824 -1.22873 0.986916 0
M  V30 8892 C 823.064 -1.93192 0.667543 0
M  V30 8893 C 823.428 -1.7521 -0.785196 0
M  V30 8894 O 824.629 -2.39737 -1.2157 0
M  V30 8895 C 822.9 -3.4147 1.05513 0
M  V30 8896 S 824.459 -4.30425 0.853218 0
M  V30 8897 H 821.277 -0.667726 0.244261 0
M  V30 8898 H 823.879 -1.48808 1.26793 0
M  V30 8899 H 822.583 -3.52069 2.10892 0
M  V30 8900 H 822.114 -3.9086 0.446293 0
M  V30 8901 H 824.129 -4.95521 -0.259444 0
M  V30 8902 N 823.302 -0.75937 -1.38099 0
M  V30 8903 C 824.551 -0.314864 -1.99227 0
M  V30 8904 C 824.864 1.1113 -1.60964 0
M  V30 8905 O 826.07 1.65657 -2.15105 0
M  V30 8906 C 824.526 -0.512001 -3.56239 0
M  V30 8907 C 824.134 -1.94762 -4.0345 0
M  V30 8908 C 825.878 -0.130497 -4.24299 0
M  V30 8909 C 823.785 -2.09301 -5.53125 0
M  V30 8910 H 822.715 -0.113978 -0.745335 0
M  V30 8911 H 825.366 -0.936736 -1.57789 0
M  V30 8912 H 823.748 0.179144 -3.95595 0
M  V30 8913 H 824.922 -2.67271 -3.75371 0
M  V30 8914 H 823.237 -2.28457 -3.48133 0
M  V30 8915 H 825.834 -0.21781 -5.34256 0
M  V30 8916 H 826.177 0.917644 -4.0606 0
M  V30 8917 H 826.71 -0.773716 -3.90203 0
M  V30 8918 H 823.449 -3.1239 -5.76275 0
M  V30 8919 H 822.969 -1.41261 -5.82928 0
M  V30 8920 H 824.648 -1.88571 -6.1891 0
M  V30 8921 N 824.78 1.49157 -0.508906 0
M  V30 8922 C 826.027 2.02473 0.0327983 0
M  V30 8923 C 826.355 1.38792 1.36261 0
M  V30 8924 O 825.61 0.515576 1.88786 0
M  V30 8925 C 825.909 3.56687 0.225717 0
M  V30 8926 C 825.575 4.39046 -1.02708 0
M  V30 8927 C 824.237 4.61271 -1.37048 0
M  V30 8928 C 826.589 4.86902 -1.85946 0
M  V30 8929 C 823.917 5.28598 -2.54562 0
M  V30 8930 C 826.269 5.55521 -3.0262 0
M  V30 8931 C 824.933 5.7599 -3.3733 0
M  V30 8932 H 824.203 0.740903 0.0120017 0
M  V30 8933 H 826.85 1.79372 -0.670665 0
M  V30 8934 H 825.155 3.78511 1.01177 0
M  V30 8935 H 826.852 3.95541 0.659433 0
M  V30 8936 H 823.442 4.21994 -0.749615 0
M  V30 8937 H 827.626 4.69553 -1.6073 0
M  V30 8938 H 822.882 5.42646 -2.81682 0
M  V30 8939 H 827.056 5.91576 -3.67438 0
M  V30 8940 H 824.683 6.27934 -4.2849 0
M  V30 8941 N 826.258 0.243083 1.55714 0
M  V30 8942 C 827.221 -0.644723 2.19945 0
M  V30 8943 C 828.221 -1.10562 1.16759 0
M  V30 8944 O 829.411 -1.01095 1.41865 0
M  V30 8945 C 826.543 -1.88569 2.83997 0
M  V30 8946 H 827.736 -0.0843839 2.99781 0
M  V30 8947 H 825.289 -0.00647246 1.56299 0
M  V30 8948 H 826.024 -2.48736 2.08089 0
M  V30 8949 H 825.809 -1.56345 3.59581 0
M  V30 8950 H 827.299 -2.51774 3.33166 0
M  V30 8951 N 827.736 -1.57571 -0.0300757 0
M  V30 8952 C 828.666 -2.0953 -1.03051 0
M  V30 8953 C 829.647 -0.99761 -1.37774 0
M  V30 8954 O 830.832 -1.27279 -1.46676 0
M  V30 8955 C 827.962 -2.57385 -2.33174 0
M  V30 8956 C 826.916 -3.71409 -2.12696 0
M  V30 8957 C 826.242 -4.05467 -3.4857 0
M  V30 8958 C 827.542 -4.99877 -1.51396 0
M  V30 8959 H 829.236 -2.93367 -0.597999 0
M  V30 8960 H 826.782 -1.41127 -0.286203 0
M  V30 8961 H 828.735 -2.92355 -3.03491 0
M  V30 8962 H 827.459 -1.70629 -2.78484 0
M  V30 8963 H 826.118 -3.36786 -1.44813 0
M  V30 8964 H 825.766 -3.15779 -3.91526 0
M  V30 8965 H 825.466 -4.82269 -3.35694 0
M  V30 8966 H 826.99 -4.4297 -4.2025 0
M  V30 8967 H 828.404 -5.3281 -2.11629 0
M  V30 8968 H 826.801 -5.81283 -1.49098 0
M  V30 8969 H 827.871 -4.82522 -0.479676 0
M  V30 8970 N 829.214 0.302327 -1.54673 0
M  V30 8971 C 830.463 1.03533 -1.73101 0
M  V30 8972 C 830.776 1.88473 -0.523174 0
M  V30 8973 O 831.982 2.65029 -0.589229 0
M  V30 8974 C 830.438 1.89043 -3.06252 0
M  V30 8975 C 830.046 1.09112 -4.3451 0
M  V30 8976 C 831.79 2.61951 -3.34039 0
M  V30 8977 C 829.697 1.93891 -5.58713 0
M  V30 8978 H 828.627 0.390261 -0.645145 0
M  V30 8979 H 831.278 0.2924 -1.81155 0
M  V30 8980 H 829.66 2.67319 -2.92159 0
M  V30 8981 H 830.834 0.354596 -4.59434 0
M  V30 8982 H 829.149 0.477923 -4.13648 0
M  V30 8983 H 831.746 3.25729 -4.24033 0
M  V30 8984 H 832.089 3.30711 -2.52855 0
M  V30 8985 H 832.622 1.90725 -3.49097 0
M  V30 8986 H 829.361 1.29604 -6.4256 0
M  V30 8987 H 828.881 2.6522 -5.37976 0
M  V30 8988 H 830.56 2.51971 -5.95919 0
M  V30 8989 N 830.692 1.47107 0.565454 0
M  V30 8990 C 831.655 1.58535 1.65527 0
M  V30 8991 C 832.655 0.461081 1.54048 0
M  V30 8992 O 833.845 0.725911 1.58355 0
M  V30 8993 C 830.977 1.52204 3.05036 0
M  V30 8994 H 832.17 2.55676 1.56747 0
M  V30 8995 H 829.723 1.35174 0.78471 0
M  V30 8996 H 830.458 0.564071 3.19357 0
M  V30 8997 H 830.243 2.3379 3.14777 0
M  V30 8998 H 831.733 1.63322 3.84338 0
M  V30 8999 N 832.17 -0.811516 1.35101 0
M  V30 9000 C 833.12 -1.91227 1.24163 0
M  V30 9001 C 834.104 -1.60307 0.138012 0
M  V30 9002 O 835.296 -1.73116 0.368767 0
M  V30 9003 C 832.425 -3.2808 1.01085 0
M  V30 9004 C 831.511 -3.65082 2.15815 0
M  V30 9005 N 831.902 -3.73558 3.4101 0
M  V30 9006 C 830.2 -3.95005 2.07092 0
M  V30 9007 C 830.901 -4.06158 4.16426 0
M  V30 9008 N 829.877 -4.19982 3.45132 0
M  V30 9009 H 833.679 -1.95975 2.19023 0
M  V30 9010 H 831.193 -1.00583 1.27503 0
M  V30 9011 H 833.19 -4.06771 0.913382 0
M  V30 9012 H 831.85 -3.24622 0.0710406 0
M  V30 9013 H 832.861 -3.56761 3.75423 0
M  V30 9014 H 829.538 -3.99601 1.20937 0
M  V30 9015 H 830.928 -4.19824 5.24592 0
M  V30 9016 N 833.648 -1.19017 -1.03309 0
M  V30 9017 C 834.894 -1.0017 -1.77024 0
M  V30 9018 C 835.249 0.463062 -1.86744 0
M  V30 9019 O 834.542 1.33937 -1.37009 0
M  V30 9020 C 834.736 -1.59927 -3.19622 0
M  V30 9021 C 834.565 -3.12062 -3.23802 0
M  V30 9022 C 833.335 -3.80932 -3.31992 0
M  V30 9023 C 835.533 -4.0947 -3.1119 0
M  V30 9024 N 833.515 -5.20502 -3.25502 0
M  V30 9025 C 834.886 -5.3561 -3.12285 0
M  V30 9026 C 836.941 -4.00887 -2.95287 0
M  V30 9027 C 835.644 -6.54161 -2.99109 0
M  V30 9028 C 837.67 -5.19042 -2.83459 0
M  V30 9029 C 837.032 -6.44079 -2.85205 0
M  V30 9030 H 833.131 -0.420633 -0.659236 0
M  V30 9031 H 835.715 -1.5092 -1.23009 0
M  V30 9032 H 833.886 -1.11785 -3.71966 0
M  V30 9033 H 835.618 -1.34557 -3.81676 0
M  V30 9034 H 832.373 -3.31702 -3.38039 0
M  V30 9035 H 832.797 -5.93519 -3.25675 0
M  V30 9036 H 837.439 -3.05042 -2.92762 0
M  V30 9037 H 835.157 -7.50196 -3.00386 0
M  V30 9038 H 838.743 -5.14199 -2.72197 0
M  V30 9039 H 837.623 -7.33969 -2.7615 0
M  V30 9040 N 835.127 1.22348 -0.993418 0
M  V30 9041 C 836.057 2.26584 -0.564088 0
M  V30 9042 C 837.038 1.65102 0.409298 0
M  V30 9043 O 838.223 1.91872 0.299819 0
M  V30 9044 C 835.353 3.47087 0.121554 0
M  V30 9045 C 834.307 4.21009 -0.770429 0
M  V30 9046 C 833.633 5.34678 0.0481586 0
M  V30 9047 C 834.933 4.79636 -2.06752 0
M  V30 9048 H 836.627 2.62749 -1.43538 0
M  V30 9049 H 834.173 1.26303 -0.691628 0
M  V30 9050 H 836.126 4.19166 0.433303 0
M  V30 9051 H 834.85 3.1002 1.0274 0
M  V30 9052 H 833.509 3.50764 -1.06583 0
M  V30 9053 H 833.157 4.93852 0.954933 0
M  V30 9054 H 832.857 5.85061 -0.545641 0
M  V30 9055 H 834.381 6.09573 0.353991 0
M  V30 9056 H 835.795 5.43654 -1.81969 0
M  V30 9057 H 834.192 5.4036 -2.61019 0
M  V30 9058 H 835.262 3.99659 -2.74592 0
M  V30 9059 N 836.605 0.766683 1.37694 0
M  V30 9060 C 837.568 0.155849 2.2867 0
M  V30 9061 C 838.568 -0.633509 1.47795 0
M  V30 9062 O 839.758 -0.457844 1.68076 0
M  V30 9063 C 836.89 -0.786965 3.31692 0
M  V30 9064 H 838.083 0.957748 2.84196 0
M  V30 9065 H 835.636 0.534554 1.46875 0
M  V30 9066 H 836.371 -1.61406 2.8128 0
M  V30 9067 H 836.156 -0.223182 3.91464 0
M  V30 9068 H 837.646 -1.20994 3.99688 0
M  V30 9069 N 838.083 -1.48885 0.516809 0
M  V30 9070 C 839.323 -2.0439 -0.0202232 0
M  V30 9071 C 839.687 -1.38652 -1.32814 0
M  V30 9072 O 840.888 -1.84968 -1.95039 0
M  V30 9073 C 839.159 -3.57071 -0.153257 0
M  V30 9074 S 840.718 -4.34074 -0.642256 0
M  V30 9075 H 837.536 -0.710977 0.00576322 0
M  V30 9076 H 840.138 -1.82753 0.694376 0
M  V30 9077 H 838.842 -4.02454 0.803695 0
M  V30 9078 H 838.373 -3.83139 -0.892627 0
M  V30 9079 H 840.388 -4.58011 -1.90893 0
M  V30 9080 N 839.561 -0.251338 -1.55583 0
M  V30 9081 C 840.81 0.372681 -1.98227 0
M  V30 9082 C 841.123 1.58743 -1.1428 0
M  V30 9083 O 842.329 2.28289 -1.46957 0
M  V30 9084 C 840.785 0.714439 -3.52738 0
M  V30 9085 C 840.393 -0.479168 -4.4543 0
M  V30 9086 C 842.137 1.3024 -4.04027 0
M  V30 9087 C 840.044 -0.113318 -5.91291 0
M  V30 9088 H 838.974 0.14302 -0.740312 0
M  V30 9089 H 841.625 -0.352253 -1.80087 0
M  V30 9090 H 840.007 1.49762 -3.66589 0
M  V30 9091 H 841.181 -1.25644 -4.4334 0
M  V30 9092 H 839.496 -0.982359 -4.04646 0
M  V30 9093 H 842.093 1.58953 -5.10527 0
M  V30 9094 H 842.436 2.22837 -3.51638 0
M  V30 9095 H 842.969 0.582024 -3.93519 0
M  V30 9096 H 839.708 -1.00654 -6.47726 0
M  V30 9097 H 839.228 0.627666 -5.96507 0
M  V30 9098 H 840.907 0.30293 -6.4629 0
M  V30 9099 N 841.039 1.57585 0.0217189 0
M  V30 9100 C 842.285 1.90733 0.706582 0
M  V30 9101 C 842.64 0.850732 1.7257 0
M  V30 9102 O 841.933 -0.139715 1.9109 0
M  V30 9103 C 842.127 3.28377 1.41079 0
M  V30 9104 C 841.956 4.47327 0.461395 0
M  V30 9105 C 840.726 5.05237 0.0797404 0
M  V30 9106 C 842.924 5.13626 -0.263302 0
M  V30 9107 N 840.906 6.07702 -0.870139 0
M  V30 9108 C 842.277 6.10722 -1.06859 0
M  V30 9109 C 844.332 4.96809 -0.329461 0
M  V30 9110 C 843.035 6.92813 -1.93397 0
M  V30 9111 C 845.061 5.79468 -1.18199 0
M  V30 9112 C 844.423 6.7614 -1.97519 0
M  V30 9113 H 840.522 0.74666 0.232427 0
M  V30 9114 H 843.106 1.94671 -0.0335228 0
M  V30 9115 H 841.277 3.25354 2.12131 0
M  V30 9116 H 843.009 3.49018 2.04862 0
M  V30 9117 H 839.764 4.71519 0.443498 0
M  V30 9118 H 840.188 6.6361 -1.33981 0
M  V30 9119 H 844.83 4.2194 0.269485 0
M  V30 9120 H 842.548 7.67022 -2.54369 0
M  V30 9121 H 846.134 5.68502 -1.23681 0
M  V30 9122 H 845.014 7.38989 -2.62421 0
M  V30 9123 N 842.517 -0.29412 1.54831 0
M  V30 9124 C 843.747 -1.04572 1.7818 0
M  V30 9125 C 844.155 -1.81187 0.544776 0
M  V30 9126 O 843.498 -1.769 -0.495169 0
M  V30 9127 C 843.56 -2.06748 2.94101 0
M  V30 9128 C 843.224 -1.49265 4.31936 0
M  V30 9129 C 844.221 -0.919136 5.11711 0
M  V30 9130 C 841.906 -1.52621 4.78552 0
M  V30 9131 C 843.9 -0.386824 6.36225 0
M  V30 9132 C 841.587 -0.990031 6.03027 0
M  V30 9133 C 842.585 -0.421315 6.81699 0
M  V30 9134 O 842.273 0.106713 8.03829 0
M  V30 9135 H 842.005 -0.31559 0.597812 0
M  V30 9136 H 844.559 -0.336817 2.0262 0
M  V30 9137 H 842.789 -2.81339 2.65303 0
M  V30 9138 H 844.478 -2.67865 3.04964 0
M  V30 9139 H 845.244 -0.886062 4.76837 0
M  V30 9140 H 841.123 -1.95826 4.17341 0
M  V30 9141 H 844.667 0.0577248 6.97576 0
M  V30 9142 H 840.564 -1.02027 6.37386 0
M  V30 9143 H 841.332 -0.00593526 8.185 0
M  V30 9144 N 843.995 -1.47404 -0.557645 0
M  V30 9145 C 844.958 -1.59411 -1.64684 0
M  V30 9146 C 845.958 -0.469244 -1.53801 0
M  V30 9147 O 847.148 -0.734298 -1.57967 0
M  V30 9148 C 844.28 -1.5382 -3.04224 0
M  V30 9149 H 845.473 -2.56504 -1.55389 0
M  V30 9150 H 843.026 -1.35588 -0.777531 0
M  V30 9151 H 843.761 -0.581 -3.19053 0
M  V30 9152 H 843.546 -2.35456 -3.13533 0
M  V30 9153 H 845.036 -1.65358 -3.83466 0
M  V30 9154 N 845.473 0.80434 -1.35529 0
M  V30 9155 C 846.722 1.55665 -1.28263 0
M  V30 9156 C 847.035 1.95096 0.140352 0
M  V30 9157 O 848.241 2.69422 0.335303 0
M  V30 9158 C 846.697 2.80935 -2.24952 0
M  V30 9159 C 846.305 2.48733 -3.72607 0
M  V30 9160 C 848.049 3.5894 -2.26632 0
M  V30 9161 C 845.956 3.70308 -4.61114 0
M  V30 9162 H 844.886 0.584301 -0.476559 0
M  V30 9163 H 847.537 0.88395 -1.60806 0
M  V30 9164 H 845.919 3.49927 -1.85383 0
M  V30 9165 H 847.093 1.87733 -4.20824 0
M  V30 9166 H 845.408 1.83969 -3.73557 0
M  V30 9167 H 848.005 4.49244 -2.89973 0
M  V30 9168 H 848.348 3.96433 -1.27069 0
M  V30 9169 H 848.881 2.96912 -2.64742 0
M  V30 9170 H 845.62 3.37922 -5.61684 0
M  V30 9171 H 845.14 4.30526 -4.17621 0
M  V30 9172 H 846.819 4.37511 -4.76648 0
M  V30 9173 N 846.951 1.19563 1.02676 0
M  V30 9174 C 848.199 0.997593 1.75763 0
M  V30 9175 C 848.52 -0.47253 1.89188 0
M  V30 9176 O 847.79 -1.34214 1.42701 0
M  V30 9177 H 846.37 0.366128 0.651122 0
M  V30 9178 H 849.032 1.50495 1.23844 0
M  V30 9179 H 848.128 1.44741 2.76508 0
M  V30 9180 N 848.429 -1.21819 0.999893 0
M  V30 9181 C 849.377 -2.26027 0.549047 0
M  V30 9182 C 850.371 -1.64516 -0.403826 0
M  V30 9183 O 851.577 -1.77878 -0.275578 0
M  V30 9184 H 847.952 -0.734958 0.159185 0
M  V30 9185 H 849.923 -2.61398 1.43923 0
M  V30 9186 C 848.672 -3.47514 -0.11369 0
M  V30 9187 H 847.995 -3.95112 0.610482 0
M  V30 9188 H 849.435 -4.22179 -0.3925 0
M  V30 9189 C 847.894 -3.08614 -1.35126 0
M  V30 9190 O 848.424 -3.1864 -2.44605 0
M  V30 9191 N 846.63 -2.63327 -1.22911 0
M  V30 9192 H 846.177 -2.55369 -0.338288 0
M  V30 9193 H 846.135 -2.37668 -2.05818 0
M  V30 9194 N 849.908 -0.773975 -1.37286 0
M  V30 9195 C 851.154 -0.339809 -1.99933 0
M  V30 9196 C 851.487 1.0815 -1.61299 0
M  V30 9197 O 850.762 1.74442 -0.860252 0
M  V30 9198 C 851.045 -0.485919 -3.56806 0
M  V30 9199 C 850.898 -1.9498 -4.05343 0
M  V30 9200 C 852.217 0.108461 -4.39966 0
M  V30 9201 H 849.336 -0.124944 -0.726332 0
M  V30 9202 H 851.978 -0.977433 -1.6293 0
M  V30 9203 H 850.128 0.0569023 -3.88458 0
M  V30 9204 H 851.8 -2.5525 -3.84246 0
M  V30 9205 H 850.043 -2.45784 -3.57453 0
M  V30 9206 H 850.714 -2.00308 -5.14374 0
M  V30 9207 H 853.19 -0.354722 -4.14585 0
M  V30 9208 H 852.066 -0.0238926 -5.48895 0
M  V30 9209 H 852.327 1.19901 -4.25531 0
M  V30 9210 N 851.386 1.48609 -0.524698 0
M  V30 9211 C 852.296 2.33318 0.244923 0
M  V30 9212 C 853.312 1.46153 0.944214 0
M  V30 9213 O 854.488 1.79141 0.920347 0
M  V30 9214 C 851.553 3.22149 1.28144 0
M  V30 9215 C 850.614 4.25184 0.593068 0
M  V30 9216 C 849.847 5.0977 1.5802 0
M  V30 9217 O 850.07 4.96249 2.81235 0
M  V30 9218 O 849.004 5.9134 1.1225 0
M  V30 9219 H 852.83 3.00362 -0.449066 0
M  V30 9220 H 850.415 1.46643 -0.285689 0
M  V30 9221 H 852.297 3.77111 1.88057 0
M  V30 9222 H 850.972 2.57772 1.95793 0
M  V30 9223 H 849.879 3.74071 -0.0464214 0
M  V30 9224 H 851.212 4.92183 -0.0413893 0
M  V30 9225 N 852.864 0.259585 1.55447 0
M  V30 9226 C 854.28 -0.094961 1.59317 0
M  V30 9227 C 854.48 -1.55884 1.2768 0
M  V30 9228 O 853.536 -2.30528 1.0302 0
M  V30 9229 C 854.849 0.265669 2.99524 0
M  V30 9230 C 856.397 0.211007 3.12288 0
M  V30 9231 C 856.872 0.545851 4.54736 0
M  V30 9232 N 858.363 0.496823 4.60528 0
M  V30 9233 C 859.098 0.728909 5.68748 0
M  V30 9234 N 858.594 1.02479 6.85179 0
M  V30 9235 N 860.387 0.658756 5.58226 0
M  V30 9236 H 852.538 1.2141 1.7428 0
M  V30 9237 H 854.801 0.489404 0.811904 0
M  V30 9238 H 854.507 1.28316 3.27457 0
M  V30 9239 H 854.381 -0.401089 3.75061 0
M  V30 9240 H 856.768 -0.797172 2.84129 0
M  V30 9241 H 856.849 0.911799 2.38998 0
M  V30 9242 H 856.493 1.55164 4.83618 0
M  V30 9243 H 856.423 -0.17656 5.26304 0
M  V30 9244 H 858.914 0.277376 3.76881 0
M  V30 9245 H 859.227 1.18897 7.63599 0
M  V30 9246 H 857.572 1.0624 6.86832 0
M  V30 9247 H 860.763 0.427553 4.66143 0
M  V30 9248 H 860.936 0.84302 6.42493 0
M  V30 9249 N 854.342 -1.57594 -0.0133615 0
M  V30 9250 C 855.753 -1.78168 -0.557937 0
M  V30 9251 C 856.104 -0.892616 -1.74719 0
M  V30 9252 O 855.229 -0.0915491 -2.16206 0
M  V30 9253 C 855.824 -3.23115 -1.01894 0
M  V30 9254 C 854.383 -3.44831 -1.50892 0
M  V30 9255 C 853.53 -2.73558 -0.454044 0
M  V30 9256 H 856.481 -1.57266 0.212843 0
M  V30 9257 H 856.502 -3.30493 -1.8856 0
M  V30 9258 H 856.014 -3.87798 -0.153175 0
M  V30 9259 H 854.115 -2.85345 -2.39602 0
M  V30 9260 H 854.228 -4.53485 -1.54559 0
M  V30 9261 H 852.592 -2.37787 -0.912666 0
M  V30 9262 H 853.375 -3.40932 0.402524 0
M  V30 9263 N 855.82 0.285905 -1.54985 0
M  V30 9264 C 857.05 1.03626 -1.78732 0
M  V30 9265 C 857.458 1.80896 -0.554377 0
M  V30 9266 O 856.801 1.77161 0.48578 0
M  V30 9267 C 856.863 2.05185 -2.95193 0
M  V30 9268 C 856.527 1.46973 -4.32722 0
M  V30 9269 C 857.524 0.891986 -5.12191 0
M  V30 9270 C 855.209 1.50081 -4.79355 0
M  V30 9271 C 857.203 0.353078 -6.36421 0
M  V30 9272 C 854.89 0.958037 -6.03544 0
M  V30 9273 C 855.888 0.385157 -6.81913 0
M  V30 9274 O 855.576 -0.149341 -8.03761 0
M  V30 9275 H 855.308 0.312416 -0.599477 0
M  V30 9276 H 857.862 0.326067 -2.02795 0
M  V30 9277 H 856.092 2.79928 -2.66791 0
M  V30 9278 H 857.781 2.66244 -3.0638 0
M  V30 9279 H 858.547 0.860762 -4.77301 0
M  V30 9280 H 854.426 1.9361 -4.18373 0
M  V30 9281 H 857.97 -0.0947181 -6.97536 0
M  V30 9282 H 853.867 0.986458 -6.37918 0
M  V30 9283 H 854.635 -0.0374719 -8.18491 0
M  V30 9284 N 857.298 1.47698 0.54982 0
M  V30 9285 C 858.228 1.63622 1.66583 0
M  V30 9286 C 859.209 0.485477 1.63025 0
M  V30 9287 O 860.394 0.715692 1.80531 0
M  V30 9288 C 857.524 1.65721 3.05211 0
M  V30 9289 C 856.478 2.80097 3.2362 0
M  V30 9290 C 855.804 2.67272 4.63109 0
M  V30 9291 C 857.104 4.21612 3.08286 0
M  V30 9292 H 858.798 2.57049 1.53512 0
M  V30 9293 H 856.344 1.23705 0.737099 0
M  V30 9294 H 858.297 1.75451 3.83138 0
M  V30 9295 H 857.021 0.688593 3.19258 0
M  V30 9296 H 855.68 2.69889 2.48104 0
M  V30 9297 H 855.328 1.68422 4.73965 0
M  V30 9298 H 855.028 3.44008 4.76374 0
M  V30 9299 H 856.552 2.78942 5.43161 0
M  V30 9300 H 857.966 4.32758 3.76024 0
M  V30 9301 H 856.363 4.99193 3.33057 0
M  V30 9302 H 857.433 4.39462 2.04942 0
M  V30 9303 N 858.776 -0.797141 1.35954 0
M  V30 9304 C 860.004 -1.5858 1.32891 0
M  V30 9305 C 860.419 -1.88578 -0.0915564 0
M  V30 9306 O 859.776 -1.49532 -1.04625 0
M  V30 9307 C 859.827 -2.91143 2.14284 0
M  V30 9308 O 859.548 -2.62442 3.50793 0
M  V30 9309 C 861.049 -3.85476 2.18914 0
M  V30 9310 H 858.269 -0.492111 0.456144 0
M  V30 9311 H 860.813 -0.98994 1.78943 0
M  V30 9312 H 858.968 -3.47219 1.71807 0
M  V30 9313 H 859.382 -3.4715 3.93175 0
M  V30 9314 H 860.856 -4.75574 2.80238 0
M  V30 9315 H 861.333 -4.22758 1.19047 0
M  V30 9316 H 861.939 -3.35334 2.61593 0
M  V30 9317 N 860.254 -1.20106 -1.0204 0
M  V30 9318 C 861.531 -0.918029 -1.72718 0
M  V30 9319 C 861.911 0.574163 -2.03142 0
M  V30 9320 O 861.259 1.53476 -1.69285 0
M  V30 9321 C 861.469 -1.78698 -2.9978 0
M  V30 9322 C 862.817 -2.02648 -3.7312 0
M  V30 9323 O 863.841 -1.75919 -3.09727 0
M  V30 9324 O 862.7 -2.47767 -4.87107 0
M  V30 9325 H 859.794 -0.342904 -0.752559 0
M  V30 9326 H 862.34 -1.30961 -1.07923 0
M  V30 9327 H 861.112 -2.79757 -2.7359 0
M  V30 9328 H 860.735 -1.39522 -3.72316 0
M  V30 9329 N 861.732 1.21287 -1.00634 0
M  V30 9330 C 862.679 2.23705 -0.567876 0
M  V30 9331 C 863.649 1.61043 0.406753 0
M  V30 9332 O 864.834 1.88289 0.308499 0
M  V30 9333 C 861.974 3.44961 0.097996 0
M  V30 9334 C 861.087 4.22091 -0.919972 0
M  V30 9335 C 860.222 5.30718 -0.226222 0
M  V30 9336 C 859.261 5.99581 -1.23165 0
M  V30 9337 N 858.398 6.99821 -0.565278 0
M  V30 9338 H 863.238 2.60571 -1.44592 0
M  V30 9339 H 860.775 1.28049 -0.724006 0
M  V30 9340 H 862.733 4.1418 0.501097 0
M  V30 9341 H 861.363 3.08818 0.939744 0
M  V30 9342 H 860.415 3.52038 -1.44131 0
M  V30 9343 H 861.727 4.69476 -1.68505 0
M  V30 9344 H 860.881 6.06253 0.232917 0
M  V30 9345 H 859.62 4.84343 0.571247 0
M  V30 9346 H 858.625 5.22816 -1.70128 0
M  V30 9347 H 859.85 6.48042 -2.03022 0
M  V30 9348 H 857.796 6.55656 0.212508 0
M  V30 9349 H 857.713 7.4528 -1.26858 0
M  V30 9350 H 858.981 7.79393 -0.129389 0
M  V30 9351 N 863.21 0.781244 1.36873 0
M  V30 9352 C 864.459 0.34652 1.98701 0
M  V30 9353 C 864.772 -1.08555 1.62712 0
M  V30 9354 O 865.978 -1.62213 2.17713 0
M  V30 9355 C 864.434 0.568611 3.5538 0
M  V30 9356 C 864.042 2.01156 4.003 0
M  V30 9357 C 865.786 0.197983 4.24038 0
M  V30 9358 C 863.693 2.18074 5.49725 0
M  V30 9359 H 862.623 0.125821 0.743428 0
M  V30 9360 H 865.274 0.961721 1.56279 0
M  V30 9361 H 863.656 -0.116185 3.9583 0
M  V30 9362 H 864.83 2.73209 3.71071 0
M  V30 9363 H 863.145 2.33967 3.44454 0
M  V30 9364 H 865.742 0.302778 5.33842 0
M  V30 9365 H 866.085 -0.852927 4.07469 0
M  V30 9366 H 866.618 0.835696 3.88923 0
M  V30 9367 H 863.357 3.21519 5.71232 0
M  V30 9368 H 862.877 1.50517 5.80607 0
M  V30 9369 H 864.556 1.98393 6.15832 0
M  V30 9370 N 864.689 -1.48329 0.532571 0
M  V30 9371 C 865.937 -2.021 -0.000581206 0
M  V30 9372 C 866.258 -1.4117 -1.34522 0
M  V30 9373 O 865.528 -0.578005 -1.87179 0
M  V30 9374 H 864.108 -0.746993 -0.00320281 0
M  V30 9375 H 866.77 -1.82011 0.696991 0
M  V30 9376 H 865.866 -3.11917 -0.106991 0
M  V30 9377 N 866.167 -0.267825 -1.55308 0
M  V30 9378 C 867.413 0.34458 -2.0046 0
M  V30 9379 C 867.768 1.54028 -1.15296 0
M  V30 9380 O 867.061 1.90409 -0.213316 0
M  V30 9381 C 867.255 0.784247 -3.48689 0
M  V30 9382 C 867.084 -0.367304 -4.48197 0
M  V30 9383 C 865.854 -0.848746 -4.98121 0
M  V30 9384 C 868.052 -1.20136 -5.00072 0
M  V30 9385 N 866.034 -1.97052 -5.81415 0
M  V30 9386 C 867.405 -2.17115 -5.80742 0
M  V30 9387 C 869.46 -1.23553 -4.82327 0
M  V30 9388 C 868.163 -3.17248 -6.45559 0
M  V30 9389 C 870.189 -2.22527 -5.47938 0
M  V30 9390 C 869.551 -3.1824 -6.28413 0
M  V30 9391 H 865.65 0.091465 -0.776633 0
M  V30 9392 H 868.234 -0.390184 -1.9075 0
M  V30 9393 H 866.405 1.48825 -3.58756 0
M  V30 9394 H 868.137 1.37337 -3.80684 0
M  V30 9395 H 864.892 -0.429291 -4.7165 0
M  V30 9396 H 865.316 -2.53481 -6.27755 0
M  V30 9397 H 869.958 -0.50937 -4.1972 0
M  V30 9398 H 867.676 -3.90801 -7.07319 0
M  V30 9399 H 871.262 -2.25904 -5.36152 0
M  V30 9400 H 870.142 -3.93573 -6.78285 0
M  V30 9401 N 867.645 1.57599 0.00500368 0
M  V30 9402 C 868.575 2.11143 0.99705 0
M  V30 9403 C 869.556 1.0194 1.3617 0
M  V30 9404 O 870.741 1.29596 1.44632 0
M  V30 9405 C 867.871 2.61062 2.2905 0
M  V30 9406 C 866.825 3.74745 2.0676 0
M  V30 9407 C 866.151 4.10961 3.42075 0
M  V30 9408 C 867.451 5.02222 1.43424 0
M  V30 9409 H 869.145 2.94281 0.551251 0
M  V30 9410 H 866.691 1.41565 0.263715 0
M  V30 9411 H 868.644 2.97146 2.98801 0
M  V30 9412 H 867.368 1.75038 2.75734 0
M  V30 9413 H 866.027 3.39047 1.39436 0
M  V30 9414 H 865.675 3.21968 3.86453 0
M  V30 9415 H 865.375 4.87549 3.27979 0
M  V30 9416 H 866.899 4.49599 4.1315 0
M  V30 9417 H 868.313 5.36109 2.03125 0
M  V30 9418 H 866.71 5.83581 1.39831 0
M  V30 9419 H 867.78 4.83224 0.40285 0
M  V30 9420 N 869.123 -0.277682 1.55134 0
M  V30 9421 C 870.4 -1.0309 1.66228 0
M  V30 9422 C 870.78 -2.0445 0.525701 0
M  V30 9423 O 870.128 -2.23512 -0.474816 0
M  V30 9424 C 870.338 -1.6919 3.05247 0
M  V30 9425 C 871.686 -2.20526 3.62841 0
M  V30 9426 O 872.71 -1.79185 3.07849 0
M  V30 9427 O 871.569 -2.96342 4.59177 0
M  V30 9428 H 868.663 -0.4779 0.674937 0
M  V30 9429 H 871.209 -0.273912 1.67475 0
M  V30 9430 H 869.981 -0.957163 3.79413 0
M  V30 9431 H 869.604 -2.51587 3.07879 0
M  V30 9432 N 870.601 -1.47988 -0.541979 0
M  V30 9433 C 871.826 -1.59286 -1.32826 0
M  V30 9434 C 872.251 -0.24894 -1.86445 0
M  V30 9435 O 871.609 0.777581 -1.63778 0
M  V30 9436 C 871.657 -2.6334 -2.46343 0
M  V30 9437 O 870.761 -2.19667 -3.49028 0
M  V30 9438 H 870.102 -0.534543 -0.393903 0
M  V30 9439 H 872.632 -1.93885 -0.653427 0
M  V30 9440 H 872.642 -2.84238 -2.92699 0
M  V30 9441 H 871.317 -3.60913 -2.06675 0
M  V30 9442 H 869.894 -2.08932 -3.08872 0
M  V30 9443 N 872.079 0.78992 -1.36375 0
M  V30 9444 C 873.009 1.91683 -1.33341 0
M  V30 9445 C 873.99 1.68861 -0.204965 0
M  V30 9446 O 875.175 1.89982 -0.402531 0
M  V30 9447 C 872.305 3.28696 -1.12143 0
M  V30 9448 C 871.259 3.66041 -2.21806 0
M  V30 9449 C 870.585 5.01399 -1.85751 0
M  V30 9450 C 871.885 3.74677 -3.63888 0
M  V30 9451 H 873.579 1.94478 -2.27637 0
M  V30 9452 H 871.125 0.934271 -1.09578 0
M  V30 9453 H 873.078 4.07151 -1.08656 0
M  V30 9454 H 871.802 3.26287 -0.142974 0
M  V30 9455 H 870.461 2.89883 -2.24418 0
M  V30 9456 H 870.109 4.9551 -0.864817 0
M  V30 9457 H 869.809 5.27355 -2.59173 0
M  V30 9458 H 871.333 5.82274 -1.83819 0
M  V30 9459 H 872.747 4.43324 -3.63506 0
M  V30 9460 H 871.144 4.12118 -4.3621 0
M  V30 9461 H 872.214 2.75795 -3.9883 0
M  V30 9462 N 873.557 1.20646 1.01402 0
M  V30 9463 C 874.805 1.01618 1.74695 0
M  V30 9464 C 875.126 -0.452438 1.89679 0
M  V30 9465 O 874.396 -1.32693 1.44116 0
M  V30 9466 H 872.976 0.373013 0.647202 0
M  V30 9467 H 875.638 1.518 1.22241 0
M  V30 9468 H 874.734 1.47666 2.74957 0
M  V30 9469 N 875.035 -1.20752 1.01276 0
M  V30 9470 C 875.967 -2.22798 0.537917 0
M  V30 9471 C 876.98 -1.5836 -0.377638 0
M  V30 9472 O 878.169 -1.77624 -0.176599 0
M  V30 9473 C 875.269 -3.38068 -0.237364 0
M  V30 9474 C 874.442 -4.32095 0.679161 0
M  V30 9475 C 873.501 -5.26178 -0.0478676 0
M  V30 9476 O 872.527 -5.66305 0.573366 0
M  V30 9477 N 873.729 -5.65201 -1.32396 0
M  V30 9478 H 876.494 -2.64166 1.4155 0
M  V30 9479 H 874.055 -1.35254 0.889826 0
M  V30 9480 H 876.047 -3.98009 -0.73288 0
M  V30 9481 H 874.617 -2.95622 -1.0162 0
M  V30 9482 H 873.837 -3.70179 1.35505 0
M  V30 9483 H 875.125 -4.91842 1.30263 0
M  V30 9484 H 874.523 -5.34606 -1.84968 0
M  V30 9485 H 873.08 -6.27468 -1.76428 0
M  V30 9486 N 876.513 -0.788492 -1.36457 0
M  V30 9487 C 877.445 -0.144208 -2.28746 0
M  V30 9488 C 878.458 0.646009 -1.49434 0
M  V30 9489 O 879.647 0.481344 -1.71888 0
M  V30 9490 C 876.747 0.818869 -3.28858 0
M  V30 9491 C 875.92 0.0789055 -4.37329 0
M  V30 9492 C 874.979 0.957791 -5.1741 0
M  V30 9493 O 874.005 0.415378 -5.67682 0
M  V30 9494 N 875.207 2.28216 -5.33758 0
M  V30 9495 H 877.972 -0.936949 -2.84678 0
M  V30 9496 H 875.533 -0.642317 -1.48613 0
M  V30 9497 H 877.525 1.41065 -3.79319 0
M  V30 9498 H 876.095 1.51249 -2.73573 0
M  V30 9499 H 875.315 -0.693939 -3.88044 0
M  V30 9500 H 876.603 -0.431753 -5.06965 0
M  V30 9501 H 876.001 2.747 -4.94527 0
M  V30 9502 H 874.558 2.8236 -5.87466 0
M  V30 9503 N 877.991 1.48044 -0.54043 0
M  V30 9504 C 879.24 2.01698 -0.00809961 0
M  V30 9505 C 879.553 1.42184 1.34325 0
M  V30 9506 O 880.759 1.87398 1.96454 0
M  V30 9507 C 879.215 3.59882 0.035933 0
M  V30 9508 C 878.823 4.28384 -1.31115 0
M  V30 9509 C 880.567 4.21346 0.51654 0
M  V30 9510 C 878.474 5.78529 -1.22714 0
M  V30 9511 H 877.404 0.754 0.000742174 0
M  V30 9512 H 880.055 1.70204 -0.685775 0
M  V30 9513 H 878.437 3.88264 0.778906 0
M  V30 9514 H 879.611 4.11663 -2.07051 0
M  V30 9515 H 877.926 3.78837 -1.72834 0
M  V30 9516 H 880.523 5.31351 0.597529 0
M  V30 9517 H 880.866 3.87373 1.52473 0
M  V30 9518 H 881.399 3.97432 -0.171064 0
M  V30 9519 H 878.138 6.17093 -2.21081 0
M  V30 9520 H 877.658 5.97634 -0.50931 0
M  V30 9521 H 879.337 6.40395 -0.92216 0
M  V30 9522 N 879.47 0.276058 1.55163 0
M  V30 9523 C 880.718 -0.339782 1.99223 0
M  V30 9524 C 881.039 -1.56307 1.16589 0
M  V30 9525 O 880.309 -1.94225 0.25564 0
M  V30 9526 H 878.889 -0.128534 0.735859 0
M  V30 9527 H 881.551 0.381612 1.91128 0
M  V30 9528 H 880.647 -0.629 3.05696 0
M  V30 9529 N 880.948 -1.576 0.00335426 0
M  V30 9530 C 881.895 -2.08632 -0.986975 0
M  V30 9531 C 882.865 -0.982491 -1.33927 0
M  V30 9532 O 884.05 -1.25513 -1.43705 0
M  V30 9533 C 881.19 -2.59705 -2.27261 0
M  V30 9534 C 880.303 -3.84002 -1.97905 0
M  V30 9535 C 879.438 -4.23563 -3.20574 0
M  V30 9536 C 878.477 -5.40688 -2.8692 0
M  V30 9537 N 877.614 -5.75526 -4.02136 0
M  V30 9538 H 882.454 -2.92977 -0.544855 0
M  V30 9539 H 879.991 -1.44831 -0.257376 0
M  V30 9540 H 881.949 -2.87395 -3.02423 0
M  V30 9541 H 880.579 -1.7823 -2.69136 0
M  V30 9542 H 879.631 -3.63199 -1.13096 0
M  V30 9543 H 880.943 -4.69261 -1.69102 0
M  V30 9544 H 880.097 -4.52554 -4.04079 0
M  V30 9545 H 878.836 -3.37019 -3.52518 0
M  V30 9546 H 877.841 -5.11417 -2.01822 0
M  V30 9547 H 879.066 -6.2891 -2.5622 0
M  V30 9548 H 877.012 -4.9194 -4.33971 0
M  V30 9549 H 876.929 -6.55367 -3.76869 0
M  V30 9550 H 878.197 -6.0911 -4.8642 0
M  V30 9551 N 882.426 0.269451 -1.5528 0
M  V30 9552 C 883.842 0.616827 -1.47199 0
M  V30 9553 C 884.042 1.89354 -0.68901 0
M  V30 9554 O 883.098 2.51631 -0.209287 0
M  V30 9555 C 884.411 0.740492 -2.9144 0
M  V30 9556 C 885.959 0.834312 -3.01676 0
M  V30 9557 C 886.434 0.989725 -4.47178 0
M  V30 9558 N 887.925 1.05516 -4.51022 0
M  V30 9559 C 888.66 1.19427 -5.60825 0
M  V30 9560 N 888.156 1.30035 -6.80487 0
M  V30 9561 N 889.949 1.22566 -5.48575 0
M  V30 9562 H 882.1 -0.568962 -2.04638 0
M  V30 9563 H 884.363 -0.193153 -0.928114 0
M  V30 9564 H 884.069 -0.127234 -3.5147 0
M  V30 9565 H 883.943 1.61965 -3.40657 0
M  V30 9566 H 886.33 1.6925 -2.4174 0
M  V30 9567 H 886.411 -0.0695298 -2.55705 0
M  V30 9568 H 886.055 0.136179 -5.07717 0
M  V30 9569 H 885.985 1.90827 -4.90808 0
M  V30 9570 H 888.476 0.985434 -3.64825 0
M  V30 9571 H 888.789 1.40494 -7.59922 0
M  V30 9572 H 887.134 1.27033 -6.83292 0
M  V30 9573 H 890.325 1.13911 -4.54029 0
M  V30 9574 H 890.498 1.33063 -6.34191 0
M  V30 9575 N 883.904 1.48273 0.534124 0
M  V30 9576 C 885.134 1.59503 1.31311 0
M  V30 9577 C 885.542 0.25284 1.87503 0
M  V30 9578 O 884.885 -0.767399 1.66903 0
M  V30 9579 C 884.947 2.57899 2.50456 0
M  V30 9580 C 884.611 4.03063 2.15382 0
M  V30 9581 C 885.608 4.90869 1.713 0
M  V30 9582 C 883.293 4.4857 2.26032 0
M  V30 9583 C 885.287 6.22209 1.38328 0
M  V30 9584 C 882.974 5.79932 1.92672 0
M  V30 9585 C 883.972 6.66574 1.4889 0
M  V30 9586 O 883.66 7.95492 1.15966 0
M  V30 9587 H 883.392 0.540695 0.405739 0
M  V30 9588 H 885.946 1.94794 0.651497 0
M  V30 9589 H 884.176 2.1772 3.19585 0
M  V30 9590 H 885.865 2.59008 3.12522 0
M  V30 9591 H 886.631 4.56951 1.62545 0
M  V30 9592 H 882.51 3.81321 2.59066 0
M  V30 9593 H 886.054 6.89792 1.04082 0
M  V30 9594 H 881.951 6.13386 2.01066 0
M  V30 9595 H 882.719 8.08207 1.29399 0
M  V30 9596 N 885.382 -0.782676 1.36792 0
M  V30 9597 C 886.33 -1.91698 1.31737 0
M  V30 9598 C 887.324 -1.68118 0.207994 0
M  V30 9599 O 888.53 -1.76042 0.375393 0
M  V30 9600 H 884.905 -0.630215 0.410284 0
M  V30 9601 H 886.876 -1.93078 2.27516 0
M  V30 9602 C 885.625 -3.28816 1.13029 0
M  V30 9603 H 884.948 -3.4753 1.97643 0
M  V30 9604 H 886.388 -4.08515 1.13541 0
M  V30 9605 C 884.847 -3.36497 -0.1647 0
M  V30 9606 O 885.377 -3.84822 -1.15216 0
M  V30 9607 N 883.583 -2.89828 -0.211678 0
M  V30 9608 H 883.13 -2.50693 0.59252 0
M  V30 9609 H 883.088 -2.95349 -1.07779 0
M  V30 9610 N 886.86 -1.21182 -1.00761 0
M  V30 9611 C 888.137 -0.936297 -1.71735 0
M  V30 9612 C 888.517 0.552585 -2.03739 0
M  V30 9613 O 887.865 1.51672 -1.70903 0
M  V30 9614 C 888.075 -1.81867 -2.97868 0
M  V30 9615 C 889.423 -2.06594 -3.7095 0
M  V30 9616 O 890.447 -1.79194 -3.07844 0
M  V30 9617 O 889.306 -2.5292 -4.84452 0
M  V30 9618 H 886.4 -0.350867 -0.74888 0
M  V30 9619 H 888.946 -1.32098 -1.06527 0
M  V30 9620 H 887.718 -2.82643 -2.70607 0
M  V30 9621 H 887.341 -1.43463 -3.70815 0
M  V30 9622 N 888.338 1.20213 -1.01915 0
M  V30 9623 C 889.563 1.94163 -0.729076 0
M  V30 9624 C 889.988 1.74416 0.704323 0
M  V30 9625 O 889.346 1.0401 1.48498 0
M  V30 9626 C 889.394 3.44258 -1.07324 0
M  V30 9627 O 888.498 4.11979 -0.186367 0
M  V30 9628 H 887.839 0.606506 -0.270272 0
M  V30 9629 H 890.369 1.52571 -1.3632 0
M  V30 9630 H 890.379 3.94888 -1.02603 0
M  V30 9631 H 889.054 3.57954 -2.11759 0
M  V30 9632 H 887.631 3.7176 -0.291334 0
M  V30 9633 N 889.816 0.795718 1.36037 0
M  V30 9634 C 891.093 0.294743 1.93367 0
M  V30 9635 C 891.473 -1.21406 1.72696 0
M  V30 9636 O 890.821 -2.00849 1.08959 0
M  V30 9637 C 891.031 0.694254 3.42025 0
M  V30 9638 C 892.379 0.677566 4.19159 0
M  V30 9639 O 893.403 0.635119 3.50492 0
M  V30 9640 O 892.262 0.726127 5.41655 0
M  V30 9641 H 889.356 0.0745459 0.823633 0
M  V30 9642 H 891.902 0.878685 1.4518 0
M  V30 9643 H 890.674 1.73458 3.50753 0
M  V30 9644 H 890.297 0.0845338 3.9751 0
M  V30 9645 N 891.294 -1.47756 0.548274 0
M  V30 9646 C 892.519 -2.07387 0.023475 0
M  V30 9647 C 892.944 -1.39956 -1.25674 0
M  V30 9648 O 892.302 -0.471543 -1.7506 0
M  V30 9649 C 892.35 -3.60224 -0.164669 0
M  V30 9650 O 891.454 -3.93653 -1.22928 0
M  V30 9651 H 890.795 -0.662312 0.0473156 0
M  V30 9652 H 893.325 -1.89905 0.761409 0
M  V30 9653 H 893.335 -4.06211 -0.38166 0
M  V30 9654 H 892.01 -4.08702 0.770425 0
M  V30 9655 H 890.587 -3.59422 -0.993495 0
M  V30 9656 N 892.772 -0.284283 -1.55015 0
M  V30 9657 C 893.997 0.335799 -2.04664 0
M  V30 9658 C 894.422 1.47999 -1.16094 0
M  V30 9659 O 893.78 1.8058 -0.161454 0
M  V30 9660 C 893.828 0.785615 -3.51938 0
M  V30 9661 O 892.932 1.89202 -3.66437 0
M  V30 9662 H 892.273 0.0680233 -0.660506 0
M  V30 9663 H 894.803 -0.421255 -2.00216 0
M  V30 9664 H 894.813 1.07892 -3.93476 0
M  V30 9665 H 893.488 -0.0514675 -4.15868 0
M  V30 9666 H 892.065 1.60055 -3.36804 0
M  V30 9667 N 894.251 1.57596 -0.0117121 0
M  V30 9668 C 895.476 1.95764 0.684938 0
M  V30 9669 C 895.901 0.887285 1.65858 0
M  V30 9670 O 895.259 -0.153508 1.80649 0
M  V30 9671 C 895.307 3.33031 1.38285 0
M  V30 9672 O 894.411 3.28163 2.49765 0
M  V30 9673 H 893.752 0.638767 0.181309 0
M  V30 9674 H 896.282 2.04486 -0.0683883 0
M  V30 9675 H 896.292 3.68866 1.74362 0
M  V30 9676 H 894.967 4.10483 0.669043 0
M  V30 9677 H 893.544 3.04021 2.15929 0
M  V30 9678 N 895.729 -0.261212 1.5542 0
M  V30 9679 C 896.977 -0.989272 1.76232 0
M  V30 9680 C 897.298 -1.86389 0.573067 0
M  V30 9681 O 896.568 -1.91526 -0.41166 0
M  V30 9682 H 895.148 -0.368256 0.64992 0
M  V30 9683 H 897.81 -0.282603 1.9284 0
M  V30 9684 H 896.906 -1.61935 2.66802 0
M  V30 9685 N 897.207 -1.48554 -0.526253 0
M  V30 9686 C 898.618 -1.50256 -1.10815 0
M  V30 9687 C 898.969 -0.274445 -1.94271 0
M  V30 9688 O 898.094 0.618094 -2.07385 0
M  V30 9689 C 898.689 -2.72264 -2.01638 0
M  V30 9690 C 897.248 -2.76826 -2.55038 0
M  V30 9691 C 896.395 -2.43823 -1.32081 0
M  V30 9692 H 899.346 -1.55616 -0.31133 0
M  V30 9693 H 899.367 -2.50993 -2.85977 0
M  V30 9694 H 898.879 -3.61632 -1.4087 0
M  V30 9695 H 896.98 -1.91676 -3.19517 0
M  V30 9696 H 897.093 -3.78351 -2.93917 0
M  V30 9697 H 895.457 -1.95058 -1.63781 0
M  V30 9698 H 896.24 -3.35436 -0.730596 0
M  V30 9699 N 898.685 0.775411 -1.37205 0
M  V30 9700 C 899.91 1.5696 -1.35567 0
M  V30 9701 C 900.335 1.88012 0.0575554 0
M  V30 9702 O 899.693 1.48954 1.03355 0
M  V30 9703 C 899.741 2.85886 -2.19776 0
M  V30 9704 O 898.845 3.80103 -1.59987 0
M  V30 9705 H 898.186 0.475583 -0.463375 0
M  V30 9706 H 900.716 0.96001 -1.80679 0
M  V30 9707 H 900.726 3.35024 -2.32859 0
M  V30 9708 H 899.401 2.62613 -3.22502 0
M  V30 9709 H 897.978 3.38736 -1.55924 0
M  V30 9710 N 900.163 1.21714 1.00117 0
M  V30 9711 C 901.412 1.03087 1.73367 0
M  V30 9712 C 901.725 -0.435532 1.90689 0
M  V30 9713 O 902.931 -0.741291 2.61184 0
M  V30 9714 C 901.387 1.79593 3.11888 0
M  V30 9715 C 900.995 3.30428 3.02525 0
M  V30 9716 C 902.739 1.69386 3.89241 0
M  V30 9717 C 900.646 3.99408 4.3615 0
M  V30 9718 H 899.576 0.382117 0.650002 0
M  V30 9719 H 902.227 1.45486 1.11831 0
M  V30 9720 H 900.609 1.29988 3.74058 0
M  V30 9721 H 901.783 3.87364 2.49571 0
M  V30 9722 H 900.098 3.4122 2.38659 0
M  V30 9723 H 902.695 2.18251 4.8813 0
M  V30 9724 H 903.038 0.652773 4.1115 0
M  V30 9725 H 903.571 2.16489 3.33733 0
M  V30 9726 H 900.31 5.03735 4.19442 0
M  V30 9727 H 899.83 3.47261 4.8905 0
M  V30 9728 H 901.509 4.04537 5.04934 0
M  V30 9729 N 901.641 -1.19671 1.02551 0
M  V30 9730 C 902.588 -2.22773 0.603394 0
M  V30 9731 C 903.558 -1.61669 -0.381081 0
M  V30 9732 O 904.743 -1.88756 -0.278505 0
M  V30 9733 C 901.883 -3.45073 -0.0431034 0
M  V30 9734 C 900.996 -4.20574 0.987006 0
M  V30 9735 C 900.131 -5.30291 0.310626 0
M  V30 9736 C 899.17 -5.97545 1.32688 0
M  V30 9737 N 898.307 -6.98833 0.676542 0
M  V30 9738 H 903.147 -2.58238 1.48719 0
M  V30 9739 H 900.684 -1.26881 0.744286 0
M  V30 9740 H 902.642 -4.14925 -0.435141 0
M  V30 9741 H 901.272 -3.10274 -0.890495 0
M  V30 9742 H 900.324 -3.497 1.49713 0
M  V30 9743 H 901.636 -4.66736 1.75952 0
M  V30 9744 H 900.79 -6.06547 -0.136438 0
M  V30 9745 H 899.529 -4.8519 -0.49412 0
M  V30 9746 H 898.534 -5.20043 1.78424 0
M  V30 9747 H 899.759 -6.4473 2.13306 0
M  V30 9748 H 897.705 -6.55911 -0.108172 0
M  V30 9749 H 897.622 -7.43168 1.38699 0
M  V30 9750 H 898.89 -7.79088 0.253367 0
M  V30 9751 N 903.119 -0.802921 -1.35613 0
M  V30 9752 C 904.396 -0.304993 -1.93208 0
M  V30 9753 C 904.776 1.20488 -1.73337 0
M  V30 9754 O 904.124 2.00268 -1.10022 0
M  V30 9755 C 904.334 -0.712383 -3.41652 0
M  V30 9756 C 905.682 -0.699785 -4.18794 0
M  V30 9757 O 906.706 -0.653698 -3.5015 0
M  V30 9758 O 905.565 -0.754842 -5.41262 0
M  V30 9759 H 902.659 -0.0789127 -0.823226 0
M  V30 9760 H 905.205 -0.886372 -1.44712 0
M  V30 9761 H 903.977 -1.75316 -3.49829 0
M  V30 9762 H 903.6 -0.105614 -3.9746 0
M  V30 9763 N 904.597 1.47463 -0.556102 0
M  V30 9764 C 905.544 2.29998 0.192213 0
M  V30 9765 C 906.514 1.38993 0.909403 0
M  V30 9766 O 907.699 1.67954 0.905316 0
M  V30 9767 C 904.839 3.22932 1.21692 0
M  V30 9768 C 903.952 4.29027 0.505908 0
M  V30 9769 C 903.087 5.09114 1.51581 0
M  V30 9770 C 902.126 6.06984 0.789714 0
M  V30 9771 N 901.263 6.80033 1.74639 0
M  V30 9772 H 906.103 2.93468 -0.517734 0
M  V30 9773 H 903.64 1.44654 -0.267147 0
M  V30 9774 H 905.598 3.75234 1.8236 0
M  V30 9775 H 904.228 2.61329 1.89491 0
M  V30 9776 H 903.28 3.7979 -0.215276 0
M  V30 9777 H 904.592 4.9876 -0.062958 0
M  V30 9778 H 903.746 5.6556 2.19606 0
M  V30 9779 H 902.485 4.3928 2.11859 0
M  V30 9780 H 901.49 5.49717 0.0955382 0
M  V30 9781 H 902.715 6.78827 0.192688 0
M  V30 9782 H 900.661 6.12931 2.33777 0
M  V30 9783 H 900.578 7.45933 1.22965 0
M  V30 9784 H 901.846 7.41054 2.41782 0
M  V30 9785 N 906.075 0.2925 1.54862 0
M  V30 9786 C 907.305 -0.321646 2.04081 0
M  V30 9787 C 907.713 -1.48712 1.16967 0
M  V30 9788 O 907.056 -1.82755 0.18609 0
M  V30 9789 C 907.118 -0.848678 3.49339 0
M  V30 9790 C 906.782 0.190416 4.56603 0
M  V30 9791 C 907.779 1.01595 5.09877 0
M  V30 9792 C 905.464 0.329666 5.01217 0
M  V30 9793 C 907.458 1.96676 6.06298 0
M  V30 9794 C 905.145 1.28393 5.9746 0
M  V30 9795 C 906.143 2.10097 6.49883 0
M  V30 9796 O 905.831 3.03907 7.44242 0
M  V30 9797 H 905.563 -0.075098 0.671816 0
M  V30 9798 H 908.117 0.427531 2.00901 0
M  V30 9799 H 906.347 -1.64823 3.49815 0
M  V30 9800 H 908.036 -1.37779 3.81801 0
M  V30 9801 H 908.802 0.919197 4.7621 0
M  V30 9802 H 904.681 -0.296317 4.60047 0
M  V30 9803 H 908.225 2.60488 6.47141 0
M  V30 9804 H 904.122 1.38144 6.30545 0
M  V30 9805 H 904.89 2.98787 7.62016 0
M  V30 9806 N 907.553 -1.57587 0.0200696 0
M  V30 9807 C 908.799 -1.91708 -0.661503 0
M  V30 9808 C 909.132 -0.895968 -1.72296 0
M  V30 9809 O 908.407 0.082577 -1.94325 0
M  V30 9810 C 908.69 -3.36344 -1.28627 0
M  V30 9811 C 908.543 -4.49186 -0.234982 0
M  V30 9812 C 909.862 -3.80771 -2.20685 0
M  V30 9813 H 906.981 -0.69717 -0.239005 0
M  V30 9814 H 909.623 -1.8985 0.0754764 0
M  V30 9815 H 907.773 -3.38058 -1.91439 0
M  V30 9816 H 909.445 -4.59606 0.395011 0
M  V30 9817 H 907.688 -4.31557 0.440565 0
M  V30 9818 H 908.359 -5.47395 -0.711558 0
M  V30 9819 H 910.835 -3.80735 -1.67868 0
M  V30 9820 H 909.711 -4.82685 -2.61356 0
M  V30 9821 H 909.972 -3.15764 -3.09428 0
M  V30 9822 N 909.032 0.252966 -1.55557 0
M  V30 9823 C 910.26 0.999565 -1.81153 0
M  V30 9824 C 910.675 1.79181 -0.594955 0
M  V30 9825 O 910.032 1.77208 0.436311 0
M  V30 9826 C 910.083 1.94227 -3.04891 0
M  V30 9827 O 909.804 1.18209 -4.21851 0
M  V30 9828 C 911.305 2.80536 -3.43241 0
M  V30 9829 H 908.525 0.294402 -0.602966 0
M  V30 9830 H 911.069 0.277686 -2.02606 0
M  V30 9831 H 909.224 2.6185 -2.85505 0
M  V30 9832 H 909.638 1.81922 -4.9194 0
M  V30 9833 H 911.112 3.42442 -4.32941 0
M  V30 9834 H 911.589 3.51337 -2.6355 0
M  V30 9835 H 912.195 2.18373 -3.64956 0
M  V30 9836 N 910.51 1.48831 0.518367 0
M  V30 9837 C 911.473 1.63721 1.604 0
M  V30 9838 C 912.473 0.509857 1.52503 0
M  V30 9839 O 913.663 0.775922 1.55965 0
M  V30 9840 C 910.795 1.61831 3.00039 0
M  V30 9841 H 911.988 2.60534 1.48533 0
M  V30 9842 H 909.541 1.37602 0.741309 0
M  V30 9843 H 910.276 0.665387 3.17401 0
M  V30 9844 H 910.061 2.43686 3.0718 0
M  V30 9845 H 911.551 1.75467 3.78947 0
M  V30 9846 N 911.988 -0.768124 1.37614 0
M  V30 9847 C 912.918 -1.89537 1.36374 0
M  V30 9848 C 913.899 -1.68513 0.231803 0
M  V30 9849 O 915.084 -1.89318 0.432705 0
M  V30 9850 C 912.214 -3.26871 1.17358 0
M  V30 9851 C 911.168 -3.62466 2.27602 0
M  V30 9852 C 910.494 -4.9838 1.93705 0
M  V30 9853 C 911.794 -3.68841 3.69802 0
M  V30 9854 H 913.488 -1.90832 2.30702 0
M  V30 9855 H 911.034 -0.91672 1.11051 0
M  V30 9856 H 912.987 -4.05371 1.15119 0
M  V30 9857 H 911.711 -3.26018 0.194865 0
M  V30 9858 H 910.37 -2.86276 2.29002 0
M  V30 9859 H 910.018 -4.94071 0.943539 0
M  V30 9860 H 909.718 -5.23165 2.6753 0
M  V30 9861 H 911.242 -5.79276 1.93059 0
M  V30 9862 H 912.656 -4.37485 3.70513 0
M  V30 9863 H 911.053 -4.05126 4.42711 0
M  V30 9864 H 912.123 -2.69415 4.03167 0
M  V30 9865 N 913.466 -1.22244 -0.994698 0
M  V30 9866 C 914.696 -1.07062 -1.76695 0
M  V30 9867 C 915.104 0.381895 -1.85306 0
M  V30 9868 O 914.447 1.27648 -1.32105 0
M  V30 9869 C 914.509 -1.60487 -3.2169 0
M  V30 9870 C 914.173 -3.09079 -3.36629 0
M  V30 9871 C 915.17 -4.06526 -3.24088 0
M  V30 9872 C 912.855 -3.48497 -3.61739 0
M  V30 9873 C 914.849 -5.41377 -3.36437 0
M  V30 9874 C 912.536 -4.83498 -3.73729 0
M  V30 9875 C 913.534 -5.79747 -3.61086 0
M  V30 9876 O 913.222 -7.12297 -3.72678 0
M  V30 9877 H 912.954 -0.375963 -0.561807 0
M  V30 9878 H 915.508 -1.62259 -1.25941 0
M  V30 9879 H 913.738 -0.996957 -3.73628 0
M  V30 9880 H 915.427 -1.40994 -3.80625 0
M  V30 9881 H 916.193 -3.77415 -3.04602 0
M  V30 9882 H 912.072 -2.74106 -3.70657 0
M  V30 9883 H 915.616 -6.16485 -3.26485 0
M  V30 9884 H 911.513 -5.1229 -3.92721 0
M  V30 9885 H 912.281 -7.1985 -3.89562 0
M  V30 9886 N 914.944 1.19125 -1.03184 0
M  V30 9887 C 916.191 1.88883 -0.730029 0
M  V30 9888 C 916.519 1.79807 0.741602 0
M  V30 9889 O 915.774 1.18686 1.55603 0
M  V30 9890 C 916.073 3.39052 -1.13041 0
M  V30 9891 C 915.739 3.68332 -2.60082 0
M  V30 9892 C 914.401 3.76033 -3.00254 0
M  V30 9893 C 916.753 3.81423 -3.55199 0
M  V30 9894 C 914.081 3.94296 -4.34451 0
M  V30 9895 C 916.433 4.012 -4.89103 0
M  V30 9896 C 915.097 4.07134 -5.28959 0
M  V30 9897 H 914.367 0.691172 -0.267137 0
M  V30 9898 H 917.014 1.41053 -1.29523 0
M  V30 9899 H 915.319 3.88801 -0.48386 0
M  V30 9900 H 917.016 3.91351 -0.874368 0
M  V30 9901 H 913.606 3.62948 -2.27961 0
M  V30 9902 H 917.79 3.74814 -3.25313 0
M  V30 9903 H 913.046 3.97131 -4.64863 0
M  V30 9904 H 917.22 4.10271 -5.62717 0
M  V30 9905 H 914.847 4.21038 -6.32954 0
M  V30 9906 N 916.422 0.810101 1.35185 0
M  V30 9907 C 917.65 0.404696 2.02903 0
M  V30 9908 C 918.065 -0.985434 1.61042 0
M  V30 9909 O 917.422 -1.63557 0.809658 0
M  V30 9910 C 917.473 0.482493 3.58266 0
M  V30 9911 O 917.194 1.81782 3.98606 0
M  V30 9912 C 918.695 0.070345 4.43244 0
M  V30 9913 H 915.915 0.163972 0.650657 0
M  V30 9914 H 918.459 1.0947 1.72733 0
M  V30 9915 H 916.614 -0.159296 3.87072 0
M  V30 9916 H 917.028 1.78306 4.93262 0
M  V30 9917 H 918.502 0.175888 5.5172 0
M  V30 9918 H 918.979 -0.984724 4.28018 0
M  V30 9919 H 919.585 0.685427 4.1974 0
M  V30 9920 N 917.9 -1.47166 0.563914 0
M  V30 9921 C 919.147 -2.02456 0.042371 0
M  V30 9922 C 919.475 -1.43753 -1.31016 0
M  V30 9923 O 918.73 -0.585287 -1.86743 0
M  V30 9924 C 919.029 -3.57279 -0.0931797 0
M  V30 9925 C 918.695 -4.34932 1.18933 0
M  V30 9926 C 917.357 -4.55867 1.54073 0
M  V30 9927 C 919.709 -4.79665 2.03889 0
M  V30 9928 C 917.037 -5.18785 2.74005 0
M  V30 9929 C 919.389 -5.43907 3.23029 0
M  V30 9930 C 918.053 -5.63074 3.58475 0
M  V30 9931 H 917.323 -0.740838 0.0155047 0
M  V30 9932 H 919.97 -1.76759 0.736776 0
M  V30 9933 H 918.275 -3.82005 -0.870596 0
M  V30 9934 H 919.972 -3.97716 -0.512176 0
M  V30 9935 H 916.562 -4.18921 0.905718 0
M  V30 9936 H 920.746 -4.63264 1.78046 0
M  V30 9937 H 916.002 -5.31818 3.01628 0
M  V30 9938 H 920.176 -5.77531 3.89141 0
M  V30 9939 H 917.803 -6.11598 4.515 0
M  V30 9940 N 919.378 -0.300708 -1.54705 0
M  V30 9941 C 920.603 0.314073 -2.05008 0
M  V30 9942 C 921.028 1.46759 -1.17657 0
M  V30 9943 O 920.386 1.80398 -0.180598 0
M  V30 9944 C 920.434 0.748243 -3.52752 0
M  V30 9945 O 919.538 1.85305 -3.68424 0
M  V30 9946 H 918.879 0.0610139 -0.661191 0
M  V30 9947 H 921.409 -0.442467 -1.99758 0
M  V30 9948 H 921.419 1.03713 -3.94598 0
M  V30 9949 H 920.094 -0.095573 -4.1579 0
M  V30 9950 H 918.671 1.56473 -3.38483 0
M  V30 9951 N 920.856 1.57574 -0.0284266 0
M  V30 9952 C 922.081 1.96479 0.664137 0
M  V30 9953 C 922.506 0.904826 1.64908 0
M  V30 9954 O 921.864 -0.134339 1.80802 0
M  V30 9955 C 921.912 3.34479 1.34745 0
M  V30 9956 O 921.016 3.30794 2.46271 0
M  V30 9957 H 920.357 0.640654 0.174524 0
M  V30 9958 H 922.887 2.04402 -0.0900729 0
M  V30 9959 H 922.897 3.70694 1.7044 0
M  V30 9960 H 921.572 4.1117 0.625468 0
M  V30 9961 H 920.149 3.06294 2.12693 0
M  V30 9962 N 922.334 -0.244713 1.55689 0
M  V30 9963 C 923.264 -1.30667 1.93516 0
M  V30 9964 C 924.245 -1.50094 0.800371 0
M  V30 9965 O 925.43 -1.62665 1.06083 0
M  V30 9966 C 922.56 -2.66101 2.23176 0
M  V30 9967 C 921.514 -2.61366 3.38927 0
M  V30 9968 C 920.84 -4.00616 3.54134 0
M  V30 9969 C 922.14 -2.18161 4.74555 0
M  V30 9970 H 923.834 -0.992546 2.82469 0
M  V30 9971 H 921.38 -0.476018 1.35905 0
M  V30 9972 H 923.333 -3.4053 2.48228 0
M  V30 9973 H 922.057 -2.99154 1.31051 0
M  V30 9974 H 920.716 -1.89395 3.13887 0
M  V30 9975 H 920.364 -4.30938 2.59426 0
M  V30 9976 H 920.064 -3.98335 4.31975 0
M  V30 9977 H 921.588 -4.76741 3.8151 0
M  V30 9978 H 923.002 -2.82323 4.98965 0
M  V30 9979 H 921.399 -2.26988 5.55515 0
M  V30 9980 H 922.469 -1.13333 4.7147 0
M  V30 9981 N 923.813 -1.49104 -0.510467 0
M  V30 9982 C 925.041 -1.61806 -1.28944 0
M  V30 9983 C 925.456 -0.285774 -1.86625 0
M  V30 9984 O 924.813 0.727551 -1.67371 0
M  V30 9985 C 924.864 -2.67966 -2.42645 0
M  V30 9986 O 924.585 -3.96026 -1.87337 0
M  V30 9987 C 926.086 -2.91286 -3.34166 0
M  V30 9988 H 923.306 -0.544999 -0.391429 0
M  V30 9989 H 925.85 -1.95071 -0.613805 0
M  V30 9990 H 924.005 -2.37505 -3.06056 0
M  V30 9991 H 924.419 -4.54427 -2.61909 0
M  V30 9992 H 925.893 -3.69323 -4.1025 0
M  V30 9993 H 926.37 -2.00842 -3.90588 0
M  V30 9994 H 926.976 -3.23127 -2.76531 0
M  V30 9995 N 925.291 0.760815 -1.38019 0
M  V30 9996 C 926.516 1.55513 -1.37224 0
M  V30 9997 C 926.941 1.88062 0.037611 0
M  V30 9998 O 926.299 1.50042 1.0177 0
M  V30 9999 C 926.347 2.83539 -2.22796 0
M  V30 10000 O 925.451 3.78384 -1.64009 0
M  V30 10001 H 924.792 0.470642 -0.468393 0
M  V30 10002 H 927.322 0.940792 -1.81687 0
M  V30 10003 H 927.332 3.32535 -2.36399 0
M  V30 10004 H 926.007 2.59178 -3.25269 0
M  V30 10005 H 924.584 3.37063 -1.59508 0
M  V30 10006 N 926.769 1.22769 0.988202 0
M  V30 10007 C 928.015 1.05665 1.73097 0
M  V30 10008 C 928.348 -0.406615 1.89895 0
M  V30 10009 O 927.623 -1.30132 1.44554 0
M  V30 10010 C 927.906 1.77381 3.13382 0
M  V30 10011 C 927.759 3.31332 3.04203 0
M  V30 10012 C 929.078 1.52999 4.12649 0
M  V30 10013 H 926.197 0.385258 0.628288 0
M  V30 10014 H 928.839 1.51171 1.15097 0
M  V30 10015 H 926.989 1.38696 3.62899 0
M  V30 10016 H 928.661 3.79489 2.6227 0
M  V30 10017 H 926.904 3.60767 2.40894 0
M  V30 10018 H 927.575 3.76692 4.03493 0
M  V30 10019 H 930.051 1.86611 3.71908 0
M  V30 10020 H 928.927 2.05666 5.08913 0
M  V30 10021 H 929.188 0.463615 4.39662 0
M  V30 10022 N 928.247 -1.18576 1.03814 0
M  V30 10023 C 929.495 -1.88121 0.738574 0
M  V30 10024 C 929.816 -1.80587 -0.735744 0
M  V30 10025 O 929.086 -1.22251 -1.53074 0
M  V30 10026 H 927.666 -0.696417 0.270208 0
M  V30 10027 H 930.328 -1.43912 1.31435 0
M  V30 10028 H 929.424 -2.94222 1.04115 0
M  V30 10029 N 929.725 -0.817259 -1.34754 0
M  V30 10030 C 930.972 -0.402648 -1.98457 0
M  V30 10031 C 931.3 1.03287 -1.64809 0
M  V30 10032 O 930.555 1.73316 -0.908851 0
M  V30 10033 C 930.854 -0.5453 -3.53216 0
M  V30 10034 C 930.52 -1.9457 -4.06759 0
M  V30 10035 C 929.182 -2.32881 -4.21094 0
M  V30 10036 C 931.534 -2.86141 -4.35629 0
M  V30 10037 C 928.862 -3.62108 -4.61622 0
M  V30 10038 C 931.214 -4.14826 -4.776 0
M  V30 10039 C 929.878 -4.53121 -4.9014 0
M  V30 10040 H 929.148 -0.147339 -0.726204 0
M  V30 10041 H 931.795 -1.04011 -1.60791 0
M  V30 10042 H 930.1 0.175576 -3.91406 0
M  V30 10043 H 931.797 -0.205112 -4.00475 0
M  V30 10044 H 928.387 -1.6381 -3.96061 0
M  V30 10045 H 932.571 -2.57788 -4.24098 0
M  V30 10046 H 927.827 -3.91613 -4.69521 0
M  V30 10047 H 932.001 -4.85874 -4.98899 0
M  V30 10048 H 929.628 -5.53307 -5.21302 0
M  V30 10049 N 931.203 1.46865 -0.571711 0
M  V30 10050 C 932.451 2.0203 -0.0530022 0
M  V30 10051 C 932.772 1.44687 1.30731 0
M  V30 10052 O 932.042 0.627429 1.85581 0
M  V30 10053 H 930.622 0.746815 -0.0166035 0
M  V30 10054 H 933.284 1.80099 -0.745003 0
M  V30 10055 H 932.38 3.12091 0.0242538 0
M  V30 10056 N 932.681 0.308908 1.54543 0
M  V30 10057 C 933.629 -0.579326 2.2527 0
M  V30 10058 C 934.623 -1.13058 1.26152 0
M  V30 10059 O 935.829 -1.08031 1.43977 0
M  V30 10060 H 932.204 -0.205444 0.723392 0
M  V30 10061 H 934.175 0.0396415 2.98374 0
M  V30 10062 C 932.924 -1.73584 3.01271 0
M  V30 10063 H 932.247 -1.32089 3.77349 0
M  V30 10064 H 933.687 -2.33324 3.54028 0
M  V30 10065 C 932.146 -2.6447 2.08703 0
M  V30 10066 O 932.676 -3.65785 1.66025 0
M  V30 10067 N 930.882 -2.32379 1.74495 0
M  V30 10068 H 930.429 -1.50034 2.09398 0
M  V30 10069 H 930.387 -2.93454 1.12836 0
M  V30 10070 N 934.159 -1.57557 0.0367827 0
M  V30 10071 C 935.405 -1.92399 -0.641133 0
M  V30 10072 C 935.738 -0.914191 -1.71336 0
M  V30 10073 O 935.013 0.0619616 -1.94401 0
M  V30 10074 C 935.296 -3.37689 -1.25052 0
M  V30 10075 C 935.149 -4.4941 -0.187326 0
M  V30 10076 C 936.468 -3.8309 -2.16634 0
M  V30 10077 H 933.587 -0.699666 -0.231597 0
M  V30 10078 H 936.229 -1.89759 0.0956083 0
M  V30 10079 H 934.379 -3.40069 -1.87843 0
M  V30 10080 H 936.051 -4.59161 0.443736 0
M  V30 10081 H 934.294 -4.31065 0.486313 0
M  V30 10082 H 934.965 -5.48119 -0.653459 0
M  V30 10083 H 937.441 -3.82494 -1.63821 0
M  V30 10084 H 936.317 -4.85429 -2.56222 0
M  V30 10085 H 936.578 -3.19028 -3.06062 0
M  V30 10086 N 935.637 0.236453 -1.55816 0
M  V30 10087 C 936.862 0.98449 -1.82545 0
M  V30 10088 C 937.287 1.77755 -0.615206 0
M  V30 10089 O 936.645 1.75982 0.435895 0
M  V30 10090 C 936.693 1.88973 -3.07118 0
M  V30 10091 O 935.797 2.98298 -2.84766 0
M  V30 10092 H 935.138 0.279577 -0.602273 0
M  V30 10093 H 937.668 0.254277 -2.03014 0
M  V30 10094 H 937.678 2.3024 -3.36829 0
M  V30 10095 H 936.353 1.30671 -3.94839 0
M  V30 10096 H 934.93 2.61085 -2.6625 0
M  V30 10097 N 937.115 1.49373 0.502552 0
M  V30 10098 C 938.526 1.52 1.0841 0
M  V30 10099 C 938.877 0.305317 1.9381 0
M  V30 10100 O 938.002 -0.585023 2.08342 0
M  V30 10101 C 938.597 2.75437 1.97281 0
M  V30 10102 C 937.156 2.80848 2.50602 0
M  V30 10103 C 936.303 2.45894 1.28186 0
M  V30 10104 H 939.254 1.56092 0.286533 0
M  V30 10105 H 939.275 2.55511 2.81947 0
M  V30 10106 H 938.787 3.63827 1.35098 0
M  V30 10107 H 936.888 1.96735 3.16427 0
M  V30 10108 H 937.001 3.82979 2.8786 0
M  V30 10109 H 935.365 1.97639 1.60657 0
M  V30 10110 H 936.148 3.36556 0.677139 0
M  V30 10111 N 938.594 -0.753485 1.38421 0
M  V30 10112 C 939.542 -1.8886 1.35774 0
M  V30 10113 C 940.536 -1.67639 0.243608 0
M  V30 10114 O 941.742 -1.75206 0.412649 0
M  V30 10115 H 938.117 -0.62137 0.42356 0
M  V30 10116 H 940.088 -1.88209 2.3156 0
M  V30 10117 C 938.837 -3.26344 1.19979 0
M  V30 10118 H 938.16 -3.43259 2.04971 0
M  V30 10119 H 939.6 -4.06015 1.22181 0
M  V30 10120 C 938.059 -3.36771 -0.0932867 0
M  V30 10121 O 938.589 -3.8718 -1.07027 0
M  V30 10122 N 936.795 -2.90212 -0.150154 0
M  V30 10123 H 936.342 -2.4938 0.645562 0
M  V30 10124 H 936.3 -2.97569 -1.0149 0
M  V30 10125 N 940.072 -1.23292 -0.981677 0
M  V30 10126 C 941.3 -1.09088 -1.75805 0
M  V30 10127 C 941.715 0.357746 -1.8538 0
M  V30 10128 O 941.072 1.24751 -1.33205 0
M  V30 10129 C 941.123 -1.70885 -3.1856 0
M  V30 10130 O 940.844 -3.10082 -3.09484 0
M  V30 10131 C 942.345 -1.62106 -4.12597 0
M  V30 10132 H 939.565 -0.38184 -0.55176 0
M  V30 10133 H 942.109 -1.63116 -1.23342 0
M  V30 10134 H 940.264 -1.20893 -3.68054 0
M  V30 10135 H 940.678 -3.40039 -3.99342 0
M  V30 10136 H 942.152 -2.10049 -5.10474 0
M  V30 10137 H 942.629 -0.579642 -4.35358 0
M  V30 10138 H 943.235 -2.11457 -3.69007 0
M  V30 10139 N 941.55 1.18024 -1.04442 0
M  V30 10140 C 942.498 2.23834 -0.632557 0
M  V30 10141 C 943.492 1.65902 0.342488 0
M  V30 10142 O 944.698 1.78778 0.20937 0
M  V30 10143 H 941.073 0.728544 -0.186353 0
M  V30 10144 H 943.044 2.55876 -1.53526 0
M  V30 10145 C 941.793 3.47697 -0.0153661 0
M  V30 10146 H 941.116 3.92574 -0.756704 0
M  V30 10147 H 942.556 4.23345 0.235541 0
M  V30 10148 C 941.015 3.13416 1.23579 0
M  V30 10149 O 941.545 3.27499 2.3261 0
M  V30 10150 N 939.751 2.67708 1.13053 0
M  V30 10151 H 939.298 2.56449 0.243277 0
M  V30 10152 H 939.256 2.45143 1.96855 0
M  V30 10153 N 943.028 0.824394 1.34319 0
M  V30 10154 C 944.253 0.425194 2.02995 0
M  V30 10155 C 944.678 -0.961476 1.6167 0
M  V30 10156 O 944.036 -1.62593 0.80207 0
M  V30 10157 C 944.084 0.537004 3.56579 0
M  V30 10158 O 943.188 -0.442576 4.10018 0
M  V30 10159 H 942.529 0.174853 0.640564 0
M  V30 10160 H 945.059 1.11522 1.71534 0
M  V30 10161 H 945.069 0.413311 4.05901 0
M  V30 10162 H 943.744 1.54836 3.86004 0
M  V30 10163 H 942.321 -0.277644 3.71865 0
M  V30 10164 N 944.506 -1.46559 0.579492 0
M  V30 10165 C 945.416 -2.34066 -0.15816 0
M  V30 10166 C 946.432 -1.49556 -0.88932 0
M  V30 10167 O 947.608 -1.82434 -0.853226 0
M  V30 10168 C 944.673 -3.26683 -1.161 0
M  V30 10169 C 943.734 -4.27092 -0.434855 0
M  V30 10170 C 942.967 -5.15283 -1.38992 0
M  V30 10171 O 943.19 -5.06345 -2.62623 0
M  V30 10172 O 942.124 -5.95099 -0.902253 0
M  V30 10173 H 945.95 -2.98488 0.560234 0
M  V30 10174 H 943.535 -1.45482 0.339918 0
M  V30 10175 H 945.417 -3.8383 -1.73932 0
M  V30 10176 H 944.092 -2.64862 -1.86091 0
M  V30 10177 H 942.999 -3.73641 0.185224 0
M  V30 10178 H 944.332 -4.9169 0.224031 0
M  V30 10179 N 945.984 -0.3171 -1.54377 0
M  V30 10180 C 946.931 0.551782 -2.24107 0
M  V30 10181 C 947.901 1.11681 -1.22949 0
M  V30 10182 O 949.086 1.15836 -1.51614 0
M  V30 10183 C 946.226 1.70997 -2.99756 0
M  V30 10184 C 945.339 1.17479 -4.15719 0
M  V30 10185 C 944.474 2.29815 -4.78914 0
M  V30 10186 C 943.513 1.73513 -5.86992 0
M  V30 10187 N 942.65 2.79485 -6.44075 0
M  V30 10188 H 947.49 -0.049431 -2.97959 0
M  V30 10189 H 945.027 -0.0361658 -1.47056 0
M  V30 10190 H 946.985 2.39141 -3.41859 0
M  V30 10191 H 945.615 2.28257 -2.28251 0
M  V30 10192 H 944.667 0.385109 -3.78446 0
M  V30 10193 H 945.979 0.72276 -4.93536 0
M  V30 10194 H 945.133 3.05875 -5.23952 0
M  V30 10195 H 943.872 2.78352 -4.00464 0
M  V30 10196 H 942.877 0.959475 -5.41363 0
M  V30 10197 H 944.102 1.2586 -6.67335 0
M  V30 10198 H 942.048 3.27325 -5.68502 0
M  V30 10199 H 941.965 2.38825 -7.17286 0
M  V30 10200 H 943.233 3.55394 -6.93769 0
M  V30 10201 N 947.462 1.57535 -0.0451378 0
M  V30 10202 C 948.711 1.91628 0.629415 0
M  V30 10203 C 949.024 0.924754 1.72359 0
M  V30 10204 O 950.23 1.15751 2.45589 0
M  V30 10205 C 948.686 3.40322 1.17084 0
M  V30 10206 C 948.294 4.47867 0.109101 0
M  V30 10207 C 950.038 3.83458 1.82099 0
M  V30 10208 C 947.945 5.87671 0.663072 0
M  V30 10209 H 946.875 0.715163 0.238868 0
M  V30 10210 H 949.526 1.83151 -0.113046 0
M  V30 10211 H 947.908 3.43783 1.96543 0
M  V30 10212 H 949.082 4.55988 -0.664201 0
M  V30 10213 H 947.397 4.14034 -0.443227 0
M  V30 10214 H 949.994 4.85273 2.2453 0
M  V30 10215 H 950.337 3.19379 2.67026 0
M  V30 10216 H 950.87 3.82488 1.09305 0
M  V30 10217 H 947.609 6.55332 -0.148423 0
M  V30 10218 H 947.129 5.83124 1.4045 0
M  V30 10219 H 948.808 6.36737 1.14785 0
M  V30 10220 N 948.94 -0.228186 1.55939 0
M  V30 10221 C 950.187 -0.953552 1.78644 0
M  V30 10222 C 950.515 -1.84596 0.61275 0
M  V30 10223 O 949.77 -1.91502 -0.403175 0
M  V30 10224 C 950.069 -1.82924 3.0704 0
M  V30 10225 C 949.735 -1.09062 4.37511 0
M  V30 10226 C 948.397 -0.886565 4.72962 0
M  V30 10227 C 950.749 -0.568533 5.1809 0
M  V30 10228 C 948.077 -0.148413 5.86512 0
M  V30 10229 C 950.429 0.156243 6.32407 0
M  V30 10230 C 949.093 0.371612 6.66465 0
M  V30 10231 H 948.363 -0.348929 0.653704 0
M  V30 10232 H 951.01 -0.222211 1.90206 0
M  V30 10233 H 949.315 -2.62823 2.90571 0
M  V30 10234 H 951.012 -2.3925 3.21808 0
M  V30 10235 H 947.602 -1.25963 4.09672 0
M  V30 10236 H 951.786 -0.713673 4.91142 0
M  V30 10237 H 947.042 0.0287418 6.11393 0
M  V30 10238 H 951.216 0.568333 6.94077 0
M  V30 10239 H 948.843 0.945522 7.54297 0
M  V30 10240 N 950.418 -1.49637 -0.494624 0
M  V30 10241 C 951.643 -1.63431 -1.27691 0
M  V30 10242 C 952.068 -0.30813 -1.85559 0
M  V30 10243 O 951.426 0.725083 -1.66169 0
M  V30 10244 C 951.474 -2.71043 -2.3784 0
M  V30 10245 O 950.578 -2.3066 -3.41862 0
M  V30 10246 H 949.919 -0.546804 -0.376698 0
M  V30 10247 H 952.449 -1.95866 -0.591413 0
M  V30 10248 H 952.459 -2.93406 -2.83508 0
M  V30 10249 H 951.134 -3.67306 -1.95088 0
M  V30 10250 H 949.711 -2.18652 -3.02069 0
M  V30 10251 N 951.896 0.746133 -1.38819 0
M  V30 10252 C 953.145 1.50085 -1.34749 0
M  V30 10253 C 953.458 1.95516 0.0574786 0
M  V30 10254 O 954.664 2.70601 0.22073 0
M  V30 10255 C 953.12 2.71141 -2.36665 0
M  V30 10256 C 952.728 2.32706 -3.82821 0
M  V30 10257 C 954.472 3.49005 -2.41652 0
M  V30 10258 C 952.379 3.50418 -4.76405 0
M  V30 10259 H 951.309 0.563563 -0.500912 0
M  V30 10260 H 953.96 0.814951 -1.6441 0
M  V30 10261 H 952.342 3.4175 -2.00058 0
M  V30 10262 H 953.516 1.69715 -4.28408 0
M  V30 10263 H 951.831 1.67959 -3.81023 0
M  V30 10264 H 954.428 4.36541 -3.08766 0
M  V30 10265 H 954.771 3.90687 -1.43769 0
M  V30 10266 H 955.304 2.85416 -2.77097 0
M  V30 10267 H 952.043 3.13795 -5.75511 0
M  V30 10268 H 951.563 4.12426 -4.35505 0
M  V30 10269 H 953.242 4.16901 -4.94775 0
M  V30 10270 N 953.375 1.23811 0.975125 0
M  V30 10271 C 954.615 1.08517 1.73215 0
M  V30 10272 C 954.979 -0.370777 1.88386 0
M  V30 10273 O 956.18 -0.645036 2.60946 0
M  V30 10274 C 954.451 1.79649 3.08968 0
M  V30 10275 S 956.01 1.79993 4.00185 0
M  V30 10276 H 952.828 0.388256 0.595633 0
M  V30 10277 H 955.43 1.57028 1.16458 0
M  V30 10278 H 954.134 2.8471 2.95581 0
M  V30 10279 H 953.665 1.31441 3.70792 0
M  V30 10280 H 955.68 0.862294 4.8865 0
M  V30 10281 N 954.853 -1.17469 1.05066 0
M  V30 10282 C 956.099 -1.87976 0.761113 0
M  V30 10283 C 956.432 -1.80756 -0.709995 0
M  V30 10284 O 955.707 -1.21469 -1.51906 0
M  V30 10285 C 955.99 -3.38055 1.2406 0
M  V30 10286 C 955.843 -3.54032 2.77455 0
M  V30 10287 C 957.162 -4.32036 0.838612 0
M  V30 10288 H 954.281 -0.682573 0.277963 0
M  V30 10289 H 956.923 -1.38147 1.30443 0
M  V30 10290 H 955.073 -3.80622 0.778388 0
M  V30 10291 H 956.745 -3.20489 3.3179 0
M  V30 10292 H 954.988 -2.96352 3.16793 0
M  V30 10293 H 955.659 -4.59377 3.06066 0
M  V30 10294 H 958.135 -3.97303 1.23651 0
M  V30 10295 H 957.011 -5.35583 1.20173 0
M  V30 10296 H 957.272 -4.41349 -0.257498 0
M  V30 10297 N 956.331 -0.831506 -1.3388 0
M  V30 10298 C 957.264 -0.2046 -2.27281 0
M  V30 10299 C 958.242 0.643992 -1.49303 0
M  V30 10300 O 959.426 0.605863 -1.78498 0
M  V30 10301 C 956.553 0.713409 -3.31101 0
M  V30 10302 C 955.599 -0.0587654 -4.2646 0
M  V30 10303 S 956.432 -1.41172 -5.16557 0
M  V30 10304 C 957.588 -0.498807 -6.23909 0
M  V30 10305 H 957.821 -0.996442 -2.80104 0
M  V30 10306 H 955.354 -0.62786 -1.41058 0
M  V30 10307 H 957.312 1.23748 -3.91403 0
M  V30 10308 H 955.973 1.47885 -2.77108 0
M  V30 10309 H 955.166 0.639466 -4.99927 0
M  V30 10310 H 954.768 -0.513665 -3.70456 0
M  V30 10311 H 957.06 0.306268 -6.76807 0
M  V30 10312 H 958.003 -1.20342 -6.97799 0
M  V30 10313 H 958.411 -0.0834242 -5.64438 0
M  V30 10314 N 957.809 1.4625 -0.587256 0
M  V30 10315 C 958.739 2.33132 0.131076 0
M  V30 10316 C 959.72 1.45619 0.879158 0
M  V30 10317 O 960.905 1.74428 0.853723 0
M  V30 10318 C 958.035 3.27975 1.14236 0
M  V30 10319 C 956.989 4.24965 0.508819 0
M  V30 10320 C 956.315 5.09349 1.62689 0
M  V30 10321 C 957.615 5.19322 -0.55694 0
M  V30 10322 H 959.309 2.93442 -0.594333 0
M  V30 10323 H 956.855 1.41106 -0.287263 0
M  V30 10324 H 958.808 3.87614 1.65328 0
M  V30 10325 H 957.532 2.65781 1.8981 0
M  V30 10326 H 956.191 3.66595 0.0189337 0
M  V30 10327 H 955.839 4.43537 2.37242 0
M  V30 10328 H 955.539 5.75036 1.20861 0
M  V30 10329 H 957.063 5.71852 2.14049 0
M  V30 10330 H 958.477 5.73151 -0.130903 0
M  V30 10331 H 956.874 5.93376 -0.895801 0
M  V30 10332 H 957.944 4.62979 -1.44148 0
M  V30 10333 N 959.287 0.325282 1.54207 0
M  V30 10334 C 960.536 -0.27768 1.99779 0
M  V30 10335 C 960.849 -1.5311 1.21723 0
M  V30 10336 O 962.055 -2.21017 1.57682 0
M  V30 10337 C 960.511 -0.545329 3.55745 0
M  V30 10338 C 960.119 0.691143 4.42637 0
M  V30 10339 C 961.863 -1.10815 4.09781 0
M  V30 10340 C 959.77 0.395302 5.90077 0
M  V30 10341 H 958.7 -0.107536 0.746292 0
M  V30 10342 H 961.351 0.437773 1.78202 0
M  V30 10343 H 959.733 -1.32101 3.73317 0
M  V30 10344 H 960.907 1.46653 4.3684 0
M  V30 10345 H 959.222 1.1743 3.99499 0
M  V30 10346 H 961.819 -1.34414 5.1753 0
M  V30 10347 H 962.162 -2.05806 3.6187 0
M  V30 10348 H 962.695 -0.393608 3.95848 0
M  V30 10349 H 959.434 1.31443 6.42186 0
M  V30 10350 H 958.954 -0.34235 5.98822 0
M  V30 10351 H 960.633 0.00576877 6.47 0
M  V30 10352 N 960.765 -1.57509 0.0534917 0
M  V30 10353 C 962.013 -1.92402 -0.618548 0
M  V30 10354 C 962.334 -0.93273 -1.71246 0
M  V30 10355 O 961.604 0.0220495 -1.95888 0
M  V30 10356 H 960.184 -0.710233 -0.23147 0
M  V30 10357 H 962.846 -1.94606 0.10704 0
M  V30 10358 H 961.942 -2.93704 -1.05566 0
M  V30 10359 N 962.243 0.219913 -1.56058 0
M  V30 10360 C 963.468 0.965073 -1.83579 0
M  V30 10361 C 963.893 1.77092 -0.634024 0
M  V30 10362 O 963.251 1.76434 0.417205 0
M  V30 10363 C 963.299 1.85705 -3.09105 0
M  V30 10364 O 962.403 2.95261 -2.87914 0
M  V30 10365 H 961.744 0.273173 -0.605204 0
M  V30 10366 H 964.274 0.23273 -2.03272 0
M  V30 10367 H 964.284 2.26655 -3.39252 0
M  V30 10368 H 962.959 1.26476 -3.96203 0
M  V30 10369 H 961.536 2.58246 -2.69005 0
M  V30 10370 N 963.721 1.49897 0.486681 0
M  V30 10371 C 964.651 1.7054 1.59494 0
M  V30 10372 C 965.632 0.554184 1.60819 0
M  V30 10373 O 966.817 0.791617 1.77333 0
M  V30 10374 C 963.947 1.78517 2.97908 0
M  V30 10375 C 962.901 2.93571 3.11449 0
M  V30 10376 C 962.227 2.86674 4.51356 0
M  V30 10377 C 963.527 4.34308 2.90127 0
M  V30 10378 H 965.221 2.63329 1.42472 0
M  V30 10379 H 962.767 1.2672 0.683969 0
M  V30 10380 H 964.72 1.91544 3.75352 0
M  V30 10381 H 963.444 0.823381 3.16051 0
M  V30 10382 H 962.103 2.80169 2.36433 0
M  V30 10383 H 961.751 1.88373 4.66395 0
M  V30 10384 H 961.451 3.63903 4.61355 0
M  V30 10385 H 962.975 3.01728 5.30841 0
M  V30 10386 H 964.389 4.48317 3.57331 0
M  V30 10387 H 962.786 5.12869 3.11585 0
M  V30 10388 H 963.856 4.47759 1.86119 0
M  V30 10389 N 965.199 -0.738761 1.39212 0
M  V30 10390 C 966.132 -1.86135 1.32018 0
M  V30 10391 C 967.11 -1.61432 0.194512 0
M  V30 10392 O 968.294 -1.84746 0.374331 0
M  V30 10393 C 965.421 -3.22044 1.04907 0
M  V30 10394 C 964.467 -3.65612 2.19613 0
M  V30 10395 S 965.3 -3.75418 3.81866 0
M  V30 10396 C 966.456 -5.14122 3.56972 0
M  V30 10397 H 966.689 -1.91954 2.27027 0
M  V30 10398 H 964.222 -0.903244 1.25223 0
M  V30 10399 H 966.18 -4.00524 0.899491 0
M  V30 10400 H 964.841 -3.13886 0.115918 0
M  V30 10401 H 964.034 -4.64232 1.96227 0
M  V30 10402 H 963.636 -2.94327 2.30755 0
M  V30 10403 H 965.928 -6.00339 3.14005 0
M  V30 10404 H 966.871 -5.42535 4.55039 0
M  V30 10405 H 967.279 -4.8362 2.91156 0
M  V30 10406 N 966.677 -1.24326 -0.968545 0
M  V30 10407 C 967.907 -1.10786 -1.74385 0
M  V30 10408 C 968.315 0.342503 -1.86074 0
M  V30 10409 O 967.658 1.24817 -1.34782 0
M  V30 10410 C 967.72 -1.67274 -3.18213 0
M  V30 10411 C 967.384 -3.1615 -3.29998 0
M  V30 10412 C 968.381 -4.13309 -3.15392 0
M  V30 10413 C 966.066 -3.56092 -3.54265 0
M  V30 10414 C 968.06 -5.48392 -3.24878 0
M  V30 10415 C 965.747 -4.91316 -3.63389 0
M  V30 10416 C 966.745 -5.87275 -3.48707 0
M  V30 10417 O 966.433 -7.20041 -3.57485 0
M  V30 10418 H 966.165 -0.387795 -0.553706 0
M  V30 10419 H 968.719 -1.64894 -1.22471 0
M  V30 10420 H 966.949 -1.07598 -3.71429 0
M  V30 10421 H 968.638 -1.49036 -3.77549 0
M  V30 10422 H 969.404 -3.83792 -2.96528 0
M  V30 10423 H 965.283 -2.81907 -3.6476 0
M  V30 10424 H 968.827 -6.23271 -3.13335 0
M  V30 10425 H 964.724 -5.20505 -3.81766 0
M  V30 10426 H 965.492 -7.27951 -3.74205 0
M  V30 10427 N 968.156 1.1691 -1.05688 0
M  V30 10428 C 969.119 2.19297 -0.666433 0
M  V30 10429 C 970.119 1.5826 0.284674 0
M  V30 10430 O 971.309 1.74068 0.0678757 0
M  V30 10431 C 968.441 3.40894 0.0203656 0
M  V30 10432 H 969.634 2.55354 -1.57272 0
M  V30 10433 H 967.187 1.31078 -0.851359 0
M  V30 10434 H 967.922 3.10388 0.939686 0
M  V30 10435 H 967.707 3.86446 -0.663464 0
M  V30 10436 H 969.197 4.16664 0.279475 0
M  V30 10437 N 969.634 0.838594 1.33437 0
M  V30 10438 C 970.859 0.446701 2.02532 0
M  V30 10439 C 971.284 -0.944275 1.62681 0
M  V30 10440 O 970.642 -1.61733 0.81927 0
M  V30 10441 C 970.69 0.574794 3.55989 0
M  V30 10442 O 969.794 -0.399063 4.10465 0
M  V30 10443 H 969.135 0.181637 0.638674 0
M  V30 10444 H 971.665 1.13335 1.70342 0
M  V30 10445 H 971.675 0.456339 4.0544 0
M  V30 10446 H 970.35 1.58921 3.8434 0
M  V30 10447 H 968.927 -0.238187 3.72139 0
M  V30 10448 N 971.112 -1.45937 0.595003 0
M  V30 10449 C 972.361 -2.01529 0.0829531 0
M  V30 10450 C 972.674 -1.47071 -1.28955 0
M  V30 10451 O 973.88 -1.94561 -1.89363 0
M  V30 10452 C 972.336 -3.59767 0.0976597 0
M  V30 10453 C 971.944 -4.23223 1.46924 0
M  V30 10454 C 973.688 -4.22972 -0.359805 0
M  V30 10455 C 971.595 -5.73576 1.44101 0
M  V30 10456 H 970.525 -0.753508 0.0272425 0
M  V30 10457 H 973.176 -1.67541 0.748473 0
M  V30 10458 H 971.558 -3.90888 -0.634268 0
M  V30 10459 H 972.732 -4.03695 2.22187 0
M  V30 10460 H 971.047 -3.72161 1.86775 0
M  V30 10461 H 973.644 -5.33202 -0.39991 0
M  V30 10462 H 973.987 -3.92765 -1.37991 0
M  V30 10463 H 974.52 -3.96523 0.31845 0
M  V30 10464 H 971.259 -6.08462 2.43831 0
M  V30 10465 H 970.779 -5.95332 0.730767 0
M  V30 10466 H 972.458 -6.36531 1.1592 0
M  V30 10467 N 972.59 -0.333456 -1.54032 0
M  V30 10468 C 973.837 0.266133 -2.00744 0
M  V30 10469 C 974.165 1.51361 -1.22148 0
M  V30 10470 O 973.42 1.93473 -0.294368 0
M  V30 10471 C 973.719 0.63565 -3.51702 0
M  V30 10472 C 973.385 -0.513786 -4.47963 0
M  V30 10473 C 972.047 -0.829253 -4.74001 0
M  V30 10474 C 974.399 -1.2854 -5.05101 0
M  V30 10475 C 971.727 -1.91888 -5.54433 0
M  V30 10476 C 974.079 -2.3652 -5.86721 0
M  V30 10477 C 972.743 -2.68637 -6.11057 0
M  V30 10478 H 972.013 0.097385 -0.734573 0
M  V30 10479 H 974.66 -0.459282 -1.85911 0
M  V30 10480 H 972.965 1.44163 -3.64313 0
M  V30 10481 H 974.662 1.11129 -3.85294 0
M  V30 10482 H 971.252 -0.25784 -4.27824 0
M  V30 10483 H 975.436 -1.05494 -4.84958 0
M  V30 10484 H 970.692 -2.17208 -5.71516 0
M  V30 10485 H 974.866 -2.96747 -6.30011 0
M  V30 10486 H 972.493 -3.53197 -6.73169 0
M  V30 10487 N 974.068 1.57479 -0.061844 0
M  V30 10488 C 975.316 1.92727 0.608336 0
M  V30 10489 C 975.637 0.941799 1.70749 0
M  V30 10490 O 974.907 -0.0116608 1.95897 0
M  V30 10491 H 973.487 0.71145 0.2277 0
M  V30 10492 H 976.149 1.94546 -0.117359 0
M  V30 10493 H 975.245 2.9426 1.04007 0
M  V30 10494 N 975.546 -0.211634 1.56173 0
M  V30 10495 C 976.494 -1.28188 1.94089 0
M  V30 10496 C 977.488 -1.47999 0.824167 0
M  V30 10497 O 978.694 -1.49056 1.00907 0
M  V30 10498 H 975.069 -0.42999 0.616938 0
M  V30 10499 H 977.04 -0.934962 2.83374 0
M  V30 10500 C 975.789 -2.62294 2.28248 0
M  V30 10501 H 975.112 -2.4786 3.13696 0
M  V30 10502 H 976.552 -3.35967 2.58655 0
M  V30 10503 C 975.011 -3.18049 1.11113 0
M  V30 10504 O 975.541 -3.99923 0.377458 0
M  V30 10505 N 973.747 -2.76561 0.892321 0
M  V30 10506 H 973.294 -2.10088 1.49067 0
M  V30 10507 H 973.252 -3.14206 0.110344 0
M  V30 10508 N 977.024 -1.50153 -0.478725 0
M  V30 10509 C 978.27 -1.60998 -1.23318 0
M  V30 10510 C 978.603 -0.305868 -1.91776 0
M  V30 10511 O 977.878 0.692158 -1.81767 0
M  V30 10512 C 978.161 -2.78495 -2.28282 0
M  V30 10513 C 978.014 -4.18767 -1.64178 0
M  V30 10514 C 979.333 -2.91569 -3.2966 0
M  V30 10515 H 976.452 -0.585983 -0.446982 0
M  V30 10516 H 979.094 -1.82514 -0.528063 0
M  V30 10517 H 977.244 -2.60281 -2.8842 0
M  V30 10518 H 978.916 -4.48552 -1.07696 0
M  V30 10519 H 977.159 -4.23379 -0.94514 0
M  V30 10520 H 977.83 -4.96894 -2.40417 0
M  V30 10521 H 980.306 -3.08219 -2.79536 0
M  V30 10522 H 979.182 -3.75419 -4.0044 0
M  V30 10523 H 979.443 -2.01859 -3.93326 0
M  V30 10524 N 978.502 0.731368 -1.39602 0
M  V30 10525 C 979.727 1.52567 -1.40492 0
M  V30 10526 C 980.152 1.881 -0.00228828 0
M  V30 10527 O 979.51 1.52167 0.985643 0
M  V30 10528 C 979.558 2.78749 -2.2876 0
M  V30 10529 O 978.662 3.7482 -1.71999 0
M  V30 10530 H 978.003 0.460601 -0.478271 0
M  V30 10531 H 980.533 0.902042 -1.83642 0
M  V30 10532 H 980.543 3.27446 -2.43399 0
M  V30 10533 H 979.218 2.5222 -3.30693 0
M  V30 10534 H 977.795 3.33604 -1.66622 0
M  V30 10535 N 979.98 1.24838 0.961938 0
M  V30 10536 C 980.943 1.04674 2.03902 0
M  V30 10537 C 981.943 0.00204674 1.608 0
M  V30 10538 O 983.133 0.243555 1.72489 0
M  V30 10539 C 980.265 0.587736 3.35795 0
M  V30 10540 H 981.458 2.00278 2.23223 0
M  V30 10541 H 979.011 1.07142 1.138 0
M  V30 10542 H 979.746 -0.371244 3.22168 0
M  V30 10543 H 979.531 1.34182 3.68426 0
M  V30 10544 H 981.021 0.467867 4.14971 0
M  V30 10545 N 981.458 -1.16348 1.06306 0
M  V30 10546 C 982.707 -1.8622 0.774909 0
M  V30 10547 C 983.02 -1.82598 -0.701245 0
M  V30 10548 O 984.226 -2.48051 -1.10377 0
M  V30 10549 C 982.682 -3.34182 1.33604 0
M  V30 10550 C 982.29 -3.46279 2.84245 0
M  V30 10551 C 984.034 -4.09309 1.12544 0
M  V30 10552 C 981.941 -4.88327 3.33602 0
M  V30 10553 H 980.871 -0.697574 0.286194 0
M  V30 10554 H 983.522 -1.31311 1.28179 0
M  V30 10555 H 981.904 -3.88698 0.756937 0
M  V30 10556 H 983.078 -3.01923 3.48108 0
M  V30 10557 H 981.393 -2.84585 3.03974 0
M  V30 10558 H 983.99 -5.14123 1.46909 0
M  V30 10559 H 984.333 -4.16251 0.0638129 0
M  V30 10560 H 984.866 -3.61032 1.67034 0
M  V30 10561 H 981.605 -4.86565 4.39244 0
M  V30 10562 H 981.125 -5.33307 2.74487 0
M  V30 10563 H 982.804 -5.57144 3.28937 0
M  V30 10564 N 982.937 -0.845659 -1.3299 0
M  V30 10565 C 984.186 -0.440928 -1.96822 0
M  V30 10566 C 984.499 1.00668 -1.67706 0
M  V30 10567 O 985.705 1.51641 -2.25205 0
M  V30 10568 C 984.161 -0.73752 -3.52262 0
M  V30 10569 C 983.769 -2.20026 -3.90247 0
M  V30 10570 C 985.513 -0.400072 -4.22611 0
M  V30 10571 C 983.42 -2.44054 -5.38694 0
M  V30 10572 H 982.35 -0.161148 -0.736578 0
M  V30 10573 H 985.001 -1.03519 -1.51513 0
M  V30 10574 H 983.383 -0.0728025 -3.95933 0
M  V30 10575 H 984.557 -2.90602 -3.57613 0
M  V30 10576 H 982.872 -2.50135 -3.32899 0
M  V30 10577 H 985.469 -0.557136 -5.3179 0
M  V30 10578 H 985.812 0.657547 -4.11074 0
M  V30 10579 H 986.345 -1.0203 -3.84493 0
M  V30 10580 H 983.084 -3.48407 -5.55241 0
M  V30 10581 H 982.604 -1.78047 -5.72765 0
M  V30 10582 H 984.283 -2.27549 -6.05665 0
M  V30 10583 N 984.415 1.45619 -0.602734 0
M  V30 10584 C 985.347 2.28662 0.157012 0
M  V30 10585 C 986.36 1.39672 0.836396 0
M  V30 10586 O 987.549 1.64091 0.702599 0
M  V30 10587 C 984.649 3.1528 1.24306 0
M  V30 10588 C 983.822 4.32517 0.651731 0
M  V30 10589 C 982.881 5.00381 1.62804 0
M  V30 10590 O 981.907 5.57333 1.15624 0
M  V30 10591 N 983.109 4.99221 2.96241 0
M  V30 10592 H 985.874 2.94506 -0.555535 0
M  V30 10593 H 983.435 1.55753 -0.441881 0
M  V30 10594 H 985.427 3.57544 1.8959 0
M  V30 10595 H 983.997 2.51376 1.85819 0
M  V30 10596 H 983.217 3.93793 -0.17907 0
M  V30 10597 H 984.505 5.08249 0.236802 0
M  V30 10598 H 983.903 4.54232 3.37179 0
M  V30 10599 H 982.46 5.45364 3.56961 0
M  V30 10600 N 985.893 0.34162 1.53853 0
M  V30 10601 C 987.309 -0.0103769 1.59597 0
M  V30 10602 C 987.509 -1.48897 1.35764 0
M  V30 10603 O 986.565 -2.24743 1.15095 0
M  V30 10604 C 987.878 0.424067 2.97695 0
M  V30 10605 C 989.426 0.376247 3.1073 0
M  V30 10606 C 989.901 0.786129 4.51203 0
M  V30 10607 N 991.392 0.74024 4.57247 0
M  V30 10608 C 992.127 1.02937 5.64085 0
M  V30 10609 N 991.623 1.38655 6.78783 0
M  V30 10610 N 993.416 0.953734 5.5395 0
M  V30 10611 H 985.567 1.30477 1.67599 0
M  V30 10612 H 987.83 0.531753 0.78482 0
M  V30 10613 H 987.536 1.45493 3.20195 0
M  V30 10614 H 987.41 -0.201713 3.7666 0
M  V30 10615 H 989.797 -0.645441 2.87955 0
M  V30 10616 H 989.878 1.0372 2.33828 0
M  V30 10617 H 989.522 1.80582 4.74713 0
M  V30 10618 H 989.452 0.102671 5.265 0
M  V30 10619 H 991.943 0.476763 3.7488 0
M  V30 10620 H 992.256 1.59206 7.56223 0
M  V30 10621 H 990.601 1.42498 6.80235 0
M  V30 10622 H 993.792 0.674044 4.63222 0
M  V30 10623 H 993.965 1.18241 6.37121 0
M  V30 10624 N 987.371 -1.57444 0.0701946 0
M  V30 10625 C 988.301 -2.15659 -0.895176 0
M  V30 10626 C 989.282 -1.08321 -1.31151 0
M  V30 10627 O 990.467 -1.36349 -1.38284 0
M  V30 10628 C 987.597 -2.71693 -2.16334 0
M  V30 10629 C 986.551 -3.84183 -1.88645 0
M  V30 10630 C 985.877 -4.26814 -3.22078 0
M  V30 10631 C 987.177 -5.08493 -1.19299 0
M  V30 10632 H 988.871 -2.96576 -0.410217 0
M  V30 10633 H 986.417 -1.42662 -0.195872 0
M  V30 10634 H 988.37 -3.11064 -2.84284 0
M  V30 10635 H 987.094 -1.87994 -2.67069 0
M  V30 10636 H 985.753 -3.45314 -1.23101 0
M  V30 10637 H 985.401 -3.40039 -3.70651 0
M  V30 10638 H 985.101 -5.02642 -3.04344 0
M  V30 10639 H 986.625 -4.68799 -3.91228 0
M  V30 10640 H 988.039 -5.4519 -1.77316 0
M  V30 10641 H 986.436 -5.89588 -1.11828 0
M  V30 10642 H 987.506 -4.84595 -0.171839 0
M  V30 10643 N 988.849 0.203349 -1.56283 0
M  V30 10644 C 990.079 0.940061 -1.83974 0
M  V30 10645 C 990.487 1.77703 -0.649486 0
M  V30 10646 O 989.83 1.79487 0.391189 0
M  V30 10647 C 989.892 1.89249 -3.05655 0
M  V30 10648 C 989.556 1.23828 -4.39904 0
M  V30 10649 C 990.553 0.619231 -5.16199 0
M  V30 10650 C 988.238 1.2446 -4.86636 0
M  V30 10651 C 990.232 0.0152287 -6.37398 0
M  V30 10652 C 987.919 0.636764 -6.07773 0
M  V30 10653 C 988.917 0.0231481 -6.82996 0
M  V30 10654 O 988.605 -0.575187 -8.0184 0
M  V30 10655 H 988.337 0.280199 -0.615194 0
M  V30 10656 H 990.891 0.218111 -2.04239 0
M  V30 10657 H 989.121 2.65392 -2.81254 0
M  V30 10658 H 990.81 2.4963 -3.20062 0
M  V30 10659 H 991.576 0.606545 -4.81192 0
M  V30 10660 H 987.455 1.71161 -4.28048 0
M  V30 10661 H 990.999 -0.464333 -6.96053 0
M  V30 10662 H 986.896 0.646924 -6.4225 0
M  V30 10663 H 987.664 -0.471284 -8.17142 0
M  V30 10664 N 990.327 1.50405 0.470755 0
M  V30 10665 C 991.552 1.65442 1.25075 0
M  V30 10666 C 991.977 0.337612 1.85045 0
M  V30 10667 O 991.335 -0.698555 1.67302 0
M  V30 10668 C 991.383 2.74793 2.33498 0
M  V30 10669 O 990.487 2.36069 3.3815 0
M  V30 10670 H 989.828 0.552728 0.367951 0
M  V30 10671 H 992.358 1.96782 0.560177 0
M  V30 10672 H 992.368 2.97879 2.78804 0
M  V30 10673 H 991.043 3.70363 1.8922 0
M  V30 10674 H 989.62 2.2343 2.98552 0
M  V30 10675 N 991.805 -0.723954 1.39988 0
M  V30 10676 C 993.053 -1.48078 1.3754 0
M  V30 10677 C 993.374 -1.94985 -0.0243358 0
M  V30 10678 O 992.644 -1.69764 -0.977602 0
M  V30 10679 H 991.224 -0.549354 0.506181 0
M  V30 10680 H 993.886 -0.858746 1.74962 0
M  V30 10681 H 992.982 -2.35763 2.04505 0
M  V30 10682 N 993.283 -1.25346 -0.955304 0
M  V30 10683 C 994.511 -1.12793 -1.73451 0
M  V30 10684 C 994.926 0.318344 -1.86097 0
M  V30 10685 O 994.283 1.21897 -1.35821 0
M  V30 10686 C 994.334 -1.77603 -3.14864 0
M  V30 10687 O 994.055 -3.16577 -3.02837 0
M  V30 10688 C 995.556 -1.70821 -4.09066 0
M  V30 10689 H 992.776 -0.393457 -0.543537 0
M  V30 10690 H 995.32 -1.65696 -1.19855 0
M  V30 10691 H 993.475 -1.28673 -3.65407 0
M  V30 10692 H 993.889 -3.48433 -3.92039 0
M  V30 10693 H 995.363 -2.2083 -5.05903 0
M  V30 10694 H 995.84 -0.671858 -4.34031 0
M  V30 10695 H 996.446 -2.19237 -3.64438 0
M  V30 10696 N 994.761 1.15782 -1.06922 0
M  V30 10697 C 995.724 2.18578 -0.689654 0
M  V30 10698 C 996.724 1.58553 0.267872 0
M  V30 10699 O 997.914 1.7413 0.0494097 0
M  V30 10700 C 995.046 3.40896 -0.0157919 0
M  V30 10701 H 996.239 2.53672 -1.59971 0
M  V30 10702 H 993.792 1.30168 -0.865214 0
M  V30 10703 H 994.527 3.11367 0.906712 0
M  V30 10704 H 994.312 3.85721 -0.704415 0
M  V30 10705 H 995.802 4.16937 0.235266 0
M  V30 10706 N 996.239 0.8527 1.3254 0
M  V30 10707 C 997.655 0.542298 1.50104 0
M  V30 10708 C 997.855 -0.927465 1.78886 0
M  V30 10709 O 996.911 -1.7106 1.85728 0
M  V30 10710 C 998.224 1.4276 2.64651 0
M  V30 10711 C 999.772 1.42782 2.78536 0
M  V30 10712 C 1000.25 2.29828 3.9616 0
M  V30 10713 N 1001.74 2.27613 4.03418 0
M  V30 10714 C 1002.47 2.91696 4.93661 0
M  V30 10715 N 1001.97 3.64883 5.88925 0
M  V30 10716 N 1003.76 2.81094 4.86768 0
M  V30 10717 H 995.913 1.80395 1.12123 0
M  V30 10718 H 998.176 0.770394 0.552446 0
M  V30 10719 H 997.882 2.47266 2.50105 0
M  V30 10720 H 997.756 1.11358 3.60388 0
M  V30 10721 H 1000.14 0.390417 2.92506 0
M  V30 10722 H 1000.22 1.78198 1.83519 0
M  V30 10723 H 999.868 3.33635 3.82949 0
M  V30 10724 H 999.798 1.91746 4.9045 0
M  V30 10725 H 1002.29 1.74402 3.3525 0
M  V30 10726 H 1002.6 4.10952 6.54476 0
M  V30 10727 H 1000.95 3.68991 5.88957 0
M  V30 10728 H 1004.14 2.23469 4.11314 0
M  V30 10729 H 1004.31 3.31318 5.56895 0
M  V30 10730 N 997.718 -1.45297 0.610449 0
M  V30 10731 C 998.948 -2.0629 0.113047 0
M  V30 10732 C 999.356 -1.45527 -1.20907 0
M  V30 10733 O 998.699 -0.564837 -1.74801 0
M  V30 10734 C 998.761 -3.59366 -0.0979692 0
M  V30 10735 C 998.425 -4.42481 1.14279 0
M  V30 10736 C 999.422 -4.77277 2.06161 0
M  V30 10737 C 997.107 -4.83187 1.37241 0
M  V30 10738 C 999.101 -5.51639 3.19333 0
M  V30 10739 C 996.788 -5.57303 2.50713 0
M  V30 10740 C 997.786 -5.91445 3.41587 0
M  V30 10741 O 997.474 -6.64056 4.53083 0
M  V30 10742 H 997.206 -0.67264 0.0673159 0
M  V30 10743 H 999.76 -1.87486 0.838937 0
M  V30 10744 H 997.99 -3.76582 -0.878783 0
M  V30 10745 H 999.679 -4.02193 -0.547327 0
M  V30 10746 H 1000.44 -4.46384 1.89647 0
M  V30 10747 H 996.324 -4.56045 0.67407 0
M  V30 10748 H 999.868 -5.78207 3.90286 0
M  V30 10749 H 995.765 -5.8761 2.67179 0
M  V30 10750 H 996.533 -6.82509 4.51801 0
M  V30 10751 N 999.196 -0.349774 -1.5367 0
M  V30 10752 C 1000.15 0.52023 -2.21986 0
M  V30 10753 C 1001.13 1.06119 -1.20944 0
M  V30 10754 O 1002.32 0.993857 -1.46463 0
M  V30 10755 C 999.451 1.66751 -3.00082 0
M  V30 10756 C 998.537 1.14019 -4.08486 0
M  V30 10757 N 998.928 0.334588 -5.04692 0
M  V30 10758 C 997.226 1.4165 -4.22908 0
M  V30 10759 C 997.927 0.0476906 -5.8168 0
M  V30 10760 N 996.903 0.641032 -5.39807 0
M  V30 10761 H 1000.7 -0.102261 -2.93722 0
M  V30 10762 H 998.219 -0.15696 -1.6164 0
M  V30 10763 H 1000.22 2.30281 -3.47529 0
M  V30 10764 H 998.876 2.29322 -2.29873 0
M  V30 10765 H 999.887 -0.0248665 -5.17894 0
M  V30 10766 H 996.564 2.04615 -3.63922 0
M  V30 10767 H 997.954 -0.602565 -6.69193 0
M  V30 10768 N 1000.67 1.57404 -0.0785433 0
M  V30 10769 C 1001.61 2.08724 0.922464 0
M  V30 10770 C 1002.58 0.993912 1.28686 0
M  V30 10771 O 1003.77 1.26776 1.39499 0
M  V30 10772 C 1000.9 2.55051 2.2286 0
M  V30 10773 C 999.942 3.75884 2.01528 0
M  V30 10774 S 1000.77 5.2026 1.26844 0
M  V30 10775 C 1001.93 5.69924 2.58723 0
M  V30 10776 H 1002.16 2.93304 0.485807 0
M  V30 10777 H 999.697 1.53814 0.134377 0
M  V30 10778 H 1001.65 2.82402 2.97926 0
M  V30 10779 H 1000.32 1.70727 2.63649 0
M  V30 10780 H 999.509 4.06311 2.98207 0
M  V30 10781 H 999.111 3.48941 1.34596 0
M  V30 10782 H 1001.4 5.7718 3.5478 0
M  V30 10783 H 1002.35 6.68704 2.32897 0
M  V30 10784 H 1002.75 4.97773 2.66237 0
M  V30 10785 N 1002.15 -0.195058 1.56388 0
M  V30 10786 C 1003.08 -1.26581 1.91076 0
M  V30 10787 C 1004.1 -1.41707 0.801436 0
M  V30 10788 O 1005.29 -1.42132 1.07985 0
M  V30 10789 C 1002.39 -2.63794 2.12758 0
M  V30 10790 C 1001.56 -2.70275 3.43904 0
M  V30 10791 C 1000.62 -3.88685 3.54698 0
M  V30 10792 O 999.644 -3.75786 4.2752 0
M  V30 10793 N 1000.85 -5.04141 2.87789 0
M  V30 10794 H 1003.61 -0.971401 2.83521 0
M  V30 10795 H 1001.17 -0.384976 1.57256 0
M  V30 10796 H 1003.16 -3.41434 2.17267 0
M  V30 10797 H 1001.73 -2.85723 1.26812 0
M  V30 10798 H 1000.95 -1.78909 3.51262 0
M  V30 10799 H 1002.24 -2.71597 4.30247 0
M  V30 10800 H 1001.64 -5.17519 2.28452 0
M  V30 10801 H 1000.2 -5.79727 2.97925 0
M  V30 10802 N 1003.63 -1.50653 -0.462772 0
M  V30 10803 C 1004.56 -1.64773 -1.57877 0
M  V30 10804 C 1005.54 -0.495664 -1.54861 0
M  V30 10805 O 1006.72 -0.716248 -1.74362 0
M  V30 10806 C 1003.85 -1.63796 -2.9646 0
M  V30 10807 C 1002.9 -2.84663 -3.17599 0
M  V30 10808 S 1003.73 -4.45852 -2.96608 0
M  V30 10809 C 1004.89 -4.47581 -4.37518 0
M  V30 10810 H 1005.12 -2.59172 -1.45661 0
M  V30 10811 H 1002.65 -1.40019 -0.650699 0
M  V30 10812 H 1004.61 -1.63918 -3.76353 0
M  V30 10813 H 1003.27 -0.706185 -3.06059 0
M  V30 10814 H 1002.46 -2.80308 -4.1886 0
M  V30 10815 H 1002.07 -2.82152 -2.45492 0
M  V30 10816 H 1004.36 -4.21656 -5.30295 0
M  V30 10817 H 1005.3 -5.49248 -4.46914 0
M  V30 10818 H 1005.71 -3.7719 -4.19985 0
M  V30 10819 N 1005.11 0.71652 -1.4037 0
M  V30 10820 C 1006.04 1.84345 -1.43315 0
M  V30 10821 C 1007.02 1.67537 -0.294186 0
M  V30 10822 O 1008.2 1.87582 -0.502671 0
M  V30 10823 C 1005.33 3.2229 -1.29408 0
M  V30 10824 C 1004.29 3.53769 -2.40897 0
M  V30 10825 C 1003.61 4.90847 -2.12068 0
M  V30 10826 C 1004.91 3.54862 -3.83237 0
M  V30 10827 H 1006.61 1.82138 -2.37626 0
M  V30 10828 H 1004.15 0.874873 -1.14376 0
M  V30 10829 H 1006.11 4.00819 -1.30085 0
M  V30 10830 H 1004.83 3.2507 -0.31573 0
M  V30 10831 H 1003.49 2.77579 -2.39469 0
M  V30 10832 H 1003.14 4.90229 -1.12626 0
M  V30 10833 H 1002.84 5.12875 -2.86762 0
M  V30 10834 H 1004.36 5.71711 -2.14426 0
M  V30 10835 H 1005.78 4.23432 -3.86494 0
M  V30 10836 H 1004.17 3.88416 -4.57442 0
M  V30 10837 H 1005.24 2.54266 -4.12888 0
M  V30 10838 N 1006.59 1.25851 0.948643 0
M  V30 10839 C 1008 1.02802 1.22081 0
M  V30 10840 C 1008.2 -0.251461 1.99925 0
M  V30 10841 O 1007.26 -0.962592 2.33432 0
M  V30 10842 C 1008.57 2.25489 1.98936 0
M  V30 10843 C 1010.12 2.30312 2.11956 0
M  V30 10844 C 1010.59 3.52671 2.92211 0
M  V30 10845 N 1012.09 3.53103 2.99787 0
M  V30 10846 C 1012.82 4.44445 3.62294 0
M  V30 10847 N 1012.32 5.46065 4.26362 0
M  V30 10848 N 1014.11 4.32113 3.59493 0
M  V30 10849 H 1006.26 2.08042 0.428044 0
M  V30 10850 H 1008.52 0.913928 0.251872 0
M  V30 10851 H 1008.23 3.18513 1.4914 0
M  V30 10852 H 1008.1 2.2914 2.99624 0
M  V30 10853 H 1010.49 1.37808 2.60946 0
M  V30 10854 H 1010.57 2.30676 1.10554 0
M  V30 10855 H 1010.22 4.45501 2.43909 0
M  V30 10856 H 1010.15 3.49554 3.93853 0
M  V30 10857 H 1012.64 2.79597 2.54232 0
M  V30 10858 H 1012.95 6.11964 4.71932 0
M  V30 10859 H 1011.29 5.49931 4.24972 0
M  V30 10860 H 1014.49 3.51946 3.08629 0
M  V30 10861 H 1014.66 5.03493 4.0792 0
M  V30 10862 N 1008.06 -1.15214 1.07534 0
M  V30 10863 C 1009.31 -1.86319 0.800814 0
M  V30 10864 C 1009.64 -1.82221 -0.671494 0
M  V30 10865 O 1008.92 -1.24664 -1.49295 0
M  V30 10866 C 1009.2 -3.35347 1.31203 0
M  V30 10867 C 1009.05 -3.48067 2.84902 0
M  V30 10868 C 1010.37 -4.3016 0.930064 0
M  V30 10869 H 1007.49 -0.676523 0.292379 0
M  V30 10870 H 1010.13 -1.35349 1.33344 0
M  V30 10871 H 1008.28 -3.78886 0.858949 0
M  V30 10872 H 1009.96 -3.13379 3.38514 0
M  V30 10873 H 1008.2 -2.89566 3.23008 0
M  V30 10874 H 1008.87 -4.52782 3.15741 0
M  V30 10875 H 1011.35 -3.94591 1.3205 0
M  V30 10876 H 1010.22 -5.32914 1.31507 0
M  V30 10877 H 1010.48 -4.41796 -0.163824 0
M  V30 10878 N 1009.54 -0.859717 -1.32086 0
M  V30 10879 C 1010.49 -0.306042 -2.28762 0
M  V30 10880 C 1011.46 0.589801 -1.55276 0
M  V30 10881 O 1012.64 0.523633 -1.83474 0
M  V30 10882 C 1009.78 0.495256 -3.41528 0
M  V30 10883 C 1008.9 -0.426947 -4.29885 0
M  V30 10884 C 1008.03 0.387474 -5.29785 0
M  V30 10885 C 1007.07 -0.531807 -6.09785 0
M  V30 10886 N 1006.21 0.245741 -7.0167 0
M  V30 10887 H 1011.05 -1.1357 -2.7551 0
M  V30 10888 H 1008.59 -0.571468 -1.35546 0
M  V30 10889 H 1010.54 0.97551 -4.05635 0
M  V30 10890 H 1009.17 1.28969 -2.95917 0
M  V30 10891 H 1008.23 -1.02561 -3.66313 0
M  V30 10892 H 1009.54 -1.13226 -4.85779 0
M  V30 10893 H 1008.69 0.930677 -5.99519 0
M  V30 10894 H 1007.43 1.12612 -4.74521 0
M  V30 10895 H 1006.44 -1.08685 -5.3895 0
M  V30 10896 H 1007.66 -1.26915 -6.67135 0
M  V30 10897 H 1005.61 0.967391 -6.48828 0
M  V30 10898 H 1005.52 -0.400432 -7.54939 0
M  V30 10899 H 1006.79 0.770507 -7.75683 0
M  V30 10900 N 1011.02 1.44971 -0.618145 0
M  V30 10901 C 1011.93 2.34403 0.0960457 0
M  V30 10902 C 1012.95 1.51862 0.849355 0
M  V30 10903 O 1014.12 1.84632 0.804557 0
M  V30 10904 C 1011.19 3.29646 1.07397 0
M  V30 10905 C 1010.25 4.28095 0.321466 0
M  V30 10906 C 1009.48 5.18787 1.25281 0
M  V30 10907 O 1009.7 5.1313 2.49106 0
M  V30 10908 O 1008.64 5.97282 0.744156 0
M  V30 10909 H 1012.46 2.96898 -0.639176 0
M  V30 10910 H 1010.05 1.44529 -0.37837 0
M  V30 10911 H 1011.93 3.88307 1.63694 0
M  V30 10912 H 1010.61 2.69702 1.79004 0
M  V30 10913 H 1009.51 3.73019 -0.284223 0
M  V30 10914 H 1010.85 4.90923 -0.354315 0
M  V30 10915 N 1012.5 0.357919 1.53482 0
M  V30 10916 C 1013.75 -0.234163 2.01142 0
M  V30 10917 C 1014.07 -1.49399 1.2454 0
M  V30 10918 O 1013.33 -1.92981 0.325111 0
M  V30 10919 C 1013.63 -0.579617 3.52669 0
M  V30 10920 C 1013.29 0.584988 4.47089 0
M  V30 10921 C 1011.96 0.904558 4.72622 0
M  V30 10922 C 1014.31 1.3656 5.02992 0
M  V30 10923 C 1011.64 2.00685 5.5131 0
M  V30 10924 C 1013.99 2.45824 5.82884 0
M  V30 10925 C 1012.65 2.78325 6.06706 0
M  V30 10926 H 1011.92 -0.0856863 0.736029 0
M  V30 10927 H 1014.57 0.488801 1.85157 0
M  V30 10928 H 1012.87 -1.38349 3.66561 0
M  V30 10929 H 1014.57 -1.04985 3.87013 0
M  V30 10930 H 1011.16 0.32587 4.27359 0
M  V30 10931 H 1015.34 1.13196 4.83219 0
M  V30 10932 H 1010.6 2.26272 5.67988 0
M  V30 10933 H 1014.77 3.06732 6.25211 0
M  V30 10934 H 1012.4 3.63862 6.67464 0
M  V30 10935 N 1013.98 -1.5736 0.0868897 0
M  V30 10936 C 1015.23 -1.93229 -0.578387 0
M  V30 10937 C 1015.54 -0.970127 -1.69847 0
M  V30 10938 O 1016.74 -1.22222 -2.42434 0
M  V30 10939 C 1015.2 -3.43307 -1.0802 0
M  V30 10940 C 1014.81 -4.47999 0.00968135 0
M  V30 10941 C 1016.55 -3.88151 -1.71868 0
M  V30 10942 C 1014.46 -5.89223 -0.507029 0
M  V30 10943 H 1013.39 -0.721245 -0.219823 0
M  V30 10944 H 1016.04 -1.82787 0.161566 0
M  V30 10945 H 1014.42 -3.48873 -1.87359 0
M  V30 10946 H 1015.6 -4.54067 0.784865 0
M  V30 10947 H 1013.91 -4.12714 0.552845 0
M  V30 10948 H 1016.51 -4.91056 -2.11585 0
M  V30 10949 H 1016.85 -3.26347 -2.58464 0
M  V30 10950 H 1017.38 -3.85252 -0.991259 0
M  V30 10951 H 1014.12 -6.54708 0.322121 0
M  V30 10952 H 1013.64 -5.86643 -1.2494 0
M  V30 10953 H 1015.32 -6.39556 -0.978628 0
M  V30 10954 N 1015.45 0.186762 -1.56489 0
M  V30 10955 C 1016.87 0.537933 -1.50261 0
M  V30 10956 C 1017.07 1.85435 -0.788414 0
M  V30 10957 O 1016.13 2.50168 -0.342377 0
M  V30 10958 C 1017.44 0.584965 -2.94955 0
M  V30 10959 C 1018.99 0.673228 -3.05674 0
M  V30 10960 C 1019.46 0.751294 -4.51796 0
M  V30 10961 N 1020.95 0.814599 -4.55981 0
M  V30 10962 C 1021.69 0.895313 -5.66367 0
M  V30 10963 N 1021.18 0.937814 -6.86423 0
M  V30 10964 N 1022.98 0.933145 -5.543 0
M  V30 10965 H 1015.13 -0.676636 -2.01334 0
M  V30 10966 H 1017.39 -0.242079 -0.916571 0
M  V30 10967 H 1017.1 -0.313361 -3.50301 0
M  V30 10968 H 1016.97 1.4368 -3.48763 0
M  V30 10969 H 1019.36 1.56198 -2.50372 0
M  V30 10970 H 1019.44 -0.204976 -2.54977 0
M  V30 10971 H 1019.08 -0.133143 -5.07725 0
M  V30 10972 H 1019.01 1.64542 -5.00233 0
M  V30 10973 H 1021.5 0.790662 -3.69536 0
M  V30 10974 H 1021.82 1.00015 -7.66301 0
M  V30 10975 H 1020.16 0.906351 -6.89065 0
M  V30 10976 H 1023.35 0.896836 -4.59428 0
M  V30 10977 H 1023.53 0.992588 -6.40353 0
M  V30 10978 N 1016.93 1.50896 0.454776 0
M  V30 10979 C 1018.18 1.62699 1.20562 0
M  V30 10980 C 1018.51 0.334943 1.91594 0
M  V30 10981 O 1017.76 -0.680106 1.83502 0
M  V30 10982 C 1018.06 2.76839 2.26042 0
M  V30 10983 C 1017.73 4.16745 1.72147 0
M  V30 10984 C 1016.39 4.54809 1.5717 0
M  V30 10985 C 1018.74 5.04118 1.32341 0
M  V30 10986 C 1016.07 5.7797 1.00835 0
M  V30 10987 C 1018.42 6.27842 0.774419 0
M  V30 10988 C 1017.09 6.64694 0.611415 0
M  V30 10989 H 1016.36 0.595358 0.441169 0
M  V30 10990 H 1019 1.84879 0.499202 0
M  V30 10991 H 1017.31 2.48812 3.02655 0
M  V30 10992 H 1019 2.83173 2.83926 0
M  V30 10993 H 1015.59 3.86725 1.84775 0
M  V30 10994 H 1019.78 4.75331 1.42739 0
M  V30 10995 H 1015.03 6.05183 0.869669 0
M  V30 10996 H 1019.21 6.94896 0.457389 0
M  V30 10997 H 1016.84 7.60004 0.172751 0
M  V30 10998 N 1018.41 -0.709066 1.40748 0
M  V30 10999 C 1019.36 -1.8149 1.38005 0
M  V30 11000 C 1020.34 -1.58842 0.256544 0
M  V30 11001 O 1021.54 -1.69904 0.496164 0
M  V30 11002 C 1018.67 -3.19678 1.25143 0
M  V30 11003 C 1017.75 -3.48067 2.42301 0
M  V30 11004 N 1018.14 -3.47234 3.6778 0
M  V30 11005 C 1016.44 -3.78555 2.35822 0
M  V30 11006 C 1017.14 -3.74149 4.45407 0
M  V30 11007 N 1016.12 -3.93224 3.75335 0
M  V30 11008 H 1019.92 -1.79188 2.32957 0
M  V30 11009 H 1017.43 -0.908477 1.34612 0
M  V30 11010 H 1019.43 -3.98875 1.2126 0
M  V30 11011 H 1018.09 -3.23201 0.311642 0
M  V30 11012 H 1019.1 -3.2793 4.00852 0
M  V30 11013 H 1015.78 -3.89529 1.50245 0
M  V30 11014 H 1017.17 -3.79755 5.54289 0
M  V30 11015 N 1019.89 -1.26353 -0.941956 0
M  V30 11016 C 1020.82 -1.03634 -2.04432 0
M  V30 11017 C 1021.83 0.00295864 -1.628 0
M  V30 11018 O 1023.02 -0.237029 -1.76919 0
M  V30 11019 C 1020.12 -0.547231 -3.34453 0
M  V30 11020 C 1019.3 -1.65559 -4.04857 0
M  V30 11021 C 1018.36 -1.16466 -5.13149 0
M  V30 11022 O 1017.38 -1.86158 -5.37898 0
M  V30 11023 N 1018.58 -0.0126703 -5.80499 0
M  V30 11024 H 1021.35 -1.98558 -2.24488 0
M  V30 11025 H 1018.91 -1.17728 -1.11138 0
M  V30 11026 H 1020.9 -0.203004 -4.04191 0
M  V30 11027 H 1019.47 0.308401 -3.11075 0
M  V30 11028 H 1018.69 -2.17079 -3.29044 0
M  V30 11029 H 1019.98 -2.39985 -4.48647 0
M  V30 11030 H 1019.38 0.569358 -5.62828 0
M  V30 11031 H 1017.93 0.272486 -6.5123 0
M  V30 11032 N 1021.37 1.14642 -1.08144 0
M  V30 11033 C 1022.62 1.84964 -0.804437 0
M  V30 11034 C 1022.93 1.8369 0.672106 0
M  V30 11035 O 1024.14 2.49775 1.06417 0
M  V30 11036 C 1022.59 3.32015 -1.38904 0
M  V30 11037 C 1022.2 3.41713 -2.89718 0
M  V30 11038 C 1023.94 4.07467 -1.19041 0
M  V30 11039 C 1021.85 4.82958 -3.41329 0
M  V30 11040 H 1020.78 0.692932 -0.297256 0
M  V30 11041 H 1023.43 1.29255 -1.30251 0
M  V30 11042 H 1021.81 3.87445 -0.818679 0
M  V30 11043 H 1022.99 2.96347 -3.52867 0
M  V30 11044 H 1021.3 2.79713 -3.08463 0
M  V30 11045 H 1023.9 5.1172 -1.55069 0
M  V30 11046 H 1024.24 4.16097 -0.130027 0
M  V30 11047 H 1024.78 3.58329 -1.72757 0
M  V30 11048 H 1021.51 4.79515 -4.46929 0
M  V30 11049 H 1021.03 5.28873 -2.82937 0
M  V30 11050 H 1022.71 5.51841 -3.37759 0
M  V30 11051 N 1022.85 0.866709 1.31628 0
M  V30 11052 C 1024.26 0.529032 1.79048 0
M  V30 11053 C 1024.61 -0.953871 1.71452 0
M  V30 11054 O 1023.73 -1.74462 1.28031 0
M  V30 11055 C 1024.33 0.953522 3.25105 0
M  V30 11056 C 1022.89 0.667554 3.70433 0
M  V30 11057 C 1022.03 1.14664 2.52483 0
M  V30 11058 H 1024.98 1.05275 1.18756 0
M  V30 11059 H 1025.01 0.274844 3.79506 0
M  V30 11060 H 1024.52 2.03283 3.30602 0
M  V30 11061 H 1022.62 -0.400532 3.70441 0
M  V30 11062 H 1022.73 1.2423 4.62714 0
M  V30 11063 H 1021.1 0.566502 2.4832 0
M  V30 11064 H 1021.88 2.2333 2.60727 0
M  V30 11065 N 1024.32 -1.44642 0.625825 0
M  V30 11066 C 1025.27 -2.32408 -0.0945221 0
M  V30 11067 C 1026.27 -1.47038 -0.841198 0
M  V30 11068 O 1027.47 -1.63415 -0.754698 0
M  V30 11069 H 1023.85 -0.75038 -0.0493321 0
M  V30 11070 H 1025.82 -2.90922 0.663863 0
M  V30 11071 C 1024.57 -3.30951 -1.06615 0
M  V30 11072 H 1023.89 -3.96648 -0.501021 0
M  V30 11073 H 1025.33 -3.95054 -1.53976 0
M  V30 11074 C 1023.79 -2.59479 -2.14877 0
M  V30 11075 O 1024.32 -2.38974 -3.22885 0
M  V30 11076 N 1022.52 -2.19307 -1.90665 0
M  V30 11077 H 1022.07 -2.36184 -1.02835 0
M  V30 11078 H 1022.03 -1.71811 -2.63303 0
M  V30 11079 N 1025.8 -0.366053 -1.5329 0
M  V30 11080 C 1027.21 0.113056 -1.86357 0
M  V30 11081 C 1027.56 1.48123 -1.28662 0
M  V30 11082 O 1026.69 2.07658 -0.608849 0
M  V30 11083 C 1027.28 0.211923 -3.38137 0
M  V30 11084 C 1025.84 0.635289 -3.71 0
M  V30 11085 C 1024.99 -0.217203 -2.76448 0
M  V30 11086 H 1027.94 -0.584829 -1.47531 0
M  V30 11087 H 1027.96 1.0354 -3.66142 0
M  V30 11088 H 1027.47 -0.783994 -3.80099 0
M  V30 11089 H 1025.57 1.63942 -3.34595 0
M  V30 11090 H 1025.69 0.409571 -4.77346 0
M  V30 11091 H 1024.05 0.313988 -2.52757 0
M  V30 11092 H 1024.83 -1.21067 -3.21244 0
M  V30 11093 N 1027.28 1.57312 -0.0952337 0
M  V30 11094 C 1028.21 2.17056 0.860753 0
M  V30 11095 C 1029.19 1.10394 1.29411 0
M  V30 11096 O 1030.38 1.38532 1.36098 0
M  V30 11097 C 1027.51 2.751 2.11984 0
M  V30 11098 C 1026.46 3.87136 1.8251 0
M  V30 11099 C 1025.79 4.31883 3.15247 0
M  V30 11100 C 1027.09 5.10326 1.11194 0
M  V30 11101 H 1028.78 2.97192 0.362983 0
M  V30 11102 H 1026.33 1.42955 0.173151 0
M  V30 11103 H 1028.28 3.15547 2.79299 0
M  V30 11104 H 1027 1.92219 2.64044 0
M  V30 11105 H 1025.66 3.47229 1.17592 0
M  V30 11106 H 1025.31 3.45893 3.65195 0
M  V30 11107 H 1025.01 5.0742 2.96309 0
M  V30 11108 H 1026.53 4.74964 3.83721 0
M  V30 11109 H 1027.95 5.47942 1.6862 0
M  V30 11110 H 1026.34 5.91293 1.02435 0
M  V30 11111 H 1027.41 4.84807 0.0947227 0
M  V30 11112 N 1028.76 -0.17846 1.56586 0
M  V30 11113 C 1030.17 -0.529957 1.50544 0
M  V30 11114 C 1030.37 -1.85015 0.798237 0
M  V30 11115 O 1029.43 -2.49983 0.355639 0
M  V30 11116 C 1030.74 -0.569314 2.95261 0
M  V30 11117 C 1032.29 -0.657008 3.06027 0
M  V30 11118 C 1032.77 -0.727323 4.52188 0
M  V30 11119 N 1034.26 -0.790406 4.56406 0
M  V30 11120 C 1034.99 -0.865265 5.66834 0
M  V30 11121 N 1034.49 -0.901398 6.86911 0
M  V30 11122 N 1036.28 -0.903736 5.54787 0
M  V30 11123 H 1028.43 0.687304 2.00972 0
M  V30 11124 H 1030.69 0.246936 0.915274 0
M  V30 11125 H 1030.4 0.331934 3.5013 0
M  V30 11126 H 1030.27 -1.41828 3.4952 0
M  V30 11127 H 1032.66 -1.54868 2.51197 0
M  V30 11128 H 1032.74 0.218495 2.54865 0
M  V30 11129 H 1032.39 0.160067 5.07648 0
M  V30 11130 H 1032.32 -1.61887 5.01099 0
M  V30 11131 H 1034.81 -0.771054 3.6995 0
M  V30 11132 H 1035.12 -0.959494 7.6682 0
M  V30 11133 H 1033.47 -0.869795 6.89536 0
M  V30 11134 H 1036.66 -0.872459 4.59898 0
M  V30 11135 H 1036.83 -0.958615 6.4087 0
M  V30 11136 N 1030.24 -1.51135 -0.446768 0
M  V30 11137 C 1031.17 -1.67949 -1.55967 0
M  V30 11138 C 1032.18 -0.560337 -1.52853 0
M  V30 11139 O 1033.37 -0.83435 -1.578 0
M  V30 11140 C 1030.47 -1.6703 -2.9488 0
M  V30 11141 C 1029.64 -2.95377 -3.22601 0
M  V30 11142 C 1028.7 -2.86772 -4.4119 0
M  V30 11143 O 1027.73 -3.60722 -4.40304 0
M  V30 11144 N 1028.93 -2.01979 -5.44228 0
M  V30 11145 H 1031.69 -2.63951 -1.41951 0
M  V30 11146 H 1029.26 -1.48903 -0.635569 0
M  V30 11147 H 1031.25 -1.58854 -3.7222 0
M  V30 11148 H 1029.82 -0.786623 -3.02541 0
M  V30 11149 H 1029.04 -3.17494 -2.33647 0
M  V30 11150 H 1030.33 -3.80356 -3.37945 0
M  V30 11151 H 1029.72 -1.41257 -5.4778 0
M  V30 11152 H 1028.28 -1.99689 -6.20457 0
M  V30 11153 N 1031.71 0.701592 -1.41122 0
M  V30 11154 C 1033.13 1.01143 -1.23459 0
M  V30 11155 C 1033.33 2.01144 -0.11968 0
M  V30 11156 O 1032.39 2.47132 0.517889 0
M  V30 11157 C 1033.7 1.54179 -2.58165 0
M  V30 11158 C 1035.25 1.66093 -2.65296 0
M  V30 11159 C 1035.72 2.22532 -4.00304 0
M  V30 11160 N 1037.21 2.299 -4.0212 0
M  V30 11161 C 1037.95 2.74584 -5.0338 0
M  V30 11162 N 1037.44 3.18917 -6.15032 0
M  V30 11163 N 1039.24 2.74094 -4.90743 0
M  V30 11164 H 1031.39 0.0390087 -2.12364 0
M  V30 11165 H 1033.65 0.0798848 -0.944628 0
M  V30 11166 H 1033.36 0.881587 -3.40472 0
M  V30 11167 H 1033.23 2.52488 -2.80231 0
M  V30 11168 H 1035.62 2.31227 -1.83352 0
M  V30 11169 H 1035.7 0.663461 -2.47046 0
M  V30 11170 H 1035.34 1.58016 -4.82694 0
M  V30 11171 H 1035.27 3.2302 -4.15891 0
M  V30 11172 H 1037.76 1.98607 -3.21502 0
M  V30 11173 H 1038.08 3.5162 -6.88174 0
M  V30 11174 H 1036.42 3.1684 -6.18577 0
M  V30 11175 H 1039.61 2.38804 -4.02604 0
M  V30 11176 H 1039.79 3.086 -5.69798 0
M  V30 11177 N 1033.19 1.2685 0.935242 0
M  V30 11178 C 1034.12 1.1143 2.05196 0
M  V30 11179 C 1035.1 0.0178362 1.70091 0
M  V30 11180 O 1036.29 0.190951 1.93259 0
M  V30 11181 C 1033.42 0.752779 3.39044 0
M  V30 11182 C 1032.37 1.80164 3.88233 0
M  V30 11183 C 1031.7 1.29428 5.18799 0
M  V30 11184 C 1033 3.20431 4.12457 0
M  V30 11185 H 1034.69 2.04845 2.18355 0
M  V30 11186 H 1032.24 0.986276 1.04922 0
M  V30 11187 H 1034.19 0.631757 4.16637 0
M  V30 11188 H 1032.91 -0.217075 3.25878 0
M  V30 11189 H 1031.57 1.91144 3.12825 0
M  V30 11190 H 1031.22 0.3141 5.02018 0
M  V30 11191 H 1030.92 1.99546 5.5268 0
M  V30 11192 H 1032.45 1.18605 5.9897 0
M  V30 11193 H 1033.86 3.12495 4.80645 0
M  V30 11194 H 1032.26 3.88193 4.57631 0
M  V30 11195 H 1033.33 3.66046 3.18023 0
M  V30 11196 N 1034.67 -1.14067 1.0875 0
M  V30 11197 C 1035.58 -2.22871 0.732498 0
M  V30 11198 C 1036.6 -1.72008 -0.26253 0
M  V30 11199 O 1037.77 -2.01123 -0.105601 0
M  V30 11200 C 1034.84 -3.46371 0.150913 0
M  V30 11201 C 1033.9 -4.12158 1.201 0
M  V30 11202 C 1033.13 -5.29763 0.647075 0
M  V30 11203 O 1033.35 -5.67911 -0.532307 0
M  V30 11204 O 1032.29 -5.8542 1.3988 0
M  V30 11205 H 1036.11 -2.55596 1.64025 0
M  V30 11206 H 1033.7 -1.22065 0.861417 0
M  V30 11207 H 1035.58 -4.21055 -0.170442 0
M  V30 11208 H 1034.26 -3.15362 -0.729948 0
M  V30 11209 H 1033.16 -3.39332 1.57494 0
M  V30 11210 H 1034.5 -4.47282 2.05426 0
M  V30 11211 N 1036.15 -0.873678 -1.31166 0
M  V30 11212 C 1037.06 -0.335726 -2.32185 0
M  V30 11213 C 1038.07 0.556259 -1.64869 0
M  V30 11214 O 1039.25 0.452087 -1.9626 0
M  V30 11215 C 1036.32 0.450822 -3.43756 0
M  V30 11216 C 1035.38 -0.469565 -4.26724 0
M  V30 11217 C 1034.61 0.279538 -5.32967 0
M  V30 11218 O 1034.83 1.50715 -5.50128 0
M  V30 11219 O 1033.77 -0.36452 -6.00795 0
M  V30 11220 H 1037.59 -1.17314 -2.80127 0
M  V30 11221 H 1035.18 -0.637163 -1.35132 0
M  V30 11222 H 1037.06 0.896582 -4.11752 0
M  V30 11223 H 1035.73 1.26472 -2.9797 0
M  V30 11224 H 1034.64 -0.963902 -3.61469 0
M  V30 11225 H 1035.97 -1.24916 -4.76085 0
M  V30 11226 N 1037.63 1.44308 -0.633487 0
M  V30 11227 C 1038.86 2.06085 -0.145852 0
M  V30 11228 C 1039.26 1.47432 1.18577 0
M  V30 11229 O 1038.61 0.592575 1.7388 0
M  V30 11230 C 1038.67 3.59477 0.0407848 0
M  V30 11231 C 1038.33 4.40607 -1.21304 0
M  V30 11232 C 1039.33 4.73937 -2.13728 0
M  V30 11233 C 1037.02 4.80943 -1.44911 0
M  V30 11234 C 1039.01 5.46489 -3.28068 0
M  V30 11235 C 1036.7 5.53243 -2.59548 0
M  V30 11236 C 1037.69 5.85936 -3.50953 0
M  V30 11237 O 1037.38 6.56764 -4.6359 0
M  V30 11238 H 1037.11 0.671484 -0.0780085 0
M  V30 11239 H 1039.67 1.86128 -0.868658 0
M  V30 11240 H 1037.9 3.77933 0.818761 0
M  V30 11241 H 1039.59 4.03013 0.483273 0
M  V30 11242 H 1040.35 4.43311 -1.96725 0
M  V30 11243 H 1036.23 4.54915 -0.746537 0
M  V30 11244 H 1039.78 5.71924 -3.99435 0
M  V30 11245 H 1035.67 5.83285 -2.76493 0
M  V30 11246 H 1036.44 6.75234 -4.62602 0
M  V30 11247 N 1039.1 0.374177 1.53094 0
M  V30 11248 C 1040.35 -0.212816 2.01379 0
M  V30 11249 C 1040.68 -1.48069 1.26118 0
M  V30 11250 O 1039.93 -1.92625 0.345561 0
M  V30 11251 C 1040.23 -0.542179 3.53264 0
M  V30 11252 C 1039.9 0.632375 4.46444 0
M  V30 11253 C 1038.56 0.954635 4.71636 0
M  V30 11254 C 1040.91 1.41887 5.01515 0
M  V30 11255 C 1038.24 2.06521 5.4915 0
M  V30 11256 C 1040.59 2.51993 5.80243 0
M  V30 11257 C 1039.26 2.84744 6.03719 0
M  V30 11258 H 1038.53 -0.0778749 0.736897 0
M  V30 11259 H 1041.17 0.508412 1.84628 0
M  V30 11260 H 1039.48 -1.34454 3.68007 0
M  V30 11261 H 1041.18 -1.00874 3.88105 0
M  V30 11262 H 1037.77 0.371179 4.2699 0
M  V30 11263 H 1041.95 1.18315 4.81991 0
M  V30 11264 H 1037.21 2.32284 5.65557 0
M  V30 11265 H 1041.38 3.13346 6.21922 0
M  V30 11266 H 1039.01 3.70921 6.63568 0
M  V30 11267 N 1040.58 -1.57259 0.103575 0
M  V30 11268 C 1041.51 -2.1153 -0.882472 0
M  V30 11269 C 1042.53 -1.05446 -1.24036 0
M  V30 11270 O 1043.72 -1.32867 -1.192 0
M  V30 11271 C 1040.82 -2.58717 -2.18903 0
M  V30 11272 C 1039.99 -3.8873 -2.00519 0
M  V30 11273 C 1039.05 -4.21675 -3.14764 0
M  V30 11274 O 1038.07 -4.90755 -2.88355 0
M  V30 11275 N 1039.28 -3.77757 -4.40772 0
M  V30 11276 H 1042.04 -2.96758 -0.418901 0
M  V30 11277 H 1039.6 -1.61696 -0.0812921 0
M  V30 11278 H 1041.59 -2.77797 -2.94297 0
M  V30 11279 H 1040.16 -1.78454 -2.56657 0
M  V30 11280 H 1039.38 -3.78714 -1.09406 0
M  V30 11281 H 1040.67 -4.73771 -1.85522 0
M  V30 11282 H 1040.07 -3.22011 -4.65108 0
M  V30 11283 H 1038.63 -4.01975 -5.13088 0
M  V30 11284 N 1042.06 0.170153 -1.56679 0
M  V30 11285 C 1043.01 1.21531 -1.9291 0
M  V30 11286 C 1043.99 1.39742 -0.797553 0
M  V30 11287 O 1045.19 1.41693 -1.06075 0
M  V30 11288 C 1042.32 2.55447 -2.29351 0
M  V30 11289 C 1041.4 2.40925 -3.49022 0
M  V30 11290 N 1041.79 1.96118 -4.66231 0
M  V30 11291 C 1040.09 2.71747 -3.53652 0
M  V30 11292 C 1040.79 1.94086 -5.48366 0
M  V30 11293 N 1039.77 2.36533 -4.89441 0
M  V30 11294 H 1043.57 0.860602 -2.81018 0
M  V30 11295 H 1041.08 0.378415 -1.5793 0
M  V30 11296 H 1043.08 3.30972 -2.53502 0
M  V30 11297 H 1041.74 2.9172 -1.42583 0
M  V30 11298 H 1042.75 1.66438 -4.90427 0
M  V30 11299 H 1039.43 3.1205 -2.77365 0
M  V30 11300 H 1040.82 1.61132 -6.52293 0
M  V30 11301 N 1043.54 1.5137 0.438746 0
M  V30 11302 C 1044.5 1.71993 1.51496 0
M  V30 11303 C 1045.5 0.589978 1.49586 0
M  V30 11304 O 1046.69 0.857505 1.51633 0
M  V30 11305 C 1043.82 1.77508 2.91039 0
M  V30 11306 H 1045.02 2.68041 1.34514 0
M  V30 11307 H 1042.57 1.41338 0.667326 0
M  V30 11308 H 1043.3 0.832698 3.13427 0
M  V30 11309 H 1043.09 2.59627 2.9383 0
M  V30 11310 H 1044.58 1.95308 3.69113 0
M  V30 11311 N 1045.02 -0.694098 1.41492 0
M  V30 11312 C 1046.26 -1.45493 1.42138 0
M  V30 11313 C 1046.62 -1.92376 0.0302688 0
M  V30 11314 O 1045.91 -1.66723 -0.944142 0
M  V30 11315 C 1046.1 -2.6805 2.36398 0
M  V30 11316 C 1045.93 -2.33157 3.84536 0
M  V30 11317 C 1044.7 -2.2345 4.53209 0
M  V30 11318 C 1046.9 -1.96037 4.75473 0
M  V30 11319 N 1044.88 -1.81457 5.8647 0
M  V30 11320 C 1046.25 -1.64814 5.97693 0
M  V30 11321 C 1048.31 -1.8286 4.63106 0
M  V30 11322 C 1047.01 -1.21738 7.08923 0
M  V30 11323 C 1049.04 -1.41188 5.74299 0
M  V30 11324 C 1048.4 -1.10877 6.95619 0
M  V30 11325 H 1044.5 -0.529635 0.575335 0
M  V30 11326 H 1047.08 -0.802901 1.77374 0
M  V30 11327 H 1045.25 -3.30972 2.03254 0
M  V30 11328 H 1046.99 -3.34531 2.27753 0
M  V30 11329 H 1043.74 -2.41894 4.07166 0
M  V30 11330 H 1044.17 -1.62938 6.571 0
M  V30 11331 H 1048.81 -2.04947 3.69806 0
M  V30 11332 H 1046.53 -0.983947 8.02087 0
M  V30 11333 H 1050.11 -1.3154 5.66735 0
M  V30 11334 H 1048.99 -0.791191 7.80199 0
M  V30 11335 N 1046.49 -1.27344 -0.928501 0
M  V30 11336 C 1047.72 -1.16447 -1.7102 0
M  V30 11337 C 1048.14 0.278799 -1.8673 0
M  V30 11338 O 1047.49 1.18989 -1.38376 0
M  V30 11339 C 1047.55 -1.84242 -3.11026 0
M  V30 11340 O 1047.27 -3.2293 -2.96054 0
M  V30 11341 C 1048.77 -1.7946 -4.05351 0
M  V30 11342 H 1045.99 -0.404898 -0.535069 0
M  V30 11343 H 1048.53 -1.68201 -1.16313 0
M  V30 11344 H 1046.69 -1.36395 -3.62595 0
M  V30 11345 H 1047.1 -3.5667 -3.8456 0
M  V30 11346 H 1048.57 -2.31511 -5.01105 0
M  V30 11347 H 1049.05 -0.763771 -4.32508 0
M  V30 11348 H 1049.66 -2.26918 -3.59706 0
M  V30 11349 N 1047.97 1.13488 -1.09353 0
M  V30 11350 C 1049.2 1.88319 -0.849681 0
M  V30 11351 C 1049.61 1.79347 0.602616 0
M  V30 11352 O 1048.95 1.15744 1.4265 0
M  V30 11353 C 1049.02 3.38698 -1.20514 0
M  V30 11354 C 1048.68 3.71452 -2.66219 0
M  V30 11355 C 1049.68 3.70755 -3.64467 0
M  V30 11356 C 1047.36 4.01132 -3.02321 0
M  V30 11357 C 1049.36 3.9928 -4.96845 0
M  V30 11358 C 1047.04 4.29318 -4.3489 0
M  V30 11359 C 1048.04 4.28376 -5.31961 0
M  V30 11360 O 1047.73 4.55872 -6.62145 0
M  V30 11361 H 1047.46 0.603053 -0.305455 0
M  V30 11362 H 1050.01 1.44592 -1.45884 0
M  V30 11363 H 1048.24 3.82925 -0.539022 0
M  V30 11364 H 1049.93 3.94852 -0.940552 0
M  V30 11365 H 1050.7 3.47901 -3.3792 0
M  V30 11366 H 1046.58 4.01013 -2.27398 0
M  V30 11367 H 1050.12 3.9846 -5.72604 0
M  V30 11368 H 1046.02 4.51644 -4.61181 0
M  V30 11369 H 1046.79 4.73544 -6.67607 0
M  V30 11370 N 1049.45 0.880621 1.30701 0
M  V30 11371 C 1050.68 0.511682 2.00473 0
M  V30 11372 C 1051.09 -0.898684 1.6604 0
M  V30 11373 O 1050.45 -1.59035 0.895218 0
M  V30 11374 C 1050.5 0.671723 3.55204 0
M  V30 11375 O 1050.22 2.02656 3.8841 0
M  V30 11376 C 1051.72 0.3052 4.42248 0
M  V30 11377 H 1048.94 0.198231 0.64105 0
M  V30 11378 H 1051.49 1.18472 1.66687 0
M  V30 11379 H 1049.64 0.0461066 3.87373 0
M  V30 11380 H 1050.06 2.04202 4.83117 0
M  V30 11381 H 1051.53 0.468095 5.50012 0
M  V30 11382 H 1052.01 -0.756456 4.32637 0
M  V30 11383 H 1052.61 0.906959 4.15517 0
M  V30 11384 N 1050.93 -1.4397 0.641131 0
M  V30 11385 C 1051.88 -2.32495 -0.0698668 0
M  V30 11386 C 1052.87 -1.47922 -0.825555 0
M  V30 11387 O 1054.08 -1.64206 -0.737323 0
M  V30 11388 H 1050.45 -0.750861 -0.0413706 0
M  V30 11389 H 1052.42 -2.90201 0.694682 0
M  V30 11390 C 1051.17 -3.32063 -1.03098 0
M  V30 11391 H 1050.5 -3.97157 -0.458923 0
M  V30 11392 H 1051.94 -3.96664 -1.49778 0
M  V30 11393 C 1050.39 -2.61743 -2.12113 0
M  V30 11394 O 1050.92 -2.42385 -3.20332 0
M  V30 11395 N 1049.13 -2.21316 -1.88328 0
M  V30 11396 H 1048.68 -2.37261 -1.00324 0
M  V30 11397 H 1048.64 -1.74594 -2.61465 0
M  V30 11398 N 1052.41 -0.382291 -1.52893 0
M  V30 11399 C 1053.66 0.201734 -2.01091 0
M  V30 11400 C 1053.98 1.47905 -1.2708 0
M  V30 11401 O 1053.25 1.92002 -0.38883 0
M  V30 11402 H 1051.83 0.0775373 -0.742965 0
M  V30 11403 H 1054.49 -0.512369 -1.88045 0
M  V30 11404 H 1053.58 0.416919 -3.09303 0
M  V30 11405 N 1053.89 1.57202 -0.111913 0
M  V30 11406 C 1055.13 1.94125 0.547573 0
M  V30 11407 C 1055.45 0.997026 1.68282 0
M  V30 11408 O 1056.65 1.26063 2.40459 0
M  V30 11409 C 1055.11 3.44982 1.02545 0
M  V30 11410 C 1054.72 4.47927 -0.0809529 0
M  V30 11411 C 1056.46 3.90837 1.65671 0
M  V30 11412 C 1054.37 5.89955 0.413224 0
M  V30 11413 H 1053.3 0.724651 0.208321 0
M  V30 11414 H 1055.95 1.82507 -0.190625 0
M  V30 11415 H 1054.33 3.5181 1.81785 0
M  V30 11416 H 1055.51 4.52761 -0.857003 0
M  V30 11417 H 1053.82 4.11782 -0.618434 0
M  V30 11418 H 1056.42 4.9436 2.03746 0
M  V30 11419 H 1056.76 3.30417 2.53239 0
M  V30 11420 H 1057.29 3.8678 0.929844 0
M  V30 11421 H 1054.03 6.54113 -0.426238 0
M  V30 11422 H 1053.55 5.88557 1.15591 0
M  V30 11423 H 1055.23 6.41032 0.876756 0
M  V30 11424 N 1055.36 -0.161842 1.56767 0
M  V30 11425 C 1056.64 -0.904754 1.73417 0
M  V30 11426 C 1057.02 -1.99987 0.675908 0
M  V30 11427 O 1056.37 -2.26419 -0.307712 0
M  V30 11428 C 1056.58 -1.46082 3.16956 0
M  V30 11429 C 1057.93 -1.93004 3.78199 0
M  V30 11430 O 1058.95 -1.55856 3.20293 0
M  V30 11431 O 1057.81 -2.61465 4.79894 0
M  V30 11432 H 1054.9 -0.426518 0.708528 0
M  V30 11433 H 1057.45 -0.148928 1.69045 0
M  V30 11434 H 1056.22 -0.673087 3.85468 0
M  V30 11435 H 1055.84 -2.28056 3.25693 0
M  V30 11436 N 1056.84 -1.516 -0.430713 0
M  V30 11437 C 1057.77 -1.68084 -1.54347 0
M  V30 11438 C 1058.75 -0.528401 -1.53775 0
M  V30 11439 O 1059.94 -0.753072 -1.72804 0
M  V30 11440 C 1057.06 -1.70048 -2.92919 0
M  V30 11441 C 1056.11 -2.91336 -3.11489 0
M  V30 11442 S 1056.94 -4.52043 -2.87084 0
M  V30 11443 C 1058.1 -4.56761 -4.27926 0
M  V30 11444 H 1058.33 -2.62203 -1.40131 0
M  V30 11445 H 1055.86 -1.41368 -0.620853 0
M  V30 11446 H 1057.82 -1.71864 -3.72791 0
M  V30 11447 H 1056.48 -0.770946 -3.04492 0
M  V30 11448 H 1055.68 -2.8913 -4.1282 0
M  V30 11449 H 1055.28 -2.87296 -2.39451 0
M  V30 11450 H 1057.57 -4.32809 -5.21232 0
M  V30 11451 H 1058.51 -5.58604 -4.35163 0
M  V30 11452 H 1058.92 -3.86014 -4.1189 0
M  V30 11453 N 1058.32 0.686584 -1.41858 0
M  V30 11454 C 1059.27 1.82167 -1.4463 0
M  V30 11455 C 1060.26 1.66286 -0.323313 0
M  V30 11456 O 1061.47 1.73038 -0.495773 0
M  V30 11457 H 1057.84 0.600454 -0.452724 0
M  V30 11458 H 1059.81 1.76947 -2.40276 0
M  V30 11459 C 1058.56 3.20248 -1.35412 0
M  V30 11460 H 1057.89 3.33089 -2.21115 0
M  V30 11461 H 1059.33 3.99723 -1.41413 0
M  V30 11462 C 1057.78 3.36832 -0.0674972 0
M  V30 11463 O 1058.31 3.91845 0.884325 0
M  V30 11464 N 1056.52 2.90598 0.011519 0
M  V30 11465 H 1056.07 2.46016 -0.76381 0
M  V30 11466 H 1056.03 3.02072 0.871774 0
M  V30 11467 N 1059.8 1.27835 0.921735 0
M  V30 11468 C 1060.73 1.05397 2.02402 0
M  V30 11469 C 1061.71 -0.0274904 1.62577 0
M  V30 11470 O 1062.89 0.11885 1.88125 0
M  V30 11471 C 1060.02 0.600016 3.33343 0
M  V30 11472 C 1059.07 1.67693 3.9215 0
M  V30 11473 S 1059.9 3.27093 4.23994 0
M  V30 11474 C 1061.05 2.83513 5.58006 0
M  V30 11475 H 1061.29 1.98723 2.21125 0
M  V30 11476 H 1058.82 1.11733 1.0656 0
M  V30 11477 H 1060.78 0.344793 4.09049 0
M  V30 11478 H 1059.44 -0.313288 3.12534 0
M  V30 11479 H 1058.63 1.31074 4.86658 0
M  V30 11480 H 1058.23 1.88454 3.2305 0
M  V30 11481 H 1060.53 2.29187 6.37557 0
M  V30 11482 H 1061.47 3.76788 5.9953 0
M  V30 11483 H 1061.88 2.22472 5.18813 0
M  V30 11484 N 1061.28 -1.12907 1.09954 0
M  V30 11485 C 1062.52 -1.84579 0.840155 0
M  V30 11486 C 1062.85 -1.83605 -0.632692 0
M  V30 11487 O 1062.13 -1.27803 -1.46617 0
M  V30 11488 C 1062.41 -3.32489 1.38286 0
M  V30 11489 C 1062.27 -3.41946 2.92221 0
M  V30 11490 C 1063.58 -4.28091 1.0211 0
M  V30 11491 H 1060.7 -0.670169 0.306663 0
M  V30 11492 H 1063.35 -1.3249 1.36185 0
M  V30 11493 H 1061.5 -3.76978 0.939123 0
M  V30 11494 H 1063.17 -3.06128 3.45085 0
M  V30 11495 H 1061.41 -2.8265 3.29077 0
M  V30 11496 H 1062.08 -4.45983 3.25274 0
M  V30 11497 H 1064.56 -3.91701 1.4039 0
M  V30 11498 H 1063.43 -5.30005 1.42781 0
M  V30 11499 H 1063.69 -4.42044 -0.0700753 0
M  V30 11500 N 1062.75 -0.88754 -1.30232 0
M  V30 11501 C 1063.68 -0.372481 -2.3051 0
M  V30 11502 C 1064.66 0.546037 -1.61098 0
M  V30 11503 O 1065.85 0.459345 -1.88689 0
M  V30 11504 C 1062.98 0.411605 -3.44852 0
M  V30 11505 C 1061.93 -0.415383 -4.2598 0
M  V30 11506 C 1061.26 0.495463 -5.324 0
M  V30 11507 C 1062.56 -1.65886 -4.95257 0
M  V30 11508 H 1064.25 -1.21045 -2.7384 0
M  V30 11509 H 1061.8 -0.583498 -1.31648 0
M  V30 11510 H 1063.75 0.782584 -4.1407 0
M  V30 11511 H 1062.48 1.28325 -3.00334 0
M  V30 11512 H 1061.14 -0.768534 -3.58454 0
M  V30 11513 H 1060.78 1.36489 -4.84128 0
M  V30 11514 H 1060.48 -0.0540885 -5.87575 0
M  V30 11515 H 1062.01 0.862901 -6.04472 0
M  V30 11516 H 1063.42 -1.35832 -5.56976 0
M  V30 11517 H 1061.82 -2.14881 -5.60309 0
M  V30 11518 H 1062.89 -2.40181 -4.21237 0
M  V30 11519 N 1064.23 1.43628 -0.648757 0
M  V30 11520 C 1065.18 2.30755 0.0455536 0
M  V30 11521 C 1066.15 1.44495 0.819168 0
M  V30 11522 O 1067.33 1.73372 0.79667 0
M  V30 11523 C 1064.47 3.30017 1.00908 0
M  V30 11524 C 1063.59 4.31376 0.232039 0
M  V30 11525 C 1062.72 5.17723 1.18897 0
M  V30 11526 C 1061.76 6.10778 0.402096 0
M  V30 11527 N 1060.9 6.89763 1.31038 0
M  V30 11528 H 1065.74 2.89581 -0.70332 0
M  V30 11529 H 1063.28 1.42662 -0.3586 0
M  V30 11530 H 1065.23 3.86072 1.58128 0
M  V30 11531 H 1063.86 2.72851 1.72488 0
M  V30 11532 H 1062.92 3.77652 -0.456373 0
M  V30 11533 H 1064.23 4.9735 -0.380023 0
M  V30 11534 H 1063.38 5.78381 1.83194 0
M  V30 11535 H 1062.12 4.51864 1.83494 0
M  V30 11536 H 1061.13 5.49212 -0.254255 0
M  V30 11537 H 1062.35 6.78678 -0.239411 0
M  V30 11538 H 1060.3 6.26557 1.94324 0
M  V30 11539 H 1060.21 7.52243 0.752774 0
M  V30 11540 H 1061.48 7.54931 1.94164 0
M  V30 11541 N 1065.71 0.390394 1.52688 0
M  V30 11542 C 1066.96 -0.191067 2.01195 0
M  V30 11543 C 1067.28 -1.47229 1.27862 0
M  V30 11544 O 1066.55 -1.91793 0.399007 0
M  V30 11545 H 1065.13 -0.073596 0.743366 0
M  V30 11546 H 1067.79 0.522334 1.8777 0
M  V30 11547 H 1066.89 -0.40051 3.0952 0
M  V30 11548 N 1067.19 -1.57141 0.120249 0
M  V30 11549 C 1068.44 -1.95238 -0.537449 0
M  V30 11550 C 1068.76 -1.00361 -1.66607 0
M  V30 11551 O 1068.02 -0.0277306 -1.9568 0
M  V30 11552 C 1068.32 -3.39745 -1.10941 0
M  V30 11553 C 1067.98 -4.50785 -0.102012 0
M  V30 11554 C 1066.65 -4.80882 0.174994 0
M  V30 11555 C 1069 -5.17913 0.584462 0
M  V30 11556 C 1066.33 -5.75424 1.14474 0
M  V30 11557 C 1068.68 -6.13497 1.54284 0
M  V30 11558 C 1067.34 -6.41987 1.82782 0
M  V30 11559 H 1066.61 -0.714425 -0.196666 0
M  V30 11560 H 1069.26 -1.90438 0.201418 0
M  V30 11561 H 1067.56 -3.41246 -1.92506 0
M  V30 11562 H 1069.26 -3.66536 -1.62642 0
M  V30 11563 H 1065.85 -4.27342 -0.328097 0
M  V30 11564 H 1070.03 -4.94815 0.383625 0
M  V30 11565 H 1065.29 -5.95801 1.37226 0
M  V30 11566 H 1069.46 -6.64598 2.08044 0
M  V30 11567 H 1067.09 -7.15052 2.5808 0
M  V30 11568 N 1068.67 0.153526 -1.5685 0
M  V30 11569 C 1070.08 0.714247 -1.72498 0
M  V30 11570 C 1070.43 1.81968 -0.733621 0
M  V30 11571 O 1069.55 2.16163 0.10118 0
M  V30 11572 C 1070.15 1.30238 -3.12767 0
M  V30 11573 C 1068.71 1.80974 -3.30038 0
M  V30 11574 C 1067.85 0.695638 -2.68433 0
M  V30 11575 H 1070.81 -0.0720733 -1.58536 0
M  V30 11576 H 1070.83 2.17217 -3.12405 0
M  V30 11577 H 1070.34 0.497605 -3.84897 0
M  V30 11578 H 1068.44 2.64039 -2.62895 0
M  V30 11579 H 1068.55 1.94294 -4.37934 0
M  V30 11580 H 1066.92 1.12061 -2.28723 0
M  V30 11581 H 1067.7 -0.0975885 -3.43161 0
M  V30 11582 N 1070.14 1.51827 0.422667 0
M  V30 11583 C 1071.05 1.77066 1.53899 0
M  V30 11584 C 1072.07 0.655541 1.61179 0
M  V30 11585 O 1073.25 0.939448 1.78147 0
M  V30 11586 C 1070.31 1.90372 2.89758 0
M  V30 11587 C 1069.37 3.14256 2.92475 0
M  V30 11588 C 1068.61 3.26918 4.21853 0
M  V30 11589 O 1068.83 2.45164 5.15025 0
M  V30 11590 O 1067.76 4.19989 4.31153 0
M  V30 11591 H 1071.59 2.71791 1.35511 0
M  V30 11592 H 1069.17 1.36506 0.607165 0
M  V30 11593 H 1071.06 2.01024 3.70361 0
M  V30 11594 H 1069.73 0.988347 3.08242 0
M  V30 11595 H 1068.64 3.09072 2.10773 0
M  V30 11596 H 1069.97 4.0553 2.78937 0
M  V30 11597 N 1071.62 -0.679052 1.4222 0
M  V30 11598 C 1072.86 -1.45118 1.43945 0
M  V30 11599 C 1073.23 -1.91928 0.0524851 0
M  V30 11600 O 1074.43 -2.68743 -0.0555318 0
M  V30 11601 C 1072.7 -2.6191 2.43183 0
M  V30 11602 S 1074.26 -3.50819 2.63574 0
M  V30 11603 H 1071.08 -0.495695 0.509713 0
M  V30 11604 H 1073.68 -0.790842 1.7879 0
M  V30 11605 H 1072.38 -2.25752 3.42731 0
M  V30 11606 H 1071.91 -3.3282 2.09748 0
M  V30 11607 H 1073.93 -4.57735 1.91555 0
M  V30 11608 N 1073.1 -1.28322 -0.914942 0
M  V30 11609 C 1074.03 -1.14681 -2.03398 0
M  V30 11610 C 1075.01 -0.0448939 -1.70041 0
M  V30 11611 O 1076.2 -0.221672 -1.92931 0
M  V30 11612 C 1073.33 -0.806623 -3.37803 0
M  V30 11613 C 1072.28 -1.86318 -3.85318 0
M  V30 11614 C 1071.61 -1.37665 -5.16674 0
M  V30 11615 C 1072.91 -3.26953 -4.07307 0
M  V30 11616 H 1074.6 -2.08293 -2.15068 0
M  V30 11617 H 1072.15 -1.00284 -1.03339 0
M  V30 11618 H 1074.1 -0.69796 -4.1558 0
M  V30 11619 H 1072.82 0.165203 -3.26182 0
M  V30 11620 H 1071.48 -1.96096 -3.09745 0
M  V30 11621 H 1071.13 -0.393927 -5.01455 0
M  V30 11622 H 1070.83 -2.08313 -5.49435 0
M  V30 11623 H 1072.35 -1.28119 -5.97007 0
M  V30 11624 H 1073.77 -3.20102 -4.75613 0
M  V30 11625 H 1072.17 -3.95424 -4.51398 0
M  V30 11626 H 1073.24 -3.71059 -3.12159 0
M  V30 11627 N 1074.58 1.12322 -1.10551 0
M  V30 11628 C 1075.51 2.17819 -0.713263 0
M  V30 11629 C 1076.52 1.6086 0.250604 0
M  V30 11630 O 1077.71 1.78466 0.0348909 0
M  V30 11631 C 1074.81 3.38885 -0.0320325 0
M  V30 11632 C 1073.99 4.25332 -1.02038 0
M  V30 11633 C 1073.04 5.24895 -0.370412 0
M  V30 11634 O 1072.07 5.59958 -1.02157 0
M  V30 11635 N 1073.27 5.73934 0.870633 0
M  V30 11636 H 1076.04 2.52083 -1.62094 0
M  V30 11637 H 1073.6 1.27755 -0.994492 0
M  V30 11638 H 1075.59 4.02574 0.414285 0
M  V30 11639 H 1074.16 3.02762 0.778072 0
M  V30 11640 H 1073.38 3.5824 -1.64492 0
M  V30 11641 H 1074.67 4.79936 -1.68936 0
M  V30 11642 H 1074.07 5.47614 1.419 0
M  V30 11643 H 1072.62 6.39504 1.26008 0
M  V30 11644 N 1076.06 0.894434 1.2976 0
M  V30 11645 C 1077.02 0.373094 2.26143 0
M  V30 11646 C 1078.02 -0.489756 1.5316 0
M  V30 11647 O 1079.21 -0.29556 1.71674 0
M  V30 11648 C 1076.34 -0.467234 3.37683 0
M  V30 11649 H 1077.53 1.22427 2.73773 0
M  V30 11650 H 1075.09 0.672112 1.41111 0
M  V30 11651 H 1075.82 -1.33861 2.95384 0
M  V30 11652 H 1075.61 0.150954 3.91809 0
M  V30 11653 H 1077.1 -0.823469 4.094 0
M  V30 11654 N 1077.53 -1.43282 0.656365 0
M  V30 11655 C 1078.81 -1.9534 0.100816 0
M  V30 11656 C 1079.19 -1.59755 -1.37992 0
M  V30 11657 O 1078.54 -0.884264 -2.10697 0
M  V30 11658 C 1078.75 -3.47237 0.35038 0
M  V30 11659 C 1080.1 -4.23822 0.257001 0
M  V30 11660 O 1081.12 -3.55073 0.283111 0
M  V30 11661 O 1079.98 -5.46192 0.183397 0
M  V30 11662 H 1077.07 -0.826963 -0.00780287 0
M  V30 11663 H 1079.62 -1.53205 0.72982 0
M  V30 11664 H 1078.39 -3.66276 1.37685 0
M  V30 11665 H 1078.02 -3.96378 -0.311539 0
M  V30 11666 N 1079.01 -0.398486 -1.52479 0
M  V30 11667 C 1080.26 0.182046 -2.00877 0
M  V30 11668 C 1080.58 1.47128 -1.2889 0
M  V30 11669 O 1081.78 2.13242 -1.68048 0
M  V30 11670 C 1080.24 0.374978 -3.57941 0
M  V30 11671 C 1079.85 -0.901544 -4.38835 0
M  V30 11672 C 1081.59 0.911378 -4.14601 0
M  V30 11673 C 1079.5 -0.676385 -5.87519 0
M  V30 11674 H 1078.43 0.0718068 -0.750573 0
M  V30 11675 H 1081.08 -0.522297 -1.7591 0
M  V30 11676 H 1079.46 1.14139 -3.79194 0
M  V30 11677 H 1080.63 -1.67329 -4.29346 0
M  V30 11678 H 1078.95 -1.36357 -3.93441 0
M  V30 11679 H 1081.55 1.09569 -5.23353 0
M  V30 11680 H 1081.89 1.88306 -3.71277 0
M  V30 11681 H 1082.42 0.204296 -3.97275 0
M  V30 11682 H 1079.16 -1.61933 -6.35184 0
M  V30 11683 H 1078.68 0.0562542 -5.99774 0
M  V30 11684 H 1080.36 -0.314454 -6.46235 0
M  V30 11685 N 1080.49 1.57075 -0.12858 0
M  V30 11686 C 1081.73 1.97408 0.530059 0
M  V30 11687 C 1082.1 1.01087 1.63234 0
M  V30 11688 O 1083.3 1.30394 2.35055 0
M  V30 11689 C 1081.57 3.41928 1.04021 0
M  V30 11690 S 1083.13 4.04277 1.70603 0
M  V30 11691 H 1079.94 0.689884 0.17199 0
M  V30 11692 H 1082.55 1.94304 -0.215933 0
M  V30 11693 H 1081.25 4.09772 0.226928 0
M  V30 11694 H 1080.78 3.48703 1.82125 0
M  V30 11695 H 1082.8 3.95819 2.99235 0
M  V30 11696 N 1081.97 -0.145205 1.5693 0
M  V30 11697 C 1082.9 -1.18096 2.01434 0
M  V30 11698 C 1083.88 -1.447 0.894204 0
M  V30 11699 O 1085.07 -1.55589 1.16214 0
M  V30 11700 C 1082.2 -2.51369 2.39647 0
M  V30 11701 C 1081.15 -2.39283 3.54863 0
M  V30 11702 C 1080.48 -3.77283 3.78895 0
M  V30 11703 C 1081.78 -1.8754 4.87469 0
M  V30 11704 H 1083.47 -0.810897 2.8821 0
M  V30 11705 H 1081.02 -0.388624 1.38657 0
M  V30 11706 H 1082.97 -3.24054 2.69382 0
M  V30 11707 H 1081.69 -2.90214 1.49811 0
M  V30 11708 H 1080.35 -1.6905 3.25296 0
M  V30 11709 H 1080 -4.13567 2.86307 0
M  V30 11710 H 1079.7 -3.70057 4.56433 0
M  V30 11711 H 1081.22 -4.51514 4.11057 0
M  V30 11712 H 1082.64 -2.50019 5.1591 0
M  V30 11713 H 1081.03 -1.912 5.68826 0
M  V30 11714 H 1082.1 -0.831194 4.77723 0
M  V30 11715 N 1083.45 -1.52049 -0.414609 0
M  V30 11716 C 1084.4 -1.7138 -1.50376 0
M  V30 11717 C 1085.38 -0.567692 -1.50553 0
M  V30 11718 O 1086.57 -0.824541 -1.56622 0
M  V30 11719 C 1083.7 -1.86291 -2.88358 0
M  V30 11720 C 1082.79 -3.06757 -2.9285 0
M  V30 11721 N 1083.18 -4.29557 -2.67048 0
M  V30 11722 C 1081.48 -3.06478 -3.24018 0
M  V30 11723 C 1082.18 -5.10988 -2.77968 0
M  V30 11724 N 1081.15 -4.46117 -3.10613 0
M  V30 11725 H 1084.96 -2.63972 -1.29213 0
M  V30 11726 H 1082.47 -1.50006 -0.622244 0
M  V30 11727 H 1084.47 -1.98256 -3.66743 0
M  V30 11728 H 1083.13 -0.948959 -3.10524 0
M  V30 11729 H 1084.14 -4.58122 -2.41546 0
M  V30 11730 H 1080.82 -2.24799 -3.51812 0
M  V30 11731 H 1082.21 -6.18806 -2.6178 0
M  V30 11732 N 1084.93 0.6715 -1.42579 0
M  V30 11733 C 1085.86 1.79693 -1.49107 0
M  V30 11734 C 1086.84 1.66516 -0.347338 0
M  V30 11735 O 1088.02 1.85887 -0.562094 0
M  V30 11736 C 1085.15 3.1801 -1.39596 0
M  V30 11737 C 1084.11 3.45926 -2.5203 0
M  V30 11738 C 1083.43 4.83852 -2.27577 0
M  V30 11739 C 1084.73 3.4249 -3.94333 0
M  V30 11740 H 1086.43 1.74486 -2.433 0
M  V30 11741 H 1083.97 0.838042 -1.17102 0
M  V30 11742 H 1085.92 3.96478 -1.42771 0
M  V30 11743 H 1084.65 3.23901 -0.418989 0
M  V30 11744 H 1083.31 2.6982 -2.48178 0
M  V30 11745 H 1082.96 4.86398 -1.28165 0
M  V30 11746 H 1082.66 5.03493 -3.02934 0
M  V30 11747 H 1084.18 5.646 -2.32506 0
M  V30 11748 H 1085.59 4.10922 -3.9977 0
M  V30 11749 H 1083.99 3.73666 -4.69568 0
M  V30 11750 H 1085.06 2.41002 -4.20768 0
M  V30 11751 N 1086.4 1.28806 0.908124 0
M  V30 11752 C 1087.35 1.13083 2.03261 0
M  V30 11753 C 1088.35 0.0486094 1.6933 0
M  V30 11754 O 1089.55 0.207794 1.78797 0
M  V30 11755 H 1085.93 0.349057 0.666081 0
M  V30 11756 H 1087.9 2.08304 2.13663 0
M  V30 11757 C 1086.65 0.815339 3.38005 0
M  V30 11758 H 1085.97 1.64007 3.64612 0
M  V30 11759 H 1087.41 0.745311 4.17398 0
M  V30 11760 C 1085.87 -0.48113 3.33447 0
M  V30 11761 O 1086.4 -1.50974 3.7225 0
M  V30 11762 N 1084.6 -0.483912 2.86543 0
M  V30 11763 H 1084.15 0.353593 2.55162 0
M  V30 11764 H 1084.11 -1.35138 2.83875 0
M  V30 11765 N 1087.88 -1.11734 1.11145 0
M  V30 11766 C 1088.81 -2.17438 0.724804 0
M  V30 11767 C 1089.83 -1.6099 -0.242069 0
M  V30 11768 O 1091.02 -1.78482 -0.0254259 0
M  V30 11769 C 1088.12 -3.38863 0.050004 0
M  V30 11770 C 1087.29 -4.24785 1.04292 0
M  V30 11771 C 1086.35 -5.24691 0.398243 0
M  V30 11772 O 1085.37 -5.59408 1.05125 0
M  V30 11773 N 1086.58 -5.74388 -0.840184 0
M  V30 11774 H 1089.34 -2.51219 1.63429 0
M  V30 11775 H 1086.9 -1.27226 1.00125 0
M  V30 11776 H 1088.89 -4.02788 -0.392929 0
M  V30 11777 H 1087.46 -3.0317 -0.762005 0
M  V30 11778 H 1086.68 -3.57363 1.6639 0
M  V30 11779 H 1087.97 -4.79033 1.71478 0
M  V30 11780 H 1087.37 -5.48359 -1.38994 0
M  V30 11781 H 1085.93 -6.40163 -1.22615 0
M  V30 11782 N 1089.36 -0.901303 -1.29284 0
M  V30 11783 C 1090.59 -0.543511 -1.99634 0
M  V30 11784 C 1091 0.872154 -1.67448 0
M  V30 11785 O 1090.36 1.57591 -0.920406 0
M  V30 11786 C 1090.41 -0.728148 -3.54091 0
M  V30 11787 O 1090.13 -2.08809 -3.85137 0
M  V30 11788 C 1091.63 -0.375519 -4.41707 0
M  V30 11789 H 1088.85 -0.208405 -0.637815 0
M  V30 11790 H 1091.4 -1.21109 -1.64781 0
M  V30 11791 H 1089.55 -0.107728 -3.8725 0
M  V30 11792 H 1089.97 -2.11863 -4.79807 0
M  V30 11793 H 1091.44 -0.555538 -5.49197 0
M  V30 11794 H 1091.92 0.687532 -4.33785 0
M  V30 11795 H 1092.52 -0.972949 -4.14021 0
M  V30 11796 N 1090.84 1.42931 -0.663954 0
M  V30 11797 C 1091.77 2.33499 0.00731327 0
M  V30 11798 C 1092.75 1.50074 0.800733 0
M  V30 11799 O 1093.93 1.78708 0.760062 0
M  V30 11800 C 1091.06 3.33569 0.966897 0
M  V30 11801 C 1090.02 4.27064 0.282839 0
M  V30 11802 C 1089.34 5.17257 1.35461 0
M  V30 11803 C 1090.64 5.1564 -0.831438 0
M  V30 11804 H 1092.34 2.89879 -0.749044 0
M  V30 11805 H 1089.88 1.39385 -0.361656 0
M  V30 11806 H 1091.84 3.95833 1.44549 0
M  V30 11807 H 1090.56 2.75469 1.75455 0
M  V30 11808 H 1089.22 3.6618 -0.175417 0
M  V30 11809 H 1088.87 4.5549 2.13397 0
M  V30 11810 H 1088.57 5.80634 0.902098 0
M  V30 11811 H 1090.09 5.82395 1.83436 0
M  V30 11812 H 1091.51 5.71651 -0.434534 0
M  V30 11813 H 1089.9 5.87794 -1.20908 0
M  V30 11814 H 1090.97 4.54687 -1.68487 0
M  V30 11815 N 1092.32 0.406567 1.52266 0
M  V30 11816 C 1093.25 -0.411314 2.29849 0
M  V30 11817 C 1094.23 -1.04838 1.33952 0
M  V30 11818 O 1095.41 -1.05788 1.62857 0
M  V30 11819 C 1092.54 -1.52961 3.11802 0
M  V30 11820 C 1091.5 -1.01768 4.15725 0
M  V30 11821 C 1090.82 -2.22938 4.86007 0
M  V30 11822 C 1092.12 -0.073515 5.22248 0
M  V30 11823 H 1093.82 0.236054 2.98468 0
M  V30 11824 H 1091.36 0.114968 1.4354 0
M  V30 11825 H 1093.31 -2.10874 3.64843 0
M  V30 11826 H 1092.04 -2.20482 2.40947 0
M  V30 11827 H 1090.7 -0.46097 3.6369 0
M  V30 11828 H 1090.35 -2.89007 4.11684 0
M  V30 11829 H 1090.05 -1.89338 5.5626 0
M  V30 11830 H 1091.57 -2.81462 5.41859 0
M  V30 11831 H 1092.98 -0.561367 5.70545 0
M  V30 11832 H 1091.38 0.173551 5.99849 0
M  V30 11833 H 1092.45 0.872524 4.76985 0
M  V30 11834 N 1093.79 -1.57004 0.136909 0
M  V30 11835 C 1094.73 -2.13355 -0.837405 0
M  V30 11836 C 1095.74 -1.08053 -1.21772 0
M  V30 11837 O 1096.93 -1.35365 -1.16355 0
M  V30 11838 C 1094.03 -2.63302 -2.13366 0
M  V30 11839 C 1093.2 -3.92896 -1.92228 0
M  V30 11840 C 1092.26 -4.28257 -3.05749 0
M  V30 11841 O 1091.29 -4.96761 -2.7788 0
M  V30 11842 N 1092.49 -3.87021 -4.3266 0
M  V30 11843 H 1095.25 -2.9758 -0.35586 0
M  V30 11844 H 1092.81 -1.61832 -0.0469758 0
M  V30 11845 H 1094.81 -2.83977 -2.88339 0
M  V30 11846 H 1093.38 -1.83858 -2.52814 0
M  V30 11847 H 1092.6 -3.80949 -1.01349 0
M  V30 11848 H 1093.88 -4.776 -1.75431 0
M  V30 11849 H 1093.28 -3.31804 -4.58173 0
M  V30 11850 H 1091.84 -4.12768 -5.04446 0
M  V30 11851 N 1095.27 0.136881 -1.57004 0
M  V30 11852 C 1096.22 1.18782 -1.99984 0
M  V30 11853 C 1097.21 1.43899 -0.893841 0
M  V30 11854 O 1098.42 1.44072 -1.07904 0
M  V30 11855 H 1094.8 0.400065 -0.636751 0
M  V30 11856 H 1096.77 0.798696 -2.87512 0
M  V30 11857 C 1095.52 2.51105 -2.40502 0
M  V30 11858 H 1094.84 2.32611 -3.25165 0
M  V30 11859 H 1096.28 3.23244 -2.74389 0
M  V30 11860 C 1094.74 3.12386 -1.26161 0
M  V30 11861 O 1095.27 3.97666 -0.567836 0
M  V30 11862 N 1093.47 2.71989 -1.02326 0
M  V30 11863 H 1093.02 2.02736 -1.58921 0
M  V30 11864 H 1092.98 3.13322 -0.26013 0
M  V30 11865 N 1096.75 1.52266 0.40654 0
M  V30 11866 C 1097.99 1.6813 1.16239 0
M  V30 11867 C 1098.35 0.403791 1.87706 0
M  V30 11868 O 1099.56 0.438566 2.65198 0
M  V30 11869 C 1097.83 2.87115 2.12837 0
M  V30 11870 S 1099.39 3.23475 2.96495 0
M  V30 11871 H 1096.2 0.59202 0.393743 0
M  V30 11872 H 1098.81 1.90266 0.449325 0
M  V30 11873 H 1097.51 3.78337 1.59026 0
M  V30 11874 H 1097.04 2.6726 2.88679 0
M  V30 11875 H 1099.06 2.72299 4.14811 0
M  V30 11876 N 1098.23 -0.663929 1.42933 0
M  V30 11877 C 1099.18 -1.77717 1.47259 0
M  V30 11878 C 1100.15 -1.62922 0.323387 0
M  V30 11879 O 1101.33 -1.83319 0.529021 0
M  V30 11880 C 1098.47 -3.15814 1.39124 0
M  V30 11881 C 1097.58 -3.4182 2.64165 0
M  V30 11882 C 1096.72 -4.69705 2.48094 0
M  V30 11883 C 1095.76 -4.88781 3.68456 0
M  V30 11884 N 1094.89 -6.07915 3.51261 0
M  V30 11885 H 1099.73 -1.73355 2.42388 0
M  V30 11886 H 1097.27 -0.846121 1.2033 0
M  V30 11887 H 1099.23 -3.95633 1.32403 0
M  V30 11888 H 1097.86 -3.19274 0.475829 0
M  V30 11889 H 1096.91 -2.56176 2.81208 0
M  V30 11890 H 1098.22 -3.51805 3.53602 0
M  V30 11891 H 1097.38 -5.57632 2.39021 0
M  V30 11892 H 1096.12 -4.62022 1.56164 0
M  V30 11893 H 1095.12 -3.99292 3.7795 0
M  V30 11894 H 1096.35 -4.98301 4.61381 0
M  V30 11895 H 1094.29 -6.01384 2.62057 0
M  V30 11896 H 1094.21 -6.1881 4.34293 0
M  V30 11897 H 1095.48 -6.98492 3.4602 0
M  V30 11898 N 1099.71 -1.29285 -0.901281 0
M  V30 11899 C 1100.67 -1.14283 -1.98676 0
M  V30 11900 C 1101.67 -0.0787641 -1.60607 0
M  V30 11901 O 1102.86 -0.325574 -1.71131 0
M  V30 11902 C 1099.99 -0.747279 -3.32609 0
M  V30 11903 H 1101.18 -2.10701 -2.13413 0
M  V30 11904 H 1098.74 -1.12449 -1.08558 0
M  V30 11905 H 1099.47 0.217111 -3.23572 0
M  V30 11906 H 1099.26 -1.51608 -3.61604 0
M  V30 11907 H 1100.75 -0.665322 -4.12266 0
M  V30 11908 N 1101.18 1.11143 -1.11736 0
M  V30 11909 C 1102.43 1.82948 -0.868127 0
M  V30 11910 C 1102.76 1.84813 0.606182 0
M  V30 11911 O 1102.01 1.29901 1.4637 0
M  V30 11912 C 1102.31 3.29733 -1.3788 0
M  V30 11913 C 1101.98 3.48025 -2.86687 0
M  V30 11914 C 1100.64 3.52725 -3.2732 0
M  V30 11915 C 1102.99 3.54024 -3.82513 0
M  V30 11916 C 1100.32 3.60983 -4.62502 0
M  V30 11917 C 1102.67 3.63814 -5.17515 0
M  V30 11918 C 1101.34 3.66776 -5.57702 0
M  V30 11919 H 1100.61 0.669452 -0.31767 0
M  V30 11920 H 1103.25 1.31057 -1.3963 0
M  V30 11921 H 1101.56 3.8414 -0.77093 0
M  V30 11922 H 1103.26 3.83787 -1.16225 0
M  V30 11923 H 1099.85 3.45039 -2.54256 0
M  V30 11924 H 1104.03 3.4965 -3.52219 0
M  V30 11925 H 1099.29 3.61554 -4.9304 0
M  V30 11926 H 1103.46 3.674 -5.916 0
M  V30 11927 H 1101.09 3.72927 -6.62442 0
M  V30 11928 N 1102.66 0.908147 1.28804 0
M  V30 11929 C 1104.08 0.605474 1.47669 0
M  V30 11930 C 1104.28 -0.850759 1.82659 0
M  V30 11931 O 1103.33 -1.63029 1.92816 0
M  V30 11932 C 1104.65 1.53856 2.58358 0
M  V30 11933 C 1106.2 1.54467 2.7223 0
M  V30 11934 C 1106.67 2.46424 3.86056 0
M  V30 11935 N 1108.16 2.44519 3.93402 0
M  V30 11936 C 1108.9 3.12371 4.80845 0
M  V30 11937 N 1108.39 3.89533 5.72919 0
M  V30 11938 N 1110.19 3.01486 4.74407 0
M  V30 11939 H 1102.34 1.84988 1.04371 0
M  V30 11940 H 1104.6 0.793132 0.519274 0
M  V30 11941 H 1104.31 2.57651 2.39393 0
M  V30 11942 H 1104.18 1.26543 3.5534 0
M  V30 11943 H 1106.57 0.514127 2.90587 0
M  V30 11944 H 1106.65 1.85821 1.75796 0
M  V30 11945 H 1106.29 3.49577 3.68454 0
M  V30 11946 H 1106.22 2.12375 4.81876 0
M  V30 11947 H 1108.71 1.88464 3.27551 0
M  V30 11948 H 1109.03 4.3834 6.36457 0
M  V30 11949 H 1107.37 3.93639 5.72777 0
M  V30 11950 H 1110.56 2.40713 4.01466 0
M  V30 11951 H 1110.73 3.5464 5.42342 0
M  V30 11952 N 1104.14 -1.42577 0.671525 0
M  V30 11953 C 1105.39 -2.01185 0.192051 0
M  V30 11954 C 1105.71 -1.53349 -1.20454 0
M  V30 11955 O 1104.98 -0.753781 -1.80817 0
M  V30 11956 H 1103.56 -0.743898 0.0680106 0
M  V30 11957 H 1106.22 -1.74539 0.8673 0
M  V30 11958 H 1105.32 -3.11516 0.190796 0
M  V30 11959 N 1105.62 -0.414636 -1.52048 0
M  V30 11960 C 1106.58 0.396285 -2.25748 0
M  V30 11961 C 1107.58 0.969003 -1.28324 0
M  V30 11962 O 1108.77 0.847016 -1.52221 0
M  V30 11963 C 1105.9 1.55838 -3.03195 0
M  V30 11964 H 1107.1 -0.249311 -2.98862 0
M  V30 11965 H 1104.65 -0.167276 -1.55402 0
M  V30 11966 H 1105.38 2.24068 -2.34444 0
M  V30 11967 H 1105.17 1.15414 -3.74729 0
M  V30 11968 H 1106.66 2.13187 -3.59084 0
M  V30 11969 N 1107.1 1.56929 -0.145233 0
M  V30 11970 C 1108.32 2.00864 0.516564 0
M  V30 11971 C 1108.75 1.02466 1.57741 0
M  V30 11972 O 1108.1 0.000145439 1.813 0
M  V30 11973 C 1108.15 3.43552 1.09563 0
M  V30 11974 O 1107.26 3.4815 2.21055 0
M  V30 11975 H 1106.6 0.651835 0.126521 0
M  V30 11976 H 1109.13 2.0317 -0.241445 0
M  V30 11977 H 1109.14 3.82316 1.42473 0
M  V30 11978 H 1107.81 4.14677 0.318749 0
M  V30 11979 H 1106.39 3.21228 1.89387 0
M  V30 11980 N 1108.58 -0.128553 1.57075 0
M  V30 11981 C 1109.52 -1.15812 1.9964 0
M  V30 11982 C 1110.49 -1.41679 0.86696 0
M  V30 11983 O 1111.68 -1.53705 1.13046 0
M  V30 11984 C 1108.82 -2.48198 2.39774 0
M  V30 11985 C 1107.93 -2.29348 3.66092 0
M  V30 11986 C 1107.07 -3.54898 3.95248 0
M  V30 11987 C 1106.1 -3.31164 5.14779 0
M  V30 11988 N 1105.24 -4.48891 5.39853 0
M  V30 11989 H 1110.08 -0.788136 2.87389 0
M  V30 11990 H 1107.62 -0.377682 1.42169 0
M  V30 11991 H 1109.58 -3.25414 2.61077 0
M  V30 11992 H 1108.21 -2.83108 1.5508 0
M  V30 11993 H 1107.26 -1.43095 3.5246 0
M  V30 11994 H 1108.57 -2.07781 4.53463 0
M  V30 11995 H 1107.72 -4.40536 4.17148 0
M  V30 11996 H 1106.46 -3.79487 3.06335 0
M  V30 11997 H 1105.47 -2.43915 4.92733 0
M  V30 11998 H 1106.69 -3.07954 6.05261 0
M  V30 11999 H 1104.64 -4.73619 4.53895 0
M  V30 12000 H 1104.56 -4.30394 6.21528 0
M  V30 12001 H 1105.82 -5.35691 5.66265 0
M  V30 12002 N 1110.05 -1.5248 -0.398459 0
M  V30 12003 C 1111.3 -1.66731 -1.14215 0
M  V30 12004 C 1111.62 -0.404957 -1.90749 0
M  V30 12005 O 1110.89 0.580434 -1.87104 0
M  V30 12006 H 1109.47 -0.614577 -0.424622 0
M  V30 12007 H 1112.13 -1.89561 -0.453059 0
M  V30 12008 H 1111.23 -2.51336 -1.85031 0
M  V30 12009 N 1111.53 0.65634 -1.43283 0
M  V30 12010 C 1112.77 1.4281 -1.46235 0
M  V30 12011 C 1113.14 1.9182 -0.0830126 0
M  V30 12012 O 1114.34 2.68797 0.0127701 0
M  V30 12013 C 1112.61 2.58008 -2.47319 0
M  V30 12014 S 1114.17 3.46582 -2.69122 0
M  V30 12015 H 1110.98 0.487523 -0.517534 0
M  V30 12016 H 1113.59 0.762298 -1.80026 0
M  V30 12017 H 1112.29 2.20271 -3.46279 0
M  V30 12018 H 1111.82 3.29441 -2.15016 0
M  V30 12019 H 1113.84 4.54629 -1.98813 0
M  V30 12020 N 1113.01 1.29761 0.894412 0
M  V30 12021 C 1113.94 1.17902 2.01547 0
M  V30 12022 C 1114.92 0.0719402 1.69948 0
M  V30 12023 O 1116.11 0.252338 1.92554 0
M  V30 12024 C 1113.24 0.860262 3.36477 0
M  V30 12025 C 1112.19 1.92424 3.82305 0
M  V30 12026 C 1111.52 1.45868 5.14419 0
M  V30 12027 C 1112.82 3.33391 4.02054 0
M  V30 12028 H 1114.51 2.11688 2.11727 0
M  V30 12029 H 1112.06 1.01916 1.01731 0
M  V30 12030 H 1114.01 0.763987 4.14417 0
M  V30 12031 H 1112.73 -0.113289 3.26403 0
M  V30 12032 H 1111.39 2.00999 3.06586 0
M  V30 12033 H 1111.04 0.473654 5.00765 0
M  V30 12034 H 1110.74 2.17028 5.46052 0
M  V30 12035 H 1112.26 1.37601 5.94894 0
M  V30 12036 H 1113.68 3.27628 4.7046 0
M  V30 12037 H 1112.07 4.02555 4.4505 0
M  V30 12038 H 1113.14 3.75978 3.06216 0
M  V30 12039 N 1114.49 -1.10549 1.12324 0
M  V30 12040 C 1115.9 -1.34508 0.85905 0
M  V30 12041 C 1116.1 -1.94901 -0.511468 0
M  V30 12042 O 1115.16 -2.18793 -1.2604 0
M  V30 12043 C 1116.47 -2.26788 1.97453 0
M  V30 12044 C 1118.02 -2.40328 2.00528 0
M  V30 12045 C 1118.5 -3.35936 3.11305 0
M  V30 12046 N 1119.99 -3.43504 3.1074 0
M  V30 12047 C 1120.72 -4.17449 3.93096 0
M  V30 12048 N 1120.22 -4.9429 4.85437 0
M  V30 12049 N 1122.01 -4.13055 3.81237 0
M  V30 12050 H 1114.16 -0.697171 2.00632 0
M  V30 12051 H 1116.42 -0.369548 0.873005 0
M  V30 12052 H 1116.13 -1.89621 2.96204 0
M  V30 12053 H 1116 -3.27086 1.87869 0
M  V30 12054 H 1118.39 -2.76765 1.02397 0
M  V30 12055 H 1118.47 -1.39849 2.14186 0
M  V30 12056 H 1118.12 -3.00225 4.09667 0
M  V30 12057 H 1118.05 -4.36291 2.94886 0
M  V30 12058 H 1120.54 -2.88702 2.43843 0
M  V30 12059 H 1120.85 -5.48109 5.4479 0
M  V30 12060 H 1119.2 -4.93419 4.89452 0
M  V30 12061 H 1122.39 -3.52117 3.08433 0
M  V30 12062 H 1122.56 -4.70424 4.45651 0
M  V30 12063 N 1115.97 -0.914965 -1.28321 0
M  V30 12064 C 1116.93 -0.409024 -2.25521 0
M  V30 12065 C 1117.93 0.465327 -1.5392 0
M  V30 12066 O 1119.12 0.26821 -1.72123 0
M  V30 12067 C 1116.25 0.413452 -3.38383 0
M  V30 12068 H 1117.44 -1.26767 -2.71791 0
M  V30 12069 H 1115 -0.694477 -1.40024 0
M  V30 12070 H 1115.73 1.29145 -2.97476 0
M  V30 12071 H 1115.52 -0.213268 -3.9152 0
M  V30 12072 H 1117.01 0.758232 -4.10659 0
M  V30 12073 N 1117.44 1.42219 -0.679077 0
M  V30 12074 C 1118.37 2.33493 -0.0174528 0
M  V30 12075 C 1119.35 1.50915 0.78477 0
M  V30 12076 O 1120.54 1.79504 0.741065 0
M  V30 12077 C 1117.67 3.34576 0.931463 0
M  V30 12078 C 1116.62 4.2734 0.237527 0
M  V30 12079 C 1115.95 5.18664 1.29967 0
M  V30 12080 C 1117.25 5.14729 -0.886082 0
M  V30 12081 H 1118.94 2.89068 -0.779748 0
M  V30 12082 H 1116.49 1.38993 -0.376419 0
M  V30 12083 H 1118.44 3.97343 1.40343 0
M  V30 12084 H 1117.17 2.77315 1.72523 0
M  V30 12085 H 1115.83 3.65973 -0.214245 0
M  V30 12086 H 1115.47 4.57727 2.08554 0
M  V30 12087 H 1115.17 5.81558 0.840463 0
M  V30 12088 H 1116.7 5.84308 1.77249 0
M  V30 12089 H 1118.11 5.71158 -0.495141 0
M  V30 12090 H 1116.51 5.86478 -1.27135 0
M  V30 12091 H 1117.58 4.52874 -1.733 0
M  V30 12092 N 1118.92 0.422693 1.51826 0
M  V30 12093 C 1119.88 -0.384307 2.25955 0
M  V30 12094 C 1120.88 -0.962184 1.28836 0
M  V30 12095 O 1122.07 -0.838931 1.52668 0
M  V30 12096 C 1119.21 -1.54228 3.04018 0
M  V30 12097 H 1120.4 0.265157 2.98726 0
M  V30 12098 H 1117.95 0.175515 1.55311 0
M  V30 12099 H 1118.69 -2.22822 2.35629 0
M  V30 12100 H 1118.47 -1.13425 3.75336 0
M  V30 12101 H 1119.96 -2.1128 3.60209 0
M  V30 12102 N 1120.4 -1.5685 0.153553 0
M  V30 12103 C 1121.33 -2.12888 -0.821829 0
M  V30 12104 C 1122.31 -1.05418 -1.23798 0
M  V30 12105 O 1123.49 -1.33288 -1.33292 0
M  V30 12106 C 1120.62 -2.65394 -2.10438 0
M  V30 12107 C 1119.67 -3.85071 -1.83364 0
M  V30 12108 S 1120.5 -5.2572 -1.01877 0
M  V30 12109 C 1121.66 -5.81619 -2.31236 0
M  V30 12110 H 1121.89 -2.95288 -0.345314 0
M  V30 12111 H 1119.42 -1.5428 -0.0608377 0
M  V30 12112 H 1121.38 -2.96294 -2.84113 0
M  V30 12113 H 1120.04 -1.83112 -2.55204 0
M  V30 12114 H 1119.23 -4.20076 -2.78482 0
M  V30 12115 H 1118.84 -3.54965 -1.17794 0
M  V30 12116 H 1121.13 -5.9345 -3.26838 0
M  V30 12117 H 1122.07 -6.79054 -2.00727 0
M  V30 12118 H 1122.48 -5.09909 -2.42184 0
M  V30 12119 N 1121.88 0.120221 -1.57141 0
M  V30 12120 C 1122.82 1.14751 -2.00252 0
M  V30 12121 C 1123.79 1.41217 -0.874462 0
M  V30 12122 O 1124.98 1.53104 -1.13859 0
M  V30 12123 C 1122.12 2.46923 -2.41087 0
M  V30 12124 C 1121.23 2.27403 -3.67303 0
M  V30 12125 C 1120.37 3.52797 -3.97125 0
M  V30 12126 C 1119.41 3.28429 -5.16528 0
M  V30 12127 N 1118.54 4.46022 -5.42226 0
M  V30 12128 H 1123.38 0.772884 -2.87803 0
M  V30 12129 H 1120.92 0.370137 -1.42367 0
M  V30 12130 H 1122.88 3.24025 -2.62799 0
M  V30 12131 H 1121.51 2.82281 -1.5658 0
M  V30 12132 H 1120.56 1.41224 -3.53214 0
M  V30 12133 H 1121.87 2.05373 -4.54558 0
M  V30 12134 H 1121.03 4.38318 -4.19479 0
M  V30 12135 H 1119.77 3.77857 -3.08343 0
M  V30 12136 H 1118.77 2.41299 -4.94019 0
M  V30 12137 H 1120 3.0474 -6.06886 0
M  V30 12138 H 1117.94 4.71205 -4.56401 0
M  V30 12139 H 1117.86 4.27092 -6.23802 0
M  V30 12140 H 1119.13 5.3268 -5.69098 0
M  V30 12141 N 1123.36 1.52689 0.390367 0
M  V30 12142 C 1124.6 1.67666 1.13553 0
M  V30 12143 C 1124.93 0.415903 1.90001 0
M  V30 12144 O 1124.19 -0.601664 1.86222 0
M  V30 12145 C 1124.49 2.86177 2.14096 0
M  V30 12146 C 1124.15 4.23671 1.54316 0
M  V30 12147 C 1122.81 4.61066 1.37739 0
M  V30 12148 C 1125.17 5.09278 1.1084 0
M  V30 12149 C 1122.49 5.81727 0.76231 0
M  V30 12150 C 1124.85 6.30562 0.507433 0
M  V30 12151 C 1123.51 6.66689 0.328945 0
M  V30 12152 H 1122.78 0.613533 0.415521 0
M  V30 12153 H 1125.43 1.8683 0.420339 0
M  V30 12154 H 1123.73 2.61424 2.9183 0
M  V30 12155 H 1125.43 2.9496 2.7166 0
M  V30 12156 H 1122.02 3.94214 1.68207 0
M  V30 12157 H 1126.2 4.80957 1.2245 0
M  V30 12158 H 1121.46 6.08327 0.612208 0
M  V30 12159 H 1125.63 6.96211 0.162248 0
M  V30 12160 H 1123.26 7.60052 -0.149748 0
M  V30 12161 N 1124.83 -0.648732 1.43629 0
M  V30 12162 C 1125.78 -1.76145 1.49136 0
M  V30 12163 C 1126.75 -1.62569 0.340649 0
M  V30 12164 O 1127.94 -1.82748 0.548435 0
M  V30 12165 C 1125.08 -3.14321 1.42466 0
M  V30 12166 C 1124.19 -3.38999 2.67776 0
M  V30 12167 C 1123.32 -4.67047 2.53062 0
M  V30 12168 C 1122.36 -4.84845 3.7362 0
M  V30 12169 N 1121.5 -6.04155 3.57689 0
M  V30 12170 H 1126.34 -1.70774 2.44213 0
M  V30 12171 H 1123.88 -0.833311 1.2122 0
M  V30 12172 H 1125.84 -3.94206 1.36592 0
M  V30 12173 H 1124.47 -3.18751 0.509666 0
M  V30 12174 H 1123.52 -2.53179 2.83909 0
M  V30 12175 H 1124.83 -3.48035 3.57314 0
M  V30 12176 H 1123.98 -5.55066 2.44922 0
M  V30 12177 H 1122.72 -4.60339 1.61056 0
M  V30 12178 H 1121.73 -3.95261 3.82163 0
M  V30 12179 H 1122.95 -4.9338 4.6664 0
M  V30 12180 H 1120.9 -5.9857 2.6842 0
M  V30 12181 H 1120.82 -6.14169 4.40832 0
M  V30 12182 H 1122.08 -6.94782 3.53409 0
M  V30 12183 N 1126.31 -1.30234 -0.887518 0
M  V30 12184 C 1127.54 -1.21829 -1.67229 0
M  V30 12185 C 1127.96 0.219251 -1.87523 0
M  V30 12186 O 1127.31 1.14526 -1.42091 0
M  V30 12187 C 1127.36 -1.94044 -3.05007 0
M  V30 12188 O 1127.08 -3.32185 -2.85631 0
M  V30 12189 C 1128.59 -1.92265 -3.99436 0
M  V30 12190 H 1125.81 -0.421716 -0.521916 0
M  V30 12191 H 1128.35 -1.71816 -1.10903 0
M  V30 12192 H 1126.5 -1.47861 -3.58072 0
M  V30 12193 H 1126.92 -3.68724 -3.73018 0
M  V30 12194 H 1128.39 -2.47336 -4.93486 0
M  V30 12195 H 1128.87 -0.900984 -4.29859 0
M  V30 12196 H 1129.48 -2.38247 -3.52305 0
M  V30 12197 N 1127.79 1.09952 -1.12909 0
M  V30 12198 C 1129.02 1.8579 -0.910483 0
M  V30 12199 C 1129.43 1.80898 0.540484 0
M  V30 12200 O 1128.79 1.20126 1.3739 0
M  V30 12201 C 1128.84 3.33987 -1.38329 0
M  V30 12202 O 1128.56 3.38811 -2.77739 0
M  V30 12203 C 1130.06 4.26683 -1.20234 0
M  V30 12204 H 1127.28 0.587026 -0.325025 0
M  V30 12205 H 1129.83 1.38965 -1.5003 0
M  V30 12206 H 1127.98 3.78259 -0.836592 0
M  V30 12207 H 1128.4 4.31204 -2.98603 0
M  V30 12208 H 1129.87 5.28846 -1.58197 0
M  V30 12209 H 1130.35 4.38966 -0.14344 0
M  V30 12210 H 1130.95 3.88221 -1.73679 0
M  V30 12211 N 1129.27 0.921757 1.27833 0
M  V30 12212 C 1130.22 0.387357 2.24685 0
M  V30 12213 C 1131.2 -0.505036 1.52768 0
M  V30 12214 O 1132.39 -0.34345 1.73636 0
M  V30 12215 C 1129.52 -0.364168 3.41363 0
M  V30 12216 C 1128.61 0.544401 4.20591 0
M  V30 12217 N 1129 1.66158 4.77729 0
M  V30 12218 C 1127.3 0.346289 4.44654 0
M  V30 12219 C 1128 2.22619 5.37416 0
M  V30 12220 N 1126.98 1.51648 5.22019 0
M  V30 12221 H 1130.78 1.24045 2.6644 0
M  V30 12222 H 1128.29 0.775338 1.42696 0
M  V30 12223 H 1130.29 -0.763917 4.09841 0
M  V30 12224 H 1128.95 -1.21426 3.01141 0
M  V30 12225 H 1129.96 2.04406 4.75856 0
M  V30 12226 H 1126.64 -0.46363 4.14918 0
M  V30 12227 H 1128.03 3.16641 5.92611 0
M  V30 12228 N 1130.75 -1.41857 0.686609 0
M  V30 12229 C 1131.71 -2.29187 0.0247022 0
M  V30 12230 C 1132.71 -1.43926 -0.717069 0
M  V30 12231 O 1133.9 -1.65179 -0.5533 0
M  V30 12232 C 1131.03 -3.26644 -0.975537 0
M  V30 12233 H 1132.22 -2.89212 0.793503 0
M  V30 12234 H 1129.78 -1.49694 0.449605 0
M  V30 12235 H 1130.51 -2.7158 -1.77242 0
M  V30 12236 H 1130.3 -3.89545 -0.446892 0
M  V30 12237 H 1131.79 -3.92107 -1.43673 0
M  V30 12238 N 1132.22 -0.430739 -1.51599 0
M  V30 12239 C 1133.64 0.0339139 -1.86669 0
M  V30 12240 C 1133.99 1.42533 -1.34829 0
M  V30 12241 O 1133.11 2.04889 -0.696376 0
M  V30 12242 C 1133.71 0.0683174 -3.38731 0
M  V30 12243 C 1132.27 0.477363 -3.73361 0
M  V30 12244 C 1131.41 -0.334258 -2.75278 0
M  V30 12245 H 1134.36 -0.646875 -1.44918 0
M  V30 12246 H 1134.38 0.879179 -3.70204 0
M  V30 12247 H 1133.9 -0.944501 -3.76432 0
M  V30 12248 H 1132 1.49603 -3.41247 0
M  V30 12249 H 1132.11 0.206744 -4.78654 0
M  V30 12250 H 1130.47 0.206503 -2.53861 0
M  V30 12251 H 1131.26 -1.34583 -3.1582 0
M  V30 12252 N 1133.7 1.56767 -0.161869 0
M  V30 12253 C 1135.11 1.83265 0.356466 0
M  V30 12254 C 1135.46 1.08127 1.63716 0
M  V30 12255 O 1134.59 0.33127 2.13849 0
M  V30 12256 C 1135.18 3.32437 0.653521 0
M  V30 12257 C 1133.74 3.59465 1.11633 0
M  V30 12258 C 1132.89 2.76909 0.147204 0
M  V30 12259 H 1135.84 1.53926 -0.386308 0
M  V30 12260 H 1135.86 3.49401 1.50662 0
M  V30 12261 H 1135.37 3.87098 -0.278766 0
M  V30 12262 H 1133.48 3.10206 2.06404 0
M  V30 12263 H 1133.59 4.67853 1.03202 0
M  V30 12264 H 1131.95 2.46457 0.642739 0
M  V30 12265 H 1132.74 3.34346 -0.778938 0
M  V30 12266 N 1135.18 -0.111886 1.57202 0
M  V30 12267 C 1136.43 -0.816794 1.84859 0
M  V30 12268 C 1136.75 -1.80079 0.748113 0
M  V30 12269 O 1136.02 -1.94578 -0.227235 0
M  V30 12270 H 1134.6 -0.304633 0.682061 0
M  V30 12271 H 1137.26 -0.097513 1.94656 0
M  V30 12272 H 1136.36 -1.35768 2.81022 0
M  V30 12273 N 1136.66 -1.52894 -0.382264 0
M  V30 12274 C 1137.94 -1.58853 -1.14127 0
M  V30 12275 C 1138.32 -0.38582 -2.07544 0
M  V30 12276 O 1137.66 0.625323 -2.19777 0
M  V30 12277 C 1137.87 -2.93068 -1.89504 0
M  V30 12278 C 1139.22 -3.47048 -2.44629 0
M  V30 12279 O 1140.25 -2.94987 -1.99652 0
M  V30 12280 O 1139.1 -4.3802 -3.26804 0
M  V30 12281 H 1136.2 -0.640969 -0.522578 0
M  V30 12282 H 1138.74 -1.65231 -0.386873 0
M  V30 12283 H 1137.52 -3.72047 -1.2123 0
M  V30 12284 H 1137.14 -2.90106 -2.7189 0
M  V30 12285 N 1138.14 0.641106 -1.43971 0
M  V30 12286 C 1139.37 1.42829 -1.49692 0
M  V30 12287 C 1139.78 1.88427 -0.118594 0
M  V30 12288 O 1139.14 1.60234 0.873581 0
M  V30 12289 C 1139.19 2.65524 -2.45314 0
M  V30 12290 O 1138.91 2.2183 -3.77787 0
M  V30 12291 C 1140.41 3.58758 -2.60399 0
M  V30 12292 H 1137.63 0.438367 -0.508011 0
M  V30 12293 H 1140.17 0.784933 -1.88836 0
M  V30 12294 H 1138.33 3.25973 -2.09332 0
M  V30 12295 H 1138.74 3.01303 -4.29321 0
M  V30 12296 H 1140.22 4.41483 -3.31357 0
M  V30 12297 H 1140.69 4.06909 -1.65294 0
M  V30 12298 H 1141.3 3.04184 -2.97241 0
M  V30 12299 N 1139.62 1.30703 0.880598 0
M  V30 12300 C 1140.55 1.20033 2.00286 0
M  V30 12301 C 1141.53 0.0899614 1.69862 0
M  V30 12302 O 1142.71 0.272747 1.92275 0
M  V30 12303 C 1139.84 0.895902 3.35546 0
M  V30 12304 C 1138.8 1.96468 3.80242 0
M  V30 12305 C 1138.12 1.51316 5.12843 0
M  V30 12306 C 1139.42 3.37637 3.98496 0
M  V30 12307 H 1141.12 2.13922 2.0947 0
M  V30 12308 H 1138.66 1.02989 1.00644 0
M  V30 12309 H 1140.61 0.807899 4.13583 0
M  V30 12310 H 1139.34 -0.0786636 3.26505 0
M  V30 12311 H 1138 2.0424 3.04437 0
M  V30 12312 H 1137.65 0.52674 5.00234 0
M  V30 12313 H 1137.35 2.22807 5.43719 0
M  V30 12314 H 1138.87 1.43903 5.93401 0
M  V30 12315 H 1140.28 3.326 4.66959 0
M  V30 12316 H 1138.68 4.07253 4.40755 0
M  V30 12317 H 1139.75 3.79205 3.02211 0
M  V30 12318 N 1141.09 -1.09351 1.1349 0
M  V30 12319 C 1142.34 -1.81812 0.898452 0
M  V30 12320 C 1142.67 -1.85525 -0.573959 0
M  V30 12321 O 1141.95 -1.32403 -1.42477 0
M  V30 12322 C 1142.23 -3.27921 1.48794 0
M  V30 12323 C 1142.08 -3.32476 3.02952 0
M  V30 12324 C 1143.4 -4.24625 1.15678 0
M  V30 12325 H 1140.52 -0.660074 0.327829 0
M  V30 12326 H 1143.16 -1.28091 1.40331 0
M  V30 12327 H 1141.31 -3.738 1.05858 0
M  V30 12328 H 1142.99 -2.94994 3.54649 0
M  V30 12329 H 1141.23 -2.72037 3.37903 0
M  V30 12330 H 1141.9 -4.35409 3.39298 0
M  V30 12331 H 1144.38 -3.87036 1.52781 0
M  V30 12332 H 1143.25 -5.25194 1.59571 0
M  V30 12333 H 1143.51 -4.42044 0.0705933 0
M  V30 12334 N 1142.57 -0.928524 -1.27343 0
M  V30 12335 C 1143.52 -0.399267 -2.24477 0
M  V30 12336 C 1144.51 0.496927 -1.53034 0
M  V30 12337 O 1145.7 0.334237 -1.73816 0
M  V30 12338 C 1142.83 0.346059 -3.41551 0
M  V30 12339 C 1141.91 -0.566699 -4.20297 0
M  V30 12340 N 1142.3 -1.6869 -4.76841 0
M  V30 12341 C 1140.6 -0.369865 -4.44464 0
M  V30 12342 C 1141.3 -2.25466 -5.36228 0
M  V30 12343 N 1140.28 -1.54414 -5.21207 0
M  V30 12344 H 1144.08 -1.25456 -2.65778 0
M  V30 12345 H 1141.59 -0.782894 -1.42283 0
M  V30 12346 H 1143.59 0.742171 -4.10241 0
M  V30 12347 H 1142.25 1.19827 -3.01781 0
M  V30 12348 H 1143.26 -2.06926 -4.74765 0
M  V30 12349 H 1139.94 0.441619 -4.15158 0
M  V30 12350 H 1141.33 -3.19779 -5.90924 0
M  V30 12351 N 1144.05 1.41491 -0.694123 0
M  V30 12352 C 1145.29 2.03117 -0.228614 0
M  V30 12353 C 1145.65 1.53782 1.14957 0
M  V30 12354 O 1146.85 2.07325 1.71084 0
M  V30 12355 C 1145.13 3.56283 -0.282341 0
M  V30 12356 S 1146.68 4.38664 0.109333 0
M  V30 12357 H 1143.5 0.704993 -0.092227 0
M  V30 12358 H 1146.1 1.72947 -0.911578 0
M  V30 12359 H 1144.81 3.89685 -1.2874 0
M  V30 12360 H 1144.34 3.91154 0.419818 0
M  V30 12361 H 1146.35 4.77835 1.33747 0
M  V30 12362 N 1145.53 0.438773 1.51369 0
M  V30 12363 C 1146.78 -0.126962 2.01701 0
M  V30 12364 C 1147.1 -1.43086 1.32481 0
M  V30 12365 O 1146.37 -1.90427 0.459823 0
M  V30 12366 H 1144.95 -0.0499092 0.745331 0
M  V30 12367 H 1147.61 0.581808 1.86013 0
M  V30 12368 H 1146.7 -0.301836 3.10637 0
M  V30 12369 N 1147.01 -1.56678 0.170181 0
M  V30 12370 C 1148.28 -1.88524 -0.521362 0
M  V30 12371 C 1148.66 -1.07989 -1.81388 0
M  V30 12372 O 1148.01 -0.17347 -2.27841 0
M  V30 12373 C 1148.22 -3.40527 -0.764367 0
M  V30 12374 C 1149.57 -4.10241 -1.09487 0
M  V30 12375 O 1150.59 -3.45837 -0.852945 0
M  V30 12376 O 1149.45 -5.24022 -1.55124 0
M  V30 12377 H 1146.55 -0.782161 -0.268614 0
M  V30 12378 H 1149.09 -1.68414 0.208531 0
M  V30 12379 H 1147.86 -3.91015 0.149416 0
M  V30 12380 H 1147.49 -3.66244 -1.54762 0
M  V30 12381 N 1148.48 0.103547 -1.57259 0
M  V30 12382 C 1149.73 0.809774 -1.85931 0
M  V30 12383 C 1150.06 1.78791 -0.758122 0
M  V30 12384 O 1149.34 1.93079 0.234682 0
M  V30 12385 C 1149.62 1.54601 -3.25224 0
M  V30 12386 C 1149.47 0.586439 -4.45961 0
M  V30 12387 C 1150.79 2.4986 -3.62296 0
M  V30 12388 H 1147.91 0.29293 -0.676285 0
M  V30 12389 H 1150.55 0.0736065 -1.89857 0
M  V30 12390 H 1148.7 2.17355 -3.22008 0
M  V30 12391 H 1150.38 -0.0334441 -4.61288 0
M  V30 12392 H 1148.62 -0.10085 -4.33683 0
M  V30 12393 H 1149.29 1.13855 -5.40131 0
M  V30 12394 H 1151.77 1.97203 -3.66402 0
M  V30 12395 H 1150.64 2.98396 -4.60707 0
M  V30 12396 H 1150.9 3.33233 -2.90531 0
M  V30 12397 N 1149.96 1.53094 0.37415 0
M  V30 12398 C 1150.89 1.81901 1.46404 0
M  V30 12399 C 1151.87 0.671949 1.56265 0
M  V30 12400 O 1153.06 0.920978 1.70973 0
M  V30 12401 C 1150.19 2.00123 2.83845 0
M  V30 12402 C 1149.14 3.15864 2.88814 0
M  V30 12403 C 1148.47 3.19364 4.28848 0
M  V30 12404 C 1149.77 4.54633 2.57112 0
M  V30 12405 H 1151.46 2.73172 1.22546 0
M  V30 12406 H 1149.01 1.31444 0.588087 0
M  V30 12407 H 1150.96 2.18859 3.6011 0
M  V30 12408 H 1149.68 1.05555 3.09072 0
M  V30 12409 H 1148.34 2.96935 2.15 0
M  V30 12410 H 1147.99 2.2245 4.51137 0
M  V30 12411 H 1147.69 3.97123 4.3309 0
M  V30 12412 H 1149.22 3.40273 5.06997 0
M  V30 12413 H 1150.63 4.73587 3.23091 0
M  V30 12414 H 1149.03 5.34569 2.72683 0
M  V30 12415 H 1150.1 4.60331 1.52392 0
M  V30 12416 N 1151.44 -0.633461 1.44309 0
M  V30 12417 C 1152.67 -1.42033 1.50447 0
M  V30 12418 C 1153.08 -1.88362 0.128585 0
M  V30 12419 O 1152.44 -1.60695 -0.865071 0
M  V30 12420 C 1152.49 -2.6422 2.46719 0
M  V30 12421 O 1152.21 -2.19823 3.78958 0
M  V30 12422 C 1153.71 -3.57372 2.62298 0
M  V30 12423 H 1150.93 -0.435667 0.510329 0
M  V30 12424 H 1153.48 -0.774907 1.8925 0
M  V30 12425 H 1151.63 -3.24859 2.11058 0
M  V30 12426 H 1152.05 -2.99022 4.30913 0
M  V30 12427 H 1153.52 -4.39719 3.33693 0
M  V30 12428 H 1154 -4.06026 1.67449 0
M  V30 12429 H 1154.6 -3.02603 2.9885 0
M  V30 12430 N 1152.92 -1.31168 -0.873655 0
M  V30 12431 C 1153.88 -1.18471 -1.96207 0
M  V30 12432 C 1154.88 -0.112814 -1.60404 0
M  V30 12433 O 1156.07 -0.3618 -1.70401 0
M  V30 12434 C 1153.2 -0.817662 -3.30949 0
M  V30 12435 H 1154.4 -2.1518 -2.08896 0
M  V30 12436 H 1151.95 -1.14727 -1.06149 0
M  V30 12437 H 1152.68 0.148428 -3.2396 0
M  V30 12438 H 1152.47 -1.59244 -3.58307 0
M  V30 12439 H 1153.96 -0.75262 -4.10762 0
M  V30 12440 N 1154.4 1.08748 -1.14068 0
M  V30 12441 C 1155.33 2.17591 -0.84714 0
M  V30 12442 C 1156.31 1.68962 0.196415 0
M  V30 12443 O 1157.49 1.94125 0.0538415 0
M  V30 12444 C 1154.62 3.45823 -0.320005 0
M  V30 12445 C 1153.58 4.07824 -1.2986 0
M  V30 12446 C 1152.9 5.30965 -0.630925 0
M  V30 12447 C 1154.2 4.49512 -2.65963 0
M  V30 12448 H 1155.9 2.42404 -1.75729 0
M  V30 12449 H 1153.44 1.16502 -0.846356 0
M  V30 12450 H 1155.4 4.21276 -0.102271 0
M  V30 12451 H 1154.12 3.20553 0.625561 0
M  V30 12452 H 1152.78 3.34398 -1.50245 0
M  V30 12453 H 1152.43 5.01979 0.320337 0
M  V30 12454 H 1152.13 5.73402 -1.28388 0
M  V30 12455 H 1153.65 6.09136 -0.422635 0
M  V30 12456 H 1155.06 5.16159 -2.49506 0
M  V30 12457 H 1153.46 5.02857 -3.27498 0
M  V30 12458 H 1154.53 3.6157 -3.23102 0
M  V30 12459 N 1155.87 0.935264 1.26849 0
M  V30 12460 C 1157.1 0.595384 1.97835 0
M  V30 12461 C 1157.51 -0.832605 1.69895 0
M  V30 12462 O 1156.86 -1.56597 0.960371 0
M  V30 12463 C 1156.92 0.750567 3.51578 0
M  V30 12464 C 1156.58 2.15208 4.03156 0
M  V30 12465 C 1157.58 3.12699 4.15349 0
M  V30 12466 C 1155.26 2.47106 4.37314 0
M  V30 12467 C 1157.26 4.40193 4.60987 0
M  V30 12468 C 1154.94 3.74834 4.82641 0
M  V30 12469 C 1155.94 4.7119 4.94438 0
M  V30 12470 O 1155.63 5.96644 5.38768 0
M  V30 12471 H 1155.36 0.223734 0.637902 0
M  V30 12472 H 1157.92 1.25663 1.62475 0
M  V30 12473 H 1156.15 0.0322039 3.86687 0
M  V30 12474 H 1157.84 0.414625 4.03777 0
M  V30 12475 H 1158.6 2.89378 3.89211 0
M  V30 12476 H 1154.48 1.72846 4.2737 0
M  V30 12477 H 1158.02 5.15406 4.70109 0
M  V30 12478 H 1153.92 3.9797 5.08222 0
M  V30 12479 H 1154.69 5.99741 5.57003 0
M  V30 12480 N 1157.35 -1.41121 0.701616 0
M  V30 12481 C 1158.6 -2.0113 0.235147 0
M  V30 12482 C 1158.93 -1.55587 -1.16718 0
M  V30 12483 O 1158.18 -0.760615 -1.80314 0
M  V30 12484 C 1158.48 -3.5654 0.247781 0
M  V30 12485 C 1158.15 -4.21616 1.59846 0
M  V30 12486 C 1156.81 -4.39106 1.96822 0
M  V30 12487 C 1159.16 -4.58048 2.48679 0
M  V30 12488 C 1156.49 -4.90307 3.22205 0
M  V30 12489 C 1158.84 -5.10642 3.734 0
M  V30 12490 C 1157.51 -5.26343 4.10512 0
M  V30 12491 H 1156.78 -0.735987 0.0860462 0
M  V30 12492 H 1159.42 -1.68932 0.901898 0
M  V30 12493 H 1157.73 -3.88564 -0.502528 0
M  V30 12494 H 1159.42 -4.00787 -0.130766 0
M  V30 12495 H 1156.01 -4.08381 1.30088 0
M  V30 12496 H 1160.2 -4.44184 2.21391 0
M  V30 12497 H 1155.45 -5.00647 3.50945 0
M  V30 12498 H 1159.63 -5.37811 4.42416 0
M  V30 12499 H 1157.26 -5.65779 5.07738 0
M  V30 12500 N 1158.83 -0.446794 -1.51134 0
M  V30 12501 C 1159.76 0.350229 -2.30858 0
M  V30 12502 C 1160.74 1.0125 -1.36684 0
M  V30 12503 O 1161.93 1.01433 -1.65605 0
M  V30 12504 C 1159.06 1.4464 -3.15748 0
M  V30 12505 C 1158.01 0.907102 -4.18277 0
M  V30 12506 C 1157.34 2.09974 -4.91747 0
M  V30 12507 C 1158.64 -0.0649758 -5.2226 0
M  V30 12508 H 1160.33 -0.315105 -2.97737 0
M  V30 12509 H 1157.88 -0.152985 -1.43185 0
M  V30 12510 H 1159.83 2.01127 -3.70305 0
M  V30 12511 H 1158.55 2.14016 -2.46708 0
M  V30 12512 H 1157.21 0.364382 -3.64785 0
M  V30 12513 H 1156.86 2.77991 -4.19202 0
M  V30 12514 H 1156.56 1.74523 -5.61084 0
M  V30 12515 H 1158.08 2.66996 -5.49131 0
M  V30 12516 H 1159.5 0.4099 -5.71833 0
M  V30 12517 H 1157.9 -0.332529 -5.99178 0
M  V30 12518 H 1158.97 -0.998681 -4.74504 0
M  V30 12519 N 1160.31 1.56586 -0.178487 0
M  V30 12520 C 1161.53 2.01915 0.473841 0
M  V30 12521 C 1161.96 1.05789 1.55533 0
M  V30 12522 O 1161.32 0.0386018 1.81259 0
M  V30 12523 C 1161.36 3.45799 1.02251 0
M  V30 12524 O 1160.47 3.52761 2.1362 0
M  V30 12525 H 1159.81 0.654372 0.112666 0
M  V30 12526 H 1162.34 2.02613 -0.284486 0
M  V30 12527 H 1162.35 3.85252 1.34332 0
M  V30 12528 H 1161.02 4.1526 0.230719 0
M  V30 12529 H 1159.6 3.25172 1.8253 0
M  V30 12530 N 1161.79 -0.095206 1.57312 0
M  V30 12531 C 1163.2 -0.449411 1.53142 0
M  V30 12532 C 1163.4 -1.80523 0.895187 0
M  V30 12533 O 1162.46 -2.47746 0.487649 0
M  V30 12534 C 1163.77 -0.412002 2.97864 0
M  V30 12535 C 1165.32 -0.493866 3.09079 0
M  V30 12536 C 1165.79 -0.486606 4.55408 0
M  V30 12537 N 1167.29 -0.547363 4.59955 0
M  V30 12538 C 1168.02 -0.563582 5.70624 0
M  V30 12539 N 1167.52 -0.536015 6.90723 0
M  V30 12540 N 1169.31 -0.608385 5.58798 0
M  V30 12541 H 1161.46 0.792869 1.97047 0
M  V30 12542 H 1163.72 0.295106 0.900898 0
M  V30 12543 H 1163.43 0.517064 3.47878 0
M  V30 12544 H 1163.3 -1.23102 3.56547 0
M  V30 12545 H 1165.69 -1.41335 2.59053 0
M  V30 12546 H 1165.77 0.353286 2.53349 0
M  V30 12547 H 1165.42 0.428935 5.06086 0
M  V30 12548 H 1165.35 -1.35097 5.08976 0
M  V30 12549 H 1167.84 -0.573867 3.73517 0
M  V30 12550 H 1168.15 -0.551671 7.70828 0
M  V30 12551 H 1166.49 -0.503064 6.93177 0
M  V30 12552 H 1169.69 -0.627451 4.63876 0
M  V30 12553 H 1169.86 -0.617556 6.45051 0
M  V30 12554 N 1163.26 -1.53291 -0.366026 0
M  V30 12555 C 1164.51 -1.69117 -1.10653 0
M  V30 12556 C 1164.83 -0.445327 -1.89847 0
M  V30 12557 O 1164.1 0.540616 -1.88293 0
M  V30 12558 H 1162.68 -0.623446 -0.41149 0
M  V30 12559 H 1165.35 -1.90479 -0.412749 0
M  V30 12560 H 1164.44 -2.55205 -1.79658 0
M  V30 12561 N 1164.74 0.6258 -1.44643 0
M  V30 12562 C 1165.97 1.41726 -1.51422 0
M  V30 12563 C 1166.39 1.87565 -0.14181 0
M  V30 12564 O 1165.75 1.59059 0.870054 0
M  V30 12565 C 1165.8 2.61012 -2.48807 0
M  V30 12566 O 1164.9 3.61029 -1.99328 0
M  V30 12567 H 1164.24 0.423855 -0.511119 0
M  V30 12568 H 1166.77 0.763336 -1.89827 0
M  V30 12569 H 1166.78 3.08489 -2.67018 0
M  V30 12570 H 1165.46 2.26995 -3.48491 0
M  V30 12571 H 1164.04 3.20325 -1.90909 0
M  V30 12572 N 1166.22 1.31629 0.866686 0
M  V30 12573 C 1167.47 1.20861 1.61479 0
M  V30 12574 C 1167.78 -0.231208 1.94229 0
M  V30 12575 O 1168.99 -0.460618 2.67564 0
M  V30 12576 C 1167.44 2.11602 2.91123 0
M  V30 12577 C 1167.05 3.60598 2.65844 0
M  V30 12578 C 1168.8 2.09642 3.69121 0
M  V30 12579 C 1166.7 4.43337 3.91415 0
M  V30 12580 H 1165.63 0.448783 0.605896 0
M  V30 12581 H 1168.28 1.56507 0.958001 0
M  V30 12582 H 1166.67 1.68858 3.58194 0
M  V30 12583 H 1167.84 4.11609 2.07159 0
M  V30 12584 H 1166.16 3.64568 2.01194 0
M  V30 12585 H 1168.75 2.68701 4.62281 0
M  V30 12586 H 1169.1 1.08438 4.01929 0
M  V30 12587 H 1169.63 2.50603 3.08938 0
M  V30 12588 H 1166.37 5.45309 3.63756 0
M  V30 12589 H 1165.89 3.97083 4.49539 0
M  V30 12590 H 1167.57 4.5572 4.5927 0
M  V30 12591 N 1167.7 -1.08142 1.14644 0
M  V30 12592 C 1168.61 -2.18675 0.849607 0
M  V30 12593 C 1169.63 -1.73158 -0.170983 0
M  V30 12594 O 1170.8 -2.014 0.0011579 0
M  V30 12595 C 1167.87 -3.45084 0.334305 0
M  V30 12596 C 1166.93 -4.05213 1.41779 0
M  V30 12597 C 1166.16 -5.25588 0.926981 0
M  V30 12598 O 1166.38 -5.69934 -0.230522 0
M  V30 12599 O 1165.32 -5.77183 1.70715 0
M  V30 12600 H 1169.14 -2.46542 1.77343 0
M  V30 12601 H 1166.73 -1.17328 0.924911 0
M  V30 12602 H 1168.61 -4.21367 0.0529893 0
M  V30 12603 H 1167.29 -3.18788 -0.561755 0
M  V30 12604 H 1166.19 -3.30507 1.7526 0
M  V30 12605 H 1167.53 -4.35764 2.28847 0
M  V30 12606 N 1169.18 -0.941978 -1.26351 0
M  V30 12607 C 1170.43 -0.585711 -1.93009 0
M  V30 12608 C 1170.74 0.879507 -1.74711 0
M  V30 12609 O 1171.95 1.34518 -2.35833 0
M  V30 12610 C 1170.4 -0.996787 -3.45821 0
M  V30 12611 C 1170.01 -2.48367 -3.72851 0
M  V30 12612 C 1171.75 -0.712452 -4.18479 0
M  V30 12613 C 1169.66 -2.83341 -5.19107 0
M  V30 12614 H 1168.59 -0.215342 -0.722595 0
M  V30 12615 H 1171.24 -1.14472 -1.43417 0
M  V30 12616 H 1169.62 -0.366295 -3.94302 0
M  V30 12617 H 1170.8 -3.16328 -3.35072 0
M  V30 12618 H 1169.11 -2.74139 -3.13427 0
M  V30 12619 H 1171.71 -0.95007 -5.26192 0
M  V30 12620 H 1172.05 0.350811 -4.14819 0
M  V30 12621 H 1172.59 -1.3027 -3.75865 0
M  V30 12622 H 1169.32 -3.88633 -5.27868 0
M  V30 12623 H 1168.84 -2.20043 -5.5798 0
M  V30 12624 H 1170.52 -2.71849 -5.87118 0
M  V30 12625 N 1170.66 1.40747 -0.709091 0
M  V30 12626 C 1171.59 2.33404 -0.0669763 0
M  V30 12627 C 1172.57 1.52546 0.752582 0
M  V30 12628 O 1173.75 1.81036 0.702823 0
M  V30 12629 C 1170.88 3.36476 0.860285 0
M  V30 12630 C 1169.84 4.27748 0.146828 0
M  V30 12631 C 1169.16 5.21304 1.18937 0
M  V30 12632 C 1170.46 5.12734 -0.995064 0
M  V30 12633 H 1172.16 2.87349 -0.840888 0
M  V30 12634 H 1169.7 1.38163 -0.405817 0
M  V30 12635 H 1171.65 4.00231 1.31883 0
M  V30 12636 H 1170.38 2.80912 1.66602 0
M  V30 12637 H 1169.04 3.65437 -0.291826 0
M  V30 12638 H 1168.69 4.62048 1.98798 0
M  V30 12639 H 1168.39 5.8321 0.716917 0
M  V30 12640 H 1169.91 5.87936 1.64815 0
M  V30 12641 H 1171.32 5.69979 -0.61618 0
M  V30 12642 H 1169.72 5.83649 -1.39547 0
M  V30 12643 H 1170.79 4.49097 -1.82867 0
M  V30 12644 N 1172.13 0.454803 1.50895 0
M  V30 12645 C 1173.08 -0.347769 2.28165 0
M  V30 12646 C 1174.05 -1.00158 1.32505 0
M  V30 12647 O 1175.24 -1.01715 1.61427 0
M  V30 12648 C 1172.38 -1.43315 3.13934 0
M  V30 12649 C 1171.49 -0.795736 4.24608 0
M  V30 12650 C 1170.62 -1.85763 4.9766 0
M  V30 12651 C 1169.66 -1.19959 6.0023 0
M  V30 12652 N 1168.8 -2.20361 6.66622 0
M  V30 12653 H 1173.64 0.317493 2.96304 0
M  V30 12654 H 1171.18 0.168418 1.46133 0
M  V30 12655 H 1173.13 -2.07391 3.62001 0
M  V30 12656 H 1171.76 -2.0678 2.47875 0
M  V30 12657 H 1170.82 -0.0428173 3.80376 0
M  V30 12658 H 1172.13 -0.275477 4.98039 0
M  V30 12659 H 1171.28 -2.5746 5.49363 0
M  V30 12660 H 1170.02 -2.41166 4.23899 0
M  V30 12661 H 1169.03 -0.46817 5.47803 0
M  V30 12662 H 1170.25 -0.652666 6.75956 0
M  V30 12663 H 1168.2 -2.74812 5.95663 0
M  V30 12664 H 1168.11 -1.73275 7.35875 0
M  V30 12665 H 1169.38 -2.91488 7.22949 0
M  V30 12666 N 1173.61 -1.56489 0.186789 0
M  V30 12667 C 1174.89 -1.89066 -0.501337 0
M  V30 12668 C 1175.27 -1.09906 -1.80233 0
M  V30 12669 O 1174.62 -0.197626 -2.27644 0
M  V30 12670 C 1174.83 -3.41318 -0.728207 0
M  V30 12671 C 1176.17 -4.11379 -1.0513 0
M  V30 12672 O 1177.2 -3.46722 -0.816216 0
M  V30 12673 O 1176.06 -5.25638 -1.49557 0
M  V30 12674 H 1173.15 -0.784966 -0.260303 0
M  V30 12675 H 1175.7 -1.68183 0.226382 0
M  V30 12676 H 1174.47 -3.90834 0.19088 0
M  V30 12677 H 1174.09 -3.67865 -1.50869 0
M  V30 12678 N 1175.09 0.086862 -1.5736 0
M  V30 12679 C 1176.37 0.820984 -1.77537 0
M  V30 12680 C 1176.75 1.96534 -0.770554 0
M  V30 12681 O 1176.09 2.27629 0.199334 0
M  V30 12682 C 1176.3 1.30793 -3.23565 0
M  V30 12683 C 1177.65 1.7474 -3.86977 0
M  V30 12684 O 1178.68 1.40396 -3.27364 0
M  V30 12685 O 1177.54 2.38271 -4.91822 0
M  V30 12686 H 1174.63 0.392228 -0.72807 0
M  V30 12687 H 1177.18 0.0681051 -1.69563 0
M  V30 12688 H 1175.95 0.488409 -3.8824 0
M  V30 12689 H 1175.57 2.12258 -3.36203 0
M  V30 12690 N 1176.57 1.53483 0.357892 0
M  V30 12691 C 1177.82 1.69256 1.09706 0
M  V30 12692 C 1178.13 0.454888 1.90237 0
M  V30 12693 O 1179.34 0.4933 2.66981 0
M  V30 12694 C 1177.79 2.99238 1.99961 0
M  V30 12695 C 1177.4 4.30293 1.24706 0
M  V30 12696 C 1179.14 3.24378 2.73823 0
M  V30 12697 C 1177.05 5.5136 2.13907 0
M  V30 12698 H 1175.98 0.630657 0.413265 0
M  V30 12699 H 1178.63 1.79983 0.357518 0
M  V30 12700 H 1177.01 2.82332 2.77677 0
M  V30 12701 H 1178.19 4.57857 0.519995 0
M  V30 12702 H 1176.5 4.11656 0.626736 0
M  V30 12703 H 1179.1 4.12015 3.40805 0
M  V30 12704 H 1179.44 2.40769 3.39612 0
M  V30 12705 H 1179.98 3.41994 2.03187 0
M  V30 12706 H 1176.71 6.3747 1.52684 0
M  V30 12707 H 1176.23 5.28065 2.84442 0
M  V30 12708 H 1177.91 5.86448 2.7329 0
M  V30 12709 N 1178.05 -0.61812 1.44973 0
M  V30 12710 C 1179.29 -1.37944 1.48658 0
M  V30 12711 C 1179.62 -1.93805 0.123749 0
M  V30 12712 O 1178.9 -1.74434 -0.860401 0
M  V30 12713 C 1179.18 -2.53515 2.55739 0
M  V30 12714 C 1179.04 -2.02918 4.01428 0
M  V30 12715 C 1180.35 -3.55674 2.59199 0
M  V30 12716 H 1177.47 -0.500223 0.541244 0
M  V30 12717 H 1180.12 -0.69774 1.76725 0
M  V30 12718 H 1178.27 -3.11669 2.31937 0
M  V30 12719 H 1179.94 -1.49494 4.36405 0
M  V30 12720 H 1178.18 -1.33999 4.12586 0
M  V30 12721 H 1178.85 -2.86181 4.72021 0
M  V30 12722 H 1181.33 -3.07343 2.80499 0
M  V30 12723 H 1180.2 -4.34042 3.36004 0
M  V30 12724 H 1180.46 -4.10601 1.63888 0
M  V30 12725 N 1179.52 -1.32087 -0.859693 0
M  V30 12726 C 1180.77 -1.22542 -1.6159 0
M  V30 12727 C 1181.1 0.213533 -1.93022 0
M  V30 12728 O 1180.38 1.14931 -1.56911 0
M  V30 12729 C 1180.66 -2.08004 -2.93949 0
M  V30 12730 C 1180.51 -3.60252 -2.6933 0
M  V30 12731 C 1181.83 -1.93732 -3.95166 0
M  V30 12732 H 1178.95 -0.446504 -0.586347 0
M  V30 12733 H 1181.59 -1.61982 -0.993064 0
M  V30 12734 H 1179.74 -1.74498 -3.47106 0
M  V30 12735 H 1181.42 -4.03947 -2.22766 0
M  V30 12736 H 1179.66 -3.83169 -2.03382 0
M  V30 12737 H 1180.33 -4.1537 -3.63555 0
M  V30 12738 H 1182.81 -2.23075 -3.5125 0
M  V30 12739 H 1181.68 -2.55815 -4.85644 0
M  V30 12740 H 1181.94 -0.903528 -4.32769 0
M  V30 12741 N 1181 1.07532 -1.15215 0
M  V30 12742 C 1181.96 2.1286 -0.84989 0
M  V30 12743 C 1182.96 1.60103 0.149524 0
M  V30 12744 O 1184.15 1.74017 -0.0798918 0
M  V30 12745 C 1181.29 3.3984 -0.268617 0
M  V30 12746 H 1182.48 2.41106 -1.78347 0
M  V30 12747 H 1180.03 1.23392 -0.959386 0
M  V30 12748 H 1180.77 3.17235 0.67325 0
M  V30 12749 H 1180.55 3.79433 -0.988592 0
M  V30 12750 H 1182.04 4.17533 -0.0746554 0
M  V30 12751 N 1182.48 0.948665 1.2585 0
M  V30 12752 C 1183.73 0.595938 1.92695 0
M  V30 12753 C 1184.04 -0.870229 1.75175 0
M  V30 12754 O 1185.25 -1.33266 2.36543 0
M  V30 12755 C 1183.7 1.01511 3.45288 0
M  V30 12756 C 1183.31 2.50341 3.71528 0
M  V30 12757 C 1185.06 0.734635 4.18095 0
M  V30 12758 C 1182.96 2.8609 5.17597 0
M  V30 12759 H 1181.89 0.219171 0.721443 0
M  V30 12760 H 1184.54 1.15231 1.42807 0
M  V30 12761 H 1182.93 0.387201 3.94102 0
M  V30 12762 H 1184.1 3.18101 3.3339 0
M  V30 12763 H 1182.42 2.75797 3.11969 0
M  V30 12764 H 1185.01 0.977962 5.25681 0
M  V30 12765 H 1185.36 -0.328807 4.14999 0
M  V30 12766 H 1185.89 1.32262 3.75169 0
M  V30 12767 H 1182.63 3.91427 5.25799 0
M  V30 12768 H 1182.15 2.22999 5.56805 0
M  V30 12769 H 1183.83 2.74959 5.85668 0
M  V30 12770 N 1183.96 -1.40369 0.716545 0
M  V30 12771 C 1184.89 -2.33365 0.0793533 0
M  V30 12772 C 1185.87 -1.52943 -0.744482 0
M  V30 12773 O 1187.05 -1.81406 -0.693212 0
M  V30 12774 C 1184.18 -3.36928 -0.842429 0
M  V30 12775 C 1183.14 -4.2782 -0.124142 0
M  V30 12776 C 1182.46 -5.21928 -1.1617 0
M  V30 12777 C 1183.76 -5.12199 1.02224 0
M  V30 12778 H 1185.46 -2.86899 0.856115 0
M  V30 12779 H 1183 -1.37946 0.413138 0
M  V30 12780 H 1184.96 -4.00925 -1.29759 0
M  V30 12781 H 1183.68 -2.81791 -1.6511 0
M  V30 12782 H 1182.34 -3.65277 0.311201 0
M  V30 12783 H 1181.99 -4.63096 -1.96345 0
M  V30 12784 H 1181.69 -5.83582 -0.685978 0
M  V30 12785 H 1183.21 -5.88802 -1.61694 0
M  V30 12786 H 1184.63 -5.69644 0.646399 0
M  V30 12787 H 1183.02 -5.82901 1.4264 0
M  V30 12788 H 1184.09 -4.4812 1.85246 0
M  V30 12789 N 1185.44 -0.462799 -1.50652 0
M  V30 12790 C 1186.68 0.0948568 -2.01877 0
M  V30 12791 C 1187.01 1.4096 -1.34741 0
M  V30 12792 O 1186.28 1.89671 -0.49006 0
M  V30 12793 H 1184.86 0.0380453 -0.746031 0
M  V30 12794 H 1187.52 -0.611327 -1.85064 0
M  V30 12795 H 1186.61 0.252378 -3.11078 0
M  V30 12796 N 1186.91 1.56388 -0.195085 0
M  V30 12797 C 1187.86 2.19091 0.725793 0
M  V30 12798 C 1188.83 1.13814 1.20977 0
M  V30 12799 O 1190.02 1.42065 1.27366 0
M  V30 12800 C 1187.16 2.85427 1.93973 0
M  V30 12801 C 1186.27 4.05229 1.49712 0
M  V30 12802 C 1185.4 4.59421 2.66656 0
M  V30 12803 C 1184.44 5.71581 2.19001 0
M  V30 12804 N 1183.58 6.2018 3.29123 0
M  V30 12805 H 1188.42 2.97429 0.184334 0
M  V30 12806 H 1185.96 1.46886 0.0792434 0
M  V30 12807 H 1187.92 3.22057 2.65208 0
M  V30 12808 H 1186.55 2.09652 2.4545 0
M  V30 12809 H 1185.6 3.74261 0.680641 0
M  V30 12810 H 1186.91 4.8635 1.10749 0
M  V30 12811 H 1186.06 4.98357 3.46014 0
M  V30 12812 H 1184.8 3.77407 3.08893 0
M  V30 12813 H 1183.81 5.32174 1.38097 0
M  V30 12814 H 1185.03 6.55413 1.77795 0
M  V30 12815 H 1182.98 5.41088 3.70891 0
M  V30 12816 H 1182.9 6.96353 2.94328 0
M  V30 12817 H 1184.16 6.63769 4.08694 0
M  V30 12818 N 1188.39 -0.0785156 1.57404 0
M  V30 12819 C 1189.34 -1.11278 2.04255 0
M  V30 12820 C 1190.33 -1.40482 0.946633 0
M  V30 12821 O 1191.54 -1.39968 1.13177 0
M  V30 12822 H 1187.92 -0.376157 0.65116 0
M  V30 12823 H 1189.89 -0.691437 2.90279 0
M  V30 12824 C 1188.64 -2.42006 2.49656 0
M  V30 12825 H 1187.96 -2.20383 3.33574 0
M  V30 12826 H 1189.4 -3.12837 2.86197 0
M  V30 12827 C 1187.86 -3.07488 1.37669 0
M  V30 12828 O 1188.39 -3.95285 0.715036 0
M  V30 12829 N 1186.59 -2.68004 1.1235 0
M  V30 12830 H 1186.14 -1.96698 1.66336 0
M  V30 12831 H 1186.1 -3.12141 0.376238 0
M  V30 12832 N 1189.87 -1.5367 -0.349747 0
M  V30 12833 C 1191.15 -1.61238 -1.10732 0
M  V30 12834 C 1191.53 -0.429756 -2.06679 0
M  V30 12835 O 1190.88 0.578564 -2.21054 0
M  V30 12836 C 1191.09 -2.97022 -1.83245 0
M  V30 12837 C 1192.43 -3.52158 -2.37212 0
M  V30 12838 O 1193.46 -2.99156 -1.9335 0
M  V30 12839 O 1192.32 -4.44853 -3.1744 0
M  V30 12840 H 1189.41 -0.65191 -0.508864 0
M  V30 12841 H 1191.96 -1.66015 -0.351738 0
M  V30 12842 H 1190.73 -3.74535 -1.13311 0
M  V30 12843 H 1190.35 -2.95808 -2.65675 0
M  V30 12844 N 1191.35 0.610423 -1.45298 0
M  V30 12845 C 1192.6 1.36558 -1.48441 0
M  V30 12846 C 1192.91 1.95173 -0.129137 0
M  V30 12847 O 1194.12 2.71473 -0.0381956 0
M  V30 12848 C 1192.57 2.47349 -2.61431 0
M  V30 12849 C 1192.18 1.95158 -4.03258 0
M  V30 12850 C 1193.92 3.24383 -2.73817 0
M  V30 12851 C 1191.83 3.03414 -5.07635 0
M  V30 12852 H 1190.76 0.513253 -0.552347 0
M  V30 12853 H 1193.41 0.654535 -1.7143 0
M  V30 12854 H 1191.79 3.21125 -2.31721 0
M  V30 12855 H 1192.97 1.2811 -4.42634 0
M  V30 12856 H 1191.28 1.30878 -3.95297 0
M  V30 12857 H 1193.88 4.05123 -3.48969 0
M  V30 12858 H 1194.22 3.75205 -1.80352 0
M  V30 12859 H 1194.76 2.57705 -3.03039 0
M  V30 12860 H 1191.5 2.57512 -6.028 0
M  V30 12861 H 1191.02 3.69039 -4.72833 0
M  V30 12862 H 1192.69 3.67844 -5.32259 0
M  V30 12863 N 1192.83 1.32541 0.852676 0
M  V30 12864 C 1194.07 1.23214 1.607 0
M  V30 12865 C 1194.4 -0.205542 1.93411 0
M  V30 12866 O 1193.66 -1.15907 1.57683 0
M  V30 12867 C 1193.96 2.039 2.9353 0
M  V30 12868 C 1193.62 3.53237 2.8024 0
M  V30 12869 C 1192.28 3.93953 2.76323 0
M  V30 12870 C 1194.64 4.48194 2.6603 0
M  V30 12871 C 1191.96 5.27865 2.56077 0
M  V30 12872 C 1194.32 5.82251 2.47319 0
M  V30 12873 C 1192.98 6.22166 2.41796 0
M  V30 12874 H 1192.25 0.450873 0.588043 0
M  V30 12875 H 1194.9 1.63988 0.988954 0
M  V30 12876 H 1193.2 1.55861 3.59464 0
M  V30 12877 H 1194.9 1.94051 3.50921 0
M  V30 12878 H 1191.49 3.209 2.84114 0
M  V30 12879 H 1195.67 4.17656 2.681 0
M  V30 12880 H 1190.93 5.57845 2.50237 0
M  V30 12881 H 1195.1 6.55442 2.35305 0
M  V30 12882 H 1192.73 7.2587 2.25868 0
M  V30 12883 N 1194.3 -1.0692 1.15784 0
M  V30 12884 C 1195.55 -1.79245 0.933581 0
M  V30 12885 C 1195.87 -1.87362 -0.540427 0
M  V30 12886 O 1195.14 -1.37769 -1.39271 0
M  V30 12887 H 1193.72 -0.663898 0.342416 0
M  V30 12888 H 1196.39 -1.29189 1.45932 0
M  V30 12889 H 1195.48 -2.81546 1.34679 0
M  V30 12890 N 1195.78 -0.955326 -1.25345 0
M  V30 12891 C 1196.69 -0.482707 -2.2958 0
M  V30 12892 C 1197.71 0.450283 -1.68073 0
M  V30 12893 O 1198.88 0.326358 -1.98738 0
M  V30 12894 C 1195.95 0.231293 -3.45928 0
M  V30 12895 C 1195.01 -0.739995 -4.22874 0
M  V30 12896 C 1194.24 -0.0599748 -5.33666 0
M  V30 12897 O 1194.47 1.15423 -5.586 0
M  V30 12898 O 1193.4 -0.745865 -5.97261 0
M  V30 12899 H 1197.23 -1.34892 -2.72099 0
M  V30 12900 H 1194.81 -0.721812 -1.30806 0
M  V30 12901 H 1196.69 0.632908 -4.1662 0
M  V30 12902 H 1195.37 1.07267 -3.0541 0
M  V30 12903 H 1194.28 -1.19183 -3.54607 0
M  V30 12904 H 1195.61 -1.54941 -4.67177 0
M  V30 12905 N 1197.26 1.39987 -0.723979 0
M  V30 12906 C 1198.19 2.28185 -0.0257726 0
M  V30 12907 C 1199.17 1.43795 0.75907 0
M  V30 12908 O 1200.36 1.73198 0.743948 0
M  V30 12909 C 1197.48 3.24489 0.970811 0
M  V30 12910 C 1196.53 4.25607 0.275778 0
M  V30 12911 S 1197.36 5.26035 -1.00237 0
M  V30 12912 C 1198.52 6.25899 -0.00809987 0
M  V30 12913 H 1198.75 2.87054 -0.773761 0
M  V30 12914 H 1196.28 1.45546 -0.515332 0
M  V30 12915 H 1198.24 3.80496 1.54055 0
M  V30 12916 H 1196.9 2.6466 1.69156 0
M  V30 12917 H 1196.1 4.93374 1.02946 0
M  V30 12918 H 1195.7 3.73343 -0.22163 0
M  V30 12919 H 1197.99 6.72323 0.835971 0
M  V30 12920 H 1198.93 7.05086 -0.652607 0
M  V30 12921 H 1199.34 5.63355 0.359377 0
M  V30 12922 N 1198.74 0.470782 1.50404 0
M  V30 12923 C 1199.99 -0.0844409 2.02624 0
M  V30 12924 C 1200.32 -1.39398 1.3521 0
M  V30 12925 O 1199.59 -1.88542 0.477707 0
M  V30 12926 C 1199.88 -0.268563 3.59097 0
M  V30 12927 C 1199.73 1.06198 4.37084 0
M  V30 12928 C 1201.05 -1.02324 4.28039 0
M  V30 12929 H 1198.17 -0.0292141 0.736421 0
M  V30 12930 H 1200.81 0.616312 1.79726 0
M  V30 12931 H 1198.96 -0.865441 3.78738 0
M  V30 12932 H 1200.63 1.69541 4.29015 0
M  V30 12933 H 1198.87 1.65868 4.00837 0
M  V30 12934 H 1199.55 0.886795 5.4483 0
M  V30 12935 H 1202.02 -0.517325 4.12872 0
M  V30 12936 H 1200.9 -1.12087 5.37334 0
M  V30 12937 H 1201.16 -2.05974 3.91187 0
M  V30 12938 N 1200.22 -1.56282 0.203376 0
M  V30 12939 C 1201.17 -2.16094 -0.727145 0
M  V30 12940 C 1202.15 -1.10404 -1.17046 0
M  V30 12941 O 1203.34 -1.36444 -1.12748 0
M  V30 12942 C 1200.47 -2.83029 -1.94293 0
M  V30 12943 C 1199.56 -3.9592 -1.52013 0
M  V30 12944 N 1199.95 -4.99292 -0.808794 0
M  V30 12945 C 1198.25 -4.07674 -1.80881 0
M  V30 12946 C 1198.95 -5.78641 -0.595738 0
M  V30 12947 N 1197.92 -5.31362 -1.14697 0
M  V30 12948 H 1201.73 -2.93378 -0.175041 0
M  V30 12949 H 1199.24 -1.624 0.00390859 0
M  V30 12950 H 1201.24 -3.24277 -2.62012 0
M  V30 12951 H 1199.9 -2.07235 -2.49968 0
M  V30 12952 H 1200.91 -5.15823 -0.463383 0
M  V30 12953 H 1197.59 -3.43016 -2.38005 0
M  V30 12954 H 1198.98 -6.71893 -0.0308618 0
M  V30 12955 N 1201.7 0.070167 -1.57444 0
M  V30 12956 C 1202.63 1.08351 -2.06839 0
M  V30 12957 C 1203.61 1.40269 -0.962224 0
M  V30 12958 O 1204.79 1.49867 -1.23505 0
M  V30 12959 C 1201.92 2.39649 -2.51368 0
M  V30 12960 C 1200.88 2.22079 -3.65875 0
M  V30 12961 C 1200.2 3.58776 -3.96464 0
M  V30 12962 C 1201.5 1.64069 -4.95862 0
M  V30 12963 H 1203.2 0.672465 -2.9175 0
M  V30 12964 H 1200.74 0.322027 -1.40353 0
M  V30 12965 H 1202.69 3.10833 -2.84537 0
M  V30 12966 H 1201.42 2.82736 -1.63487 0
M  V30 12967 H 1200.08 1.53337 -3.32992 0
M  V30 12968 H 1199.73 3.99436 -3.05712 0
M  V30 12969 H 1199.43 3.47859 -4.7357 0
M  V30 12970 H 1200.95 4.31387 -4.32131 0
M  V30 12971 H 1202.36 2.2512 -5.27251 0
M  V30 12972 H 1200.76 1.63843 -5.773 0
M  V30 12973 H 1201.83 0.60232 -4.81145 0
M  V30 12974 N 1203.17 1.53854 0.341593 0
M  V30 12975 C 1204.4 1.7488 1.10002 0
M  V30 12976 C 1204.81 0.488802 1.82777 0
M  V30 12977 O 1204.15 -0.549333 1.75294 0
M  V30 12978 C 1204.22 2.87604 2.15694 0
M  V30 12979 C 1203.88 4.27142 1.62477 0
M  V30 12980 C 1204.88 5.08642 1.07606 0
M  V30 12981 C 1202.56 4.73633 1.67265 0
M  V30 12982 C 1204.56 6.34735 0.582284 0
M  V30 12983 C 1202.24 5.99697 1.175 0
M  V30 12984 C 1203.24 6.80081 0.630742 0
M  V30 12985 O 1202.93 8.03777 0.140519 0
M  V30 12986 H 1202.66 0.587824 0.333824 0
M  V30 12987 H 1205.22 2.01488 0.398965 0
M  V30 12988 H 1203.45 2.56526 2.89364 0
M  V30 12989 H 1205.13 2.96583 2.77117 0
M  V30 12990 H 1205.9 4.73887 1.03227 0
M  V30 12991 H 1201.78 4.11121 2.08567 0
M  V30 12992 H 1205.32 6.97424 0.156811 0
M  V30 12993 H 1201.22 6.33947 1.21579 0
M  V30 12994 H 1201.99 8.18094 0.257626 0
M  V30 12995 N 1204.65 -0.602709 1.4562 0
M  V30 12996 C 1205.61 -1.69508 1.54271 0
M  V30 12997 C 1206.61 -1.55171 0.421727 0
M  V30 12998 O 1207.8 -1.60151 0.685375 0
M  V30 12999 C 1204.94 -3.0881 1.44392 0
M  V30 13000 H 1206.13 -1.63203 2.51605 0
M  V30 13001 H 1203.68 -0.818857 1.33133 0
M  V30 13002 H 1204.42 -3.20689 0.482614 0
M  V30 13003 H 1204.2 -3.20625 2.25704 0
M  V30 13004 H 1205.69 -3.8837 1.53488 0
M  V30 13005 N 1206.13 -1.32992 -0.845635 0
M  V30 13006 C 1207.08 -1.22682 -1.95494 0
M  V30 13007 C 1208.05 -0.106942 -1.65755 0
M  V30 13008 O 1209.23 -0.28405 -1.88674 0
M  V30 13009 C 1206.37 -0.965068 -3.31331 0
M  V30 13010 C 1205.48 -2.17058 -3.7351 0
M  V30 13011 C 1204.62 -1.84355 -4.98183 0
M  V30 13012 C 1203.66 -3.01176 -5.32878 0
M  V30 13013 N 1202.8 -2.68506 -6.48729 0
M  V30 13014 H 1207.64 -2.17562 -2.03644 0
M  V30 13015 H 1205.17 -1.08194 -0.996613 0
M  V30 13016 H 1207.13 -0.793771 -4.09579 0
M  V30 13017 H 1205.76 -0.0530285 -3.22756 0
M  V30 13018 H 1204.81 -2.45185 -2.90841 0
M  V30 13019 H 1206.12 -3.04413 -3.95138 0
M  V30 13020 H 1205.28 -1.6383 -5.84162 0
M  V30 13021 H 1204.02 -0.942264 -4.78511 0
M  V30 13022 H 1203.02 -3.22323 -4.45408 0
M  V30 13023 H 1204.25 -3.9205 -5.54503 0
M  V30 13024 H 1202.19 -1.80929 -6.30556 0
M  V30 13025 H 1202.11 -3.49392 -6.70419 0
M  V30 13026 H 1203.38 -2.51432 -7.37836 0
M  V30 13027 N 1207.61 1.06304 -1.1635 0
M  V30 13028 C 1209.02 1.60566 -0.952652 0
M  V30 13029 C 1209.37 1.8963 0.503473 0
M  V30 13030 O 1208.49 1.66964 1.37666 0
M  V30 13031 C 1209.09 2.9172 -1.72292 0
M  V30 13032 C 1207.65 3.42684 -1.55707 0
M  V30 13033 C 1206.8 2.16579 -1.73172 0
M  V30 13034 H 1209.75 0.892563 -1.31221 0
M  V30 13035 H 1209.77 3.61126 -1.19868 0
M  V30 13036 H 1209.28 2.70535 -2.78267 0
M  V30 13037 H 1207.38 3.68929 -0.521726 0
M  V30 13038 H 1207.49 4.18018 -2.34088 0
M  V30 13039 H 1205.86 2.26795 -1.15914 0
M  V30 13040 H 1206.64 1.97877 -2.80535 0
M  V30 13041 N 1209.09 0.96196 1.24836 0
M  V30 13042 C 1210.33 0.619489 1.92371 0
M  V30 13043 C 1210.65 -0.847233 1.75633 0
M  V30 13044 O 1209.92 -1.60419 1.12439 0
M  V30 13045 H 1208.5 0.226129 0.711951 0
M  V30 13046 H 1211.17 1.22179 1.5185 0
M  V30 13047 H 1210.26 0.855128 3.00157 0
M  V30 13048 N 1210.56 -1.39601 0.731392 0
M  V30 13049 C 1211.51 -2.30628 0.0890606 0
M  V30 13050 C 1212.48 -1.49025 -0.73353 0
M  V30 13051 O 1213.67 -1.77722 -0.694234 0
M  V30 13052 C 1210.81 -3.35339 -0.814956 0
M  V30 13053 C 1209.92 -4.31995 0.0198606 0
M  V30 13054 C 1209.05 -5.23774 -0.885095 0
M  V30 13055 C 1208.09 -6.12083 -0.045311 0
M  V30 13056 N 1207.23 -6.9623 -0.906002 0
M  V30 13057 H 1212.07 -2.84988 0.870958 0
M  V30 13058 H 1209.61 -1.40329 0.441166 0
M  V30 13059 H 1211.56 -3.94634 -1.3535 0
M  V30 13060 H 1210.19 -2.82443 -1.56287 0
M  V30 13061 H 1209.25 -3.74349 0.675778 0
M  V30 13062 H 1210.56 -4.94289 0.669346 0
M  V30 13063 H 1209.71 -5.88078 -1.49161 0
M  V30 13064 H 1208.45 -4.61794 -1.56837 0
M  V30 13065 H 1207.46 -5.46795 0.574028 0
M  V30 13066 H 1208.68 -6.76128 0.634692 0
M  V30 13067 H 1206.63 -6.36821 -1.57463 0
M  V30 13068 H 1206.54 -7.55352 -0.312914 0
M  V30 13069 H 1207.81 -7.64967 -1.49819 0
M  V30 13070 N 1212.04 -0.478751 -1.50152 0
M  V30 13071 C 1213.27 0.0732929 -2.0727 0
M  V30 13072 C 1213.69 1.32066 -1.33941 0
M  V30 13073 O 1213.05 1.7707 -0.389367 0
M  V30 13074 C 1213.1 0.332528 -3.59064 0
M  V30 13075 O 1212.2 1.41158 -3.8749 0
M  V30 13076 H 1211.54 -0.0163684 -0.663798 0
M  V30 13077 H 1214.07 -0.671993 -1.9325 0
M  V30 13078 H 1214.08 0.570735 -4.03988 0
M  V30 13079 H 1212.76 -0.578934 -4.11851 0
M  V30 13080 H 1211.34 1.16008 -3.54396 0
M  V30 13081 N 1213.52 1.56172 -0.211661 0
M  V30 13082 C 1214.47 2.21206 0.719063 0
M  V30 13083 C 1215.46 1.18835 1.20725 0
M  V30 13084 O 1216.67 1.36939 1.16823 0
M  V30 13085 H 1213.04 0.709129 0.250279 0
M  V30 13086 H 1215.01 2.98038 0.147022 0
M  V30 13087 C 1213.76 2.89826 1.92084 0
M  V30 13088 H 1213.09 3.68351 1.55428 0
M  V30 13089 H 1214.53 3.38744 2.55006 0
M  V30 13090 C 1212.99 1.91756 2.77004 0
M  V30 13091 O 1213.52 1.42826 3.75451 0
M  V30 13092 N 1211.72 1.59622 2.42836 0
M  V30 13093 H 1211.27 1.99606 1.62835 0
M  V30 13094 H 1211.23 0.942641 2.99936 0
M  V30 13095 N 1215 -0.0618163 1.57479 0
M  V30 13096 C 1215.96 -1.05684 2.0338 0
M  V30 13097 C 1216.96 -1.31006 0.932423 0
M  V30 13098 O 1218.15 -1.26559 1.19702 0
M  V30 13099 C 1215.28 -2.39805 2.42294 0
M  V30 13100 H 1216.48 -0.661006 2.92525 0
M  V30 13101 H 1214.03 -0.307814 1.53239 0
M  V30 13102 H 1214.76 -2.84201 1.56207 0
M  V30 13103 H 1214.55 -2.22764 3.22674 0
M  V30 13104 H 1216.04 -3.11307 2.78349 0
M  V30 13105 N 1216.48 -1.54033 -0.333429 0
M  V30 13106 C 1217.75 -1.62404 -1.09015 0
M  V30 13107 C 1218.13 -0.451653 -2.06212 0
M  V30 13108 O 1217.48 0.555086 -2.21655 0
M  V30 13109 C 1217.69 -2.98949 -1.80085 0
M  V30 13110 C 1219.04 -3.54655 -2.33464 0
M  V30 13111 O 1220.06 -3.0119 -1.90166 0
M  V30 13112 O 1218.92 -4.48195 -3.12703 0
M  V30 13113 H 1216.02 -0.65727 -0.501921 0
M  V30 13114 H 1218.56 -1.66378 -0.33411 0
M  V30 13115 H 1217.33 -3.75716 -1.09332 0
M  V30 13116 H 1216.96 -2.98609 -2.62523 0
M  V30 13117 N 1217.95 0.594978 -1.45938 0
M  V30 13118 C 1219.2 1.35561 -1.50834 0
M  V30 13119 C 1219.53 1.93584 -0.154566 0
M  V30 13120 O 1218.81 1.75781 0.832541 0
M  V30 13121 C 1219.09 2.49414 -2.5974 0
M  V30 13122 C 1218.94 1.96506 -4.04605 0
M  V30 13123 C 1220.26 3.51505 -2.64825 0
M  V30 13124 H 1217.38 0.491549 -0.549134 0
M  V30 13125 H 1220.02 0.669536 -1.77812 0
M  V30 13126 H 1218.17 3.07939 -2.36866 0
M  V30 13127 H 1219.85 1.42533 -4.38728 0
M  V30 13128 H 1218.09 1.27418 -4.14665 0
M  V30 13129 H 1218.76 2.78636 -4.76515 0
M  V30 13130 H 1221.24 3.02841 -2.85353 0
M  V30 13131 H 1220.11 4.28641 -3.42867 0
M  V30 13132 H 1220.37 4.07942 -1.70399 0
M  V30 13133 N 1219.43 1.33438 0.838571 0
M  V30 13134 C 1220.85 1.12779 1.12929 0
M  V30 13135 C 1221.05 -0.0811188 2.01337 0
M  V30 13136 O 1220.1 -0.761294 2.4075 0
M  V30 13137 C 1221.42 2.41537 1.7911 0
M  V30 13138 C 1222.97 2.47447 1.91674 0
M  V30 13139 C 1223.44 3.76167 2.6127 0
M  V30 13140 N 1224.93 3.7724 2.68783 0
M  V30 13141 C 1225.67 4.7355 3.23323 0
M  V30 13142 N 1225.16 5.80235 3.78549 0
M  V30 13143 N 1226.96 4.61025 3.21578 0
M  V30 13144 H 1219.11 2.10921 0.250187 0
M  V30 13145 H 1221.37 0.931986 0.17351 0
M  V30 13146 H 1221.08 3.30006 1.21609 0
M  V30 13147 H 1220.95 2.53709 2.79127 0
M  V30 13148 H 1223.34 1.59427 2.48328 0
M  V30 13149 H 1223.42 2.39216 0.906058 0
M  V30 13150 H 1223.06 4.64569 2.05275 0
M  V30 13151 H 1222.99 3.81675 3.62811 0
M  V30 13152 H 1225.48 3.00138 2.29621 0
M  V30 13153 H 1225.8 6.49759 4.1837 0
M  V30 13154 H 1224.14 5.83969 3.76836 0
M  V30 13155 H 1227.33 3.76836 2.77691 0
M  V30 13156 H 1227.5 5.36253 3.63781 0
M  V30 13157 N 1220.91 -1.05686 1.16912 0
M  V30 13158 C 1221.87 -2.11481 0.883647 0
M  V30 13159 C 1222.87 -1.60321 -0.124034 0
M  V30 13160 O 1224.06 -1.73868 0.107566 0
M  V30 13161 C 1221.2 -3.3937 0.322649 0
M  V30 13162 H 1222.39 -2.38239 1.8216 0
M  V30 13163 H 1219.94 -1.2185 0.978895 0
M  V30 13164 H 1220.68 -3.18266 -0.622695 0
M  V30 13165 H 1220.46 -3.77812 1.04883 0
M  V30 13166 H 1221.95 -4.17362 0.141072 0
M  V30 13167 N 1222.39 -0.968567 -1.24324 0
M  V30 13168 C 1223.32 -0.518323 -2.27674 0
M  V30 13169 C 1224.3 0.442479 -1.64244 0
M  V30 13170 O 1225.48 0.338416 -1.91229 0
M  V30 13171 C 1222.61 0.191459 -3.46772 0
M  V30 13172 C 1221.57 -0.685449 -4.22476 0
M  V30 13173 C 1220.89 0.155873 -5.34473 0
M  V30 13174 C 1222.19 -1.97047 -4.83704 0
M  V30 13175 H 1223.89 -1.38215 -2.65588 0
M  V30 13176 H 1221.43 -0.66604 -1.27671 0
M  V30 13177 H 1223.39 0.517667 -4.18208 0
M  V30 13178 H 1222.11 1.08965 -3.07887 0
M  V30 13179 H 1220.77 -0.994942 -3.52841 0
M  V30 13180 H 1220.42 1.05424 -4.91828 0
M  V30 13181 H 1220.12 -0.427655 -5.86042 0
M  V30 13182 H 1221.64 0.476733 -6.08736 0
M  V30 13183 H 1223.06 -1.70979 -5.4721 0
M  V30 13184 H 1221.45 -2.50079 -5.45509 0
M  V30 13185 H 1222.52 -2.66484 -4.0511 0
M  V30 13186 N 1223.87 1.39211 -0.738786 0
M  V30 13187 C 1225.09 2.04732 -0.298751 0
M  V30 13188 C 1225.51 1.55706 1.06776 0
M  V30 13189 O 1224.87 0.723605 1.67542 0
M  V30 13190 C 1224.92 3.60288 -0.29574 0
M  V30 13191 O 1224.64 4.07511 -1.60831 0
M  V30 13192 C 1226.14 4.43011 0.159994 0
M  V30 13193 H 1223.36 0.658296 -0.129952 0
M  V30 13194 H 1225.9 1.78186 -1.0035 0
M  V30 13195 H 1224.06 3.85722 0.360146 0
M  V30 13196 H 1224.47 5.01858 -1.52443 0
M  V30 13197 H 1225.95 5.51889 0.110941 0
M  V30 13198 H 1226.42 4.22325 1.20573 0
M  V30 13199 H 1227.03 4.22734 -0.466467 0
M  V30 13200 N 1225.34 0.486708 1.49896 0
M  V30 13201 C 1226.57 -0.0599944 2.06513 0
M  V30 13202 C 1226.98 -1.32662 1.34898 0
M  V30 13203 O 1226.33 -1.78915 0.416565 0
M  V30 13204 C 1226.39 -0.39838 3.57286 0
M  V30 13205 C 1226.05 0.768465 4.50493 0
M  V30 13206 C 1227.05 1.65495 4.92856 0
M  V30 13207 C 1224.73 0.96322 4.92978 0
M  V30 13208 C 1226.73 2.72046 5.76429 0
M  V30 13209 C 1224.41 2.03193 5.7633 0
M  V30 13210 C 1225.41 2.9089 6.17958 0
M  V30 13211 O 1225.1 3.95919 6.99645 0
M  V30 13212 H 1224.83 0.0107865 0.675914 0
M  V30 13213 H 1227.39 0.679087 1.93849 0
M  V30 13214 H 1225.62 -1.19086 3.67907 0
M  V30 13215 H 1227.31 -0.882003 3.96201 0
M  V30 13216 H 1228.07 1.51624 4.6069 0
M  V30 13217 H 1223.95 0.29004 4.60087 0
M  V30 13218 H 1227.49 3.40526 6.08841 0
M  V30 13219 H 1223.39 2.17064 6.07909 0
M  V30 13220 H 1224.16 3.93097 7.17925 0
M  V30 13221 N 1226.82 -1.56058 0.219941 0
M  V30 13222 C 1228.06 -2.00162 -0.414063 0
M  V30 13223 C 1228.43 -1.10432 -1.57063 0
M  V30 13224 O 1229.63 -1.43877 -2.27053 0
M  V30 13225 C 1227.9 -3.47411 -0.839084 0
M  V30 13226 S 1229.46 -4.13536 -1.46742 0
M  V30 13227 H 1226.28 -0.698738 -0.131475 0
M  V30 13228 H 1228.88 -1.92714 0.32885 0
M  V30 13229 H 1227.58 -4.10398 0.0123666 0
M  V30 13230 H 1227.11 -3.58728 -1.61485 0
M  V30 13231 H 1229.13 -4.12592 -2.75648 0
M  V30 13232 N 1228.3 0.053464 -1.57509 0
M  V30 13233 C 1229.58 0.783141 -1.79238 0
M  V30 13234 C 1229.96 1.94855 -0.812069 0
M  V30 13235 O 1229.31 2.28 0.151006 0
M  V30 13236 C 1229.52 1.239 -3.26266 0
M  V30 13237 C 1230.86 1.66492 -3.90596 0
M  V30 13238 O 1231.89 1.33421 -3.30269 0
M  V30 13239 O 1230.75 2.27785 -4.96766 0
M  V30 13240 H 1227.84 0.376696 -0.736226 0
M  V30 13241 H 1230.39 0.0321229 -1.6967 0
M  V30 13242 H 1229.16 0.405948 -3.89189 0
M  V30 13243 H 1228.78 2.05078 -3.4063 0
M  V30 13244 N 1229.78 1.54207 0.325255 0
M  V30 13245 C 1230.71 1.86467 1.40543 0
M  V30 13246 C 1231.69 0.721324 1.54048 0
M  V30 13247 O 1232.88 0.974905 1.67956 0
M  V30 13248 C 1230.01 2.09052 2.77335 0
M  V30 13249 C 1228.96 3.24893 2.78619 0
M  V30 13250 C 1228.29 3.32846 4.1847 0
M  V30 13251 C 1229.59 4.62582 2.42518 0
M  V30 13252 H 1231.28 2.76932 1.13794 0
M  V30 13253 H 1228.83 1.33248 0.545971 0
M  V30 13254 H 1230.78 2.30204 3.52964 0
M  V30 13255 H 1229.5 1.15335 3.05558 0
M  V30 13256 H 1228.16 3.03625 2.05444 0
M  V30 13257 H 1227.81 2.3669 4.43832 0
M  V30 13258 H 1227.51 4.10701 4.20237 0
M  V30 13259 H 1229.03 3.56231 4.95915 0
M  V30 13260 H 1230.45 4.83627 3.07861 0
M  V30 13261 H 1228.84 5.42974 2.55538 0
M  V30 13262 H 1229.91 4.64946 1.3767 0
M  V30 13263 N 1231.26 -0.58723 1.46251 0
M  V30 13264 C 1232.21 -1.69141 1.5289 0
M  V30 13265 C 1233.19 -1.56096 0.39024 0
M  V30 13266 O 1234.38 -1.65087 0.638373 0
M  V30 13267 C 1231.51 -3.07922 1.51785 0
M  V30 13268 C 1230.6 -3.2628 2.70928 0
M  V30 13269 N 1230.99 -3.14815 3.95885 0
M  V30 13270 C 1229.29 -3.57207 2.67056 0
M  V30 13271 C 1229.99 -3.35055 4.75514 0
M  V30 13272 N 1228.96 -3.59999 4.0731 0
M  V30 13273 H 1232.77 -1.588 2.47305 0
M  V30 13274 H 1230.28 -0.791124 1.41827 0
M  V30 13275 H 1232.28 -3.87164 1.54628 0
M  V30 13276 H 1230.94 -3.19397 0.584435 0
M  V30 13277 H 1231.95 -2.92778 4.27202 0
M  V30 13278 H 1228.63 -3.75394 1.82717 0
M  V30 13279 H 1230.02 -3.31412 5.84479 0
M  V30 13280 N 1232.74 -1.33881 -0.831482 0
M  V30 13281 C 1233.68 -1.24748 -1.94182 0
M  V30 13282 C 1234.65 -0.124516 -1.65633 0
M  V30 13283 O 1235.84 -0.304045 -1.88362 0
M  V30 13284 C 1232.98 -1.00016 -3.30289 0
M  V30 13285 C 1232.09 -2.21007 -3.71187 0
M  V30 13286 C 1231.23 -1.89629 -4.962 0
M  V30 13287 C 1230.26 -3.06811 -5.29654 0
M  V30 13288 N 1229.4 -2.75372 -6.45844 0
M  V30 13289 H 1234.24 -2.19709 -2.01325 0
M  V30 13290 H 1231.78 -1.09245 -0.985081 0
M  V30 13291 H 1233.74 -0.837167 -4.08714 0
M  V30 13292 H 1232.37 -0.0872582 -3.22682 0
M  V30 13293 H 1231.42 -2.48256 -2.88224 0
M  V30 13294 H 1232.73 -3.08587 -3.91887 0
M  V30 13295 H 1231.88 -1.70016 -5.82391 0
M  V30 13296 H 1230.62 -0.992964 -4.77485 0
M  V30 13297 H 1229.63 -3.27029 -4.41964 0
M  V30 13298 H 1230.85 -3.97909 -5.50314 0
M  V30 13299 H 1228.8 -1.87607 -6.28601 0
M  V30 13300 H 1228.72 -3.56483 -6.66675 0
M  V30 13301 H 1229.98 -2.59244 -7.35128 0
M  V30 13302 N 1234.21 1.05064 -1.1747 0
M  V30 13303 C 1235.46 1.77481 -0.958301 0
M  V30 13304 C 1235.78 1.88725 0.51401 0
M  V30 13305 O 1236.98 2.57895 0.848657 0
M  V30 13306 C 1235.44 3.19048 -1.66543 0
M  V30 13307 C 1235.05 3.1593 -3.17636 0
M  V30 13308 C 1236.79 3.95912 -1.53146 0
M  V30 13309 C 1234.7 4.52293 -3.81032 0
M  V30 13310 H 1233.63 0.665247 -0.354913 0
M  V30 13311 H 1236.28 1.17751 -1.40737 0
M  V30 13312 H 1234.66 3.79113 -1.1441 0
M  V30 13313 H 1235.83 2.65375 -3.76713 0
M  V30 13314 H 1234.15 2.52564 -3.31059 0
M  V30 13315 H 1236.75 4.96737 -1.9788 0
M  V30 13316 H 1237.09 4.13498 -0.482203 0
M  V30 13317 H 1237.62 3.42399 -2.02504 0
M  V30 13318 H 1234.36 4.39913 -4.8596 0
M  V30 13319 H 1233.88 5.02991 -3.26741 0
M  V30 13320 H 1235.56 5.2123 -3.83312 0
M  V30 13321 N 1235.69 0.975146 1.23809 0
M  V30 13322 C 1236.62 0.469151 2.24347 0
M  V30 13323 C 1237.64 -0.426156 1.57123 0
M  V30 13324 O 1238.83 -0.231136 1.76997 0
M  V30 13325 C 1235.93 -0.34121 3.37178 0
M  V30 13326 C 1235.1 0.545968 4.33979 0
M  V30 13327 C 1234.16 -0.209648 5.25782 0
M  V30 13328 O 1233.18 0.398953 5.678 0
M  V30 13329 N 1234.39 -1.49713 5.60862 0
M  V30 13330 H 1237.15 1.33359 2.68394 0
M  V30 13331 H 1234.71 0.847814 1.37927 0
M  V30 13332 H 1236.7 -0.854924 3.95567 0
M  V30 13333 H 1235.27 -1.10663 2.92357 0
M  V30 13334 H 1234.49 1.24057 3.7417 0
M  V30 13335 H 1235.78 1.15077 4.95615 0
M  V30 13336 H 1235.18 -2.0132 5.28665 0
M  V30 13337 H 1233.74 -1.95639 6.21746 0
M  V30 13338 N 1237.17 -1.38817 0.746158 0
M  V30 13339 C 1238.59 -1.53894 0.42294 0
M  V30 13340 C 1238.79 -1.71064 -1.06486 0
M  V30 13341 O 1237.84 -1.71744 -1.85095 0
M  V30 13342 C 1239.15 -2.75029 1.2157 0
M  V30 13343 C 1240.7 -2.88873 1.20504 0
M  V30 13344 C 1241.18 -4.1296 1.9806 0
M  V30 13345 N 1242.67 -4.20022 1.95283 0
M  V30 13346 C 1243.4 -5.15011 2.52093 0
M  V30 13347 N 1242.9 -6.1572 3.17586 0
M  V30 13348 N 1244.69 -5.07308 2.42064 0
M  V30 13349 H 1236.84 -1.25921 1.71049 0
M  V30 13350 H 1239.11 -0.611148 0.724708 0
M  V30 13351 H 1238.81 -2.68722 2.26895 0
M  V30 13352 H 1238.69 -3.68009 0.827593 0
M  V30 13353 H 1241.07 -2.94667 0.159877 0
M  V30 13354 H 1241.15 -1.96925 1.63261 0
M  V30 13355 H 1240.8 -4.07929 3.02583 0
M  V30 13356 H 1240.73 -5.03974 1.52702 0
M  V30 13357 H 1243.22 -3.47892 1.4758 0
M  V30 13358 H 1243.53 -6.84682 3.58373 0
M  V30 13359 H 1241.88 -6.16075 3.21678 0
M  V30 13360 H 1245.07 -4.27569 1.90532 0
M  V30 13361 H 1245.24 -5.81158 2.86635 0
M  V30 13362 N 1238.65 -0.49465 -1.49636 0
M  V30 13363 C 1239.56 0.291881 -2.32777 0
M  V30 13364 C 1240.57 0.973468 -1.44221 0
M  V30 13365 O 1241.75 0.956252 -1.77251 0
M  V30 13366 C 1238.81 1.34609 -3.19502 0
M  V30 13367 C 1237.88 0.678611 -4.23903 0
M  V30 13368 C 1237.11 1.68259 -5.06483 0
M  V30 13369 O 1237.33 2.91176 -4.90482 0
M  V30 13370 O 1236.27 1.24141 -5.88959 0
M  V30 13371 H 1240.09 -0.388459 -3.01205 0
M  V30 13372 H 1237.68 -0.256086 -1.47189 0
M  V30 13373 H 1239.56 1.95617 -3.73245 0
M  V30 13374 H 1238.23 2.00947 -2.53775 0
M  V30 13375 H 1237.14 0.0289541 -3.74089 0
M  V30 13376 H 1238.47 0.0577817 -4.92166 0
M  V30 13377 N 1240.13 1.55939 -0.228214 0
M  V30 13378 C 1241.4 1.90329 0.451033 0
M  V30 13379 C 1241.78 1.14646 1.77255 0
M  V30 13380 O 1241.13 0.257912 2.2704 0
M  V30 13381 C 1241.34 3.43129 0.637456 0
M  V30 13382 C 1242.69 4.14022 0.94186 0
M  V30 13383 O 1243.71 3.48764 0.724002 0
M  V30 13384 O 1242.57 5.29418 1.35568 0
M  V30 13385 H 1239.67 0.791591 0.2394 0
M  V30 13386 H 1242.21 1.67524 -0.270893 0
M  V30 13387 H 1240.98 3.90191 -0.294435 0
M  V30 13388 H 1240.61 3.71735 1.41062 0
M  V30 13389 N 1241.6 -0.0451101 1.57535 0
M  V30 13390 C 1242.53 -1.05046 2.08537 0
M  V30 13391 C 1243.52 -1.3872 0.984418 0
M  V30 13392 O 1244.7 -1.47884 1.25873 0
M  V30 13393 C 1241.83 -2.3562 2.55148 0
M  V30 13394 C 1240.78 -2.16231 3.69362 0
M  V30 13395 C 1240.11 -3.52423 4.02122 0
M  V30 13396 C 1241.41 -1.56159 4.98409 0
M  V30 13397 H 1243.1 -0.625965 2.92783 0
M  V30 13398 H 1240.65 -0.299657 1.40848 0
M  V30 13399 H 1242.6 -3.06266 2.89446 0
M  V30 13400 H 1241.33 -2.80099 1.67964 0
M  V30 13401 H 1239.99 -1.4802 3.35389 0
M  V30 13402 H 1239.63 -3.94522 3.12028 0
M  V30 13403 H 1239.33 -3.4028 4.79044 0
M  V30 13404 H 1240.86 -4.24458 4.38939 0
M  V30 13405 H 1242.27 -2.16703 5.30766 0
M  V30 13406 H 1240.67 -1.54638 5.79834 0
M  V30 13407 H 1241.74 -0.525698 4.82042 0
M  V30 13408 N 1243.08 -1.54377 -0.317073 0
M  V30 13409 C 1244.01 -1.8721 -1.39552 0
M  V30 13410 C 1244.99 -0.729483 -1.53664 0
M  V30 13411 O 1246.18 -0.983799 -1.67437 0
M  V30 13412 C 1243.31 -2.1052 -2.76222 0
M  V30 13413 C 1242.26 -3.26366 -2.76892 0
M  V30 13414 C 1241.59 -3.35061 -4.16699 0
M  V30 13415 C 1242.89 -4.63862 -2.40061 0
M  V30 13416 H 1244.58 -2.77532 -1.12323 0
M  V30 13417 H 1242.13 -1.33536 -0.538897 0
M  V30 13418 H 1244.08 -2.32073 -3.51739 0
M  V30 13419 H 1242.81 -1.16953 -3.04942 0
M  V30 13420 H 1241.46 -3.0471 -2.03831 0
M  V30 13421 H 1241.11 -2.39041 -4.4257 0
M  V30 13422 H 1240.81 -4.12923 -4.18053 0
M  V30 13423 H 1242.34 -3.58856 -4.94019 0
M  V30 13424 H 1243.75 -4.85252 -3.05292 0
M  V30 13425 H 1242.15 -5.44321 -2.52655 0
M  V30 13426 H 1243.22 -4.6567 -1.35202 0
M  V30 13427 N 1244.56 0.579466 -1.4656 0
M  V30 13428 C 1245.47 1.71609 -1.59961 0
M  V30 13429 C 1246.49 1.67162 -0.483002 0
M  V30 13430 O 1247.66 1.87012 -0.747561 0
M  V30 13431 C 1244.73 3.08114 -1.58954 0
M  V30 13432 C 1243.79 3.238 -2.81872 0
M  V30 13433 C 1243.02 4.53794 -2.80904 0
M  V30 13434 O 1243.24 5.37884 -1.89835 0
M  V30 13435 O 1242.18 4.72796 -3.72488 0
M  V30 13436 H 1246 1.6325 -2.56092 0
M  V30 13437 H 1243.59 0.746891 -1.2939 0
M  V30 13438 H 1245.47 3.8939 -1.611 0
M  V30 13439 H 1244.15 3.16903 -0.65984 0
M  V30 13440 H 1243.05 2.42006 -2.85279 0
M  V30 13441 H 1244.39 3.19904 -3.74062 0
M  V30 13442 N 1246.04 1.3432 0.824371 0
M  V30 13443 C 1247.28 1.26783 1.58284 0
M  V30 13444 C 1247.62 -0.162282 1.93521 0
M  V30 13445 O 1246.89 -1.1073 1.59903 0
M  V30 13446 C 1247.18 2.15725 2.88331 0
M  V30 13447 C 1247.03 3.67266 2.59684 0
M  V30 13448 C 1248.35 2.04141 3.8989 0
M  V30 13449 H 1245.47 0.461893 0.574303 0
M  V30 13450 H 1248.11 1.64558 0.949769 0
M  V30 13451 H 1246.26 1.83639 3.42358 0
M  V30 13452 H 1247.93 4.09711 2.11978 0
M  V30 13453 H 1246.17 3.88426 1.93151 0
M  V30 13454 H 1246.84 4.24863 3.52414 0
M  V30 13455 H 1249.32 2.3231 3.45212 0
M  V30 13456 H 1248.2 2.68601 4.7869 0
M  V30 13457 H 1248.46 1.01795 4.30221 0
M  V30 13458 N 1247.52 -1.0444 1.18026 0
M  V30 13459 C 1248.45 -2.14297 0.927314 0
M  V30 13460 C 1249.43 -1.69575 -0.13357 0
M  V30 13461 O 1250.61 -1.94191 0.0182439 0
M  V30 13462 C 1247.74 -3.44397 0.448134 0
M  V30 13463 C 1246.7 -4.02723 1.44907 0
M  V30 13464 C 1246.02 -5.28257 0.827555 0
M  V30 13465 C 1247.32 -4.39331 2.82463 0
M  V30 13466 H 1249.02 -2.35715 1.84605 0
M  V30 13467 H 1246.56 -1.13281 0.889012 0
M  V30 13468 H 1248.52 -4.20606 0.258554 0
M  V30 13469 H 1247.24 -3.22654 -0.506159 0
M  V30 13470 H 1245.9 -3.28591 1.62552 0
M  V30 13471 H 1245.55 -5.02822 -0.13381 0
M  V30 13472 H 1245.25 -5.68242 1.49581 0
M  V30 13473 H 1246.77 -6.07147 0.64842 0
M  V30 13474 H 1248.18 -5.06543 2.68491 0
M  V30 13475 H 1246.58 -4.90355 3.45936 0
M  V30 13476 H 1247.65 -3.4933 3.36299 0
M  V30 13477 N 1248.99 -0.981699 -1.2329 0
M  V30 13478 C 1250.27 -0.567659 -1.87182 0
M  V30 13479 C 1250.65 0.955194 -1.88253 0
M  V30 13480 O 1250 1.83245 -1.36504 0
M  V30 13481 C 1250.21 -1.17522 -3.28618 0
M  V30 13482 C 1251.56 -1.26877 -4.052 0
M  V30 13483 O 1252.58 -1.12877 -3.37842 0
M  V30 13484 O 1251.44 -1.49163 -5.2575 0
M  V30 13485 H 1248.53 -0.191315 -0.804567 0
M  V30 13486 H 1251.08 -1.07686 -1.31155 0
M  V30 13487 H 1249.85 -2.21735 -3.22411 0
M  V30 13488 H 1249.48 -0.650913 -3.92236 0
M  V30 13489 N 1250.47 1.3842 -0.753509 0
M  V30 13490 C 1251.41 2.28079 -0.0741683 0
M  V30 13491 C 1252.38 1.45372 0.728398 0
M  V30 13492 O 1253.57 1.74737 0.707043 0
M  V30 13493 C 1250.69 3.26475 0.901764 0
M  V30 13494 C 1249.74 4.26097 0.185438 0
M  V30 13495 S 1250.57 5.23791 -1.11372 0
M  V30 13496 C 1251.73 6.25741 -0.140861 0
M  V30 13497 H 1251.96 2.85349 -0.834475 0
M  V30 13498 H 1249.5 1.4442 -0.546089 0
M  V30 13499 H 1251.45 3.83678 1.4595 0
M  V30 13500 H 1250.11 2.68189 1.63504 0
M  V30 13501 H 1249.31 4.95447 0.924578 0
M  V30 13502 H 1248.91 3.72789 -0.300772 0
M  V30 13503 H 1251.2 6.73945 0.693174 0
M  V30 13504 H 1252.14 7.03543 -0.80202 0
M  V30 13505 H 1252.55 5.6399 0.2398 0
M  V30 13506 N 1251.95 0.502579 1.49372 0
M  V30 13507 C 1253.18 -0.0380876 2.06565 0
M  V30 13508 C 1253.59 -1.31224 1.36297 0
M  V30 13509 O 1252.93 -1.78463 0.435517 0
M  V30 13510 C 1252.99 -0.360462 3.57688 0
M  V30 13511 C 1252.66 0.816203 4.49652 0
M  V30 13512 C 1253.65 1.70713 4.91073 0
M  V30 13513 C 1251.34 1.01545 4.91929 0
M  V30 13514 C 1253.33 2.78144 5.73511 0
M  V30 13515 C 1251.02 2.09294 5.74142 0
M  V30 13516 C 1252.02 2.97428 6.14838 0
M  V30 13517 O 1251.71 4.03317 6.95407 0
M  V30 13518 H 1251.44 0.0179548 0.675762 0
M  V30 13519 H 1253.99 0.699609 1.93118 0
M  V30 13520 H 1252.22 -1.15177 3.69149 0
M  V30 13521 H 1253.91 -0.839931 3.97115 0
M  V30 13522 H 1254.68 1.56502 4.59056 0
M  V30 13523 H 1250.56 0.338822 4.59753 0
M  V30 13524 H 1254.1 3.46965 6.05195 0
M  V30 13525 H 1250 2.235 6.05572 0
M  V30 13526 H 1250.77 4.00689 7.13716 0
M  V30 13527 N 1253.43 -1.55816 0.23648 0
M  V30 13528 C 1254.84 -1.84757 -0.268622 0
M  V30 13529 C 1255.19 -1.15815 -1.58371 0
M  V30 13530 O 1254.32 -0.432923 -2.12025 0
M  V30 13531 C 1254.91 -3.35177 -0.494167 0
M  V30 13532 C 1253.47 -3.64382 -0.943551 0
M  V30 13533 C 1252.62 -2.77296 -0.0149191 0
M  V30 13534 H 1255.57 -1.51908 0.459308 0
M  V30 13535 H 1255.59 -3.56192 -1.3382 0
M  V30 13536 H 1255.1 -3.85327 0.463138 0
M  V30 13537 H 1253.2 -3.19701 -1.91369 0
M  V30 13538 H 1253.31 -4.72244 -0.807626 0
M  V30 13539 H 1251.68 -2.49243 -0.524419 0
M  V30 13540 H 1252.46 -3.30249 0.937571 0
M  V30 13541 N 1254.91 0.036755 -1.57557 0
M  V30 13542 C 1255.82 1.05687 -2.09446 0
M  V30 13543 C 1256.83 1.40137 -1.03139 0
M  V30 13544 O 1258.01 1.49611 -1.34828 0
M  V30 13545 C 1255.07 2.34114 -2.55717 0
M  V30 13546 C 1254.13 2.06316 -3.76473 0
M  V30 13547 C 1253.37 3.2862 -4.20529 0
M  V30 13548 O 1253.59 4.3902 -3.64167 0
M  V30 13549 O 1252.52 3.14772 -5.13033 0
M  V30 13550 H 1256.35 0.64593 -2.96751 0
M  V30 13551 H 1253.94 0.253235 -1.47238 0
M  V30 13552 H 1255.82 3.09631 -2.85844 0
M  V30 13553 H 1254.49 2.74519 -1.71526 0
M  V30 13554 H 1253.4 1.28392 -3.51378 0
M  V30 13555 H 1254.73 1.70772 -4.61625 0
M  V30 13556 N 1256.39 1.54543 0.308881 0
M  V30 13557 C 1257.63 1.73449 1.04506 0
M  V30 13558 C 1257.96 0.516034 1.8753 0
M  V30 13559 O 1257.22 -0.502106 1.89149 0
M  V30 13560 C 1257.51 2.97124 1.98626 0
M  V30 13561 C 1257.18 4.31256 1.31641 0
M  V30 13562 C 1255.84 4.67719 1.13105 0
M  V30 13563 C 1258.19 5.14437 0.836888 0
M  V30 13564 C 1255.52 5.84949 0.452878 0
M  V30 13565 C 1257.87 6.32365 0.172473 0
M  V30 13566 C 1256.54 6.67495 -0.0249143 0
M  V30 13567 H 1255.81 0.634697 0.382415 0
M  V30 13568 H 1258.46 1.88795 0.320714 0
M  V30 13569 H 1256.76 2.76526 2.77562 0
M  V30 13570 H 1258.46 3.08946 2.55643 0
M  V30 13571 H 1255.05 4.02576 1.47074 0
M  V30 13572 H 1259.23 4.86772 0.967834 0
M  V30 13573 H 1254.49 6.10717 0.288886 0
M  V30 13574 H 1258.66 6.96092 -0.207027 0
M  V30 13575 H 1256.29 7.5819 -0.552425 0
M  V30 13576 N 1257.86 -0.571685 1.46866 0
M  V30 13577 C 1259.09 -1.36008 1.56578 0
M  V30 13578 C 1259.51 -1.86909 0.211326 0
M  V30 13579 O 1258.87 -1.62179 -0.810421 0
M  V30 13580 C 1258.92 -2.51598 2.58323 0
M  V30 13581 O 1258.02 -3.53383 2.1259 0
M  V30 13582 H 1257.36 -0.404593 0.526498 0
M  V30 13583 H 1259.89 -0.692357 1.92529 0
M  V30 13584 H 1259.9 -2.98366 2.78283 0
M  V30 13585 H 1258.58 -2.13904 3.56676 0
M  V30 13586 H 1257.16 -3.13019 2.02666 0
M  V30 13587 N 1259.34 -1.34755 -0.817236 0
M  V30 13588 C 1260.62 -1.18007 -1.55993 0
M  V30 13589 C 1261 0.245079 -2.09673 0
M  V30 13590 O 1260.35 1.24718 -1.91462 0
M  V30 13591 C 1260.56 -2.23934 -2.67684 0
M  V30 13592 C 1261.9 -2.59201 -3.36303 0
M  V30 13593 O 1262.93 -2.22767 -2.77945 0
M  V30 13594 O 1261.79 -3.21809 -4.41702 0
M  V30 13595 H 1258.88 -0.4578 -0.688729 0
M  V30 13596 H 1261.43 -1.46405 -0.858117 0
M  V30 13597 H 1260.2 -3.19568 -2.25813 0
M  V30 13598 H 1259.82 -1.96745 -3.4551 0
M  V30 13599 N 1260.82 1.03812 -1.18578 0
M  V30 13600 C 1261.77 2.10206 -0.883037 0
M  V30 13601 C 1262.75 1.60215 0.148303 0
M  V30 13602 O 1263.95 1.76911 -0.0560957 0
M  V30 13603 C 1261.07 3.40802 -0.41335 0
M  V30 13604 C 1260.16 3.97553 -1.47691 0
M  V30 13605 N 1260.55 4.28085 -2.69401 0
M  V30 13606 C 1258.85 4.25456 -1.33802 0
M  V30 13607 C 1259.55 4.73535 -3.37845 0
M  V30 13608 N 1258.53 4.74504 -2.6523 0
M  V30 13609 H 1262.33 2.31692 -1.80821 0
M  V30 13610 H 1259.84 1.21589 -1.07656 0
M  V30 13611 H 1261.84 4.1652 -0.177953 0
M  V30 13612 H 1260.5 3.20742 0.505449 0
M  V30 13613 H 1261.51 4.17653 -3.06246 0
M  V30 13614 H 1258.19 4.14709 -0.481961 0
M  V30 13615 H 1259.58 5.06157 -4.41876 0
M  V30 13616 N 1262.3 0.988223 1.22768 0
M  V30 13617 C 1263.54 0.661461 1.91392 0
M  V30 13618 C 1263.87 -0.805942 1.77016 0
M  V30 13619 O 1263.13 -1.5978 1.12999 0
M  V30 13620 C 1263.43 1.00744 3.42907 0
M  V30 13621 C 1263.09 2.46634 3.77469 0
M  V30 13622 C 1261.75 2.86503 3.86613 0
M  V30 13623 C 1264.11 3.41217 3.9398 0
M  V30 13624 C 1261.43 4.19954 4.09702 0
M  V30 13625 C 1263.79 4.74321 4.18572 0
M  V30 13626 C 1262.45 5.13938 4.25939 0
M  V30 13627 H 1261.72 0.242046 0.700353 0
M  V30 13628 H 1264.37 1.24354 1.45631 0
M  V30 13629 H 1262.67 0.34338 3.90292 0
M  V30 13630 H 1264.37 0.732714 3.94249 0
M  V30 13631 H 1260.96 2.14729 3.70931 0
M  V30 13632 H 1265.14 3.11589 3.86298 0
M  V30 13633 H 1260.4 4.50243 4.13631 0
M  V30 13634 H 1264.57 5.47561 4.30291 0
M  V30 13635 H 1262.2 6.17364 4.43583 0
M  V30 13636 N 1263.78 -1.38018 0.760839 0
M  V30 13637 C 1264.71 -2.32995 0.153557 0
M  V30 13638 C 1265.69 -1.55234 -0.695448 0
M  V30 13639 O 1266.87 -1.8352 -0.635148 0
M  V30 13640 C 1264 -3.39437 -0.734811 0
M  V30 13641 C 1262.96 -4.27998 0.0120287 0
M  V30 13642 C 1262.28 -5.25359 -0.995067 0
M  V30 13643 C 1263.58 -5.08687 1.18468 0
M  V30 13644 H 1265.28 -2.8403 0.946956 0
M  V30 13645 H 1262.82 -1.36562 0.456816 0
M  V30 13646 H 1264.77 -4.0485 -1.16938 0
M  V30 13647 H 1263.5 -2.86901 -1.56061 0
M  V30 13648 H 1262.16 -3.64102 0.427254 0
M  V30 13649 H 1261.81 -4.69108 -1.81512 0
M  V30 13650 H 1261.51 -5.85469 -0.499969 0
M  V30 13651 H 1263.03 -5.93648 -1.4288 0
M  V30 13652 H 1264.44 -5.67299 0.8273 0
M  V30 13653 H 1262.84 -5.78068 1.61112 0
M  V30 13654 H 1263.91 -4.42 1.99409 0
M  V30 13655 N 1265.25 -0.510493 -1.49103 0
M  V30 13656 C 1266.48 0.0271718 -2.06882 0
M  V30 13657 C 1266.9 1.2995 -1.36962 0
M  V30 13658 O 1266.25 1.76842 -0.450916 0
M  V30 13659 C 1266.3 0.274956 -3.60453 0
M  V30 13660 O 1266.03 -0.946941 -4.27744 0
M  V30 13661 C 1267.53 0.855197 -4.34973 0
M  V30 13662 H 1264.75 -0.024732 -0.670544 0
M  V30 13663 H 1267.29 -0.710567 -1.91758 0
M  V30 13664 H 1265.45 0.962696 -3.75248 0
M  V30 13665 H 1265.86 -0.715627 -5.19595 0
M  V30 13666 H 1267.33 0.978103 -5.43265 0
M  V30 13667 H 1267.81 1.85535 -3.98087 0
M  V30 13668 H 1268.42 0.204632 -4.24807 0
M  V30 13669 N 1266.73 1.55688 -0.24474 0
M  V30 13670 C 1267.68 2.22682 0.67198 0
M  V30 13671 C 1268.67 1.21369 1.18178 0
M  V30 13672 O 1269.88 1.39387 1.13892 0
M  V30 13673 H 1266.25 0.714279 0.235181 0
M  V30 13674 H 1268.23 2.98282 0.0837704 0
M  V30 13675 C 1266.97 2.93835 1.85893 0
M  V30 13676 H 1266.3 3.71565 1.4758 0
M  V30 13677 H 1267.74 3.44077 2.47764 0
M  V30 13678 C 1266.2 1.97589 2.72874 0
M  V30 13679 O 1266.73 1.50758 3.72337 0
M  V30 13680 N 1264.93 1.64737 2.39395 0
M  V30 13681 H 1264.48 2.03015 1.58564 0
M  V30 13682 H 1264.44 1.00605 2.97869 0
M  V30 13683 N 1268.21 -0.0283989 1.57574 0
M  V30 13684 C 1269.14 -1.02828 2.09639 0
M  V30 13685 C 1270.12 -1.37668 0.999076 0
M  V30 13686 O 1271.31 -1.4654 1.27435 0
M  V30 13687 C 1268.44 -2.329 2.57633 0
M  V30 13688 C 1267.39 -2.12301 3.71635 0
M  V30 13689 C 1266.72 -3.48138 4.05837 0
M  V30 13690 C 1268.02 -1.50864 5.00037 0
M  V30 13691 H 1269.71 -0.594876 2.93431 0
M  V30 13692 H 1267.26 -0.284701 1.41158 0
M  V30 13693 H 1269.21 -3.03179 2.92678 0
M  V30 13694 H 1267.93 -2.78302 1.70926 0
M  V30 13695 H 1266.59 -1.44454 3.3694 0
M  V30 13696 H 1266.24 -3.9119 3.16195 0
M  V30 13697 H 1265.94 -3.3518 4.82626 0
M  V30 13698 H 1267.46 -4.19779 4.43417 0
M  V30 13699 H 1268.88 -2.11062 5.33035 0
M  V30 13700 H 1267.27 -1.48479 5.81441 0
M  V30 13701 H 1268.34 -0.474541 4.82572 0
M  V30 13702 N 1269.69 -1.54705 -0.300681 0
M  V30 13703 C 1270.6 -1.88736 -1.39341 0
M  V30 13704 C 1271.61 -0.78155 -1.5546 0
M  V30 13705 O 1272.79 -1.07804 -1.70118 0
M  V30 13706 C 1269.85 -2.12795 -2.73713 0
M  V30 13707 C 1268.92 -3.36504 -2.66577 0
M  V30 13708 C 1268.15 -3.59407 -3.94541 0
M  V30 13709 O 1268.37 -2.85315 -4.93914 0
M  V30 13710 O 1267.31 -4.52923 -3.96415 0
M  V30 13711 H 1271.13 -2.817 -1.13484 0
M  V30 13712 H 1268.72 -1.40899 -0.496771 0
M  V30 13713 H 1270.6 -2.29819 -3.53215 0
M  V30 13714 H 1269.27 -1.23017 -2.99414 0
M  V30 13715 H 1268.18 -3.24844 -1.85546 0
M  V30 13716 H 1269.51 -4.26414 -2.45829 0
M  V30 13717 N 1271.17 0.563888 -1.47167 0
M  V30 13718 C 1272.1 1.68137 -1.62025 0
M  V30 13719 C 1273.08 1.63481 -0.469899 0
M  V30 13720 O 1274.26 1.81206 -0.698432 0
M  V30 13721 C 1271.39 3.06779 -1.62801 0
M  V30 13722 C 1270.35 3.26278 -2.76996 0
M  V30 13723 C 1269.67 4.65638 -2.62841 0
M  V30 13724 C 1270.97 3.12295 -4.18651 0
M  V30 13725 H 1272.67 1.55958 -2.55573 0
M  V30 13726 H 1270.21 0.74887 -1.22996 0
M  V30 13727 H 1272.17 3.84795 -1.71787 0
M  V30 13728 H 1270.89 3.19901 -0.658097 0
M  V30 13729 H 1269.55 2.50668 -2.67509 0
M  V30 13730 H 1269.2 4.75551 -1.63892 0
M  V30 13731 H 1268.9 4.79635 -3.39447 0
M  V30 13732 H 1270.42 5.45798 -2.73746 0
M  V30 13733 H 1271.83 3.80136 -4.2915 0
M  V30 13734 H 1270.23 3.37805 -4.95992 0
M  V30 13735 H 1271.3 2.09126 -4.37486 0
M  V30 13736 N 1272.64 1.35187 0.810078 0
M  V30 13737 C 1273.87 1.31371 1.59841 0
M  V30 13738 C 1274.29 -0.109547 1.88482 0
M  V30 13739 O 1273.64 -1.06047 1.48527 0
M  V30 13740 C 1273.7 2.11496 2.93175 0
M  V30 13741 O 1273.42 3.48273 2.65777 0
M  V30 13742 C 1274.92 2.15226 3.87547 0
M  V30 13743 H 1272.14 0.451428 0.496441 0
M  V30 13744 H 1274.68 1.7799 1.00697 0
M  V30 13745 H 1272.84 1.68486 3.48843 0
M  V30 13746 H 1273.25 3.89845 3.50886 0
M  V30 13747 H 1274.72 2.75687 4.78226 0
M  V30 13748 H 1275.2 1.15007 4.23875 0
M  V30 13749 H 1275.81 2.58382 3.37815 0
M  V30 13750 N 1274.12 -1.03182 1.19127 0
M  V30 13751 C 1275.37 -1.76533 0.992093 0
M  V30 13752 C 1275.7 -1.88549 -0.477429 0
M  V30 13753 O 1274.95 -1.39675 -1.37074 0
M  V30 13754 C 1275.25 -3.19452 1.60267 0
M  V30 13755 C 1274.92 -3.27449 3.09981 0
M  V30 13756 C 1273.58 -3.29338 3.50841 0
M  V30 13757 C 1275.93 -3.26833 4.05992 0
M  V30 13758 C 1273.26 -3.28265 4.86271 0
M  V30 13759 C 1275.61 -3.27299 5.41348 0
M  V30 13760 C 1274.28 -3.27485 5.81644 0
M  V30 13761 H 1273.55 -0.645979 0.363033 0
M  V30 13762 H 1276.19 -1.21127 1.48326 0
M  V30 13763 H 1274.5 -3.77917 1.03372 0
M  V30 13764 H 1276.19 -3.74869 1.42388 0
M  V30 13765 H 1272.78 -3.26704 2.77421 0
M  V30 13766 H 1276.97 -3.24556 3.75469 0
M  V30 13767 H 1272.22 -3.26731 5.16775 0
M  V30 13768 H 1276.4 -3.25773 6.15504 0
M  V30 13769 H 1274.03 -3.26407 6.86558 0
M  V30 13770 N 1275.6 -0.99472 -1.22242 0
M  V30 13771 C 1276.55 -0.53946 -2.26258 0
M  V30 13772 C 1277.54 0.410796 -1.64344 0
M  V30 13773 O 1278.75 0.283116 -1.7776 0
M  V30 13774 H 1275.12 -0.156069 -0.735627 0
M  V30 13775 H 1277.09 -1.42814 -2.62005 0
M  V30 13776 C 1275.84 0.12842 -3.47463 0
M  V30 13777 H 1275.17 -0.593727 -3.95367 0
M  V30 13778 H 1276.61 0.410393 -4.22009 0
M  V30 13779 C 1275.07 1.36433 -3.08038 0
M  V30 13780 O 1275.6 2.45953 -3.176 0
M  V30 13781 N 1273.8 1.24026 -2.62804 0
M  V30 13782 H 1273.35 0.349111 -2.55223 0
M  V30 13783 H 1273.31 2.06824 -2.36794 0
M  V30 13784 N 1277.08 1.37613 -0.768148 0
M  V30 13785 C 1278.01 2.3291 -0.165911 0
M  V30 13786 C 1278.99 1.556 0.687205 0
M  V30 13787 O 1280.17 1.83854 0.625407 0
M  V30 13788 C 1277.3 3.39822 0.7168 0
M  V30 13789 C 1276.26 4.27986 -0.0347264 0
M  V30 13790 C 1275.58 5.2588 0.967192 0
M  V30 13791 C 1276.88 5.08052 -1.21164 0
M  V30 13792 H 1278.58 2.83524 -0.962006 0
M  V30 13793 H 1276.12 1.36318 -0.464051 0
M  V30 13794 H 1278.08 4.05464 1.14789 0
M  V30 13795 H 1276.8 2.87725 1.54538 0
M  V30 13796 H 1275.46 3.6387 -0.446557 0
M  V30 13797 H 1275.11 4.70064 1.79022 0
M  V30 13798 H 1274.81 5.85726 0.468913 0
M  V30 13799 H 1276.33 5.94397 1.3973 0
M  V30 13800 H 1277.75 5.66853 -0.857373 0
M  V30 13801 H 1276.14 5.77206 -1.64176 0
M  V30 13802 H 1277.21 4.40936 -2.0175 0
M  V30 13803 N 1278.56 0.518393 1.4883 0
M  V30 13804 C 1279.97 0.175476 1.58632 0
M  V30 13805 C 1280.17 -1.32081 1.52174 0
M  V30 13806 O 1279.23 -2.09817 1.40474 0
M  V30 13807 C 1280.54 0.767722 2.90734 0
M  V30 13808 C 1282.09 0.735402 3.04238 0
M  V30 13809 C 1282.56 1.30602 4.38984 0
M  V30 13810 N 1284.06 1.26748 4.45521 0
M  V30 13811 C 1284.79 1.679 5.48267 0
M  V30 13812 N 1284.29 2.16728 6.58028 0
M  V30 13813 N 1286.08 1.59209 5.39082 0
M  V30 13814 H 1278.23 1.491 1.51271 0
M  V30 13815 H 1280.49 0.619497 0.717584 0
M  V30 13816 H 1280.2 1.81777 3.01081 0
M  V30 13817 H 1280.07 0.238119 3.76448 0
M  V30 13818 H 1282.46 -0.305852 2.93511 0
M  V30 13819 H 1282.54 1.30235 2.20165 0
M  V30 13820 H 1282.19 2.34614 4.50465 0
M  V30 13821 H 1282.12 0.714858 5.21725 0
M  V30 13822 H 1284.61 0.90991 3.66782 0
M  V30 13823 H 1284.92 2.46154 7.32549 0
M  V30 13824 H 1283.26 2.20714 6.59022 0
M  V30 13825 H 1286.46 1.20869 4.52226 0
M  V30 13826 H 1286.63 1.91602 6.19025 0
M  V30 13827 N 1280.03 -1.55556 0.252993 0
M  V30 13828 C 1280.98 -2.18298 -0.658028 0
M  V30 13829 C 1281.97 -1.14072 -1.13474 0
M  V30 13830 O 1283.16 -1.39962 -1.0835 0
M  V30 13831 C 1280.29 -2.89067 -1.8519 0
M  V30 13832 C 1279.38 -4.00556 -1.3934 0
M  V30 13833 N 1279.77 -5.01612 -0.649538 0
M  V30 13834 C 1278.06 -4.13222 -1.67819 0
M  V30 13835 C 1278.77 -5.80244 -0.411347 0
M  V30 13836 N 1277.74 -5.34742 -0.977342 0
M  V30 13837 H 1281.54 -2.93787 -0.0816162 0
M  V30 13838 H 1279.06 -1.62305 0.0555728 0
M  V30 13839 H 1281.05 -3.32448 -2.51563 0
M  V30 13840 H 1279.71 -2.15082 -2.43248 0
M  V30 13841 H 1280.73 -5.17036 -0.299043 0
M  V30 13842 H 1277.4 -3.50414 -2.26972 0
M  V30 13843 H 1278.79 -6.71651 0.182911 0
M  V30 13844 N 1281.51 0.0200419 -1.57587 0
M  V30 13845 C 1282.42 1.0346 -2.10555 0
M  V30 13846 C 1283.44 1.39035 -1.0462 0
M  V30 13847 O 1284.61 1.48172 -1.36407 0
M  V30 13848 C 1281.68 2.31389 -2.58186 0
M  V30 13849 C 1280.74 2.02311 -3.7864 0
M  V30 13850 C 1279.97 3.24141 -4.23991 0
M  V30 13851 O 1280.2 4.35132 -3.68803 0
M  V30 13852 O 1279.13 3.09312 -5.16342 0
M  V30 13853 H 1282.96 0.614419 -2.9742 0
M  V30 13854 H 1280.54 0.237604 -1.47498 0
M  V30 13855 H 1282.42 3.06582 -2.89112 0
M  V30 13856 H 1281.1 2.72684 -1.74428 0
M  V30 13857 H 1280.01 1.24658 -3.5272 0
M  V30 13858 H 1281.34 1.65866 -4.6341 0
M  V30 13859 N 1282.99 1.54862 0.292472 0
M  V30 13860 C 1284.22 1.78877 1.04966 0
M  V30 13861 C 1284.64 0.550724 1.79857 0
M  V30 13862 O 1284 -0.499054 1.74296 0
M  V30 13863 C 1284.05 3.00106 1.99922 0
M  V30 13864 O 1283.15 2.73827 3.0837 0
M  V30 13865 H 1282.49 0.591802 0.301108 0
M  V30 13866 H 1285.02 2.01965 0.3273 0
M  V30 13867 H 1285.03 3.28309 2.42233 0
M  V30 13868 H 1283.71 3.89872 1.44821 0
M  V30 13869 H 1282.28 2.56665 2.70513 0
M  V30 13870 N 1284.47 -0.556076 1.47464 0
M  V30 13871 C 1285.43 -1.64515 1.59586 0
M  V30 13872 C 1286.43 -1.53751 0.470881 0
M  V30 13873 O 1287.62 -1.57889 0.735979 0
M  V30 13874 C 1284.75 -3.0406 1.54143 0
M  V30 13875 H 1285.95 -1.55116 2.56669 0
M  V30 13876 H 1283.5 -0.776087 1.35671 0
M  V30 13877 H 1284.23 -3.18991 0.584395 0
M  V30 13878 H 1284.02 -3.13282 2.3579 0
M  V30 13879 H 1285.51 -3.8329 1.65766 0
M  V30 13880 N 1285.95 -1.35615 -0.802897 0
M  V30 13881 C 1286.89 -1.28839 -1.91492 0
M  V30 13882 C 1287.86 -0.159621 -1.65331 0
M  V30 13883 O 1289.05 -0.343931 -1.87675 0
M  V30 13884 C 1286.19 -1.06999 -3.28093 0
M  V30 13885 C 1285.3 -2.28831 -3.66416 0
M  V30 13886 C 1284.44 -2.00111 -4.92066 0
M  V30 13887 C 1283.48 -3.17977 -5.23027 0
M  V30 13888 N 1282.61 -2.89009 -6.39858 0
M  V30 13889 H 1287.45 -2.2393 -1.96619 0
M  V30 13890 H 1284.99 -1.1131 -0.961687 0
M  V30 13891 H 1286.95 -0.923673 -4.06847 0
M  V30 13892 H 1285.58 -0.155684 -3.22424 0
M  V30 13893 H 1284.63 -2.54314 -2.82893 0
M  V30 13894 H 1285.94 -3.1683 -3.85253 0
M  V30 13895 H 1285.1 -1.82331 -5.78654 0
M  V30 13896 H 1283.84 -1.09402 -4.75271 0
M  V30 13897 H 1282.84 -3.3633 -4.34928 0
M  V30 13898 H 1284.07 -4.09493 -5.41749 0
M  V30 13899 H 1282.01 -2.00898 -6.24481 0
M  V30 13900 H 1281.93 -3.70544 -6.58964 0
M  V30 13901 H 1283.2 -2.74779 -7.29463 0
M  V30 13902 N 1287.43 1.02549 -1.19673 0
M  V30 13903 C 1288.39 2.09064 -0.939407 0
M  V30 13904 C 1289.39 1.60593 0.0814837 0
M  V30 13905 O 1290.58 1.73521 -0.153626 0
M  V30 13906 C 1287.71 3.38395 -0.412513 0
M  V30 13907 H 1288.9 2.33325 -1.88413 0
M  V30 13908 H 1286.46 1.19211 -1.01086 0
M  V30 13909 H 1287.19 3.19805 0.538094 0
M  V30 13910 H 1286.98 3.74898 -1.14863 0
M  V30 13911 H 1288.47 4.16841 -0.251678 0
M  V30 13912 N 1288.9 1.00119 1.21713 0
M  V30 13913 C 1290.18 0.597366 1.86255 0
M  V30 13914 C 1290.56 -0.925124 1.89749 0
M  V30 13915 O 1289.91 -1.8105 1.39402 0
M  V30 13916 C 1290.12 1.22735 3.26707 0
M  V30 13917 C 1291.47 1.33307 4.03131 0
M  V30 13918 O 1292.49 1.18237 3.36003 0
M  V30 13919 O 1291.35 1.57509 5.2331 0
M  V30 13920 H 1288.44 0.204091 0.801421 0
M  V30 13921 H 1290.99 1.09759 1.29426 0
M  V30 13922 H 1289.76 2.26837 3.18843 0
M  V30 13923 H 1289.38 0.713232 3.91151 0
M  V30 13924 N 1290.38 -1.37203 0.775435 0
M  V30 13925 C 1291.31 -2.32819 0.17826 0
M  V30 13926 C 1292.29 -1.55963 -0.678944 0
M  V30 13927 O 1293.48 -1.84183 -0.615648 0
M  V30 13928 C 1290.61 -3.40198 -0.698768 0
M  V30 13929 C 1289.56 -4.27961 0.057423 0
M  V30 13930 C 1288.89 -5.26385 -0.93929 0
M  V30 13931 C 1290.19 -5.07402 1.23856 0
M  V30 13932 H 1291.88 -2.8301 0.977028 0
M  V30 13933 H 1289.43 -1.3607 0.471274 0
M  V30 13934 H 1291.38 -4.06067 -1.12637 0
M  V30 13935 H 1290.1 -2.88541 -1.53009 0
M  V30 13936 H 1288.76 -3.63628 0.465848 0
M  V30 13937 H 1288.41 -4.71007 -1.76527 0
M  V30 13938 H 1288.11 -5.85966 -0.437844 0
M  V30 13939 H 1289.64 -5.9513 -1.36576 0
M  V30 13940 H 1291.05 -5.6639 0.887423 0
M  V30 13941 H 1289.45 -5.76327 1.67234 0
M  V30 13942 H 1290.52 -4.3986 2.04085 0
M  V30 13943 N 1291.86 -0.526279 -1.48553 0
M  V30 13944 C 1292.79 0.227364 -2.3239 0
M  V30 13945 C 1293.77 0.93862 -1.41859 0
M  V30 13946 O 1294.96 0.925119 -1.70749 0
M  V30 13947 C 1292.09 1.277 -3.22971 0
M  V30 13948 C 1291.04 0.684107 -4.22497 0
M  V30 13949 C 1290.37 1.83612 -5.02186 0
M  V30 13950 C 1291.67 -0.341723 -5.21181 0
M  V30 13951 H 1293.36 -0.472486 -2.95648 0
M  V30 13952 H 1290.91 -0.228669 -1.42173 0
M  V30 13953 H 1292.86 1.81215 -3.80446 0
M  V30 13954 H 1291.58 2.00638 -2.57705 0
M  V30 13955 H 1290.24 0.170505 -3.66203 0
M  V30 13956 H 1289.89 2.55379 -4.33348 0
M  V30 13957 H 1289.59 1.44536 -5.69547 0
M  V30 13958 H 1291.11 2.37513 -5.62512 0
M  V30 13959 H 1292.53 0.106207 -5.73202 0
M  V30 13960 H 1290.92 -0.649673 -5.96573 0
M  V30 13961 H 1291.99 -1.2488 -4.68543 0
M  V30 13962 N 1293.34 1.5542 -0.261239 0
M  V30 13963 C 1294.75 1.59327 0.0932655 0
M  V30 13964 C 1294.95 1.27846 1.55748 0
M  V30 13965 O 1294.01 1.03265 2.30418 0
M  V30 13966 C 1295.32 2.99496 -0.268856 0
M  V30 13967 C 1296.87 3.12265 -0.21433 0
M  V30 13968 C 1297.35 4.54677 -0.55069 0
M  V30 13969 N 1298.84 4.60475 -0.501723 0
M  V30 13970 C 1299.57 5.6867 -0.734961 0
M  V30 13971 N 1299.07 6.85069 -1.03209 0
M  V30 13972 N 1300.86 5.58156 -0.664696 0
M  V30 13973 H 1293.01 1.7415 -1.21595 0
M  V30 13974 H 1295.27 0.811382 -0.490268 0
M  V30 13975 H 1294.98 3.2732 -1.28664 0
M  V30 13976 H 1294.85 3.75104 0.397097 0
M  V30 13977 H 1297.24 2.84213 0.794148 0
M  V30 13978 H 1297.32 2.389 -0.914342 0
M  V30 13979 H 1296.97 4.83453 -1.55679 0
M  V30 13980 H 1296.9 5.26322 0.170959 0
M  V30 13981 H 1299.39 3.76851 -0.281387 0
M  V30 13982 H 1299.7 7.63472 -1.19709 0
M  V30 13983 H 1298.05 6.86718 -1.06971 0
M  V30 13984 H 1301.24 4.66098 -0.432513 0
M  V30 13985 H 1301.41 6.42403 -0.849857 0
M  V30 13986 N 1294.82 -0.0116844 1.57596 0
M  V30 13987 C 1296.04 -0.713924 1.94725 0
M  V30 13988 C 1296.47 -1.67157 0.862565 0
M  V30 13989 O 1295.82 -1.80401 -0.180308 0
M  V30 13990 C 1295.87 -1.43214 3.30941 0
M  V30 13991 O 1294.98 -2.5461 3.24419 0
M  V30 13992 H 1294.32 -0.190772 0.636005 0
M  V30 13993 H 1296.85 0.0380247 2.04565 0
M  V30 13994 H 1296.86 -1.79819 3.66237 0
M  V30 13995 H 1295.53 -0.729906 4.09445 0
M  V30 13996 H 1294.11 -2.20419 3.00782 0
M  V30 13997 N 1296.29 -1.55015 -0.284256 0
M  V30 13998 C 1297.23 -1.83517 -1.3731 0
M  V30 13999 C 1298.24 -0.719009 -1.46062 0
M  V30 14000 O 1299.43 -0.996719 -1.4808 0
M  V30 14001 C 1296.53 -1.97309 -2.7554 0
M  V30 14002 C 1295.7 -3.2787 -2.89517 0
M  V30 14003 C 1294.76 -3.31868 -4.08351 0
M  V30 14004 O 1293.79 -4.05309 -3.99642 0
M  V30 14005 N 1294.99 -2.5846 -5.19787 0
M  V30 14006 H 1297.75 -2.77495 -1.1321 0
M  V30 14007 H 1295.31 -1.54795 -0.474359 0
M  V30 14008 H 1297.31 -1.97367 -3.53311 0
M  V30 14009 H 1295.88 -1.10249 -2.92513 0
M  V30 14010 H 1295.1 -3.40445 -1.98722 0
M  V30 14011 H 1296.38 -4.13996 -2.95779 0
M  V30 14012 H 1295.78 -1.98455 -5.29747 0
M  V30 14013 H 1294.34 -2.64253 -5.9583 0
M  V30 14014 N 1297.77 0.548248 -1.47757 0
M  V30 14015 C 1299 1.335 -1.58722 0
M  V30 14016 C 1299.42 1.86549 -0.241034 0
M  V30 14017 O 1298.78 1.63447 0.784517 0
M  V30 14018 C 1298.83 2.47457 -2.62293 0
M  V30 14019 O 1297.93 3.49956 -2.18185 0
M  V30 14020 H 1297.27 0.396166 -0.532868 0
M  V30 14021 H 1299.8 0.66164 -1.93607 0
M  V30 14022 H 1299.81 2.93901 -2.82995 0
M  V30 14023 H 1298.49 2.08203 -3.60034 0
M  V30 14024 H 1297.06 3.09755 -2.0762 0
M  V30 14025 N 1299.25 1.36039 0.795694 0
M  V30 14026 C 1300.18 1.24209 1.91435 0
M  V30 14027 C 1301.16 0.127593 1.62099 0
M  V30 14028 O 1302.34 0.297619 1.86136 0
M  V30 14029 C 1299.47 0.915006 3.26106 0
M  V30 14030 C 1298.52 2.04307 3.74381 0
M  V30 14031 S 1299.35 3.66016 3.90887 0
M  V30 14032 C 1300.51 3.35408 5.28443 0
M  V30 14033 H 1300.74 2.18895 2.01177 0
M  V30 14034 H 1298.27 1.21381 0.954251 0
M  V30 14035 H 1300.23 0.733104 4.03901 0
M  V30 14036 H 1298.89 -0.0139734 3.14097 0
M  V30 14037 H 1298.08 1.76863 4.71949 0
M  V30 14038 H 1297.69 2.18387 3.03617 0
M  V30 14039 H 1299.98 2.88912 6.1281 0
M  V30 14040 H 1300.92 4.32216 5.60887 0
M  V30 14041 H 1301.33 2.70909 4.95246 0
M  V30 14042 N 1300.73 -1.01913 1.20215 0
M  V30 14043 C 1301.68 -2.12516 0.945493 0
M  V30 14044 C 1302.67 -1.69091 -0.102243 0
M  V30 14045 O 1303.88 -1.79936 0.047888 0
M  V30 14046 H 1300.25 -0.694496 0.288409 0
M  V30 14047 H 1302.22 -2.31349 1.88468 0
M  V30 14048 C 1300.97 -3.43919 0.51137 0
M  V30 14049 H 1300.29 -3.77758 1.30916 0
M  V30 14050 H 1301.73 -4.22374 0.370981 0
M  V30 14051 C 1300.19 -3.27844 -0.775902 0
M  V30 14052 O 1300.72 -3.5734 -1.83496 0
M  V30 14053 N 1298.93 -2.81101 -0.73694 0
M  V30 14054 H 1298.48 -2.57296 0.125164 0
M  V30 14055 H 1298.43 -2.70726 -1.59859 0
M  V30 14056 N 1302.21 -1.00763 -1.2118 0
M  V30 14057 C 1303.48 -0.607236 -1.85935 0
M  V30 14058 C 1303.86 0.915048 -1.90237 0
M  V30 14059 O 1303.21 1.80308 -1.40361 0
M  V30 14060 C 1303.42 -1.24466 -3.26051 0
M  V30 14061 C 1304.77 -1.35443 -4.02418 0
M  V30 14062 O 1305.79 -1.20018 -3.35372 0
M  V30 14063 O 1304.65 -1.60282 -5.22467 0
M  V30 14064 H 1301.75 -0.208338 -0.800328 0
M  V30 14065 H 1304.29 -1.10444 -1.28842 0
M  V30 14066 H 1303.06 -2.28524 -3.17635 0
M  V30 14067 H 1302.69 -0.733966 -3.90767 0
M  V30 14068 N 1303.68 1.3679 -0.7827 0
M  V30 14069 C 1304.91 2.04206 -0.362571 0
M  V30 14070 C 1305.33 1.58637 1.01074 0
M  V30 14071 O 1304.69 0.751692 1.64983 0
M  V30 14072 C 1304.74 3.58062 -0.4271 0
M  V30 14073 O 1303.84 4.08463 0.56845 0
M  V30 14074 H 1303.19 0.645638 -0.155073 0
M  V30 14075 H 1305.72 1.74883 -1.06194 0
M  V30 14076 H 1305.73 4.0698 -0.288298 0
M  V30 14077 H 1304.4 3.90582 -1.42893 0
M  V30 14078 H 1302.98 3.70835 0.391863 0
M  V30 14079 N 1305.16 0.53415 1.48272 0
M  V30 14080 C 1306.07 -0.230062 2.33469 0
M  V30 14081 C 1307.09 -0.934889 1.46751 0
M  V30 14082 O 1308.26 -0.908921 1.79724 0
M  V30 14083 C 1305.33 -1.2609 3.22958 0
M  V30 14084 C 1304.39 -0.565983 4.25553 0
M  V30 14085 C 1303.62 -1.54771 5.10766 0
M  V30 14086 O 1303.85 -2.7807 4.9803 0
M  V30 14087 O 1302.78 -1.08482 5.92043 0
M  V30 14088 H 1306.61 0.468182 3.0007 0
M  V30 14089 H 1304.19 0.29502 1.46458 0
M  V30 14090 H 1306.07 -1.85652 3.783 0
M  V30 14091 H 1304.75 -1.94148 2.59014 0
M  V30 14092 H 1303.66 0.0702391 3.74034 0
M  V30 14093 H 1304.99 0.0727277 4.92146 0
M  V30 14094 N 1306.64 -1.55279 0.269478 0
M  V30 14095 C 1307.89 -1.99077 -0.348224 0
M  V30 14096 C 1308.21 -1.15925 -1.568 0
M  V30 14097 O 1307.48 -0.247404 -1.94331 0
M  V30 14098 H 1306.06 -0.735307 -0.131653 0
M  V30 14099 H 1308.72 -1.91288 0.373506 0
M  V30 14100 H 1307.82 -3.05427 -0.641953 0
M  V30 14101 N 1308.12 0.00332656 -1.576 0
M  V30 14102 C 1309.4 0.725722 -1.81639 0
M  V30 14103 C 1309.78 1.92173 -0.87365 0
M  V30 14104 O 1309.12 2.28365 0.0783931 0
M  V30 14105 C 1309.33 1.13458 -3.30043 0
M  V30 14106 C 1310.68 1.53982 -3.95695 0
M  V30 14107 O 1311.71 1.22846 -3.34346 0
M  V30 14108 O 1310.56 2.11866 -5.03761 0
M  V30 14109 H 1307.66 0.353083 -0.747838 0
M  V30 14110 H 1310.2 -0.0218724 -1.69686 0
M  V30 14111 H 1308.98 0.281925 -3.90283 0
M  V30 14112 H 1308.6 1.94138 -3.46982 0
M  V30 14113 N 1309.6 1.55164 0.276031 0
M  V30 14114 C 1310.54 1.88623 1.36104 0
M  V30 14115 C 1311.54 0.762265 1.51281 0
M  V30 14116 O 1312.74 0.946573 1.53101 0
M  V30 14117 H 1309.12 0.59863 0.455133 0
M  V30 14118 H 1311.09 2.79266 1.05134 0
M  V30 14119 C 1309.84 2.17207 2.71508 0
M  V30 14120 H 1309.16 3.03179 2.6062 0
M  V30 14121 H 1310.6 2.44541 3.46375 0
M  V30 14122 C 1309.06 0.978671 3.22372 0
M  V30 14123 O 1309.59 0.211766 4.01141 0
M  V30 14124 N 1307.8 0.777199 2.80014 0
M  V30 14125 H 1307.34 1.40252 2.16072 0
M  V30 14126 H 1307.3 -0.0196754 3.14394 0
M  V30 14127 N 1311.07 -0.540404 1.48045 0
M  V30 14128 C 1312.31 -1.30737 1.57121 0
M  V30 14129 C 1312.68 -1.90554 0.23518 0
M  V30 14130 O 1313.88 -2.68048 0.20087 0
M  V30 14131 C 1312.15 -2.37539 2.6704 0
M  V30 14132 S 1313.71 -3.241 2.95812 0
M  V30 14133 H 1310.53 -0.444856 0.554639 0
M  V30 14134 H 1313.13 -0.61683 1.85514 0
M  V30 14135 H 1311.83 -1.92057 3.62688 0
M  V30 14136 H 1311.36 -3.11313 2.40515 0
M  V30 14137 H 1313.38 -4.37393 2.34311 0
M  V30 14138 N 1312.55 -1.36459 -0.788468 0
M  V30 14139 C 1313.5 -1.30863 -1.90115 0
M  V30 14140 C 1314.47 -0.177148 -1.65153 0
M  V30 14141 O 1315.65 -0.363817 -1.87299 0
M  V30 14142 C 1312.79 -1.10473 -3.2694 0
M  V30 14143 C 1311.91 -2.32704 -3.63968 0
M  V30 14144 C 1311.04 -2.05319 -4.89916 0
M  V30 14145 C 1310.08 -3.23506 -5.19625 0
M  V30 14146 N 1309.22 -2.9578 -6.36756 0
M  V30 14147 H 1314.06 -2.26003 -1.94233 0
M  V30 14148 H 1311.6 -1.12324 -0.949827 0
M  V30 14149 H 1313.55 -0.966773 -4.05844 0
M  V30 14150 H 1312.18 -0.189873 -3.22241 0
M  V30 14151 H 1311.24 -2.573 -2.8018 0
M  V30 14152 H 1312.55 -3.20899 -3.81871 0
M  V30 14153 H 1311.7 -1.88459 -5.76687 0
M  V30 14154 H 1310.44 -1.14437 -4.74084 0
M  V30 14155 H 1309.45 -3.40924 -4.31336 0
M  V30 14156 H 1310.67 -4.15216 -5.37376 0
M  V30 14157 H 1308.62 -2.0751 -6.22315 0
M  V30 14158 H 1308.53 -3.77513 -6.54996 0
M  V30 14159 H 1309.8 -2.825 -7.26508 0
M  V30 14160 N 1314.03 1.01274 -1.20754 0
M  V30 14161 C 1314.96 2.11763 -0.983805 0
M  V30 14162 C 1315.94 1.69869 0.0885635 0
M  V30 14163 O 1317.13 1.94075 -0.0697239 0
M  V30 14164 C 1314.26 3.43087 -0.539287 0
M  V30 14165 C 1313.21 3.9874 -1.55534 0
M  V30 14166 C 1312.54 5.25877 -0.967322 0
M  V30 14167 C 1313.84 4.31688 -2.94012 0
M  V30 14168 H 1315.53 2.30737 -1.90789 0
M  V30 14169 H 1313.08 1.10884 -0.918734 0
M  V30 14170 H 1315.03 4.19773 -0.369979 0
M  V30 14171 H 1313.75 3.23883 0.420435 0
M  V30 14172 H 1312.41 3.24166 -1.71207 0
M  V30 14173 H 1312.06 5.03 0.000448307 0
M  V30 14174 H 1311.76 5.64077 -1.64594 0
M  V30 14175 H 1313.28 6.05215 -0.809167 0
M  V30 14176 H 1314.7 4.99246 -2.81827 0
M  V30 14177 H 1313.1 4.81011 -3.58815 0
M  V30 14178 H 1314.17 3.4029 -3.45442 0
M  V30 14179 N 1315.51 1.01404 1.20644 0
M  V30 14180 C 1316.93 0.728446 1.42006 0
M  V30 14181 C 1317.13 -0.692894 1.89212 0
M  V30 14182 O 1316.18 -1.46101 2.05939 0
M  V30 14183 C 1317.49 1.75198 2.44389 0
M  V30 14184 C 1319.04 1.76983 2.58159 0
M  V30 14185 C 1319.52 2.78256 3.63782 0
M  V30 14186 N 1321.01 2.7698 3.71263 0
M  V30 14187 C 1321.74 3.51999 4.52641 0
M  V30 14188 N 1321.24 4.36687 5.37844 0
M  V30 14189 N 1323.03 3.40608 4.47149 0
M  V30 14190 H 1315.18 1.93168 0.883172 0
M  V30 14191 H 1317.45 0.834287 0.450187 0
M  V30 14192 H 1317.15 2.77013 2.16695 0
M  V30 14193 H 1317.03 1.56203 3.43337 0
M  V30 14194 H 1319.41 0.758551 2.85184 0
M  V30 14195 H 1319.49 2.00051 1.59415 0
M  V30 14196 H 1319.14 3.79546 3.37501 0
M  V30 14197 H 1319.07 2.5245 4.62143 0
M  V30 14198 H 1321.56 2.15546 3.104 0
M  V30 14199 H 1321.87 4.90703 5.97018 0
M  V30 14200 H 1320.22 4.40766 5.37355 0
M  V30 14201 H 1323.41 2.73872 3.79621 0
M  V30 14202 H 1323.58 3.99327 5.10335 0
M  V30 14203 N 1316.99 -1.36373 0.789944 0
M  V30 14204 C 1318.4 -1.52471 0.471686 0
M  V30 14205 C 1318.6 -1.74365 -1.0099 0
M  V30 14206 O 1317.66 -1.77546 -1.79538 0
M  V30 14207 C 1318.97 -2.71022 1.30259 0
M  V30 14208 C 1320.52 -2.84893 1.29633 0
M  V30 14209 C 1321 -4.0645 2.11098 0
M  V30 14210 N 1322.49 -4.13597 2.08547 0
M  V30 14211 C 1323.22 -5.06731 2.6835 0
M  V30 14212 N 1322.72 -6.05305 3.37013 0
M  V30 14213 N 1324.51 -4.9935 2.58081 0
M  V30 14214 H 1316.66 -1.20416 1.74968 0
M  V30 14215 H 1318.92 -0.587782 0.743785 0
M  V30 14216 H 1318.63 -2.61368 2.35329 0
M  V30 14217 H 1318.5 -3.6519 0.944254 0
M  V30 14218 H 1320.89 -2.94009 0.253542 0
M  V30 14219 H 1320.97 -1.91632 1.69443 0
M  V30 14220 H 1320.62 -3.98096 3.15408 0
M  V30 14221 H 1320.55 -4.98861 1.68659 0
M  V30 14222 H 1323.04 -3.4302 1.58573 0
M  V30 14223 H 1323.35 -6.72934 3.79974 0
M  V30 14224 H 1321.7 -6.05529 3.41116 0
M  V30 14225 H 1324.89 -4.21291 2.04039 0
M  V30 14226 H 1325.06 -5.71745 3.04979 0
M  V30 14227 N 1318.47 -0.542005 -1.47987 0
M  V30 14228 C 1319.88 -0.200691 -1.58333 0
M  V30 14229 C 1320.08 1.29643 -1.54256 0
M  V30 14230 O 1319.14 2.07556 -1.43794 0
M  V30 14231 C 1320.45 -0.813878 -2.89476 0
M  V30 14232 C 1322 -0.783711 -3.0303 0
M  V30 14233 C 1322.47 -1.37569 -4.36851 0
M  V30 14234 N 1323.96 -1.33819 -4.43449 0
M  V30 14235 C 1324.7 -1.76602 -5.45527 0
M  V30 14236 N 1324.2 -2.27169 -6.54497 0
M  V30 14237 N 1325.99 -1.67765 -5.3648 0
M  V30 14238 H 1318.14 -1.51488 -1.4888 0
M  V30 14239 H 1320.4 -0.630835 -0.707638 0
M  V30 14240 H 1320.11 -1.86544 -2.98151 0
M  V30 14241 H 1319.98 -0.297978 -3.76021 0
M  V30 14242 H 1322.37 0.259118 -2.9396 0
M  V30 14243 H 1322.45 -1.33721 -2.18065 0
M  V30 14244 H 1322.09 -2.41751 -4.46675 0
M  V30 14245 H 1322.02 -0.797769 -5.20522 0
M  V30 14246 H 1324.52 -0.968147 -3.65288 0
M  V30 14247 H 1324.83 -2.57777 -7.2854 0
M  V30 14248 H 1323.17 -2.31171 -6.55427 0
M  V30 14249 H 1326.36 -1.28048 -4.50246 0
M  V30 14250 H 1326.54 -2.01426 -6.15899 0
M  V30 14251 N 1319.94 1.55134 -0.277709 0
M  V30 14252 C 1320.89 2.2263 0.608637 0
M  V30 14253 C 1321.86 1.20067 1.14774 0
M  V30 14254 O 1323.05 1.48617 1.19657 0
M  V30 14255 C 1320.19 2.95308 1.78571 0
M  V30 14256 C 1319.3 4.12595 1.28021 0
M  V30 14257 C 1318.43 4.7291 2.41929 0
M  V30 14258 C 1317.47 5.82386 1.88395 0
M  V30 14259 N 1316.61 6.36754 2.95786 0
M  V30 14260 H 1321.45 2.97988 0.0264138 0
M  V30 14261 H 1318.99 1.471 0.00127068 0
M  V30 14262 H 1320.94 3.35662 2.47764 0
M  V30 14263 H 1319.57 2.22368 2.33992 0
M  V30 14264 H 1318.63 3.77343 0.481297 0
M  V30 14265 H 1319.94 4.91537 0.848128 0
M  V30 14266 H 1319.09 5.15997 3.1911 0
M  V30 14267 H 1317.83 3.93251 2.88453 0
M  V30 14268 H 1316.84 5.38746 1.09694 0
M  V30 14269 H 1318.06 6.63916 1.42803 0
M  V30 14270 H 1316.01 5.59987 3.41687 0
M  V30 14271 H 1315.92 7.10975 2.57002 0
M  V30 14272 H 1317.19 6.845 3.72935 0
M  V30 14273 N 1321.42 0.00503138 1.57599 0
M  V30 14274 C 1322.35 -0.983586 2.11773 0
M  V30 14275 C 1323.33 -1.35518 1.02805 0
M  V30 14276 O 1324.52 -1.43804 1.30514 0
M  V30 14277 C 1321.65 -2.27383 2.62515 0
M  V30 14278 C 1320.6 -2.0437 3.76054 0
M  V30 14279 C 1319.93 -3.39451 4.1313 0
M  V30 14280 C 1321.23 -1.40223 5.03125 0
M  V30 14281 H 1322.92 -0.532501 2.94627 0
M  V30 14282 H 1320.47 -0.254696 1.4173 0
M  V30 14283 H 1322.42 -2.96903 2.99043 0
M  V30 14284 H 1321.14 -2.74614 1.7679 0
M  V30 14285 H 1319.8 -1.37275 3.39928 0
M  V30 14286 H 1319.45 -3.84395 3.24422 0
M  V30 14287 H 1319.15 -3.24868 4.89627 0
M  V30 14288 H 1320.68 -4.10279 4.52221 0
M  V30 14289 H 1322.09 -1.99708 5.37392 0
M  V30 14290 H 1320.49 -1.36112 5.8446 0
M  V30 14291 H 1321.56 -0.372073 4.8347 0
M  V30 14292 N 1322.9 -1.55308 -0.267798 0
M  V30 14293 C 1324.12 -1.80524 -1.02107 0
M  V30 14294 C 1324.55 -0.579268 -1.78958 0
M  V30 14295 O 1323.91 0.471262 -1.75068 0
M  V30 14296 C 1323.96 -3.03248 -1.95123 0
M  V30 14297 O 1323.06 -2.78699 -3.03975 0
M  V30 14298 H 1322.4 -0.596518 -0.291655 0
M  V30 14299 H 1324.93 -2.0246 -0.295128 0
M  V30 14300 H 1324.94 -3.32121 -2.3698 0
M  V30 14301 H 1323.62 -3.92126 -1.386 0
M  V30 14302 H 1322.19 -2.60936 -2.66396 0
M  V30 14303 N 1324.38 0.532545 -1.4833 0
M  V30 14304 C 1325.62 1.28851 -1.56217 0
M  V30 14305 C 1325.95 1.93076 -0.234967 0
M  V30 14306 O 1325.21 1.79722 0.774508 0
M  V30 14307 C 1325.51 2.40117 -2.64724 0
M  V30 14308 C 1325.17 1.93562 -4.0724 0
M  V30 14309 C 1323.83 1.80583 -4.46031 0
M  V30 14310 C 1326.19 1.58349 -4.96563 0
M  V30 14311 C 1323.51 1.30722 -5.71952 0
M  V30 14312 C 1325.87 1.09951 -6.22972 0
M  V30 14313 C 1324.53 0.955866 -6.60621 0
M  V30 14314 H 1323.8 0.4715 -0.571637 0
M  V30 14315 H 1326.45 0.594564 -1.82036 0
M  V30 14316 H 1324.75 3.15171 -2.32754 0
M  V30 14317 H 1326.45 2.98252 -2.68042 0
M  V30 14318 H 1323.04 2.04614 -3.76605 0
M  V30 14319 H 1327.22 1.67237 -4.67274 0
M  V30 14320 H 1322.48 1.18286 -5.99849 0
M  V30 14321 H 1326.65 0.817736 -6.91582 0
M  V30 14322 H 1324.28 0.567302 -7.5808 0
M  V30 14323 N 1325.86 1.36875 0.78122 0
M  V30 14324 C 1326.77 1.3404 1.92537 0
M  V30 14325 C 1327.78 0.241354 1.72318 0
M  V30 14326 O 1328.96 0.475128 1.95715 0
M  V30 14327 C 1326.02 1.13708 3.27523 0
M  V30 14328 C 1325.08 2.33165 3.60462 0
M  V30 14329 C 1324.32 2.13793 4.89007 0
M  V30 14330 O 1324.54 1.11732 5.5935 0
M  V30 14331 O 1323.47 3.01762 5.20791 0
M  V30 14332 H 1327.3 2.30386 1.97879 0
M  V30 14333 H 1324.88 1.17506 0.922637 0
M  V30 14334 H 1326.77 1.0432 4.08283 0
M  V30 14335 H 1325.44 0.204306 3.23055 0
M  V30 14336 H 1324.35 2.48123 2.79974 0
M  V30 14337 H 1325.68 3.24977 3.69663 0
M  V30 14338 N 1327.33 -1.00632 1.21289 0
M  V30 14339 C 1328.56 -1.78503 1.05601 0
M  V30 14340 C 1328.98 -1.84015 -0.389879 0
M  V30 14341 O 1328.34 -1.28277 -1.2812 0
M  V30 14342 C 1328.39 -3.20313 1.65626 0
M  V30 14343 O 1327.49 -4.02441 0.900841 0
M  V30 14344 H 1326.83 -0.550183 0.371746 0
M  V30 14345 H 1329.36 -1.26505 1.60803 0
M  V30 14346 H 1329.37 -3.70992 1.69792 0
M  V30 14347 H 1328.05 -3.15616 2.7085 0
M  V30 14348 H 1326.63 -3.61009 0.934178 0
M  V30 14349 N 1328.81 -1.02043 -1.20104 0
M  V30 14350 C 1329.72 -0.603724 -2.26699 0
M  V30 14351 C 1330.74 0.360558 -1.70223 0
M  V30 14352 O 1331.91 0.220552 -2.00189 0
M  V30 14353 C 1328.98 0.0475988 -3.46667 0
M  V30 14354 C 1328.04 -0.963111 -4.18357 0
M  V30 14355 C 1327.27 -0.342775 -5.32598 0
M  V30 14356 O 1327.5 0.856509 -5.63933 0
M  V30 14357 O 1326.43 -1.06141 -5.92467 0
M  V30 14358 H 1330.26 -1.49125 -2.64566 0
M  V30 14359 H 1327.84 -0.790134 -1.26796 0
M  V30 14360 H 1329.72 0.411177 -4.19389 0
M  V30 14361 H 1328.4 0.909266 -3.10667 0
M  V30 14362 H 1327.3 -1.37813 -3.47791 0
M  V30 14363 H 1328.64 -1.79487 -4.58307 0
M  V30 14364 N 1330.29 1.35952 -0.797165 0
M  V30 14365 C 1331.54 1.98639 -0.372405 0
M  V30 14366 C 1331.86 1.63571 1.06158 0
M  V30 14367 O 1331.13 0.913516 1.73297 0
M  V30 14368 H 1329.71 0.734753 -0.13471 0
M  V30 14369 H 1332.37 1.66022 -1.02092 0
M  V30 14370 H 1331.47 3.08533 -0.47049 0
M  V30 14371 N 1331.77 0.549846 1.47697 0
M  V30 14372 C 1332.68 -0.205286 2.337 0
M  V30 14373 C 1333.69 -0.919271 1.47734 0
M  V30 14374 O 1334.87 -0.889808 1.80678 0
M  V30 14375 C 1331.94 -1.22658 3.24278 0
M  V30 14376 C 1331 -0.520815 4.26129 0
M  V30 14377 C 1330.23 -1.49345 5.12378 0
M  V30 14378 O 1330.45 -2.72772 5.00951 0
M  V30 14379 O 1329.39 -1.02197 5.93161 0
M  V30 14380 H 1333.21 0.499982 2.99556 0
M  V30 14381 H 1330.8 0.310538 1.46137 0
M  V30 14382 H 1332.68 -1.8163 3.80248 0
M  V30 14383 H 1331.35 -1.9139 2.61059 0
M  V30 14384 H 1330.26 0.109906 3.73939 0
M  V30 14385 H 1331.59 0.124922 4.92041 0
M  V30 14386 N 1333.25 -1.54984 0.285932 0
M  V30 14387 C 1334.19 -2.2295 -0.596822 0
M  V30 14388 C 1335.16 -1.20674 -1.14136 0
M  V30 14389 O 1336.35 -1.49249 -1.18867 0
M  V30 14390 C 1333.49 -2.9625 -1.77002 0
M  V30 14391 C 1332.6 -4.13268 -1.25831 0
M  V30 14392 C 1331.74 -4.74187 -2.39417 0
M  V30 14393 C 1330.78 -5.83377 -1.85304 0
M  V30 14394 N 1329.91 -6.38313 -2.92405 0
M  V30 14395 H 1334.75 -2.97998 -0.0106104 0
M  V30 14396 H 1332.29 -1.47099 0.00653041 0
M  V30 14397 H 1334.25 -3.36971 -2.4598 0
M  V30 14398 H 1332.88 -2.23606 -2.3281 0
M  V30 14399 H 1331.93 -3.77593 -0.461278 0
M  V30 14400 H 1333.24 -4.91979 -0.822049 0
M  V30 14401 H 1332.4 -5.17683 -3.16369 0
M  V30 14402 H 1331.13 -3.94775 -2.86364 0
M  V30 14403 H 1330.14 -5.3932 -1.06835 0
M  V30 14404 H 1331.36 -6.64664 -1.3928 0
M  V30 14405 H 1329.31 -5.61791 -3.38713 0
M  V30 14406 H 1329.23 -7.12328 -2.53228 0
M  V30 14407 H 1330.5 -6.86468 -3.69299 0
M  V30 14408 N 1334.72 -0.0133892 -1.57594 0
M  V30 14409 C 1335.63 0.989701 -2.12702 0
M  V30 14410 C 1336.65 1.36785 -1.07545 0
M  V30 14411 O 1337.83 1.45246 -1.39519 0
M  V30 14412 C 1334.89 2.2586 -2.63036 0
M  V30 14413 C 1333.95 1.94234 -3.82847 0
M  V30 14414 C 1333.19 3.15075 -4.30771 0
M  V30 14415 O 1333.41 4.27212 -3.7795 0
M  V30 14416 O 1332.34 2.98291 -5.22787 0
M  V30 14417 H 1336.17 0.551194 -2.98656 0
M  V30 14418 H 1333.75 0.206264 -1.47969 0
M  V30 14419 H 1335.64 3.0038 -2.9555 0
M  V30 14420 H 1334.31 2.68923 -1.80173 0
M  V30 14421 H 1333.22 1.17148 -3.55285 0
M  V30 14422 H 1334.55 1.55999 -4.66824 0
M  V30 14423 N 1336.2 1.55448 0.259558 0
M  V30 14424 C 1337.15 1.90056 1.34096 0
M  V30 14425 C 1338.14 0.778267 1.50464 0
M  V30 14426 O 1339.35 0.962758 1.52089 0
M  V30 14427 H 1335.73 0.603424 0.448758 0
M  V30 14428 H 1337.7 2.80365 1.02166 0
M  V30 14429 C 1336.45 2.20074 2.69189 0
M  V30 14430 H 1335.77 3.05926 2.57389 0
M  V30 14431 H 1337.21 2.48201 3.43762 0
M  V30 14432 C 1335.67 1.01281 3.21316 0
M  V30 14433 O 1336.2 0.2543 4.00894 0
M  V30 14434 N 1334.4 0.806855 2.79174 0
M  V30 14435 H 1333.95 1.42536 2.14572 0
M  V30 14436 H 1333.91 0.0136714 3.14397 0
M  V30 14437 N 1337.68 -0.524672 1.4861 0
M  V30 14438 C 1338.91 -1.30958 1.60825 0
M  V30 14439 C 1339.33 -1.86142 0.270682 0
M  V30 14440 O 1338.69 -1.64675 -0.758415 0
M  V30 14441 C 1338.74 -2.43252 2.66197 0
M  V30 14442 O 1337.84 -3.4644 2.23725 0
M  V30 14443 H 1337.18 -0.387638 0.539104 0
M  V30 14444 H 1339.71 -0.630755 1.94635 0
M  V30 14445 H 1339.72 -2.89362 2.87635 0
M  V30 14446 H 1338.4 -2.02449 3.63301 0
M  V30 14447 H 1336.97 -3.06413 2.12522 0
M  V30 14448 N 1339.16 -1.37287 -0.77395 0
M  V30 14449 C 1340.39 -1.35563 -1.56302 0
M  V30 14450 C 1340.8 0.0595356 -1.88706 0
M  V30 14451 O 1340.16 1.02072 -1.51286 0
M  V30 14452 C 1340.21 -2.19195 -2.87464 0
M  V30 14453 O 1339.93 -3.55197 -2.5645 0
M  V30 14454 C 1341.43 -2.25425 -3.81704 0
M  V30 14455 H 1338.65 -0.464431 -0.484298 0
M  V30 14456 H 1341.2 -1.80597 -0.959425 0
M  V30 14457 H 1339.35 -1.77676 -3.44253 0
M  V30 14458 H 1339.76 -3.99011 -3.40427 0
M  V30 14459 H 1341.24 -2.8827 -4.70749 0
M  V30 14460 H 1341.72 -1.26205 -4.20677 0
M  V30 14461 H 1342.32 -2.67247 -3.30846 0
M  V30 14462 N 1340.64 0.999871 -1.21821 0
M  V30 14463 C 1341.58 2.10985 -0.979183 0
M  V30 14464 C 1342.58 1.69232 0.0753287 0
M  V30 14465 O 1343.78 1.79837 -0.0765083 0
M  V30 14466 H 1340.16 0.689819 -0.299421 0
M  V30 14467 H 1342.13 2.28322 -1.92124 0
M  V30 14468 C 1340.88 3.43062 -0.56602 0
M  V30 14469 H 1340.2 3.75627 -1.36909 0
M  V30 14470 H 1341.64 4.2173 -0.43813 0
M  V30 14471 C 1340.1 3.29036 0.723647 0
M  V30 14472 O 1340.63 3.60214 1.77788 0
M  V30 14473 N 1338.84 2.82237 0.692126 0
M  V30 14474 H 1338.38 2.57064 -0.166082 0
M  V30 14475 H 1338.34 2.73235 1.55532 0
M  V30 14476 N 1342.11 1.02678 1.19562 0
M  V30 14477 C 1343.39 0.63674 1.84946 0
M  V30 14478 C 1343.77 -0.884667 1.91669 0
M  V30 14479 O 1343.12 -1.78053 1.43211 0
M  V30 14480 C 1343.33 1.29637 3.2403 0
M  V30 14481 C 1344.68 1.41828 4.00212 0
M  V30 14482 O 1345.7 1.25338 3.3342 0
M  V30 14483 O 1344.56 1.68573 5.19851 0
M  V30 14484 H 1341.65 0.221044 0.796912 0
M  V30 14485 H 1344.2 1.1248 1.27068 0
M  V30 14486 H 1342.97 2.33549 3.1396 0
M  V30 14487 H 1342.6 0.796041 3.8955 0
M  V30 14488 N 1343.59 -1.35528 0.804364 0
M  V30 14489 C 1345 -1.81321 0.444933 0
M  V30 14490 C 1345.35 -1.66816 -1.03281 0
M  V30 14491 O 1344.48 -1.19753 -1.80245 0
M  V30 14492 C 1345.07 -3.29199 0.800827 0
M  V30 14493 C 1343.63 -3.73144 0.494026 0
M  V30 14494 C 1342.78 -2.57557 1.02761 0
M  V30 14495 H 1345.73 -1.23537 0.996203 0
M  V30 14496 H 1345.75 -3.80375 0.0975117 0
M  V30 14497 H 1345.26 -3.39725 1.8764 0
M  V30 14498 H 1343.37 -3.68169 -0.572901 0
M  V30 14499 H 1343.48 -4.68005 1.0251 0
M  V30 14500 H 1341.84 -2.50692 0.450048 0
M  V30 14501 H 1342.63 -2.70861 2.10925 0
M  V30 14502 N 1345.07 -0.557671 -1.47404 0
M  V30 14503 C 1345.98 0.19289 -2.33806 0
M  V30 14504 C 1347 0.911424 -1.4822 0
M  V30 14505 O 1348.17 0.880214 -1.81147 0
M  V30 14506 C 1345.24 1.20937 -3.24923 0
M  V30 14507 C 1344.3 0.498209 -4.26399 0
M  V30 14508 C 1343.53 1.46626 -5.13163 0
M  V30 14509 O 1343.76 2.70111 -5.0239 0
M  V30 14510 O 1342.69 0.990497 -5.93694 0
M  V30 14511 H 1346.52 -0.515861 -2.99287 0
M  V30 14512 H 1344.1 -0.318283 -1.4597 0
M  V30 14513 H 1345.98 1.7961 -3.81206 0
M  V30 14514 H 1344.66 1.90003 -2.6207 0
M  V30 14515 H 1343.56 -0.129736 -3.73875 0
M  V30 14516 H 1344.9 -0.151015 -4.91968 0
M  V30 14517 N 1346.55 1.54831 -0.294147 0
M  V30 14518 C 1347.83 1.92071 0.369902 0
M  V30 14519 C 1348.21 1.22061 1.72233 0
M  V30 14520 O 1347.55 0.353975 2.25742 0
M  V30 14521 C 1347.76 3.45524 0.49135 0
M  V30 14522 C 1349.11 4.17644 0.765411 0
M  V30 14523 O 1350.14 3.51521 0.575428 0
M  V30 14524 O 1349 5.34692 1.12992 0
M  V30 14525 H 1346.09 0.801033 0.20561 0
M  V30 14526 H 1348.64 1.66224 -0.341702 0
M  V30 14527 H 1347.41 3.88591 -0.459663 0
M  V30 14528 H 1347.03 3.77384 1.25169 0
M  V30 14529 N 1348.03 0.0217466 1.57585 0
M  V30 14530 C 1349.25 -0.67246 1.96196 0
M  V30 14531 C 1349.68 -1.6529 0.897827 0
M  V30 14532 O 1349.04 -1.80743 -0.142002 0
M  V30 14533 C 1349.08 -1.36162 3.33905 0
M  V30 14534 O 1348.19 -2.47671 3.29747 0
M  V30 14535 H 1347.53 -0.177238 0.639908 0
M  V30 14536 H 1350.06 0.0814073 2.04438 0
M  V30 14537 H 1350.07 -1.7201 3.69968 0
M  V30 14538 H 1348.74 -0.642893 4.10901 0
M  V30 14539 H 1347.32 -2.13989 3.0539 0
M  V30 14540 N 1349.51 -1.55583 -0.251311 0
M  V30 14541 C 1350.47 -1.89148 -1.29443 0
M  V30 14542 C 1351.47 -0.7676 -1.41296 0
M  V30 14543 O 1352.66 -1.03563 -1.40073 0
M  V30 14544 C 1349.79 -2.11601 -2.67279 0
M  V30 14545 H 1350.98 -2.82416 -1.00901 0
M  V30 14546 H 1348.54 -1.48407 -0.490398 0
M  V30 14547 H 1349.27 -1.20787 -3.00967 0
M  V30 14548 H 1349.06 -2.93449 -2.60058 0
M  V30 14549 H 1350.55 -2.38768 -3.42607 0
M  V30 14550 N 1350.98 0.516783 -1.48886 0
M  V30 14551 C 1352.26 1.27808 -1.48069 0
M  V30 14552 C 1352.64 2.10154 -0.19963 0
M  V30 14553 O 1351.99 2.13342 0.818386 0
M  V30 14554 C 1352.2 2.14828 -2.75045 0
M  V30 14555 C 1353.55 2.74536 -3.23906 0
M  V30 14556 O 1354.57 2.25107 -2.76053 0
M  V30 14557 O 1353.43 3.6448 -4.07206 0
M  V30 14558 H 1350.52 0.577535 -0.591931 0
M  V30 14559 H 1353.07 0.532351 -1.61134 0
M  V30 14560 H 1351.84 1.53852 -3.59785 0
M  V30 14561 H 1351.46 2.96624 -2.64764 0
M  V30 14562 N 1352.46 1.37696 0.766659 0
M  V30 14563 C 1353.69 1.3639 1.55581 0
M  V30 14564 C 1354.1 -0.0495272 1.88735 0
M  V30 14565 O 1353.46 -1.01268 1.51826 0
M  V30 14566 C 1353.51 2.20717 2.86298 0
M  V30 14567 O 1353.23 3.56552 2.54563 0
M  V30 14568 C 1354.73 2.27446 3.80504 0
M  V30 14569 H 1351.95 0.466993 0.481828 0
M  V30 14570 H 1354.5 1.81103 0.949834 0
M  V30 14571 H 1352.65 1.79499 3.43306 0
M  V30 14572 H 1353.07 4.00811 3.38306 0
M  V30 14573 H 1354.54 2.90762 4.69214 0
M  V30 14574 H 1355.02 1.28434 4.20002 0
M  V30 14575 H 1355.62 2.68998 3.29424 0
M  V30 14576 N 1353.94 -0.993397 1.22349 0
M  V30 14577 C 1355.19 -1.72707 1.04189 0
M  V30 14578 C 1355.5 -1.90963 -0.423381 0
M  V30 14579 O 1356.71 -2.61651 -0.724645 0
M  V30 14580 C 1355.16 -3.10739 1.81575 0
M  V30 14581 C 1354.77 -3.00415 3.32347 0
M  V30 14582 C 1356.52 -3.88155 1.71861 0
M  V30 14583 C 1354.42 -4.33598 4.02177 0
M  V30 14584 H 1353.35 -0.647556 0.386248 0
M  V30 14585 H 1356 -1.10902 1.46195 0
M  V30 14586 H 1354.39 -3.73222 1.32367 0
M  V30 14587 H 1355.56 -2.47099 3.88946 0
M  V30 14588 H 1353.87 -2.36482 3.42732 0
M  V30 14589 H 1356.47 -4.8673 2.21354 0
M  V30 14590 H 1356.81 -4.10726 0.678939 0
M  V30 14591 H 1357.35 -3.32347 2.18609 0
M  V30 14592 H 1354.09 -4.16226 5.06395 0
M  V30 14593 H 1353.61 -4.86829 3.50367 0
M  V30 14594 H 1355.29 -5.02348 4.07744 0
M  V30 14595 N 1355.42 -1.03311 -1.19015 0
M  V30 14596 C 1356.83 -0.750946 -1.4083 0
M  V30 14597 C 1357.03 0.662704 -1.90291 0
M  V30 14598 O 1356.09 1.42806 -2.08237 0
M  V30 14599 C 1357.4 -1.79064 -2.41571 0
M  V30 14600 C 1358.95 -1.81068 -2.55311 0
M  V30 14601 C 1359.43 -2.84008 -3.59309 0
M  V30 14602 N 1360.92 -2.82852 -3.6681 0
M  V30 14603 C 1361.65 -3.59156 -4.46984 0
M  V30 14604 N 1361.15 -4.45188 -5.30829 0
M  V30 14605 N 1362.94 -3.47679 -4.41674 0
M  V30 14606 H 1355.09 -1.94548 -0.852329 0
M  V30 14607 H 1357.35 -0.841344 -0.436858 0
M  V30 14608 H 1357.06 -2.80425 -2.12261 0
M  V30 14609 H 1356.93 -1.61646 -3.40809 0
M  V30 14610 H 1359.32 -0.803825 -2.83941 0
M  V30 14611 H 1359.4 -2.02562 -1.56212 0
M  V30 14612 H 1359.05 -3.84867 -3.3142 0
M  V30 14613 H 1358.98 -2.59771 -4.58069 0
M  V30 14614 H 1361.47 -2.20457 -3.06932 0
M  V30 14615 H 1361.78 -5.00139 -5.89135 0
M  V30 14616 H 1360.13 -4.49259 -5.30275 0
M  V30 14617 H 1363.32 -2.79876 -3.75216 0
M  V30 14618 H 1363.49 -4.07396 -5.03917 0
M  V30 14619 N 1356.9 1.35099 -0.81154 0
M  V30 14620 C 1357.85 2.27139 -0.197958 0
M  V30 14621 C 1358.83 1.48006 0.631116 0
M  V30 14622 O 1360.02 1.70152 0.487562 0
M  V30 14623 C 1357.15 3.37118 0.648577 0
M  V30 14624 C 1356.24 4.23672 -0.190498 0
M  V30 14625 N 1356.63 4.89959 -1.25594 0
M  V30 14626 C 1354.93 4.45992 0.0270572 0
M  V30 14627 C 1355.63 5.54161 -1.76862 0
M  V30 14628 N 1354.6 5.32879 -1.07428 0
M  V30 14629 H 1358.4 2.75886 -1.01311 0
M  V30 14630 H 1355.92 1.48685 -0.653195 0
M  V30 14631 H 1357.92 4.0201 1.10423 0
M  V30 14632 H 1356.58 2.89922 1.46202 0
M  V30 14633 H 1357.59 4.91293 -1.63864 0
M  V30 14634 H 1354.26 4.09582 0.809248 0
M  V30 14635 H 1355.65 6.17032 -2.65935 0
M  V30 14636 N 1358.37 0.56548 1.47106 0
M  V30 14637 C 1359.6 0.0495579 2.06541 0
M  V30 14638 C 1360.01 -1.25325 1.4174 0
M  V30 14639 O 1359.35 -1.76455 0.510818 0
M  V30 14640 C 1359.42 -0.20843 3.58895 0
M  V30 14641 C 1359.08 1.00618 4.45786 0
M  V30 14642 C 1360.08 1.91387 4.83391 0
M  V30 14643 C 1357.76 1.22318 4.87179 0
M  V30 14644 C 1359.76 3.02218 5.61198 0
M  V30 14645 C 1357.44 2.33457 5.64749 0
M  V30 14646 C 1358.44 3.23238 6.0167 0
M  V30 14647 O 1358.13 4.32449 6.77675 0
M  V30 14648 H 1357.86 0.0466 0.674392 0
M  V30 14649 H 1360.42 0.780887 1.89977 0
M  V30 14650 H 1358.65 -0.994169 3.73702 0
M  V30 14651 H 1360.33 -0.670745 4.0032 0
M  V30 14652 H 1361.1 1.75831 4.52005 0
M  V30 14653 H 1356.98 0.533514 4.57902 0
M  V30 14654 H 1360.52 3.72321 5.89935 0
M  V30 14655 H 1356.42 2.48983 5.95548 0
M  V30 14656 H 1357.19 4.306 6.96079 0
M  V30 14657 N 1359.85 -1.54672 0.302354 0
M  V30 14658 C 1360.78 -2.21021 -0.606828 0
M  V30 14659 C 1361.8 -1.20337 -1.09648 0
M  V30 14660 O 1362.99 -1.46923 -1.0137 0
M  V30 14661 C 1360.09 -2.84411 -1.84293 0
M  V30 14662 C 1359.26 -4.11038 -1.49554 0
M  V30 14663 C 1358.32 -4.58219 -2.58693 0
M  V30 14664 O 1357.34 -5.23387 -2.23728 0
M  V30 14665 N 1358.55 -4.30651 -3.89256 0
M  V30 14666 H 1361.31 -2.99675 -0.0388221 0
M  V30 14667 H 1358.87 -1.6142 0.124614 0
M  V30 14668 H 1360.86 -3.12906 -2.56655 0
M  V30 14669 H 1359.43 -2.09589 -2.31929 0
M  V30 14670 H 1358.65 -3.89538 -0.604492 0
M  V30 14671 H 1359.94 -4.93488 -1.23884 0
M  V30 14672 H 1359.34 -3.78445 -4.20471 0
M  V30 14673 H 1357.9 -4.63853 -4.57913 0
M  V30 14674 N 1361.33 -0.0301034 -1.57571 0
M  V30 14675 C 1362.56 0.662045 -1.9655 0
M  V30 14676 C 1362.98 1.64811 -0.906581 0
M  V30 14677 O 1362.34 1.80816 0.132415 0
M  V30 14678 C 1362.39 1.34389 -3.34622 0
M  V30 14679 O 1361.49 2.45919 -3.31056 0
M  V30 14680 H 1360.83 0.173842 -0.640839 0
M  V30 14681 H 1363.36 -0.092248 -2.04392 0
M  V30 14682 H 1363.37 1.70045 -3.70875 0
M  V30 14683 H 1362.05 0.621092 -4.11236 0
M  V30 14684 H 1360.62 2.12367 -3.06521 0
M  V30 14685 N 1362.81 1.55714 0.243056 0
M  V30 14686 C 1364.03 1.82126 0.992219 0
M  V30 14687 C 1364.46 0.607665 1.78014 0
M  V30 14688 O 1363.82 -0.443351 1.75796 0
M  V30 14689 C 1363.86 3.06314 1.90274 0
M  V30 14690 O 1362.97 2.83499 2.99503 0
M  V30 14691 H 1362.31 0.601082 0.282128 0
M  V30 14692 H 1364.84 2.02904 0.262881 0
M  V30 14693 H 1364.85 3.35849 2.31666 0
M  V30 14694 H 1363.52 3.94282 1.32344 0
M  V30 14695 H 1362.1 2.65141 2.62211 0
M  V30 14696 N 1364.29 -0.50888 1.49158 0
M  V30 14697 C 1365.23 -1.61129 1.65246 0
M  V30 14698 C 1366.2 -1.58582 0.49405 0
M  V30 14699 O 1367.39 -1.76689 0.720122 0
M  V30 14700 C 1364.53 -2.99311 1.71776 0
M  V30 14701 C 1363.64 -3.11933 2.98868 0
M  V30 14702 C 1362.78 -4.408 2.96426 0
M  V30 14703 C 1361.82 -4.47027 4.18131 0
M  V30 14704 N 1360.95 -5.67311 4.13645 0
M  V30 14705 H 1365.79 -1.4672 2.59379 0
M  V30 14706 H 1363.33 -0.713978 1.28611 0
M  V30 14707 H 1365.29 -3.79392 1.73543 0
M  V30 14708 H 1363.92 -3.12442 0.811159 0
M  V30 14709 H 1362.97 -2.24966 3.06748 0
M  V30 14710 H 1364.28 -3.12393 3.8886 0
M  V30 14711 H 1363.44 -5.29194 2.96712 0
M  V30 14712 H 1362.17 -4.42893 2.04199 0
M  V30 14713 H 1361.18 -3.57036 4.18097 0
M  V30 14714 H 1362.4 -4.46656 5.11542 0
M  V30 14715 H 1360.35 -5.70261 3.2425 0
M  V30 14716 H 1360.27 -5.69355 4.97364 0
M  V30 14717 H 1361.54 -6.57934 4.18022 0
M  V30 14718 N 1365.76 -1.381 -0.759346 0
M  V30 14719 C 1367.18 -1.19171 -1.06162 0
M  V30 14720 C 1367.38 -0.0364043 -2.01467 0
M  V30 14721 O 1366.44 0.619635 -2.44779 0
M  V30 14722 C 1367.75 -2.51569 -1.64723 0
M  V30 14723 C 1369.3 -2.58201 -1.76921 0
M  V30 14724 C 1369.77 -3.9076 -2.38894 0
M  V30 14725 N 1371.26 -3.92269 -2.46331 0
M  V30 14726 C 1372 -4.91595 -2.95164 0
M  V30 14727 N 1371.49 -6.01318 -3.44075 0
M  V30 14728 N 1373.29 -4.7899 -2.94152 0
M  V30 14729 H 1365.44 -2.12021 -0.126788 0
M  V30 14730 H 1367.7 -0.940517 -0.118877 0
M  V30 14731 H 1367.41 -3.36535 -1.02162 0
M  V30 14732 H 1367.28 -2.69551 -2.6386 0
M  V30 14733 H 1369.67 -1.73634 -2.38611 0
M  V30 14734 H 1369.75 -2.44092 -0.765047 0
M  V30 14735 H 1369.39 -4.75747 -1.7784 0
M  V30 14736 H 1369.32 -4.02179 -3.39941 0
M  V30 14737 H 1371.81 -3.13015 -2.11731 0
M  V30 14738 H 1372.13 -6.73046 -3.79776 0
M  V30 14739 H 1370.47 -6.04946 -3.42148 0
M  V30 14740 H 1373.66 -3.92385 -2.55248 0
M  V30 14741 H 1373.84 -5.5655 -3.31897 0
M  V30 14742 N 1367.24 0.986894 -1.22875 0
M  V30 14743 C 1368.19 2.06271 -0.971398 0
M  V30 14744 C 1369.18 1.607 0.0802173 0
M  V30 14745 O 1370.37 1.76514 -0.131079 0
M  V30 14746 C 1367.5 3.38743 -0.557524 0
M  V30 14747 C 1366.58 3.90931 -1.64419 0
M  V30 14748 N 1366.97 4.16273 -2.87315 0
M  V30 14749 C 1365.27 4.19398 -1.51727 0
M  V30 14750 C 1365.97 4.5878 -3.57625 0
M  V30 14751 N 1364.95 4.62828 -2.85116 0
M  V30 14752 H 1368.75 2.23814 -1.90485 0
M  V30 14753 H 1366.27 1.16913 -1.12717 0
M  V30 14754 H 1368.26 4.1539 -0.354453 0
M  V30 14755 H 1366.92 3.22597 0.368957 0
M  V30 14756 H 1367.93 4.04288 -3.23684 0
M  V30 14757 H 1364.61 4.12291 -0.65742 0
M  V30 14758 H 1366 4.8696 -4.62947 0
M  V30 14759 N 1368.72 1.0394 1.18466 0
M  V30 14760 C 1369.97 0.742042 1.88414 0
M  V30 14761 C 1370.3 -0.730138 1.80275 0
M  V30 14762 O 1369.55 -1.54844 1.19674 0
M  V30 14763 C 1369.85 1.15198 3.38326 0
M  V30 14764 C 1369.52 2.62422 3.66668 0
M  V30 14765 C 1368.18 3.02643 3.74113 0
M  V30 14766 C 1370.53 3.5762 3.79153 0
M  V30 14767 C 1367.86 4.36953 3.91522 0
M  V30 14768 C 1370.21 4.91647 3.98077 0
M  V30 14769 C 1368.87 5.31541 4.03758 0
M  V30 14770 H 1368.14 0.271532 0.689457 0
M  V30 14771 H 1370.79 1.30419 1.40225 0
M  V30 14772 H 1369.1 0.508607 3.88485 0
M  V30 14773 H 1370.79 0.899269 3.90787 0
M  V30 14774 H 1367.38 2.30268 3.61489 0
M  V30 14775 H 1371.57 3.27693 3.72735 0
M  V30 14776 H 1366.82 4.67382 3.94163 0
M  V30 14777 H 1371 5.65318 4.0668 0
M  V30 14778 H 1368.62 6.35622 4.16999 0
M  V30 14779 N 1370.2 -1.34667 0.818693 0
M  V30 14780 C 1371.11 -2.33375 0.239429 0
M  V30 14781 C 1372.12 -1.62428 -0.623957 0
M  V30 14782 O 1373.3 -1.94223 -0.532854 0
M  V30 14783 C 1370.37 -3.41598 -0.59258 0
M  V30 14784 C 1369.43 -4.28301 0.292712 0
M  V30 14785 C 1368.66 -5.31356 -0.499682 0
M  V30 14786 O 1368.88 -5.43426 -1.73334 0
M  V30 14787 O 1367.82 -6.01789 0.115778 0
M  V30 14788 H 1371.64 -2.84738 1.05631 0
M  V30 14789 H 1369.23 -1.37651 0.58074 0
M  V30 14790 H 1371.11 -4.07692 -1.06607 0
M  V30 14791 H 1369.78 -2.92486 -1.38685 0
M  V30 14792 H 1368.69 -3.65145 0.81361 0
M  V30 14793 H 1370.02 -4.80843 1.05123 0
M  V30 14794 N 1371.68 -0.573274 -1.46804 0
M  V30 14795 C 1372.59 0.168081 -2.33997 0
M  V30 14796 C 1373.6 0.895652 -1.49178 0
M  V30 14797 O 1374.78 0.860951 -1.8207 0
M  V30 14798 C 1371.84 1.17483 -3.26188 0
M  V30 14799 C 1370.9 0.452956 -4.26904 0
M  V30 14800 C 1370.14 1.41175 -5.1469 0
M  V30 14801 O 1370.36 2.64767 -5.05227 0
M  V30 14802 O 1369.29 0.927472 -5.94711 0
M  V30 14803 H 1373.12 -0.547576 -2.98723 0
M  V30 14804 H 1370.71 -0.333747 -1.45624 0
M  V30 14805 H 1372.59 1.75557 -3.8309 0
M  V30 14806 H 1371.26 1.87213 -2.6407 0
M  V30 14807 H 1370.17 -0.169383 -3.73716 0
M  V30 14808 H 1371.5 -0.203186 -4.9178 0
M  V30 14809 N 1373.15 1.5451 -0.310553 0
M  V30 14810 C 1374.1 2.23871 0.561277 0
M  V30 14811 C 1375.07 1.22475 1.12202 0
M  V30 14812 O 1376.26 1.51121 1.16477 0
M  V30 14813 C 1373.4 2.99029 1.72267 0
M  V30 14814 C 1372.51 4.15218 1.19241 0
M  V30 14815 C 1371.64 4.77935 2.31843 0
M  V30 14816 C 1370.68 5.86251 1.75999 0
M  V30 14817 N 1369.82 6.42885 2.82212 0
M  V30 14818 H 1374.66 2.97977 -0.0367998 0
M  V30 14819 H 1372.2 1.4707 -0.0299317 0
M  V30 14820 H 1374.16 3.40842 2.40588 0
M  V30 14821 H 1372.79 2.27281 2.29223 0
M  V30 14822 H 1371.84 3.78279 0.401148 0
M  V30 14823 H 1373.15 4.93225 0.743675 0
M  V30 14824 H 1372.3 5.2265 3.08094 0
M  V30 14825 H 1371.04 3.99281 2.80047 0
M  V30 14826 H 1370.05 5.40952 0.982415 0
M  V30 14827 H 1371.27 6.66795 1.28688 0
M  V30 14828 H 1369.22 5.67109 3.29732 0
M  V30 14829 H 1369.14 7.16267 2.41864 0
M  V30 14830 H 1370.4 6.92256 3.58332 0
M  V30 14831 N 1374.63 0.0384594 1.57553 0
M  V30 14832 C 1375.58 -0.940256 2.10779 0
M  V30 14833 C 1376.55 -1.31705 1.01208 0
M  V30 14834 O 1377.74 -1.40874 1.28683 0
M  V30 14835 C 1374.88 -2.21419 2.64703 0
M  V30 14836 C 1373.99 -1.89302 3.88315 0
M  V30 14837 C 1373.12 -3.1106 4.30599 0
M  V30 14838 C 1372.16 -2.74805 5.46945 0
M  V30 14839 N 1371.3 -3.89217 5.84341 0
M  V30 14840 H 1376.14 -0.479458 2.94118 0
M  V30 14841 H 1373.68 -0.22505 1.45368 0
M  V30 14842 H 1375.63 -2.95946 2.94061 0
M  V30 14843 H 1374.26 -2.65099 1.84181 0
M  V30 14844 H 1373.32 -1.04977 3.65628 0
M  V30 14845 H 1374.63 -1.58607 4.72912 0
M  V30 14846 H 1373.78 -3.93898 4.61442 0
M  V30 14847 H 1372.52 -3.44924 3.44788 0
M  V30 14848 H 1371.53 -1.9038 5.15786 0
M  V30 14849 H 1372.75 -2.42147 6.34462 0
M  V30 14850 H 1370.7 -4.22905 5.01485 0
M  V30 14851 H 1370.61 -3.62177 6.63599 0
M  V30 14852 H 1371.88 -4.72732 6.19794 0
M  V30 14853 N 1376.11 -1.55841 -0.234795 0
M  V30 14854 C 1377.34 -1.82649 -0.982547 0
M  V30 14855 C 1377.76 -0.617097 -1.77689 0
M  V30 14856 O 1377.12 0.434022 -1.76028 0
M  V30 14857 C 1377.17 -3.07319 -1.88646 0
M  V30 14858 O 1376.27 -2.85084 -2.97995 0
M  V30 14859 H 1375.61 -0.60257 -0.278936 0
M  V30 14860 H 1378.14 -2.03041 -0.252117 0
M  V30 14861 H 1378.15 -3.37073 -2.29882 0
M  V30 14862 H 1376.83 -3.94978 -1.30251 0
M  V30 14863 H 1375.4 -2.66528 -2.60801 0
M  V30 14864 N 1377.59 0.500963 -1.49426 0
M  V30 14865 C 1379.01 0.832142 -1.36189 0
M  V30 14866 C 1379.21 1.9759 -0.395014 0
M  V30 14867 O 1378.26 2.51905 0.173294 0
M  V30 14868 C 1379.57 1.17232 -2.76907 0
M  V30 14869 C 1381.12 1.28052 -2.85607 0
M  V30 14870 C 1381.6 1.65399 -4.27092 0
M  V30 14871 N 1383.09 1.72448 -4.29902 0
M  V30 14872 C 1383.82 2.02789 -5.36343 0
M  V30 14873 N 1383.32 2.31354 -6.53029 0
M  V30 14874 N 1385.11 2.0404 -5.23759 0
M  V30 14875 H 1377.26 -0.253253 -2.10885 0
M  V30 14876 H 1379.53 -0.0507111 -0.946643 0
M  V30 14877 H 1379.23 0.405247 -3.49357 0
M  V30 14878 H 1379.11 2.11574 -3.12276 0
M  V30 14879 H 1381.49 2.03831 -2.13394 0
M  V30 14880 H 1381.57 0.317603 -2.53821 0
M  V30 14881 H 1381.22 0.901704 -4.99832 0
M  V30 14882 H 1381.15 2.6279 -4.56343 0
M  V30 14883 H 1383.64 1.52532 -3.45749 0
M  V30 14884 H 1383.95 2.53695 -7.29972 0
M  V30 14885 H 1382.3 2.28811 -6.56255 0
M  V30 14886 H 1385.49 1.812 -4.31606 0
M  V30 14887 H 1385.66 2.27353 -6.06807 0
M  V30 14888 N 1379.07 1.38501 0.752011 0
M  V30 14889 C 1380.29 1.38212 1.54636 0
M  V30 14890 C 1380.72 -0.0256356 1.88083 0
M  V30 14891 O 1380.08 -1.00812 1.50687 0
M  V30 14892 C 1380.12 2.24597 2.82114 0
M  V30 14893 O 1379.23 1.66415 3.77332 0
M  V30 14894 H 1378.57 0.47138 0.46765 0
M  V30 14895 H 1381.1 1.82283 0.929205 0
M  V30 14896 H 1381.11 2.38511 3.31023 0
M  V30 14897 H 1379.78 3.26913 2.57101 0
M  V30 14898 H 1378.36 1.61651 3.36041 0
M  V30 14899 N 1380.55 -0.980364 1.23396 0
M  V30 14900 C 1381.77 -1.76223 1.09363 0
M  V30 14901 C 1382.2 -1.84801 -0.350759 0
M  V30 14902 O 1381.55 -1.30966 -1.2537 0
M  V30 14903 C 1381.6 -3.16728 1.72383 0
M  V30 14904 O 1380.71 -4.00439 0.986002 0
M  V30 14905 H 1380.05 -0.542174 0.383332 0
M  V30 14906 H 1382.58 -1.23066 1.6345 0
M  V30 14907 H 1382.59 -3.67307 1.77623 0
M  V30 14908 H 1381.26 -3.098 2.77483 0
M  V30 14909 H 1379.84 -3.58946 1.01054 0
M  V30 14910 N 1382.02 -1.04567 -1.17913 0
M  V30 14911 C 1383.25 -0.772146 -1.92491 0
M  V30 14912 C 1383.67 0.665297 -1.75942 0
M  V30 14913 O 1383.03 1.46144 -1.07292 0
M  V30 14914 C 1383.08 -1.14966 -3.41782 0
M  V30 14915 O 1382.18 -0.278091 -4.11461 0
M  V30 14916 H 1381.52 -0.283715 -0.600335 0
M  V30 14917 H 1384.05 -1.39685 -1.49496 0
M  V30 14918 H 1384.06 -1.11374 -3.92505 0
M  V30 14919 H 1382.74 -2.1968 -3.53148 0
M  V30 14920 H 1381.32 -0.374073 -3.71019 0
M  V30 14921 N 1383.5 1.34231 -0.825823 0
M  V30 14922 C 1384.75 1.98196 -0.415276 0
M  V30 14923 C 1385.08 1.65463 1.02236 0
M  V30 14924 O 1384.33 0.919868 1.72734 0
M  V30 14925 C 1384.63 3.52861 -0.56778 0
M  V30 14926 C 1384.3 4.05512 -1.97157 0
M  V30 14927 C 1382.96 4.19602 -2.35557 0
M  V30 14928 C 1385.31 4.33798 -2.88909 0
M  V30 14929 C 1382.64 4.59307 -3.6504 0
M  V30 14930 C 1384.99 4.74949 -4.17859 0
M  V30 14931 C 1383.65 4.87245 -4.56233 0
M  V30 14932 H 1382.92 0.725251 -0.15196 0
M  V30 14933 H 1385.57 1.60126 -1.05033 0
M  V30 14934 H 1383.88 3.9151 0.15065 0
M  V30 14935 H 1385.57 4.00336 -0.230608 0
M  V30 14936 H 1382.16 3.9501 -1.66328 0
M  V30 14937 H 1386.35 4.22448 -2.60483 0
M  V30 14938 H 1381.6 4.67017 -3.94594 0
M  V30 14939 H 1385.78 4.95795 -4.8904 0
M  V30 14940 H 1383.4 5.17768 -5.56615 0
M  V30 14941 N 1384.98 0.581051 1.46498 0
M  V30 14942 C 1386.23 0.0637189 2.01599 0
M  V30 14943 C 1386.54 -1.30353 1.45834 0
M  V30 14944 O 1387.75 -1.91211 1.92745 0
M  V30 14945 C 1386.2 0.0633254 3.59844 0
M  V30 14946 C 1385.81 1.42879 4.24605 0
M  V30 14947 C 1387.56 -0.400149 4.2261 0
M  V30 14948 C 1385.46 1.38621 5.74924 0
M  V30 14949 H 1384.39 0.0200512 0.753733 0
M  V30 14950 H 1387.04 0.732451 1.68248 0
M  V30 14951 H 1385.43 -0.671538 3.90264 0
M  V30 14952 H 1386.6 2.18325 4.05796 0
M  V30 14953 H 1384.91 1.83215 3.73927 0
M  V30 14954 H 1387.51 -0.450771 5.32797 0
M  V30 14955 H 1387.85 -1.41733 3.9143 0
M  V30 14956 H 1388.39 0.280598 3.96809 0
M  V30 14957 H 1385.13 2.38014 6.10761 0
M  V30 14958 H 1384.65 0.673926 5.96002 0
M  V30 14959 H 1386.33 1.09841 6.37608 0
M  V30 14960 N 1386.46 -1.54343 0.318742 0
M  V30 14961 C 1387.68 -2.05361 -0.290126 0
M  V30 14962 C 1388.11 -1.19362 -1.45376 0
M  V30 14963 O 1387.47 -0.201639 -1.80175 0
M  V30 14964 C 1387.51 -3.53601 -0.707025 0
M  V30 14965 O 1386.62 -3.70561 -1.80992 0
M  V30 14966 H 1385.96 -0.661858 -0.0532933 0
M  V30 14967 H 1388.49 -1.99228 0.46575 0
M  V30 14968 H 1388.5 -3.95782 -0.991005 0
M  V30 14969 H 1387.17 -4.1565 0.144091 0
M  V30 14970 H 1385.75 -3.40286 -1.52513 0
M  V30 14971 N 1387.94 -0.0468143 -1.5753 0
M  V30 14972 C 1389.16 0.641161 -1.97241 0
M  V30 14973 C 1389.59 1.6384 -0.92401 0
M  V30 14974 O 1388.94 1.80946 0.113229 0
M  V30 14975 C 1388.99 1.30832 -3.36029 0
M  V30 14976 O 1388.1 2.42394 -3.33645 0
M  V30 14977 H 1387.44 0.167035 -0.642647 0
M  V30 14978 H 1389.97 -0.113921 -2.04283 0
M  V30 14979 H 1389.98 1.66102 -3.72658 0
M  V30 14980 H 1388.65 0.57744 -4.11872 0
M  V30 14981 H 1387.23 2.09104 -3.08756 0
M  V30 14982 N 1389.41 1.55964 0.226527 0
M  V30 14983 C 1390.66 1.77944 0.94967 0
M  V30 14984 C 1390.98 0.614478 1.85697 0
M  V30 14985 O 1392.18 0.717793 2.6184 0
M  V30 14986 C 1390.64 3.15108 1.73881 0
M  V30 14987 C 1390.25 4.39314 0.877894 0
M  V30 14988 C 1391.99 3.46418 2.45347 0
M  V30 14989 C 1389.9 5.67505 1.6641 0
M  V30 14990 H 1388.83 0.663412 0.35833 0
M  V30 14991 H 1391.48 1.82366 0.203695 0
M  V30 14992 H 1389.86 3.04849 2.52751 0
M  V30 14993 H 1391.03 4.60616 0.130089 0
M  V30 14994 H 1389.35 4.15487 0.2756 0
M  V30 14995 H 1391.95 4.39416 3.0466 0
M  V30 14996 H 1392.29 2.68685 3.17985 0
M  V30 14997 H 1392.82 3.57984 1.73471 0
M  V30 14998 H 1389.56 6.48116 0.981089 0
M  V30 14999 H 1389.08 5.50272 2.38665 0
M  V30 15000 H 1390.76 6.075 2.22605 0
M  V30 15001 N 1390.89 -0.493031 1.4969 0
M  V30 15002 C 1392.17 -1.25436 1.50084 0
M  V30 15003 C 1392.55 -2.0981 0.233038 0
M  V30 15004 O 1391.9 -2.14617 -0.784342 0
M  V30 15005 C 1392.11 -2.10425 2.78428 0
M  V30 15006 C 1393.46 -2.69349 3.28232 0
M  V30 15007 O 1394.48 -2.20686 2.796 0
M  V30 15008 O 1393.34 -3.57956 4.12953 0
M  V30 15009 H 1390.43 -0.568044 0.601045 0
M  V30 15010 H 1392.98 -0.506648 1.6196 0
M  V30 15011 H 1391.75 -1.48108 3.62187 0
M  V30 15012 H 1391.37 -2.92374 2.6945 0
M  V30 15013 N 1392.37 -1.38898 -0.744656 0
M  V30 15014 C 1393.65 -1.2611 -1.49518 0
M  V30 15015 C 1394.03 0.133592 -2.10677 0
M  V30 15016 O 1393.38 1.14394 -1.97804 0
M  V30 15017 C 1393.59 -2.37809 -2.55437 0
M  V30 15018 C 1394.93 -2.76664 -3.22091 0
M  V30 15019 O 1395.96 -2.37187 -2.65746 0
M  V30 15020 O 1394.82 -3.44771 -4.24023 0
M  V30 15021 H 1391.91 -0.493664 -0.663494 0
M  V30 15022 H 1394.46 -1.50748 -0.779304 0
M  V30 15023 H 1393.23 -3.31089 -2.08556 0
M  V30 15024 H 1392.85 -2.14783 -3.34595 0
M  V30 15025 N 1393.85 0.973806 -1.23914 0
M  V30 15026 C 1394.76 2.10138 -1.04304 0
M  V30 15027 C 1395.77 1.73994 0.0143888 0
M  V30 15028 O 1396.95 2.00572 -0.182481 0
M  V30 15029 C 1394.02 3.40673 -0.643639 0
M  V30 15030 C 1393.08 3.90802 -1.77686 0
M  V30 15031 C 1392.31 5.15108 -1.39642 0
M  V30 15032 O 1392.53 5.69695 -0.283546 0
M  V30 15033 O 1391.47 5.59468 -2.21988 0
M  V30 15034 H 1395.29 2.29574 -1.9882 0
M  V30 15035 H 1392.88 1.08524 -1.02679 0
M  V30 15036 H 1394.76 4.19178 -0.432145 0
M  V30 15037 H 1393.43 3.22551 0.272458 0
M  V30 15038 H 1392.34 3.13385 -2.04305 0
M  V30 15039 H 1393.67 4.1339 -2.67151 0
M  V30 15040 N 1395.33 1.05191 1.17357 0
M  V30 15041 C 1396.26 0.610878 2.20909 0
M  V30 15042 C 1397.27 -0.325369 1.59515 0
M  V30 15043 O 1398.46 -0.118104 1.78109 0
M  V30 15044 C 1395.56 -0.126086 3.38665 0
M  V30 15045 C 1394.73 0.820857 4.29629 0
M  V30 15046 C 1393.79 0.125154 5.26051 0
M  V30 15047 O 1392.82 0.759245 5.64114 0
M  V30 15048 N 1394.02 -1.13742 5.69248 0
M  V30 15049 H 1396.79 1.50158 2.5937 0
M  V30 15050 H 1394.35 0.933814 1.32256 0
M  V30 15051 H 1396.34 -0.601627 4.00203 0
M  V30 15052 H 1394.91 -0.918459 2.98803 0
M  V30 15053 H 1394.13 1.47602 3.65523 0
M  V30 15054 H 1395.42 1.46363 4.87294 0
M  V30 15055 H 1394.81 -1.67291 5.40398 0
M  V30 15056 H 1393.37 -1.55703 6.3293 0
M  V30 15057 N 1396.8 -1.33791 0.83293 0
M  V30 15058 C 1397.75 -2.29332 0.25989 0
M  V30 15059 C 1398.72 -1.54056 -0.620965 0
M  V30 15060 O 1399.91 -1.82382 -0.560492 0
M  V30 15061 C 1397.05 -3.40461 -0.563964 0
M  V30 15062 C 1396.16 -4.30658 0.34025 0
M  V30 15063 C 1395.29 -5.28897 -0.494134 0
M  V30 15064 C 1394.33 -6.10733 0.408842 0
M  V30 15065 N 1393.47 -7.01032 -0.38706 0
M  V30 15066 H 1398.31 -2.77743 1.07996 0
M  V30 15067 H 1395.85 -1.3667 0.544043 0
M  V30 15068 H 1397.81 -4.03587 -1.05704 0
M  V30 15069 H 1396.44 -2.93258 -1.34905 0
M  V30 15070 H 1395.49 -3.68305 0.9516 0
M  V30 15071 H 1396.8 -4.87962 1.03415 0
M  V30 15072 H 1395.95 -5.97522 -1.05128 0
M  V30 15073 H 1394.69 -4.72155 -1.2215 0
M  V30 15074 H 1393.7 -5.41031 0.978046 0
M  V30 15075 H 1394.92 -6.69557 1.13448 0
M  V30 15076 H 1392.87 -6.46747 -1.09792 0
M  V30 15077 H 1392.79 -7.55592 0.248249 0
M  V30 15078 H 1394.05 -7.73973 -0.926631 0
M  V30 15079 N 1398.28 -0.588812 -1.46187 0
M  V30 15080 C 1399.69 -0.163897 -1.85979 0
M  V30 15081 C 1400.04 1.27458 -1.49161 0
M  V30 15082 O 1399.17 1.96365 -0.909372 0
M  V30 15083 C 1399.76 -0.29067 -3.37551 0
M  V30 15084 C 1398.32 0.0794165 -3.76316 0
M  V30 15085 C 1397.47 -0.623807 -2.70192 0
M  V30 15086 H 1400.42 -0.79666 -1.37255 0
M  V30 15087 H 1400.44 0.482316 -3.77431 0
M  V30 15088 H 1399.95 -1.33771 -3.64317 0
M  V30 15089 H 1398.06 1.12636 -3.55168 0
M  V30 15090 H 1398.17 -0.301153 -4.78153 0
M  V30 15091 H 1396.53 -0.0634124 -2.54621 0
M  V30 15092 H 1397.32 -1.67261 -2.99797 0
M  V30 15093 N 1399.76 1.54172 -0.326923 0
M  V30 15094 C 1400.69 2.27402 0.530154 0
M  V30 15095 C 1401.67 1.28325 1.11655 0
M  V30 15096 O 1402.86 1.57142 1.14105 0
M  V30 15097 C 1399.99 3.03435 1.68951 0
M  V30 15098 C 1398.94 4.09877 1.23226 0
M  V30 15099 C 1398.27 4.7377 2.47882 0
M  V30 15100 C 1399.57 5.21161 0.344698 0
M  V30 15101 H 1401.26 2.99291 -0.0806959 0
M  V30 15102 H 1398.81 1.43944 -0.0402511 0
M  V30 15103 H 1400.76 3.53396 2.29541 0
M  V30 15104 H 1399.48 2.29169 2.327 0
M  V30 15105 H 1398.14 3.60805 0.649267 0
M  V30 15106 H 1397.79 3.96116 3.10002 0
M  V30 15107 H 1397.49 5.45674 2.17977 0
M  V30 15108 H 1399.01 5.26507 3.09229 0
M  V30 15109 H 1400.43 5.66859 0.856979 0
M  V30 15110 H 1398.83 5.99941 0.138276 0
M  V30 15111 H 1399.9 4.80874 -0.623575 0
M  V30 15112 N 1401.24 0.0551678 1.57503 0
M  V30 15113 C 1402.49 -0.61772 1.92848 0
M  V30 15114 C 1402.81 -1.70614 0.933862 0
M  V30 15115 O 1402.07 -1.95628 -0.0532073 0
M  V30 15116 C 1402.37 -1.24895 3.34867 0
M  V30 15117 C 1402.03 -0.288325 4.49977 0
M  V30 15118 C 1400.7 -0.0240016 4.81194 0
M  V30 15119 C 1403.05 0.369804 5.19886 0
M  V30 15120 C 1400.38 0.905818 5.79665 0
M  V30 15121 C 1402.73 1.28784 6.19352 0
M  V30 15122 C 1401.39 1.5608 6.48996 0
M  V30 15123 H 1400.66 -0.22604 0.705682 0
M  V30 15124 H 1403.31 0.1225 1.91108 0
M  V30 15125 H 1401.61 -2.06452 3.32993 0
M  V30 15126 H 1403.31 -1.77659 3.59497 0
M  V30 15127 H 1399.9 -0.504524 4.2562 0
M  V30 15128 H 1404.08 0.178689 4.95978 0
M  V30 15129 H 1399.34 1.12472 6.00966 0
M  V30 15130 H 1403.51 1.80385 6.72632 0
M  V30 15131 H 1401.14 2.28292 7.25112 0
M  V30 15132 N 1402.72 -1.56081 -0.218252 0
M  V30 15133 C 1403.94 -1.83681 -0.963119 0
M  V30 15134 C 1404.37 -0.635909 -1.77025 0
M  V30 15135 O 1403.72 0.415327 -1.76479 0
M  V30 15136 C 1403.77 -3.09302 -1.85376 0
M  V30 15137 O 1402.88 -2.88228 -2.94955 0
M  V30 15138 H 1402.22 -0.605495 -0.272529 0
M  V30 15139 H 1404.75 -2.03297 -0.230567 0
M  V30 15140 H 1404.76 -3.39493 -2.26294 0
M  V30 15141 H 1403.43 -3.96337 -1.26054 0
M  V30 15142 H 1402.01 -2.69279 -2.57959 0
M  V30 15143 N 1404.2 0.485086 -1.49949 0
M  V30 15144 C 1405.44 1.23571 -1.5992 0
M  V30 15145 C 1405.76 1.92754 -0.295108 0
M  V30 15146 O 1405.03 1.83474 0.686582 0
M  V30 15147 H 1403.61 0.459104 -0.589264 0
M  V30 15148 H 1406.28 0.560822 -1.86657 0
M  V30 15149 H 1405.37 1.99114 -2.40333 0
M  V30 15150 N 1405.67 1.39291 0.737279 0
M  V30 15151 C 1406.92 1.35702 1.49224 0
M  V30 15152 C 1407.24 -0.0450282 1.95548 0
M  V30 15153 O 1408.44 -0.203495 2.70736 0
M  V30 15154 C 1406.9 2.38387 2.69629 0
M  V30 15155 C 1406.51 3.84295 2.30263 0
M  V30 15156 C 1408.25 2.4387 3.47459 0
M  V30 15157 C 1406.16 4.78626 3.47377 0
M  V30 15158 H 1405.09 0.50449 0.560362 0
M  V30 15159 H 1407.74 1.64926 0.804466 0
M  V30 15160 H 1406.12 2.0223 3.40469 0
M  V30 15161 H 1407.29 4.2948 1.66984 0
M  V30 15162 H 1405.61 3.82085 1.6553 0
M  V30 15163 H 1408.21 3.11539 4.34566 0
M  V30 15164 H 1408.55 1.46253 3.89764 0
M  V30 15165 H 1409.08 2.78908 2.83646 0
M  V30 15166 H 1405.82 5.77497 3.10124 0
M  V30 15167 H 1405.34 4.38123 4.09645 0
M  V30 15168 H 1407.02 4.9742 4.13742 0
M  V30 15169 N 1407.15 -0.967221 1.24429 0
M  V30 15170 C 1408.4 -1.71279 1.08588 0
M  V30 15171 C 1408.73 -1.90558 -0.374325 0
M  V30 15172 O 1408.01 -1.46742 -1.27659 0
M  V30 15173 C 1408.29 -3.10326 1.82674 0
M  V30 15174 C 1408.14 -2.98535 3.36447 0
M  V30 15175 C 1409.46 -4.09993 1.59981 0
M  V30 15176 H 1406.58 -0.621658 0.395867 0
M  V30 15177 H 1409.22 -1.12514 1.53103 0
M  V30 15178 H 1407.37 -3.60492 1.44836 0
M  V30 15179 H 1409.04 -2.55791 3.83886 0
M  V30 15180 H 1407.29 -2.34736 3.64803 0
M  V30 15181 H 1407.96 -3.97041 3.83487 0
M  V30 15182 H 1410.43 -3.68687 1.92897 0
M  V30 15183 H 1409.31 -5.05349 2.14274 0
M  V30 15184 H 1409.57 -4.38812 0.538173 0
M  V30 15185 N 1408.63 -1.05812 -1.16797 0
M  V30 15186 C 1409.91 -0.685551 -1.83193 0
M  V30 15187 C 1410.29 0.833539 -1.93947 0
M  V30 15188 O 1409.63 1.74193 -1.47882 0
M  V30 15189 C 1409.84 -1.38183 -3.20479 0
M  V30 15190 C 1411.19 -1.52389 -3.96311 0
M  V30 15191 O 1412.22 -1.34134 -3.2998 0
M  V30 15192 O 1411.08 -1.82297 -5.15199 0
M  V30 15193 H 1408.17 -0.242095 -0.790771 0
M  V30 15194 H 1410.72 -1.15809 -1.24041 0
M  V30 15195 H 1409.49 -2.41791 -3.07657 0
M  V30 15196 H 1409.11 -0.899043 -3.87302 0
M  V30 15197 N 1410.11 1.33347 -0.840014 0
M  V30 15198 C 1411.33 2.02485 -0.448856 0
M  V30 15199 C 1411.76 1.62781 0.942543 0
M  V30 15200 O 1411.12 0.82099 1.61646 0
M  V30 15201 C 1411.16 3.55928 -0.578582 0
M  V30 15202 O 1410.27 4.10507 0.394695 0
M  V30 15203 H 1409.61 0.63848 -0.182317 0
M  V30 15204 H 1412.14 1.70221 -1.13516 0
M  V30 15205 H 1412.15 4.05391 -0.460653 0
M  V30 15206 H 1410.82 3.8417 -1.5933 0
M  V30 15207 H 1409.4 3.72164 0.234227 0
M  V30 15208 N 1411.59 0.596556 1.45873 0
M  V30 15209 C 1412.81 0.0916466 2.07197 0
M  V30 15210 C 1413.24 -1.21004 1.44012 0
M  V30 15211 O 1412.59 -1.73415 0.528844 0
M  V30 15212 C 1412.64 -0.0461457 3.6057 0
M  V30 15213 O 1411.75 -1.09919 3.97481 0
M  V30 15214 H 1411.09 0.0690655 0.660398 0
M  V30 15215 H 1413.62 0.823434 1.87299 0
M  V30 15216 H 1413.63 -0.2479 4.07246 0
M  V30 15217 H 1412.3 0.904381 4.05948 0
M  V30 15218 H 1410.88 -0.874788 3.62494 0
M  V30 15219 N 1413.06 -1.53996 0.335095 0
M  V30 15220 C 1414.47 -1.86092 -0.15058 0
M  V30 15221 C 1414.83 -1.25652 -1.50685 0
M  V30 15222 O 1413.95 -0.566887 -2.08843 0
M  V30 15223 C 1414.55 -3.37641 -0.280007 0
M  V30 15224 C 1413.1 -3.69645 -0.709907 0
M  V30 15225 C 1412.25 -2.7683 0.161461 0
M  V30 15226 H 1415.2 -1.4868 0.554986 0
M  V30 15227 H 1415.22 -3.63981 -1.10896 0
M  V30 15228 H 1414.74 -3.81601 0.707254 0
M  V30 15229 H 1412.84 -3.31224 -1.7065 0
M  V30 15230 H 1412.95 -4.76424 -0.505661 0
M  V30 15231 H 1411.31 -2.52073 -0.364849 0
M  V30 15232 H 1412.1 -3.23618 1.1457 0
M  V30 15233 N 1414.54 -0.0635198 -1.57472 0
M  V30 15234 C 1415.79 0.606285 -1.92792 0
M  V30 15235 C 1416.11 1.70648 -0.943615 0
M  V30 15236 O 1415.38 1.95898 0.00957612 0
M  V30 15237 H 1413.96 0.226943 -0.711692 0
M  V30 15238 H 1416.62 -0.119429 -1.94534 0
M  V30 15239 H 1415.72 1.03694 -2.9437 0
M  V30 15240 N 1416.02 1.56195 0.209972 0
M  V30 15241 C 1417.27 1.78941 0.930744 0
M  V30 15242 C 1417.58 0.634139 1.85035 0
M  V30 15243 O 1418.79 0.745524 2.61064 0
M  V30 15244 C 1417.24 3.16935 1.70529 0
M  V30 15245 C 1416.85 4.40221 0.83125 0
M  V30 15246 C 1418.6 3.49 2.41659 0
M  V30 15247 C 1416.5 5.69238 1.60381 0
M  V30 15248 H 1415.43 0.667176 0.351273 0
M  V30 15249 H 1418.08 1.82572 0.184341 0
M  V30 15250 H 1416.47 3.07513 2.49503 0
M  V30 15251 H 1417.64 4.60728 0.081227 0
M  V30 15252 H 1415.95 4.15756 0.231517 0
M  V30 15253 H 1418.55 4.42623 2.99982 0
M  V30 15254 H 1418.89 2.72042 3.15117 0
M  V30 15255 H 1419.43 3.59804 1.69665 0
M  V30 15256 H 1416.17 6.49121 0.912292 0
M  V30 15257 H 1415.69 5.52772 2.32815 0
M  V30 15258 H 1417.37 6.09827 2.16149 0
M  V30 15259 N 1417.5 -0.477127 1.50204 0
M  V30 15260 C 1418.75 -1.22722 1.60573 0
M  V30 15261 C 1419.07 -1.92595 0.305326 0
M  V30 15262 O 1418.34 -1.83836 -0.676842 0
M  V30 15263 H 1416.92 -0.455973 0.591691 0
M  V30 15264 H 1419.58 -0.550915 1.86952 0
M  V30 15265 H 1418.67 -1.97837 2.41385 0
M  V30 15266 N 1418.98 -1.3968 -0.729882 0
M  V30 15267 C 1419.92 -1.38808 -1.84393 0
M  V30 15268 C 1420.89 -0.247035 -1.64253 0
M  V30 15269 O 1422.08 -0.44293 -1.85588 0
M  V30 15270 C 1419.22 -1.2424 -3.2196 0
M  V30 15271 C 1418.33 -2.47932 -3.53771 0
M  V30 15272 C 1417.47 -2.25913 -4.80767 0
M  V30 15273 C 1416.51 -3.45254 -5.05436 0
M  V30 15274 N 1415.64 -3.2252 -6.23638 0
M  V30 15275 H 1420.48 -2.34038 -1.84473 0
M  V30 15276 H 1418.02 -1.16252 -0.901332 0
M  V30 15277 H 1419.98 -1.13804 -4.01378 0
M  V30 15278 H 1418.61 -0.326375 -3.21146 0
M  V30 15279 H 1417.66 -2.68952 -2.69015 0
M  V30 15280 H 1418.97 -3.36806 -3.67917 0
M  V30 15281 H 1418.13 -2.12748 -5.68175 0
M  V30 15282 H 1416.86 -1.34441 -4.68804 0
M  V30 15283 H 1415.87 -3.58912 -4.16488 0
M  V30 15284 H 1417.09 -4.37634 -5.19282 0
M  V30 15285 H 1415.04 -2.33718 -6.12953 0
M  V30 15286 H 1414.96 -4.04954 -6.38395 0
M  V30 15287 H 1416.23 -3.1306 -7.13872 0
M  V30 15288 N 1420.45 0.960609 -1.2494 0
M  V30 15289 C 1421.42 2.03791 -1.04891 0
M  V30 15290 C 1422.42 1.608 -0.00375792 0
M  V30 15291 O 1423.61 1.72463 -0.24539 0
M  V30 15292 C 1420.74 3.35733 -0.591309 0
M  V30 15293 H 1421.93 2.2301 -2.00516 0
M  V30 15294 H 1419.49 1.13686 -1.07263 0
M  V30 15295 H 1420.22 3.22207 0.367816 0
M  V30 15296 H 1420.01 3.68283 -1.34574 0
M  V30 15297 H 1421.5 4.14921 -0.472283 0
M  V30 15298 N 1421.93 1.0643 1.16234 0
M  V30 15299 C 1423.16 0.802671 1.91238 0
M  V30 15300 C 1423.58 -0.637222 1.76978 0
M  V30 15301 O 1422.94 -1.44419 1.09603 0
M  V30 15302 C 1422.99 1.20389 3.3991 0
M  V30 15303 O 1422.09 0.343516 4.10967 0
M  V30 15304 H 1421.43 0.29323 0.595745 0
M  V30 15305 H 1423.96 1.42046 1.47255 0
M  V30 15306 H 1423.97 1.17604 3.90683 0
M  V30 15307 H 1422.65 2.2527 3.49608 0
M  V30 15308 H 1421.23 0.433051 3.70377 0
M  V30 15309 N 1423.41 -1.329 0.847073 0
M  V30 15310 C 1424.66 -1.9712 0.445872 0
M  V30 15311 C 1424.98 -1.67398 -1.00014 0
M  V30 15312 O 1424.25 -0.977204 -1.69787 0
M  V30 15313 H 1422.83 -0.729247 0.161887 0
M  V30 15314 H 1425.49 -1.62118 1.08184 0
M  V30 15315 H 1424.59 -3.06575 0.584676 0
M  V30 15316 N 1424.89 -0.604284 -1.45555 0
M  V30 15317 C 1425.82 0.103859 -2.33269 0
M  V30 15318 C 1426.8 0.862104 -1.46635 0
M  V30 15319 O 1427.98 0.833308 -1.75413 0
M  V30 15320 C 1425.11 1.104 -3.29286 0
M  V30 15321 C 1424.07 0.459189 -4.2553 0
M  V30 15322 C 1423.39 1.56734 -5.11213 0
M  V30 15323 C 1424.69 -0.617509 -5.18637 0
M  V30 15324 H 1426.39 -0.628538 -2.92728 0
M  V30 15325 H 1423.93 -0.303711 -1.40761 0
M  V30 15326 H 1425.89 1.60794 -3.89517 0
M  V30 15327 H 1424.61 1.86695 -2.67979 0
M  V30 15328 H 1423.27 -0.0238508 -3.66592 0
M  V30 15329 H 1422.92 2.32049 -4.46276 0
M  V30 15330 H 1422.62 1.14142 -5.76407 0
M  V30 15331 H 1424.14 2.07361 -5.74312 0
M  V30 15332 H 1425.56 -0.197784 -5.72959 0
M  V30 15333 H 1423.95 -0.96499 -5.9229 0
M  V30 15334 H 1425.02 -1.49541 -4.61265 0
M  V30 15335 N 1426.37 1.53816 -0.343257 0
M  V30 15336 C 1427.64 1.9315 0.308609 0
M  V30 15337 C 1428.02 1.27479 1.68263 0
M  V30 15338 O 1427.37 0.425614 2.24501 0
M  V30 15339 C 1427.58 3.46912 0.381176 0
M  V30 15340 C 1428.93 4.19868 0.632153 0
M  V30 15341 O 1429.95 3.53174 0.463303 0
M  V30 15342 O 1428.81 5.38016 0.959237 0
M  V30 15343 H 1425.91 0.807169 0.180022 0
M  V30 15344 H 1428.45 1.65053 -0.394412 0
M  V30 15345 H 1427.22 3.86932 -0.583058 0
M  V30 15346 H 1426.85 3.81175 1.13099 0
M  V30 15347 N 1427.84 0.0718701 1.57436 0
M  V30 15348 C 1429.09 -0.597231 1.93493 0
M  V30 15349 C 1429.42 -1.69614 0.951906 0
M  V30 15350 O 1428.67 -1.95673 -0.0324554 0
M  V30 15351 C 1428.97 -1.21336 3.36173 0
M  V30 15352 C 1428.64 -0.240582 4.50258 0
M  V30 15353 C 1427.3 0.0270368 4.81192 0
M  V30 15354 C 1429.65 0.424924 5.19465 0
M  V30 15355 C 1426.98 0.967249 5.78672 0
M  V30 15356 C 1429.33 1.35346 6.17952 0
M  V30 15357 C 1428 1.62954 6.47304 0
M  V30 15358 H 1427.27 -0.218542 0.70804 0
M  V30 15359 H 1429.91 0.142762 1.90967 0
M  V30 15360 H 1428.22 -2.02909 3.35164 0
M  V30 15361 H 1429.92 -1.73836 3.61361 0
M  V30 15362 H 1426.51 -0.459352 4.26131 0
M  V30 15363 H 1430.69 0.231285 4.95761 0
M  V30 15364 H 1425.95 1.1884 5.99739 0
M  V30 15365 H 1430.12 1.87509 6.70681 0
M  V30 15366 H 1427.75 2.3597 7.2265 0
M  V30 15367 N 1429.32 -1.56304 -0.201686 0
M  V30 15368 C 1430.23 -1.97215 -1.27057 0
M  V30 15369 C 1431.25 -0.878834 -1.50175 0
M  V30 15370 O 1432.42 -1.18405 -1.62918 0
M  V30 15371 C 1429.49 -2.29772 -2.59626 0
M  V30 15372 C 1428.55 -3.52776 -2.44637 0
M  V30 15373 C 1427.78 -3.83771 -3.70885 0
M  V30 15374 O 1428.01 -3.16149 -4.7477 0
M  V30 15375 O 1426.94 -4.77216 -3.66808 0
M  V30 15376 H 1430.77 -2.88347 -0.953393 0
M  V30 15377 H 1428.35 -1.43773 -0.406158 0
M  V30 15378 H 1430.23 -2.51817 -3.37885 0
M  V30 15379 H 1428.91 -1.41809 -2.90984 0
M  V30 15380 H 1427.82 -3.35986 -1.64512 0
M  V30 15381 H 1429.15 -4.41184 -2.18214 0
M  V30 15382 N 1430.8 0.469154 -1.50455 0
M  V30 15383 C 1431.71 1.59271 -1.7225 0
M  V30 15384 C 1432.73 1.63119 -0.605668 0
M  V30 15385 O 1433.9 1.80952 -0.884222 0
M  V30 15386 C 1430.97 2.95475 -1.81372 0
M  V30 15387 C 1430.03 3.02 -3.05114 0
M  V30 15388 C 1429.26 4.31707 -3.13791 0
M  V30 15389 O 1429.48 5.2232 -2.29211 0
M  V30 15390 O 1428.42 4.43864 -4.06532 0
M  V30 15391 H 1432.24 1.43804 -2.67496 0
M  V30 15392 H 1429.83 0.648855 -1.34574 0
M  V30 15393 H 1431.71 3.76367 -1.89541 0
M  V30 15394 H 1430.39 3.11136 -0.893094 0
M  V30 15395 H 1429.29 2.20178 -3.02444 0
M  V30 15396 H 1430.63 2.91275 -3.96761 0
M  V30 15397 N 1432.28 1.40065 0.722464 0
M  V30 15398 C 1433.51 1.41271 1.51163 0
M  V30 15399 C 1433.92 0.0105425 1.88797 0
M  V30 15400 O 1433.28 -0.963867 1.5497 0
M  V30 15401 C 1433.33 2.29713 2.79131 0
M  V30 15402 O 1433.05 3.6447 2.43091 0
M  V30 15403 C 1434.55 2.39437 3.73075 0
M  V30 15404 H 1431.77 0.482086 0.466727 0
M  V30 15405 H 1434.32 1.84033 0.891736 0
M  V30 15406 H 1432.47 1.9033 3.37421 0
M  V30 15407 H 1432.88 4.11371 3.25383 0
M  V30 15408 H 1434.36 3.05543 4.59726 0
M  V30 15409 H 1434.84 1.41731 4.15703 0
M  V30 15410 H 1435.44 2.79342 3.20699 0
M  V30 15411 N 1433.76 -0.95397 1.25448 0
M  V30 15412 C 1435 -1.70118 1.10399 0
M  V30 15413 C 1435.34 -1.90945 -0.354093 0
M  V30 15414 O 1434.61 -1.48088 -1.26096 0
M  V30 15415 C 1434.89 -3.08371 1.85955 0
M  V30 15416 C 1434.75 -2.9495 3.39595 0
M  V30 15417 C 1436.07 -4.08273 1.64321 0
M  V30 15418 H 1433.19 -0.617424 0.402438 0
M  V30 15419 H 1435.83 -1.10884 1.54288 0
M  V30 15420 H 1433.98 -3.58936 1.48651 0
M  V30 15421 H 1435.65 -2.51705 3.86578 0
M  V30 15422 H 1433.89 -2.30853 3.67273 0
M  V30 15423 H 1434.56 -3.92952 3.87676 0
M  V30 15424 H 1437.04 -3.6662 1.96796 0
M  V30 15425 H 1435.92 -5.03048 2.19622 0
M  V30 15426 H 1436.18 -4.38217 0.584685 0
M  V30 15427 N 1435.24 -1.07045 -1.15668 0
M  V30 15428 C 1436.65 -0.814932 -1.67975 0
M  V30 15429 C 1437 0.660408 -1.84751 0
M  V30 15430 O 1436.12 1.51156 -1.54857 0
M  V30 15431 C 1436.72 -1.47274 -3.05116 0
M  V30 15432 C 1435.28 -1.26481 -3.54513 0
M  V30 15433 C 1434.42 -1.54439 -2.30312 0
M  V30 15434 H 1437.37 -1.23291 -0.999251 0
M  V30 15435 H 1437.4 -0.892244 -3.69891 0
M  V30 15436 H 1436.91 -2.54649 -2.92874 0
M  V30 15437 H 1435.01 -0.211138 -3.72001 0
M  V30 15438 H 1435.12 -1.98283 -4.36143 0
M  V30 15439 H 1433.49 -0.965269 -2.357 0
M  V30 15440 H 1434.27 -2.6299 -2.20661 0
M  V30 15441 N 1436.71 1.32449 -0.85411 0
M  V30 15442 C 1437.94 2.01463 -0.471188 0
M  V30 15443 C 1438.36 1.64195 0.931954 0
M  V30 15444 O 1437.71 0.862994 1.60806 0
M  V30 15445 C 1437.76 3.56486 -0.600022 0
M  V30 15446 O 1437.49 3.92414 -1.94789 0
M  V30 15447 C 1438.99 4.42773 -0.216036 0
M  V30 15448 H 1436.21 0.644914 -0.185275 0
M  V30 15449 H 1438.75 1.6904 -1.1509 0
M  V30 15450 H 1436.91 3.87387 0.0319488 0
M  V30 15451 H 1437.32 4.87133 -1.94427 0
M  V30 15452 H 1438.79 5.50843 -0.357186 0
M  V30 15453 H 1439.27 4.31025 0.843468 0
M  V30 15454 H 1439.88 4.1726 -0.823058 0
M  V30 15455 N 1438.19 0.611994 1.45232 0
M  V30 15456 C 1439.42 0.113618 2.07089 0
M  V30 15457 C 1439.84 -1.1947 1.45288 0
M  V30 15458 O 1439.2 -1.72845 0.547207 0
M  V30 15459 C 1439.25 -0.00789978 3.60599 0
M  V30 15460 O 1438.35 -1.05697 3.98625 0
M  V30 15461 H 1437.69 0.076066 0.659629 0
M  V30 15462 H 1440.22 0.843253 1.86415 0
M  V30 15463 H 1440.23 -0.204692 4.07486 0
M  V30 15464 H 1438.91 0.947386 4.04966 0
M  V30 15465 H 1437.48 -0.836291 3.63401 0
M  V30 15466 N 1439.67 -1.53632 0.351409 0
M  V30 15467 C 1440.92 -2.00643 -0.242208 0
M  V30 15468 C 1441.24 -1.24074 -1.50435 0
M  V30 15469 O 1440.51 -0.350067 -1.92747 0
M  V30 15470 H 1439.09 -0.741252 -0.0924904 0
M  V30 15471 H 1441.75 -1.89039 0.474379 0
M  V30 15472 H 1440.85 -3.084 -0.479151 0
M  V30 15473 N 1441.15 -0.0802183 -1.57396 0
M  V30 15474 C 1442.56 0.276428 -1.57188 0
M  V30 15475 C 1442.76 1.69456 -1.09027 0
M  V30 15476 O 1441.82 2.40792 -0.75997 0
M  V30 15477 C 1443.13 0.0784079 -3.00598 0
M  V30 15478 C 1444.68 0.1473 -3.12653 0
M  V30 15479 C 1445.16 -0.0225423 -4.57994 0
M  V30 15480 N 1446.65 0.0327854 -4.63188 0
M  V30 15481 C 1447.38 -0.0740922 -5.73352 0
M  V30 15482 N 1446.88 -0.234966 -6.92401 0
M  V30 15483 N 1448.67 -0.0164241 -5.62098 0
M  V30 15484 H 1440.82 -1.00695 -1.87014 0
M  V30 15485 H 1443.08 -0.393402 -0.862519 0
M  V30 15486 H 1442.79 -0.900488 -3.39977 0
M  V30 15487 H 1442.66 0.82713 -3.6802 0
M  V30 15488 H 1445.05 1.11669 -2.73156 0
M  V30 15489 H 1445.13 -0.632666 -2.47853 0
M  V30 15490 H 1444.78 -0.988733 -4.98183 0
M  V30 15491 H 1444.71 0.776933 -5.20837 0
M  V30 15492 H 1447.2 0.15519 -3.77581 0
M  V30 15493 H 1447.51 -0.308435 -7.72184 0
M  V30 15494 H 1445.86 -0.270439 -6.94474 0
M  V30 15495 H 1449.05 0.108019 -4.67975 0
M  V30 15496 H 1449.22 -0.10317 -6.47918 0
M  V30 15497 N 1442.63 1.56409 0.193394 0
M  V30 15498 C 1443.56 1.89745 1.26776 0
M  V30 15499 C 1444.54 0.75773 1.43865 0
M  V30 15500 O 1445.72 1.0089 1.59228 0
M  V30 15501 C 1442.85 2.12913 2.63412 0
M  V30 15502 C 1441.89 3.35614 2.63183 0
M  V30 15503 S 1442.73 4.90686 2.14448 0
M  V30 15504 C 1443.88 5.16923 3.52904 0
M  V30 15505 H 1444.12 2.80575 0.983105 0
M  V30 15506 H 1441.65 1.4921 0.396965 0
M  V30 15507 H 1443.61 2.26943 3.42063 0
M  V30 15508 H 1442.27 1.2283 2.89088 0
M  V30 15509 H 1441.46 3.48957 3.63655 0
M  V30 15510 H 1441.06 3.20586 1.92615 0
M  V30 15511 H 1443.35 5.07548 4.48778 0
M  V30 15512 H 1444.3 6.18673 3.44455 0
M  V30 15513 H 1444.71 4.44555 3.47895 0
M  V30 15514 N 1444.1 -0.461169 1.50702 0
M  V30 15515 C 1445.05 -1.55575 1.66675 0
M  V30 15516 C 1446.04 -1.52227 0.521128 0
M  V30 15517 O 1447.23 -1.59083 0.775989 0
M  V30 15518 C 1444.36 -2.93951 1.77336 0
M  V30 15519 C 1443.44 -3.02145 2.97606 0
M  V30 15520 N 1443.84 -2.80131 4.21142 0
M  V30 15521 C 1442.13 -3.33289 2.96369 0
M  V30 15522 C 1442.83 -2.93549 5.02199 0
M  V30 15523 N 1441.81 -3.24184 4.36355 0
M  V30 15524 H 1445.61 -1.3727 2.59874 0
M  V30 15525 H 1443.13 -0.668078 1.48022 0
M  V30 15526 H 1445.12 -3.72666 1.86884 0
M  V30 15527 H 1443.78 -3.13295 0.853023 0
M  V30 15528 H 1444.79 -2.55519 4.50478 0
M  V30 15529 H 1441.47 -3.58558 2.13875 0
M  V30 15530 H 1442.86 -2.80685 6.10463 0
M  V30 15531 N 1445.58 -1.40446 -0.715026 0
M  V30 15532 C 1446.83 -1.38059 -1.47046 0
M  V30 15533 C 1447.14 0.0139125 -1.95595 0
M  V30 15534 O 1448.35 0.160398 -2.71026 0
M  V30 15535 C 1446.81 -2.42646 -2.65802 0
M  V30 15536 C 1446.41 -3.8791 -2.2412 0
M  V30 15537 C 1448.16 -2.49367 -3.43535 0
M  V30 15538 C 1446.06 -4.84092 -3.39719 0
M  V30 15539 H 1444.99 -0.513341 -0.552265 0
M  V30 15540 H 1447.65 -1.66185 -0.778126 0
M  V30 15541 H 1446.03 -2.07621 -3.37208 0
M  V30 15542 H 1447.2 -4.32082 -1.6013 0
M  V30 15543 H 1445.52 -3.8467 -1.5943 0
M  V30 15544 H 1448.11 -3.18414 -4.29554 0
M  V30 15545 H 1448.46 -1.52436 -3.87388 0
M  V30 15546 H 1448.99 -2.83386 -2.79173 0
M  V30 15547 H 1445.73 -5.82358 -3.00898 0
M  V30 15548 H 1445.25 -4.44584 -4.02623 0
M  V30 15549 H 1446.93 -5.03939 -4.05776 0
M  V30 15550 N 1447.06 0.947303 -1.25952 0
M  V30 15551 C 1448.34 1.66964 -1.01894 0
M  V30 15552 C 1448.72 2.06192 0.452555 0
M  V30 15553 O 1448.06 1.78098 1.43156 0
M  V30 15554 C 1448.27 2.88643 -1.96179 0
M  V30 15555 C 1449.62 3.60432 -2.24441 0
M  V30 15556 O 1450.65 2.98737 -1.93996 0
M  V30 15557 O 1449.51 4.7154 -2.76247 0
M  V30 15558 H 1446.6 0.730875 -0.386976 0
M  V30 15559 H 1449.15 0.999577 -1.37137 0
M  V30 15560 H 1447.92 2.565 -2.95506 0
M  V30 15561 H 1447.54 3.63377 -1.61379 0
M  V30 15562 N 1448.54 1.07657 1.15099 0
M  V30 15563 C 1449.49 0.699678 2.19939 0
M  V30 15564 C 1450.46 -0.310432 1.63173 0
M  V30 15565 O 1451.64 -0.196177 1.89789 0
M  V30 15566 C 1448.78 0.106963 3.44934 0
M  V30 15567 C 1447.89 1.16892 4.15885 0
M  V30 15568 C 1447.03 0.540884 5.28439 0
M  V30 15569 C 1446.07 1.58542 5.91211 0
M  V30 15570 N 1445.2 0.979731 6.95231 0
M  V30 15571 H 1450.04 1.59805 2.51528 0
M  V30 15572 H 1447.58 0.798746 1.23525 0
M  V30 15573 H 1449.54 -0.254335 4.16424 0
M  V30 15574 H 1448.17 -0.754756 3.13852 0
M  V30 15575 H 1447.22 1.64775 3.4286 0
M  V30 15576 H 1448.53 1.96078 4.58645 0
M  V30 15577 H 1447.69 0.127397 6.06566 0
M  V30 15578 H 1446.43 -0.282708 4.8688 0
M  V30 15579 H 1445.43 2.00865 5.11794 0
M  V30 15580 H 1446.66 2.41135 6.34847 0
M  V30 15581 H 1444.6 0.177098 6.55761 0
M  V30 15582 H 1444.52 1.70878 7.36435 0
M  V30 15583 H 1445.79 0.591849 7.7725 0
M  V30 15584 N 1450.02 -1.31994 0.861122 0
M  V30 15585 C 1451.43 -1.49756 0.551844 0
M  V30 15586 C 1451.63 -1.79473 -0.916056 0
M  V30 15587 O 1450.69 -1.86813 -1.69874 0
M  V30 15588 C 1452 -2.63737 1.44442 0
M  V30 15589 C 1453.55 -2.77621 1.44552 0
M  V30 15590 C 1454.02 -3.94689 2.32346 0
M  V30 15591 N 1455.52 -4.01961 2.30177 0
M  V30 15592 C 1456.25 -4.91794 2.94833 0
M  V30 15593 N 1455.75 -5.86589 3.68626 0
M  V30 15594 N 1457.54 -4.84968 2.84188 0
M  V30 15595 H 1449.69 -1.10972 1.81105 0
M  V30 15596 H 1451.95 -0.54753 0.773896 0
M  V30 15597 H 1451.66 -2.48526 2.48853 0
M  V30 15598 H 1451.53 -3.59671 1.13651 0
M  V30 15599 H 1453.92 -2.92251 0.409034 0
M  V30 15600 H 1454 -1.8238 1.79363 0
M  V30 15601 H 1453.65 -3.80817 3.36067 0
M  V30 15602 H 1453.58 -4.89219 1.94865 0
M  V30 15603 H 1456.07 -3.34132 1.76533 0
M  V30 15604 H 1456.38 -6.51846 4.15111 0
M  V30 15605 H 1454.72 -5.86596 3.72734 0
M  V30 15606 H 1457.92 -4.09883 2.26084 0
M  V30 15607 H 1458.09 -5.54774 3.34857 0
M  V30 15608 N 1451.49 -0.619688 -1.44906 0
M  V30 15609 C 1452.72 -0.124598 -2.07025 0
M  V30 15610 C 1453.14 1.18698 -1.45919 0
M  V30 15611 O 1452.5 1.72552 -0.556366 0
M  V30 15612 C 1452.55 -0.0112238 -3.60598 0
M  V30 15613 O 1451.65 1.03582 -3.9918 0
M  V30 15614 H 1451 -0.0795631 -0.659216 0
M  V30 15615 H 1453.53 -0.853127 -1.85965 0
M  V30 15616 H 1453.54 0.183079 -4.07589 0
M  V30 15617 H 1452.21 -0.968849 -4.04458 0
M  V30 15618 H 1450.79 0.817008 -3.6384 0
M  V30 15619 N 1452.97 1.53444 -0.359552 0
M  V30 15620 C 1453.92 2.22312 0.506084 0
M  V30 15621 C 1454.91 1.21618 1.05347 0
M  V30 15622 O 1456.1 1.47093 0.984511 0
M  V30 15623 C 1453.23 3.01137 1.64837 0
M  V30 15624 C 1452.31 4.09203 1.11416 0
M  V30 15625 N 1452.7 5.04895 0.302445 0
M  V30 15626 C 1451 4.23801 1.38954 0
M  V30 15627 C 1451.7 5.81699 0.0106517 0
M  V30 15628 N 1450.68 5.40204 0.606648 0
M  V30 15629 H 1454.48 2.93651 -0.120961 0
M  V30 15630 H 1452 1.61536 -0.167249 0
M  V30 15631 H 1453.99 3.48988 2.28063 0
M  V30 15632 H 1452.65 2.31328 2.27854 0
M  V30 15633 H 1453.66 5.17868 -0.0578423 0
M  V30 15634 H 1450.34 3.65217 2.02293 0
M  V30 15635 H 1451.73 6.68795 -0.645163 0
M  V30 15636 N 1454.45 0.0885642 1.57351 0
M  V30 15637 C 1455.68 -0.588641 1.98871 0
M  V30 15638 C 1456.1 -1.61333 0.967125 0
M  V30 15639 O 1455.46 -1.81183 -0.0652149 0
M  V30 15640 C 1455.51 -1.21877 3.39379 0
M  V30 15641 O 1454.61 -2.33462 3.39955 0
M  V30 15642 H 1453.95 -0.149938 0.64685 0
M  V30 15643 H 1456.48 0.168043 2.03909 0
M  V30 15644 H 1456.49 -1.56163 3.76931 0
M  V30 15645 H 1455.17 -0.468037 4.13258 0
M  V30 15646 H 1453.74 -2.00844 3.14191 0
M  V30 15647 N 1455.93 -1.56509 -0.185096 0
M  V30 15648 C 1457.17 -1.82997 -0.910576 0
M  V30 15649 C 1457.53 -0.667514 -1.80023 0
M  V30 15650 O 1458.73 -0.812514 -2.56226 0
M  V30 15651 C 1457 -3.14549 -1.69688 0
M  V30 15652 S 1458.56 -3.62474 -2.47301 0
M  V30 15653 H 1455.38 -0.642148 -0.305233 0
M  V30 15654 H 1457.98 -1.94731 -0.173217 0
M  V30 15655 H 1456.69 -3.97158 -1.0341 0
M  V30 15656 H 1456.22 -3.05719 -2.47587 0
M  V30 15657 H 1458.23 -3.28705 -3.71709 0
M  V30 15658 N 1457.41 0.45317 -1.50944 0
M  V30 15659 C 1458.35 1.54885 -1.71112 0
M  V30 15660 C 1459.32 1.56639 -0.552566 0
M  V30 15661 O 1460.51 1.73894 -0.785203 0
M  V30 15662 C 1457.65 2.92729 -1.82766 0
M  V30 15663 C 1456.76 3.00626 -3.10239 0
M  V30 15664 C 1455.9 4.29495 -3.12582 0
M  V30 15665 C 1454.94 4.312 -4.34434 0
M  V30 15666 N 1454.07 5.51568 -4.34415 0
M  V30 15667 H 1458.91 1.36992 -2.64645 0
M  V30 15668 H 1456.45 0.665753 -1.31172 0
M  V30 15669 H 1458.41 3.7269 -1.87505 0
M  V30 15670 H 1457.04 3.09216 -0.926561 0
M  V30 15671 H 1456.09 2.13426 -3.14886 0
M  V30 15672 H 1457.4 2.97746 -4.00186 0
M  V30 15673 H 1456.56 5.17817 -3.16149 0
M  V30 15674 H 1455.29 4.35009 -2.20496 0
M  V30 15675 H 1454.3 3.41272 -4.3106 0
M  V30 15676 H 1455.52 4.27363 -5.27767 0
M  V30 15677 H 1453.47 5.57834 -3.45192 0
M  V30 15678 H 1453.39 5.50504 -5.18152 0
M  V30 15679 H 1454.66 6.41966 -4.42153 0
M  V30 15680 N 1458.88 1.40823 0.707568 0
M  V30 15681 C 1460.16 1.3003 1.46122 0
M  V30 15682 C 1460.54 -0.0776873 2.10957 0
M  V30 15683 O 1459.89 -1.09109 2.00767 0
M  V30 15684 C 1460.1 2.44498 2.49042 0
M  V30 15685 C 1461.45 2.85106 3.14642 0
M  V30 15686 O 1462.47 2.44149 2.59364 0
M  V30 15687 O 1461.33 3.55892 4.14733 0
M  V30 15688 H 1458.42 0.511082 0.650172 0
M  V30 15689 H 1460.97 1.52761 0.739062 0
M  V30 15690 H 1459.74 3.36502 1.99705 0
M  V30 15691 H 1459.37 2.23579 3.28783 0
M  V30 15692 N 1460.36 -0.94061 1.26453 0
M  V30 15693 C 1461.61 -1.68132 1.1142 0
M  V30 15694 C 1461.92 -1.92587 -0.342006 0
M  V30 15695 O 1463.13 -2.64489 -0.613018 0
M  V30 15696 C 1461.59 -3.02758 1.94591 0
M  V30 15697 C 1461.19 -2.86049 3.4479 0
M  V30 15698 C 1462.94 -3.80516 1.88169 0
M  V30 15699 C 1460.85 -4.1615 4.20206 0
M  V30 15700 H 1459.78 -0.630591 0.413366 0
M  V30 15701 H 1462.43 -1.04602 1.50767 0
M  V30 15702 H 1460.81 -3.67272 1.48078 0
M  V30 15703 H 1461.98 -2.3038 3.99076 0
M  V30 15704 H 1460.3 -2.21732 3.52454 0
M  V30 15705 H 1462.89 -4.76904 2.41799 0
M  V30 15706 H 1463.24 -4.07477 0.852531 0
M  V30 15707 H 1463.77 -3.22776 2.32509 0
M  V30 15708 H 1460.51 -3.94373 5.23593 0
M  V30 15709 H 1460.03 -4.71531 3.707 0
M  V30 15710 H 1461.71 -4.84602 4.28684 0
M  V30 15711 N 1461.84 -1.08266 -1.14527 0
M  V30 15712 C 1463.07 -0.83288 -1.89396 0
M  V30 15713 C 1463.48 0.614823 -1.78509 0
M  V30 15714 O 1462.84 1.42239 -1.14343 0
M  V30 15715 C 1462.89 -1.244 -3.39421 0
M  V30 15716 O 1462.61 -2.63491 -3.50006 0
M  V30 15717 C 1464.11 -1.02488 -4.3129 0
M  V30 15718 H 1461.33 -0.300474 -0.599964 0
M  V30 15719 H 1463.88 -1.44155 -1.4505 0
M  V30 15720 H 1462.03 -0.679466 -3.81395 0
M  V30 15721 H 1462.45 -2.80517 -4.43182 0
M  V30 15722 H 1463.92 -1.36194 -5.34935 0
M  V30 15723 H 1464.4 0.0381961 -4.39183 0
M  V30 15724 H 1465 -1.57477 -3.95071 0
M  V30 15725 N 1463.32 1.31536 -0.86811 0
M  V30 15726 C 1464.6 1.9149 -0.398866 0
M  V30 15727 C 1464.98 1.79008 1.1189 0
M  V30 15728 O 1464.32 1.19659 1.94664 0
M  V30 15729 C 1464.53 3.37771 -0.878173 0
M  V30 15730 C 1465.88 4.14882 -0.903216 0
M  V30 15731 O 1466.91 3.46545 -0.823703 0
M  V30 15732 O 1465.77 5.36936 -1.01794 0
M  V30 15733 H 1462.86 0.818398 -0.118971 0
M  V30 15734 H 1465.41 1.40216 -0.955899 0
M  V30 15735 H 1464.18 3.40861 -1.9217 0
M  V30 15736 H 1463.8 3.96472 -0.299346 0
M  V30 15737 N 1464.8 0.627364 1.44575 0
M  V30 15738 C 1465.73 -0.129056 2.27835 0
M  V30 15739 C 1466.71 -0.854852 1.38315 0
M  V30 15740 O 1467.89 -0.859709 1.67754 0
M  V30 15741 C 1465.02 -1.18866 3.17157 0
M  V30 15742 C 1464.07 -0.563816 4.22757 0
M  V30 15743 S 1464.9 0.643269 5.31622 0
M  V30 15744 C 1466.05 -0.416443 6.24513 0
M  V30 15745 H 1466.29 0.577281 2.91641 0
M  V30 15746 H 1463.82 0.415427 1.48706 0
M  V30 15747 H 1465.78 -1.79508 3.69171 0
M  V30 15748 H 1464.44 -1.86717 2.52578 0
M  V30 15749 H 1463.63 -1.36173 4.85256 0
M  V30 15750 H 1463.23 -0.0321045 3.73986 0
M  V30 15751 H 1465.53 -1.29006 6.65104 0
M  V30 15752 H 1466.47 0.172871 7.07889 0
M  V30 15753 H 1466.88 -0.740651 5.5962 0
M  V30 15754 N 1466.28 -1.53251 0.367684 0
M  V30 15755 C 1467.69 -1.59591 0.0167132 0
M  V30 15756 C 1467.89 -1.38272 -1.46571 0
M  V30 15757 O 1466.95 -1.18893 -2.22757 0
M  V30 15758 C 1468.26 -2.96932 0.474534 0
M  V30 15759 C 1469.81 -3.10047 0.428934 0
M  V30 15760 C 1470.28 -4.49804 0.862599 0
M  V30 15761 N 1471.77 -4.55925 0.817742 0
M  V30 15762 C 1472.51 -5.62256 1.12496 0
M  V30 15763 N 1472.01 -6.76332 1.50156 0
M  V30 15764 N 1473.8 -5.52251 1.04762 0
M  V30 15765 H 1465.95 -1.6536 1.33303 0
M  V30 15766 H 1468.21 -0.775681 0.544998 0
M  V30 15767 H 1467.92 -3.17679 1.50907 0
M  V30 15768 H 1467.79 -3.76948 -0.137752 0
M  V30 15769 H 1470.18 -2.89009 -0.596473 0
M  V30 15770 H 1470.26 -2.32034 1.07674 0
M  V30 15771 H 1469.9 -4.7158 1.88613 0
M  V30 15772 H 1469.83 -5.2625 0.19202 0
M  V30 15773 H 1472.33 -3.74017 0.540323 0
M  V30 15774 H 1472.64 -7.53412 1.72019 0
M  V30 15775 H 1470.98 -6.77718 1.54024 0
M  V30 15776 H 1474.17 -4.62011 0.752571 0
M  V30 15777 H 1474.35 -6.35022 1.29038 0
M  V30 15778 N 1467.75 -0.0969077 -1.57302 0
M  V30 15779 C 1468.98 0.578086 -1.99181 0
M  V30 15780 C 1469.4 1.60818 -0.975667 0
M  V30 15781 O 1468.76 1.81215 0.0556054 0
M  V30 15782 C 1468.81 1.20076 -3.40021 0
M  V30 15783 O 1467.91 2.31656 -3.41188 0
M  V30 15784 H 1467.25 0.146506 -0.647636 0
M  V30 15785 H 1469.78 -0.178855 -2.03817 0
M  V30 15786 H 1469.79 1.54162 -3.77754 0
M  V30 15787 H 1468.47 0.446114 -4.135 0
M  V30 15788 H 1467.05 1.99175 -3.15252 0
M  V30 15789 N 1469.23 1.56605 0.176793 0
M  V30 15790 C 1470.48 1.82848 0.89097 0
M  V30 15791 C 1470.83 0.676661 1.80108 0
M  V30 15792 O 1470.13 -0.32721 1.88785 0
M  V30 15793 C 1470.32 3.12888 1.7273 0
M  V30 15794 C 1470.15 4.40609 0.899652 0
M  V30 15795 C 1468.92 5.01996 0.57688 0
M  V30 15796 C 1471.12 5.13722 0.243765 0
M  V30 15797 N 1469.1 6.13317 -0.267482 0
M  V30 15798 C 1470.47 6.18276 -0.461997 0
M  V30 15799 C 1472.52 4.97638 0.161367 0
M  V30 15800 C 1471.23 7.0849 -1.24233 0
M  V30 15801 C 1473.25 5.88291 -0.605623 0
M  V30 15802 C 1472.62 6.92304 -1.29977 0
M  V30 15803 H 1468.71 0.720143 0.304824 0
M  V30 15804 H 1471.3 1.94055 0.15834 0
M  V30 15805 H 1469.47 3.02883 2.43139 0
M  V30 15806 H 1471.2 3.27148 2.38236 0
M  V30 15807 H 1467.96 4.6486 0.905666 0
M  V30 15808 H 1468.38 6.73578 -0.679811 0
M  V30 15809 H 1473.02 4.17236 0.683677 0
M  V30 15810 H 1470.74 7.88342 -1.77601 0
M  V30 15811 H 1474.33 5.77918 -0.670976 0
M  V30 15812 H 1473.21 7.61239 -1.88375 0
M  V30 15813 N 1470.71 -0.445159 1.51182 0
M  V30 15814 C 1471.62 -1.5651 1.74762 0
M  V30 15815 C 1472.64 -1.62134 0.631542 0
M  V30 15816 O 1473.81 -1.79522 0.912898 0
M  V30 15817 C 1470.88 -2.92552 1.86049 0
M  V30 15818 C 1469.94 -2.97108 3.0988 0
M  V30 15819 C 1469.17 -4.2666 3.2062 0
M  V30 15820 O 1469.39 -5.18608 2.37491 0
M  V30 15821 O 1468.33 -4.3734 4.13542 0
M  V30 15822 H 1472.15 -1.3953 2.6975 0
M  V30 15823 H 1469.74 -0.627363 1.3559 0
M  V30 15824 H 1471.62 -3.73304 1.95504 0
M  V30 15825 H 1470.3 -3.09676 0.94248 0
M  V30 15826 H 1469.2 -2.15338 3.05909 0
M  V30 15827 H 1470.54 -2.84927 4.01345 0
M  V30 15828 N 1472.19 -1.41197 -0.700089 0
M  V30 15829 C 1473.6 -1.23567 -1.01012 0
M  V30 15830 C 1473.8 -0.121821 -2.01131 0
M  V30 15831 O 1472.86 0.515258 -2.47187 0
M  V30 15832 C 1474.17 -2.58329 -1.53904 0
M  V30 15833 C 1475.72 -2.65473 -1.65811 0
M  V30 15834 C 1476.2 -4.00541 -2.22106 0
M  V30 15835 N 1477.69 -4.02364 -2.29472 0
M  V30 15836 C 1478.42 -5.03672 -2.74048 0
M  V30 15837 N 1477.92 -6.15371 -3.18262 0
M  V30 15838 N 1479.71 -4.91035 -2.73571 0
M  V30 15839 H 1471.86 -2.12368 -0.0367488 0
M  V30 15840 H 1474.12 -0.944713 -0.0788795 0
M  V30 15841 H 1473.83 -3.40565 -0.877964 0
M  V30 15842 H 1473.7 -2.805 -2.5219 0
M  V30 15843 H 1476.09 -1.83598 -2.31032 0
M  V30 15844 H 1476.17 -2.47117 -0.660831 0
M  V30 15845 H 1475.82 -4.82862 -1.57502 0
M  V30 15846 H 1475.75 -4.16235 -3.22577 0
M  V30 15847 H 1478.24 -3.21713 -1.98265 0
M  V30 15848 H 1478.55 -6.88548 -3.50888 0
M  V30 15849 H 1476.9 -6.18914 -3.16182 0
M  V30 15850 H 1480.09 -4.02858 -2.38376 0
M  V30 15851 H 1480.26 -5.70127 -3.07993 0
M  V30 15852 N 1473.67 0.933891 -1.2695 0
M  V30 15853 C 1474.58 2.06713 -1.10936 0
M  V30 15854 C 1475.59 1.73952 -0.0409734 0
M  V30 15855 O 1476.77 1.9989 -0.246199 0
M  V30 15856 C 1473.83 3.38453 -0.751696 0
M  V30 15857 C 1472.89 3.84951 -1.90029 0
M  V30 15858 C 1472.13 5.10404 -1.55959 0
M  V30 15859 O 1472.35 5.68504 -0.464646 0
M  V30 15860 O 1471.28 5.52123 -2.39675 0
M  V30 15861 H 1475.11 2.23133 -2.06023 0
M  V30 15862 H 1472.69 1.05202 -1.06079 0
M  V30 15863 H 1474.58 4.17591 -0.565285 0
M  V30 15864 H 1473.25 3.23255 0.169703 0
M  V30 15865 H 1472.16 3.06727 -2.14172 0
M  V30 15866 H 1473.49 4.04681 -2.80167 0
M  V30 15867 N 1475.14 1.08871 1.13951 0
M  V30 15868 C 1476.09 0.71755 2.21255 0
M  V30 15869 C 1477.09 -0.278901 1.67088 0
M  V30 15870 O 1478.29 -0.140964 1.79447 0
M  V30 15871 H 1474.67 0.214032 0.720898 0
M  V30 15872 H 1476.64 1.63182 2.49828 0
M  V30 15873 C 1475.39 0.148098 3.47384 0
M  V30 15874 H 1474.71 0.906028 3.89398 0
M  V30 15875 H 1476.15 -0.0737451 4.23936 0
M  V30 15876 C 1474.61 -1.11524 3.17906 0
M  V30 15877 O 1475.14 -2.19937 3.3614 0
M  V30 15878 N 1473.34 -1.0275 2.71829 0
M  V30 15879 H 1472.89 -0.145193 2.5719 0
M  V30 15880 H 1472.85 -1.87353 2.5248 0
M  V30 15881 N 1476.62 -1.31073 0.875073 0
M  V30 15882 C 1477.58 -2.26672 0.339481 0
M  V30 15883 C 1478.58 -1.52416 -0.512439 0
M  V30 15884 O 1479.77 -1.71217 -0.321012 0
M  V30 15885 C 1476.91 -3.36952 -0.517311 0
M  V30 15886 H 1478.1 -2.7556 1.18349 0
M  V30 15887 H 1475.65 -1.42093 0.65109 0
M  V30 15888 H 1476.39 -2.93364 -1.38231 0
M  V30 15889 H 1476.17 -3.9199 0.092773 0
M  V30 15890 H 1477.66 -4.08133 -0.884154 0
M  V30 15891 N 1478.1 -0.635022 -1.4424 0
M  V30 15892 C 1479.05 0.0895375 -2.27824 0
M  V30 15893 C 1480.03 0.812405 -1.38884 0
M  V30 15894 O 1481.23 0.69787 -1.62662 0
M  V30 15895 C 1478.36 1.06778 -3.26272 0
M  V30 15896 C 1477.44 0.344333 -4.227 0
M  V30 15897 N 1477.83 -0.629195 -5.01871 0
M  V30 15898 C 1476.13 0.588254 -4.42104 0
M  V30 15899 C 1476.83 -1.05697 -5.72017 0
M  V30 15900 N 1475.81 -0.394953 -5.42163 0
M  V30 15901 H 1479.61 -0.65777 -2.86445 0
M  V30 15902 H 1477.12 -0.460836 -1.55724 0
M  V30 15903 H 1479.12 1.6015 -3.84913 0
M  V30 15904 H 1477.78 1.81535 -2.69212 0
M  V30 15905 H 1478.79 -1.00717 -5.08012 0
M  V30 15906 H 1475.47 1.31839 -3.96137 0
M  V30 15907 H 1476.86 -1.86148 -6.45599 0
M  V30 15908 N 1479.58 1.53054 -0.375806 0
M  V30 15909 C 1480.99 1.86426 0.101188 0
M  V30 15910 C 1481.34 1.29603 1.47301 0
M  V30 15911 O 1480.47 0.622059 2.07266 0
M  V30 15912 C 1481.06 3.38265 0.190389 0
M  V30 15913 C 1479.62 3.71397 0.611653 0
M  V30 15914 C 1478.77 2.76304 -0.234801 0
M  V30 15915 H 1481.72 1.47156 -0.594211 0
M  V30 15916 H 1481.74 3.66793 1.01207 0
M  V30 15917 H 1481.25 3.79592 -0.80818 0
M  V30 15918 H 1479.35 3.35632 1.61808 0
M  V30 15919 H 1479.46 4.77597 0.379168 0
M  V30 15920 H 1477.83 2.52952 0.297888 0
M  V30 15921 H 1478.61 3.20467 -1.2311 0
M  V30 15922 N 1481.06 0.105248 1.57248 0
M  V30 15923 C 1481.99 -0.880221 2.11624 0
M  V30 15924 C 1483 -1.23924 1.05578 0
M  V30 15925 O 1484.19 -1.19059 1.32994 0
M  V30 15926 C 1481.29 -2.18628 2.5895 0
M  V30 15927 C 1480.46 -2.00105 3.88943 0
M  V30 15928 C 1479.52 -3.14315 4.2201 0
M  V30 15929 O 1478.55 -2.87832 4.91061 0
M  V30 15930 N 1479.75 -4.4037 3.78226 0
M  V30 15931 H 1482.52 -0.415742 2.96802 0
M  V30 15932 H 1480.08 -0.0795714 1.61704 0
M  V30 15933 H 1482.07 -2.94002 2.7811 0
M  V30 15934 H 1480.64 -2.56467 1.78727 0
M  V30 15935 H 1479.86 -1.09003 3.7883 0
M  V30 15936 H 1481.15 -1.85018 4.73968 0
M  V30 15937 H 1480.54 -4.64765 3.22506 0
M  V30 15938 H 1479.1 -5.1266 4.02521 0
M  V30 15939 N 1482.53 -1.56697 -0.168486 0
M  V30 15940 C 1483.95 -1.71808 -0.730674 0
M  V30 15941 C 1484.3 -0.716224 -1.8266 0
M  V30 15942 O 1483.42 0.121803 -2.16057 0
M  V30 15943 C 1484.02 -3.1151 -1.33217 0
M  V30 15944 C 1482.58 -3.28297 -1.84115 0
M  V30 15945 C 1481.72 -2.67757 -0.72122 0
M  V30 15946 H 1484.67 -1.58598 0.0569421 0
M  V30 15947 H 1484.69 -3.10318 -2.20189 0
M  V30 15948 H 1484.21 -3.84404 -0.53431 0
M  V30 15949 H 1482.31 -2.60364 -2.66536 0
M  V30 15950 H 1482.42 -4.3606 -1.98464 0
M  V30 15951 H 1480.78 -2.27644 -1.14239 0
M  V30 15952 H 1481.57 -3.43239 0.0648388 0
M  V30 15953 N 1484.01 0.437135 -1.51416 0
M  V30 15954 C 1484.92 1.55581 -1.75589 0
M  V30 15955 C 1485.94 1.61797 -0.640132 0
M  V30 15956 O 1487.11 1.79035 -0.922406 0
M  V30 15957 C 1484.18 2.91561 -1.87598 0
M  V30 15958 C 1483.24 2.9546 -3.11451 0
M  V30 15959 C 1482.47 4.24954 -3.22878 0
M  V30 15960 O 1482.7 5.17341 -2.40238 0
M  V30 15961 O 1481.63 4.35141 -4.15856 0
M  V30 15962 H 1485.46 1.38098 -2.70486 0
M  V30 15963 H 1483.04 0.620163 -1.3592 0
M  V30 15964 H 1484.92 3.72262 -1.97481 0
M  V30 15965 H 1483.6 3.09171 -0.958889 0
M  V30 15966 H 1482.51 2.13713 -3.07046 0
M  V30 15967 H 1483.84 2.82794 -4.0285 0
M  V30 15968 N 1485.49 1.41566 0.692592 0
M  V30 15969 C 1486.77 1.31572 1.44735 0
M  V30 15970 C 1487.15 -0.0553081 2.11028 0
M  V30 15971 O 1486.5 -1.06974 2.01913 0
M  V30 15972 C 1486.71 2.47125 2.46435 0
M  V30 15973 C 1488.05 2.88427 3.11601 0
M  V30 15974 O 1489.08 2.46886 2.5676 0
M  V30 15975 O 1487.94 3.6027 4.10935 0
M  V30 15976 H 1485.03 0.517949 0.644715 0
M  V30 15977 H 1487.58 1.53536 0.722818 0
M  V30 15978 H 1486.35 3.38601 1.96124 0
M  V30 15979 H 1485.97 2.27054 3.26393 0
M  V30 15980 N 1486.97 -0.927146 1.27443 0
M  V30 15981 C 1488.19 -1.71426 1.16739 0
M  V30 15982 C 1488.62 -1.86122 -0.272063 0
M  V30 15983 O 1487.98 -1.36165 -1.19703 0
M  V30 15984 C 1488.02 -3.09131 1.85661 0
M  V30 15985 O 1487.13 -3.95897 1.15495 0
M  V30 15986 H 1486.47 -0.525428 0.405983 0
M  V30 15987 H 1489 -1.16022 1.68523 0
M  V30 15988 H 1489.01 -3.59442 1.93042 0
M  V30 15989 H 1487.68 -2.97752 2.90373 0
M  V30 15990 H 1486.26 -3.54337 1.16187 0
M  V30 15991 N 1488.45 -1.09474 -1.13372 0
M  V30 15992 C 1489.67 -0.853093 -1.89043 0
M  V30 15993 C 1490.1 0.590075 -1.78605 0
M  V30 15994 O 1489.45 1.41462 -1.13394 0
M  V30 15995 C 1489.5 -1.29359 -3.36599 0
M  V30 15996 O 1488.61 -0.452355 -4.09912 0
M  V30 15997 H 1487.95 -0.308922 -0.587761 0
M  V30 15998 H 1490.48 -1.459 -1.43437 0
M  V30 15999 H 1490.49 -1.27921 -3.87428 0
M  V30 16000 H 1489.16 -2.3446 -3.43513 0
M  V30 16001 H 1487.74 -0.531098 -3.69099 0
M  V30 16002 N 1489.92 1.30607 -0.882012 0
M  V30 16003 C 1491.34 1.78418 -0.549892 0
M  V30 16004 C 1491.69 1.72553 0.933797 0
M  V30 16005 O 1490.81 1.30058 1.72956 0
M  V30 16006 C 1491.41 3.2397 -0.991398 0
M  V30 16007 C 1489.97 3.69629 -0.710739 0
M  V30 16008 C 1489.11 2.51127 -1.17602 0
M  V30 16009 H 1492.06 1.17519 -1.06653 0
M  V30 16010 H 1492.08 3.79159 -0.319115 0
M  V30 16011 H 1491.6 3.28207 -2.07128 0
M  V30 16012 H 1489.7 3.70883 0.357273 0
M  V30 16013 H 1489.81 4.61232 -1.29621 0
M  V30 16014 H 1488.17 2.47642 -0.595444 0
M  V30 16015 H 1488.96 2.58103 -2.26358 0
M  V30 16016 N 1491.4 0.642663 1.43901 0
M  V30 16017 C 1492.63 0.157518 2.06801 0
M  V30 16018 C 1493.05 -1.16361 1.47789 0
M  V30 16019 O 1492.41 -1.71645 0.583747 0
M  V30 16020 C 1492.46 0.0685904 3.60535 0
M  V30 16021 O 1491.56 -0.972183 4.00777 0
M  V30 16022 H 1490.9 0.0900406 0.657867 0
M  V30 16023 H 1493.43 0.882604 1.84584 0
M  V30 16024 H 1493.44 -0.118212 4.07829 0
M  V30 16025 H 1492.12 1.03307 4.02865 0
M  V30 16026 H 1490.7 -0.75902 3.65094 0
M  V30 16027 N 1492.88 -1.52852 0.383918 0
M  V30 16028 C 1493.84 -2.24904 -0.441687 0
M  V30 16029 C 1494.84 -1.26345 -0.99466 0
M  V30 16030 O 1496.03 -1.50484 -0.877513 0
M  V30 16031 C 1493.17 -2.99994 -1.61915 0
M  V30 16032 H 1494.36 -2.99304 0.189047 0
M  V30 16033 H 1491.91 -1.55708 0.135932 0
M  V30 16034 H 1492.65 -2.29882 -2.28746 0
M  V30 16035 H 1492.43 -3.72328 -1.2294 0
M  V30 16036 H 1493.92 -3.54716 -2.20378 0
M  V30 16037 N 1494.36 -0.113586 -1.5719 0
M  V30 16038 C 1495.29 0.835363 -2.18046 0
M  V30 16039 C 1496.27 1.28114 -1.11897 0
M  V30 16040 O 1497.46 1.34472 -1.40111 0
M  V30 16041 C 1494.59 2.08759 -2.77556 0
M  V30 16042 C 1493.54 1.77979 -3.8924 0
M  V30 16043 C 1492.87 3.10185 -4.35533 0
M  V30 16044 C 1494.17 1.05231 -5.11589 0
M  V30 16045 H 1495.86 0.328275 -2.97595 0
M  V30 16046 H 1493.41 0.156456 -1.43148 0
M  V30 16047 H 1495.36 2.75597 -3.18785 0
M  V30 16048 H 1494.08 2.61783 -1.95288 0
M  V30 16049 H 1492.74 1.13532 -3.48577 0
M  V30 16050 H 1492.39 3.61133 -3.50131 0
M  V30 16051 H 1492.09 2.90367 -5.10843 0
M  V30 16052 H 1493.61 3.78151 -4.7941 0
M  V30 16053 H 1495.03 1.62213 -5.49872 0
M  V30 16054 H 1493.42 0.955269 -5.92448 0
M  V30 16055 H 1494.49 0.038137 -4.84885 0
M  V30 16056 N 1495.84 1.56784 0.160173 0
M  V30 16057 C 1496.77 1.93848 1.22293 0
M  V30 16058 C 1497.78 0.832803 1.39886 0
M  V30 16059 O 1498.97 1.11124 1.39692 0
M  V30 16060 C 1496.07 2.18581 2.58989 0
M  V30 16061 C 1495.24 3.49839 2.62548 0
M  V30 16062 C 1494.3 3.63268 3.80687 0
M  V30 16063 O 1493.33 4.35785 3.6617 0
M  V30 16064 N 1494.53 2.98948 4.97605 0
M  V30 16065 H 1497.3 2.85614 0.908004 0
M  V30 16066 H 1494.86 1.58075 0.349851 0
M  V30 16067 H 1496.85 2.24819 3.36509 0
M  V30 16068 H 1495.42 1.33145 2.82827 0
M  V30 16069 H 1494.64 3.5516 1.7104 0
M  V30 16070 H 1495.93 4.3619 2.61945 0
M  V30 16071 H 1495.33 2.39924 5.12302 0
M  V30 16072 H 1493.88 3.10765 5.72947 0
M  V30 16073 N 1497.32 -0.429099 1.51646 0
M  V30 16074 C 1498.73 -0.766217 1.40005 0
M  V30 16075 C 1498.93 -1.95481 0.488837 0
M  V30 16076 O 1497.99 -2.52445 -0.0529101 0
M  V30 16077 C 1499.3 -1.03886 2.82185 0
M  V30 16078 C 1500.85 -1.1428 2.91392 0
M  V30 16079 C 1501.32 -1.44833 4.34497 0
M  V30 16080 N 1502.81 -1.5174 4.37641 0
M  V30 16081 C 1503.55 -1.76968 5.45408 0
M  V30 16082 N 1503.05 -1.99934 6.63324 0
M  V30 16083 N 1504.84 -1.78819 5.32898 0
M  V30 16084 H 1496.99 0.35358 2.09436 0
M  V30 16085 H 1499.25 0.0958189 0.943145 0
M  V30 16086 H 1498.96 -0.238103 3.50893 0
M  V30 16087 H 1498.83 -1.96434 3.22015 0
M  V30 16088 H 1501.22 -1.93418 2.22876 0
M  V30 16089 H 1501.3 -0.19614 2.55047 0
M  V30 16090 H 1500.94 -0.662201 5.03565 0
M  V30 16091 H 1500.87 -2.40718 4.68361 0
M  V30 16092 H 1503.37 -1.35862 3.52633 0
M  V30 16093 H 1503.68 -2.18578 7.41245 0
M  V30 16094 H 1502.02 -1.97239 6.66425 0
M  V30 16095 H 1505.21 -1.60402 4.3976 0
M  V30 16096 H 1505.39 -1.98142 6.16963 0
M  V30 16097 N 1498.79 -1.41931 -0.685074 0
M  V30 16098 C 1499.76 -1.44315 -1.78061 0
M  V30 16099 C 1500.76 -0.332215 -1.57331 0
M  V30 16100 O 1501.95 -0.59258 -1.63811 0
M  V30 16101 C 1499.08 -1.26479 -3.16569 0
M  V30 16102 H 1500.27 -2.4185 -1.77337 0
M  V30 16103 H 1497.82 -1.28228 -0.893721 0
M  V30 16104 H 1498.56 -0.298259 -3.22926 0
M  V30 16105 H 1498.34 -2.06981 -3.33018 0
M  V30 16106 H 1499.83 -1.31006 -3.96519 0
M  V30 16107 N 1500.27 0.920374 -1.27933 0
M  V30 16108 C 1501.23 2.0035 -1.11321 0
M  V30 16109 C 1502.23 1.60706 -0.0549132 0
M  V30 16110 O 1503.42 1.71595 -0.300134 0
M  V30 16111 C 1500.56 3.33681 -0.69782 0
M  V30 16112 H 1501.75 2.16518 -2.07509 0
M  V30 16113 H 1499.3 1.10216 -1.10825 0
M  V30 16114 H 1500.04 3.23214 0.265122 0
M  V30 16115 H 1499.82 3.63815 -1.46223 0
M  V30 16116 H 1501.31 4.13208 -0.604048 0
M  V30 16117 N 1501.75 1.10074 1.1279 0
M  V30 16118 C 1503 0.852005 1.84696 0
M  V30 16119 C 1503.35 -0.615785 1.8228 0
M  V30 16120 O 1502.64 -1.448 1.25473 0
M  V30 16121 C 1502.84 1.32969 3.31744 0
M  V30 16122 C 1502.67 2.84239 3.4848 0
M  V30 16123 C 1501.44 3.52197 3.62333 0
M  V30 16124 C 1503.63 3.82356 3.4396 0
M  V30 16125 N 1501.62 4.91825 3.67397 0
M  V30 16126 C 1502.99 5.07974 3.55474 0
M  V30 16127 C 1505.04 3.75116 3.27402 0
M  V30 16128 C 1503.75 6.27208 3.52139 0
M  V30 16129 C 1505.77 4.93845 3.25378 0
M  V30 16130 C 1505.13 6.1831 3.3745 0
M  V30 16131 H 1501.23 0.364722 0.691738 0
M  V30 16132 H 1503.82 1.40239 1.35059 0
M  V30 16133 H 1501.99 0.806668 3.79931 0
M  V30 16134 H 1503.72 1.02559 3.91489 0
M  V30 16135 H 1500.47 3.02636 3.64292 0
M  V30 16136 H 1500.9 5.64579 3.73604 0
M  V30 16137 H 1505.54 2.79808 3.16966 0
M  V30 16138 H 1503.26 7.2281 3.61347 0
M  V30 16139 H 1506.84 4.89949 3.13754 0
M  V30 16140 H 1505.72 7.08641 3.35854 0
M  V30 16141 N 1503.23 -1.30138 0.888926 0
M  V30 16142 C 1504.48 -1.95602 0.508359 0
M  V30 16143 C 1504.8 -1.70495 -0.946377 0
M  V30 16144 O 1504.07 -1.03073 -1.66592 0
M  V30 16145 H 1502.65 -0.723728 0.185006 0
M  V30 16146 H 1505.31 -1.58594 1.13286 0
M  V30 16147 H 1504.4 -3.04559 0.681915 0
M  V30 16148 N 1504.71 -0.650285 -1.43559 0
M  V30 16149 C 1505.95 -0.159832 -2.01066 0
M  V30 16150 C 1506.27 1.23246 -1.51887 0
M  V30 16151 O 1507.47 1.81797 -2.01648 0
M  V30 16152 C 1505.93 -0.23494 -3.59132 0
M  V30 16153 C 1505.54 -1.62975 -4.17305 0
M  V30 16154 C 1507.28 0.198061 -4.24038 0
M  V30 16155 C 1505.19 -1.65894 -5.67656 0
M  V30 16156 H 1504.12 -0.0559899 -0.751918 0
M  V30 16157 H 1506.77 -0.811891 -1.64562 0
M  V30 16158 H 1505.15 0.484573 -3.93024 0
M  V30 16159 H 1506.33 -2.37438 -3.94918 0
M  V30 16160 H 1504.64 -2.00847 -3.64759 0
M  V30 16161 H 1507.24 0.196054 -5.3434 0
M  V30 16162 H 1507.58 1.22896 -3.97747 0
M  V30 16163 H 1508.11 -0.469602 -3.95018 0
M  V30 16164 H 1504.85 -2.66883 -5.9871 0
M  V30 16165 H 1504.37 -0.957519 -5.92108 0
M  V30 16166 H 1506.05 -1.40137 -6.31641 0
M  V30 16167 N 1506.18 1.52647 -0.392018 0
M  V30 16168 C 1507.41 2.06511 0.191815 0
M  V30 16169 C 1507.83 1.26162 1.39516 0
M  V30 16170 O 1507.19 0.287373 1.79008 0
M  V30 16171 C 1507.24 3.56571 0.537512 0
M  V30 16172 O 1506.34 3.78774 1.63106 0
M  V30 16173 H 1505.68 0.663647 0.0216546 0
M  V30 16174 H 1508.21 1.96779 -0.560274 0
M  V30 16175 H 1508.22 4.00059 0.801044 0
M  V30 16176 H 1506.9 4.14489 -0.342239 0
M  V30 16177 H 1505.48 3.47175 1.36103 0
M  V30 16178 N 1507.66 0.121921 1.57128 0
M  V30 16179 C 1508.57 -0.840825 2.19014 0
M  V30 16180 C 1509.59 -1.29051 1.16712 0
M  V30 16181 O 1510.76 -1.35289 1.49194 0
M  V30 16182 C 1507.83 -2.07204 2.7797 0
M  V30 16183 C 1506.89 -1.67399 3.95318 0
M  V30 16184 C 1506.12 -2.84652 4.51452 0
M  V30 16185 O 1506.35 -4.00161 4.06482 0
M  V30 16186 O 1505.28 -2.61568 5.42094 0
M  V30 16187 H 1509.11 -0.344146 3.01744 0
M  V30 16188 H 1506.69 -0.103841 1.49039 0
M  V30 16189 H 1508.57 -2.79307 3.1554 0
M  V30 16190 H 1507.25 -2.55872 1.9827 0
M  V30 16191 H 1506.16 -0.92395 3.62511 0
M  V30 16192 H 1507.49 -1.2347 4.76462 0
M  V30 16193 N 1509.14 -1.56867 -0.151857 0
M  V30 16194 C 1510.37 -1.87237 -0.880343 0
M  V30 16195 C 1510.78 -0.709565 -1.74959 0
M  V30 16196 O 1510.14 0.320818 -1.79658 0
M  V30 16197 C 1510.19 -3.16811 -1.74107 0
M  V30 16198 O 1509.91 -4.28611 -0.906858 0
M  V30 16199 C 1511.41 -3.60662 -2.57755 0
M  V30 16200 H 1508.63 -0.62074 -0.254799 0
M  V30 16201 H 1511.18 -2.03977 -0.146104 0
M  V30 16202 H 1509.33 -3.01838 -2.42842 0
M  V30 16203 H 1509.75 -5.02673 -1.49733 0
M  V30 16204 H 1511.22 -4.54176 -3.13732 0
M  V30 16205 H 1511.7 -2.85716 -3.33561 0
M  V30 16206 H 1512.3 -3.78312 -1.94319 0
M  V30 16207 N 1510.62 0.421051 -1.51871 0
M  V30 16208 C 1511.53 1.5371 -1.7723 0
M  V30 16209 C 1512.54 1.61109 -0.657256 0
M  V30 16210 O 1513.72 1.78047 -0.941343 0
M  V30 16211 C 1510.79 2.89555 -1.9068 0
M  V30 16212 C 1509.85 2.9214 -3.14567 0
M  V30 16213 C 1509.08 4.21505 -3.27367 0
M  V30 16214 O 1509.3 5.14764 -2.45712 0
M  V30 16215 O 1508.24 4.30706 -4.20448 0
M  V30 16216 H 1512.06 1.35221 -2.71935 0
M  V30 16217 H 1509.65 0.605712 -1.3657 0
M  V30 16218 H 1511.53 3.70147 -2.01418 0
M  V30 16219 H 1510.2 3.08137 -0.991627 0
M  V30 16220 H 1509.11 2.10444 -3.09296 0
M  V30 16221 H 1510.44 2.78505 -4.05827 0
M  V30 16222 N 1512.1 1.42293 0.677538 0
M  V30 16223 C 1513.32 1.46214 1.47092 0
M  V30 16224 C 1513.75 0.0740989 1.87954 0
M  V30 16225 O 1513.1 -0.926831 1.55819 0
M  V30 16226 C 1513.15 2.39236 2.69812 0
M  V30 16227 O 1512.26 1.86183 3.6798 0
M  V30 16228 H 1511.6 0.495507 0.442006 0
M  V30 16229 H 1514.13 1.86952 0.831274 0
M  V30 16230 H 1514.14 2.55723 3.17915 0
M  V30 16231 H 1512.81 3.40081 2.39411 0
M  V30 16232 H 1511.39 1.79237 3.26999 0
M  V30 16233 N 1513.57 -0.913576 1.28419 0
M  V30 16234 C 1514.85 -1.64203 1.06285 0
M  V30 16235 C 1515.23 -2.07319 -0.397728 0
M  V30 16236 O 1514.58 -1.8183 -1.38383 0
M  V30 16237 C 1514.79 -2.8334 2.03763 0
M  V30 16238 C 1516.14 -3.54355 2.33918 0
M  V30 16239 O 1517.16 -2.93489 2.01848 0
M  V30 16240 O 1516.02 -4.6405 2.88652 0
M  V30 16241 H 1513.11 -0.720359 0.406217 0
M  V30 16242 H 1515.66 -0.962866 1.39739 0
M  V30 16243 H 1514.43 -2.48575 3.02203 0
M  V30 16244 H 1514.06 -3.5897 1.70956 0
M  V30 16245 N 1515.05 -1.1067 -1.12204 0
M  V30 16246 C 1515.98 -0.779829 -2.20093 0
M  V30 16247 C 1516.96 0.248279 -1.68278 0
M  V30 16248 O 1518.15 0.113511 -1.93868 0
M  V30 16249 C 1515.28 -0.213511 -3.46643 0
M  V30 16250 C 1514.23 -1.17258 -4.11624 0
M  V30 16251 C 1513.56 -0.467352 -5.32654 0
M  V30 16252 C 1514.86 -2.52014 -4.57478 0
M  V30 16253 H 1516.55 -1.68192 -2.47693 0
M  V30 16254 H 1514.1 -0.810131 -1.1905 0
M  V30 16255 H 1516.05 0.0273225 -4.21391 0
M  V30 16256 H 1514.78 0.723837 -3.18478 0
M  V30 16257 H 1513.43 -1.39891 -3.3886 0
M  V30 16258 H 1513.08 0.474547 -5.00756 0
M  V30 16259 H 1512.78 -1.10694 -5.77079 0
M  V30 16260 H 1514.31 -0.235122 -6.10147 0
M  V30 16261 H 1515.72 -2.33516 -5.23587 0
M  V30 16262 H 1514.12 -3.1188 -5.1269 0
M  V30 16263 H 1515.19 -3.11831 -3.71335 0
M  V30 16264 N 1516.53 1.29665 -0.895815 0
M  V30 16265 C 1517.76 1.99862 -0.535043 0
M  V30 16266 C 1518.17 1.67077 0.879245 0
M  V30 16267 O 1517.53 0.913717 1.57979 0
M  V30 16268 C 1517.58 3.54396 -0.713132 0
M  V30 16269 O 1517.3 3.86018 -2.07175 0
M  V30 16270 C 1518.8 4.41862 -0.356792 0
M  V30 16271 H 1516.02 0.638693 -0.205699 0
M  V30 16272 H 1518.57 1.65293 -1.20409 0
M  V30 16273 H 1516.72 3.87292 -0.0913116 0
M  V30 16274 H 1517.14 4.80701 -2.09827 0
M  V30 16275 H 1518.61 5.49428 -0.532252 0
M  V30 16276 H 1519.09 4.3349 0.705914 0
M  V30 16277 H 1519.69 4.1443 -0.95539 0
M  V30 16278 N 1518.01 0.657889 1.43212 0
M  V30 16279 C 1519.24 0.18081 2.05807 0
M  V30 16280 C 1519.65 -1.16057 1.49423 0
M  V30 16281 O 1518.99 -1.72849 0.622002 0
M  V30 16282 C 1519.05 0.0202357 3.59494 0
M  V30 16283 C 1518.72 1.28765 4.38484 0
M  V30 16284 C 1519.71 2.21742 4.70241 0
M  V30 16285 C 1517.4 1.53053 4.78414 0
M  V30 16286 C 1519.39 3.37297 5.40842 0
M  V30 16287 C 1517.08 2.68901 5.48758 0
M  V30 16288 C 1518.08 3.60847 5.79895 0
M  V30 16289 O 1517.76 4.74671 6.48801 0
M  V30 16290 H 1517.5 0.0893945 0.670063 0
M  V30 16291 H 1520.05 0.900125 1.84626 0
M  V30 16292 H 1518.28 -0.754496 3.79268 0
M  V30 16293 H 1519.97 -0.414799 4.03775 0
M  V30 16294 H 1520.74 2.04221 4.39908 0
M  V30 16295 H 1516.61 0.823643 4.53583 0
M  V30 16296 H 1520.16 4.09085 5.65062 0
M  V30 16297 H 1516.06 2.86354 5.78508 0
M  V30 16298 H 1516.82 4.73996 6.67285 0
M  V30 16299 N 1519.49 -1.52437 0.400108 0
M  V30 16300 C 1520.73 -2.01312 -0.178252 0
M  V30 16301 C 1521.06 -1.28797 -1.46411 0
M  V30 16302 O 1520.33 -0.411211 -1.91536 0
M  V30 16303 H 1518.91 -0.743819 -0.0688613 0
M  V30 16304 H 1521.57 -1.87434 0.53428 0
M  V30 16305 H 1520.66 -3.09768 -0.380793 0
M  V30 16306 N 1520.96 -0.130252 -1.57061 0
M  V30 16307 C 1521.87 0.829198 -2.19457 0
M  V30 16308 C 1522.89 1.2843 -1.17395 0
M  V30 16309 O 1524.07 1.34496 -1.49909 0
M  V30 16310 C 1521.13 2.05727 -2.79065 0
M  V30 16311 C 1520.19 1.65301 -3.962 0
M  V30 16312 C 1519.43 2.82253 -4.52956 0
M  V30 16313 O 1519.65 3.97999 -4.08598 0
M  V30 16314 O 1518.58 2.5869 -5.43473 0
M  V30 16315 H 1522.41 0.328139 -3.01922 0
M  V30 16316 H 1519.99 0.0959361 -1.49092 0
M  V30 16317 H 1521.88 2.7763 -3.17017 0
M  V30 16318 H 1520.55 2.54817 -1.99624 0
M  V30 16319 H 1519.46 0.904712 -3.62996 0
M  V30 16320 H 1520.79 1.20942 -4.7711 0
M  V30 16321 N 1522.44 1.56945 0.143535 0
M  V30 16322 C 1523.69 1.8381 0.856831 0
M  V30 16323 C 1524.02 0.712375 1.80662 0
M  V30 16324 O 1523.3 -0.283743 1.92419 0
M  V30 16325 C 1523.58 3.21184 1.62828 0
M  V30 16326 C 1523.43 4.44324 0.699744 0
M  V30 16327 C 1524.75 3.5582 2.58999 0
M  V30 16328 H 1521.87 0.668611 0.310046 0
M  V30 16329 H 1524.51 1.89609 0.1219 0
M  V30 16330 H 1522.66 3.16372 2.2548 0
M  V30 16331 H 1524.34 4.61224 0.0839619 0
M  V30 16332 H 1522.58 4.33799 0.0095529 0
M  V30 16333 H 1523.25 5.37058 1.27564 0
M  V30 16334 H 1525.73 3.61264 2.06464 0
M  V30 16335 H 1524.6 4.52964 3.10024 0
M  V30 16336 H 1524.86 2.81956 3.40519 0
M  V30 16337 N 1523.92 -0.412991 1.52093 0
M  V30 16338 C 1524.83 -1.52768 1.78042 0
M  V30 16339 C 1525.85 -1.60758 0.665791 0
M  V30 16340 O 1527.02 -1.77545 0.950772 0
M  V30 16341 C 1524.09 -2.8854 1.92213 0
M  V30 16342 C 1523.15 -2.90468 3.16112 0
M  V30 16343 C 1522.38 -4.19763 3.29598 0
M  V30 16344 O 1522.61 -5.13454 2.48438 0
M  V30 16345 O 1521.54 -4.2847 4.22726 0
M  V30 16346 H 1525.37 -1.33777 2.72649 0
M  V30 16347 H 1522.95 -0.598461 1.3689 0
M  V30 16348 H 1524.83 -3.69073 2.03379 0
M  V30 16349 H 1523.51 -3.07607 1.00795 0
M  V30 16350 H 1522.41 -2.08801 3.10408 0
M  V30 16351 H 1523.75 -2.76349 4.07298 0
M  V30 16352 N 1525.4 -1.4265 -0.669982 0
M  V30 16353 C 1526.33 -1.42457 -1.79551 0
M  V30 16354 C 1527.34 -0.322966 -1.59564 0
M  V30 16355 O 1528.53 -0.586359 -1.68594 0
M  V30 16356 C 1525.63 -1.20561 -3.16731 0
M  V30 16357 C 1524.81 -2.43246 -3.63525 0
M  V30 16358 C 1523.87 -2.16823 -4.79452 0
M  V30 16359 O 1522.89 -2.90058 -4.8975 0
M  V30 16360 N 1524.09 -1.17436 -5.68497 0
M  V30 16361 H 1526.86 -2.39474 -1.80201 0
M  V30 16362 H 1524.42 -1.37591 -0.853244 0
M  V30 16363 H 1526.41 -1.00794 -3.91947 0
M  V30 16364 H 1524.98 -0.320497 -3.10953 0
M  V30 16365 H 1524.2 -2.78549 -2.78934 0
M  V30 16366 H 1525.49 -3.24931 -3.91532 0
M  V30 16367 H 1524.89 -0.568736 -5.62834 0
M  V30 16368 H 1523.44 -1.03655 -6.43505 0
M  V30 16369 N 1526.88 0.906753 -1.28902 0
M  V30 16370 C 1528.29 1.18635 -1.06761 0
M  V30 16371 C 1528.49 2.00643 0.185594 0
M  V30 16372 O 1527.55 2.3647 0.885324 0
M  V30 16373 C 1528.86 1.91414 -2.31907 0
M  V30 16374 C 1530.41 2.04269 -2.37156 0
M  V30 16375 C 1530.89 2.80458 -3.62088 0
M  V30 16376 N 1532.38 2.88016 -3.62769 0
M  V30 16377 C 1533.11 3.47485 -4.56116 0
M  V30 16378 N 1532.61 4.08178 -5.59788 0
M  V30 16379 N 1534.4 3.45092 -4.43698 0
M  V30 16380 H 1526.55 0.359413 -2.09337 0
M  V30 16381 H 1528.81 0.221688 -0.921715 0
M  V30 16382 H 1528.52 1.38587 -3.23244 0
M  V30 16383 H 1528.39 2.91929 -2.38867 0
M  V30 16384 H 1530.78 2.56275 -1.46312 0
M  V30 16385 H 1530.86 1.0291 -2.34186 0
M  V30 16386 H 1530.51 2.2913 -4.53279 0
M  V30 16387 H 1530.44 3.82147 -3.62314 0
M  V30 16388 H 1532.93 2.44902 -2.87805 0
M  V30 16389 H 1533.24 4.51557 -6.27149 0
M  V30 16390 H 1531.59 4.06661 -5.63606 0
M  V30 16391 H 1534.78 2.96891 -3.61903 0
M  V30 16392 H 1534.95 3.91145 -5.16633 0
M  V30 16393 N 1528.36 1.11264 1.11616 0
M  V30 16394 C 1529.29 0.79149 2.19676 0
M  V30 16395 C 1530.27 -0.239351 1.68408 0
M  V30 16396 O 1531.45 -0.103228 1.93925 0
M  V30 16397 C 1528.58 0.231891 3.46525 0
M  V30 16398 C 1527.54 1.19439 4.10997 0
M  V30 16399 C 1526.86 0.495593 5.32398 0
M  V30 16400 C 1528.16 2.54437 4.56135 0
M  V30 16401 H 1529.86 1.69503 2.46797 0
M  V30 16402 H 1527.4 0.816433 1.18619 0
M  V30 16403 H 1529.35 -0.00497468 4.214 0
M  V30 16404 H 1528.08 -0.706938 3.18857 0
M  V30 16405 H 1526.74 1.41686 3.38113 0
M  V30 16406 H 1526.39 -0.447984 5.01001 0
M  V30 16407 H 1526.09 1.13753 5.76484 0
M  V30 16408 H 1527.61 0.267476 6.10014 0
M  V30 16409 H 1529.02 2.36289 5.22341 0
M  V30 16410 H 1527.42 3.14595 5.11028 0
M  V30 16411 H 1528.49 3.13795 3.69676 0
M  V30 16412 N 1529.83 -1.29188 0.902679 0
M  V30 16413 C 1531.11 -1.90365 0.449496 0
M  V30 16414 C 1531.49 -1.81911 -1.07105 0
M  V30 16415 O 1530.84 -1.24778 -1.91423 0
M  V30 16416 C 1531.05 -3.35324 0.967418 0
M  V30 16417 C 1532.4 -4.12342 1.0129 0
M  V30 16418 O 1533.42 -3.44239 0.915293 0
M  V30 16419 O 1532.28 -5.34048 1.15994 0
M  V30 16420 H 1529.37 -0.814956 0.140628 0
M  V30 16421 H 1531.92 -1.37633 0.992739 0
M  V30 16422 H 1530.69 -3.35646 2.0114 0
M  V30 16423 H 1530.31 -3.95539 0.404358 0
M  V30 16424 N 1531.31 -0.665475 -1.42861 0
M  V30 16425 C 1532.24 0.00482845 -2.335 0
M  V30 16426 C 1533.22 0.799135 -1.50159 0
M  V30 16427 O 1534.41 0.75816 -1.78789 0
M  V30 16428 C 1531.54 0.963347 -3.33672 0
M  V30 16429 C 1530.49 0.278294 -4.27094 0
M  V30 16430 C 1529.82 1.34911 -5.174 0
M  V30 16431 C 1531.12 -0.836925 -5.15551 0
M  V30 16432 H 1532.81 -0.752129 -2.89799 0
M  V30 16433 H 1530.36 -0.363139 -1.39346 0
M  V30 16434 H 1532.31 1.44128 -3.95986 0
M  V30 16435 H 1531.03 1.75161 -2.75656 0
M  V30 16436 H 1529.69 -0.179314 -3.66161 0
M  V30 16437 H 1529.34 2.12912 -4.55716 0
M  V30 16438 H 1529.04 0.895919 -5.8073 0
M  V30 16439 H 1530.57 1.82816 -5.8259 0
M  V30 16440 H 1531.98 -0.440617 -5.71604 0
M  V30 16441 H 1530.38 -1.21533 -5.87665 0
M  V30 16442 H 1531.45 -1.6897 -4.54507 0
M  V30 16443 N 1532.79 1.52222 -0.408187 0
M  V30 16444 C 1533.72 2.29892 0.408868 0
M  V30 16445 C 1534.7 1.34063 1.04695 0
M  V30 16446 O 1535.89 1.6297 1.05615 0
M  V30 16447 C 1533.02 3.11964 1.52629 0
M  V30 16448 C 1531.97 4.15833 1.01326 0
M  V30 16449 C 1531.3 4.86244 2.2242 0
M  V30 16450 C 1532.6 5.22256 0.0679573 0
M  V30 16451 H 1534.29 2.98443 -0.23923 0
M  V30 16452 H 1531.84 1.43528 -0.116496 0
M  V30 16453 H 1533.79 3.65067 2.10486 0
M  V30 16454 H 1532.51 2.41181 2.20225 0
M  V30 16455 H 1531.17 3.63739 0.4571 0
M  V30 16456 H 1530.82 4.11991 2.88569 0
M  V30 16457 H 1530.52 5.56461 1.88746 0
M  V30 16458 H 1532.04 5.42159 2.80885 0
M  V30 16459 H 1533.46 5.70604 0.555295 0
M  V30 16460 H 1531.85 5.9983 -0.179934 0
M  V30 16461 H 1532.92 4.76892 -0.877599 0
M  V30 16462 N 1534.27 0.138579 1.5699 0
M  V30 16463 C 1535.2 -0.835134 2.13444 0
M  V30 16464 C 1536.21 -1.21657 1.08183 0
M  V30 16465 O 1537.4 -1.16211 1.35489 0
M  V30 16466 C 1534.5 -2.13086 2.63529 0
M  V30 16467 C 1533.67 -1.9181 3.931 0
M  V30 16468 C 1532.73 -3.05293 4.28582 0
M  V30 16469 O 1531.76 -2.77351 4.97056 0
M  V30 16470 N 1532.96 -4.32248 3.87482 0
M  V30 16471 H 1535.73 -0.352693 2.97617 0
M  V30 16472 H 1533.29 -0.0452536 1.61837 0
M  V30 16473 H 1535.28 -2.88036 2.84284 0
M  V30 16474 H 1533.85 -2.52619 1.84127 0
M  V30 16475 H 1533.07 -1.00943 3.81057 0
M  V30 16476 H 1534.36 -1.74923 4.77786 0
M  V30 16477 H 1533.76 -4.5782 3.32292 0
M  V30 16478 H 1532.31 -5.04006 4.13305 0
M  V30 16479 N 1535.75 -1.57019 -0.13521 0
M  V30 16480 C 1536.66 -2.02427 -1.18578 0
M  V30 16481 C 1537.67 -0.941738 -1.46312 0
M  V30 16482 O 1538.85 -1.25208 -1.57749 0
M  V30 16483 C 1535.91 -2.40577 -2.49647 0
M  V30 16484 C 1534.97 -3.62835 -2.29455 0
M  V30 16485 C 1534.21 -3.99156 -3.54274 0
M  V30 16486 O 1534.43 -3.36001 -4.60933 0
M  V30 16487 O 1533.36 -4.92345 -3.46238 0
M  V30 16488 H 1537.19 -2.92131 -0.830237 0
M  V30 16489 H 1534.77 -1.45366 -0.344814 0
M  V30 16490 H 1536.66 -2.65922 -3.269 0
M  V30 16491 H 1535.33 -1.54023 -2.84708 0
M  V30 16492 H 1534.24 -3.42661 -1.50114 0
M  V30 16493 H 1535.57 -4.50043 -1.99305 0
M  V30 16494 N 1537.22 0.404919 -1.52309 0
M  V30 16495 C 1538.16 1.51276 -1.72186 0
M  V30 16496 C 1539.17 1.5125 -0.602276 0
M  V30 16497 O 1540.36 1.55439 -0.877549 0
M  V30 16498 C 1537.46 2.90162 -1.75099 0
M  V30 16499 C 1536.63 3.14333 -3.04161 0
M  V30 16500 C 1535.69 4.33113 -2.9883 0
M  V30 16501 O 1534.72 4.30189 -3.72728 0
M  V30 16502 N 1535.92 5.38451 -2.16911 0
M  V30 16503 H 1538.68 1.34618 -2.67765 0
M  V30 16504 H 1536.24 0.594264 -1.50599 0
M  V30 16505 H 1538.24 3.67697 -1.69058 0
M  V30 16506 H 1536.81 3.00257 -0.869756 0
M  V30 16507 H 1536.03 2.24803 -3.23817 0
M  V30 16508 H 1537.31 3.27327 -3.89531 0
M  V30 16509 H 1536.71 5.43676 -1.56309 0
M  V30 16510 H 1535.27 6.14715 -2.16724 0
M  V30 16511 N 1538.7 1.43003 0.662408 0
M  V30 16512 C 1539.63 1.50248 1.78739 0
M  V30 16513 C 1540.61 0.357934 1.66291 0
M  V30 16514 O 1541.8 0.573919 1.85526 0
M  V30 16515 C 1538.93 1.41618 3.17114 0
M  V30 16516 C 1537.88 2.54228 3.44314 0
M  V30 16517 C 1537.21 2.30653 4.82393 0
M  V30 16518 C 1538.51 3.96505 3.39972 0
M  V30 16519 H 1540.2 2.44406 1.72934 0
M  V30 16520 H 1537.75 1.17633 0.830569 0
M  V30 16521 H 1539.7 1.45293 3.9556 0
M  V30 16522 H 1538.43 0.439605 3.23628 0
M  V30 16523 H 1537.08 2.49891 2.68235 0
M  V30 16524 H 1536.73 1.3126 4.85572 0
M  V30 16525 H 1536.43 3.06134 5.01554 0
M  V30 16526 H 1537.96 2.36096 5.63108 0
M  V30 16527 H 1539.37 4.02378 4.08368 0
M  V30 16528 H 1537.77 4.71937 3.70668 0
M  V30 16529 H 1538.84 4.22295 2.38318 0
M  V30 16530 N 1540.18 -0.899904 1.29381 0
M  V30 16531 C 1541.13 -2.02537 1.14375 0
M  V30 16532 C 1542.12 -1.69296 0.0593904 0
M  V30 16533 O 1543.33 -1.78661 0.219174 0
M  V30 16534 H 1539.7 -0.663844 0.353291 0
M  V30 16535 H 1541.67 -2.12332 2.0966 0
M  V30 16536 C 1540.42 -3.37479 0.836845 0
M  V30 16537 H 1539.75 -3.6356 1.66326 0
M  V30 16538 H 1541.19 -4.16915 0.771873 0
M  V30 16539 C 1539.65 -3.33746 -0.459889 0
M  V30 16540 O 1540.18 -3.73203 -1.48601 0
M  V30 16541 N 1538.38 -2.86845 -0.465657 0
M  V30 16542 H 1537.93 -2.54931 0.369833 0
M  V30 16543 H 1537.89 -2.8473 -1.33327 0
M  V30 16544 N 1541.66 -1.11854 -1.11024 0
M  V30 16545 C 1543.07 -0.853341 -1.34871 0
M  V30 16546 C 1543.27 0.519725 -1.94682 0
M  V30 16547 O 1542.33 1.26966 -2.18256 0
M  V30 16548 C 1543.64 -1.9649 -2.27623 0
M  V30 16549 C 1545.19 -1.99507 -2.41176 0
M  V30 16550 C 1545.67 -3.09879 -3.37253 0
M  V30 16551 N 1547.16 -3.09281 -3.44818 0
M  V30 16552 C 1547.89 -3.91322 -4.19111 0
M  V30 16553 N 1547.39 -4.83337 -4.96344 0
M  V30 16554 N 1549.18 -3.79483 -4.14667 0
M  V30 16555 H 1541.33 -2.00335 -0.70567 0
M  V30 16556 H 1543.6 -0.871431 -0.373245 0
M  V30 16557 H 1543.3 -2.95397 -1.90875 0
M  V30 16558 H 1543.18 -1.86481 -3.27879 0
M  V30 16559 H 1545.56 -1.01223 -2.77196 0
M  V30 16560 H 1545.64 -2.13592 -1.40756 0
M  V30 16561 H 1545.29 -4.08391 -3.01959 0
M  V30 16562 H 1545.22 -2.93033 -4.37537 0
M  V30 16563 H 1547.71 -2.42617 -2.89733 0
M  V30 16564 H 1548.02 -5.42462 -5.50413 0
M  V30 16565 H 1546.37 -4.87356 -4.95489 0
M  V30 16566 H 1549.56 -3.06938 -3.53421 0
M  V30 16567 H 1549.73 -4.43653 -4.72309 0
M  V30 16568 N 1543.14 1.28707 -0.909517 0
M  V30 16569 C 1544.07 2.29845 -0.411552 0
M  V30 16570 C 1545.05 1.62001 0.518615 0
M  V30 16571 O 1546.23 1.89442 0.427252 0
M  V30 16572 C 1543.36 3.45501 0.353013 0
M  V30 16573 C 1542.32 4.25213 -0.487625 0
M  V30 16574 C 1541.64 5.33164 0.405026 0
M  V30 16575 C 1542.94 4.9237 -1.74268 0
M  V30 16576 H 1544.64 2.71746 -1.25676 0
M  V30 16577 H 1542.18 1.30639 -0.605759 0
M  V30 16578 H 1544.14 4.15338 0.712191 0
M  V30 16579 H 1542.86 3.02469 1.23209 0
M  V30 16580 H 1541.52 3.57098 -0.829265 0
M  V30 16581 H 1541.17 4.86375 1.28252 0
M  V30 16582 H 1540.87 5.87399 -0.153811 0
M  V30 16583 H 1542.39 6.0585 0.760179 0
M  V30 16584 H 1543.8 5.5459 -1.45266 0
M  V30 16585 H 1542.2 5.56581 -2.2436 0
M  V30 16586 H 1543.27 4.171 -2.47297 0
M  V30 16587 N 1544.61 0.673042 1.42506 0
M  V30 16588 C 1545.52 -0.00648572 2.34599 0
M  V30 16589 C 1546.54 -0.790758 1.54994 0
M  V30 16590 O 1547.72 -0.733482 1.87569 0
M  V30 16591 C 1544.78 -0.94734 3.33506 0
M  V30 16592 C 1543.84 -0.157795 4.2901 0
M  V30 16593 C 1543.08 -1.05384 5.23192 0
M  V30 16594 O 1543.3 -2.29334 5.22266 0
M  V30 16595 O 1542.23 -0.515584 5.99688 0
M  V30 16596 H 1546.06 0.752059 2.94241 0
M  V30 16597 H 1543.64 0.433272 1.42979 0
M  V30 16598 H 1545.53 -1.4875 3.94273 0
M  V30 16599 H 1544.2 -1.68577 2.7634 0
M  V30 16600 H 1543.11 0.426426 3.71662 0
M  V30 16601 H 1544.44 0.54148 4.89212 0
M  V30 16602 N 1546.09 -1.52004 0.416254 0
M  V30 16603 C 1547.32 -2.0679 -0.158937 0
M  V30 16604 C 1547.74 -1.28366 -1.37491 0
M  V30 16605 O 1547.1 -0.315815 -1.78528 0
M  V30 16606 C 1547.15 -3.57381 -0.480717 0
M  V30 16607 O 1546.25 -3.81321 -1.5706 0
M  V30 16608 H 1545.59 -0.663907 -0.0110938 0
M  V30 16609 H 1548.12 -1.95863 0.591509 0
M  V30 16610 H 1548.13 -4.01283 -0.737297 0
M  V30 16611 H 1546.81 -4.13893 0.408137 0
M  V30 16612 H 1545.39 -3.49296 -1.30563 0
M  V30 16613 N 1547.57 -0.146903 -1.56914 0
M  V30 16614 C 1548.5 0.823803 -2.13883 0
M  V30 16615 C 1549.52 1.21081 -1.08826 0
M  V30 16616 O 1550.7 1.15491 -1.36103 0
M  V30 16617 C 1547.8 2.11686 -2.64655 0
M  V30 16618 C 1546.98 1.89723 -3.94112 0
M  V30 16619 C 1546.04 3.03016 -4.30195 0
M  V30 16620 O 1545.06 2.74711 -4.9852 0
M  V30 16621 N 1546.26 4.30187 -3.89768 0
M  V30 16622 H 1549.03 0.336904 -2.978 0
M  V30 16623 H 1546.59 0.0366704 -1.61858 0
M  V30 16624 H 1548.58 2.86525 -2.85807 0
M  V30 16625 H 1547.15 2.51639 -1.85464 0
M  V30 16626 H 1546.37 0.989208 -3.81587 0
M  V30 16627 H 1547.66 1.72387 -4.78707 0
M  V30 16628 H 1547.06 4.56051 -3.34715 0
M  V30 16629 H 1545.62 5.01807 -4.15972 0
M  V30 16630 N 1549.05 1.57088 0.126881 0
M  V30 16631 C 1549.98 1.94951 1.18614 0
M  V30 16632 C 1550.96 0.818067 1.40522 0
M  V30 16633 O 1552.14 1.07553 1.54805 0
M  V30 16634 C 1549.27 2.23893 2.54144 0
M  V30 16635 C 1548.32 3.46475 2.48712 0
M  V30 16636 S 1549.15 4.9934 1.93443 0
M  V30 16637 C 1550.31 5.31426 3.30662 0
M  V30 16638 H 1550.54 2.84492 0.863219 0
M  V30 16639 H 1548.07 1.50759 0.333323 0
M  V30 16640 H 1550.03 2.41247 3.3213 0
M  V30 16641 H 1548.69 1.3498 2.83618 0
M  V30 16642 H 1547.88 3.64067 3.48528 0
M  V30 16643 H 1547.49 3.28467 1.78844 0
M  V30 16644 H 1549.78 5.26125 4.26847 0
M  V30 16645 H 1550.72 6.32726 3.17905 0
M  V30 16646 H 1551.13 4.5891 3.28727 0
M  V30 16647 N 1550.53 -0.396836 1.52522 0
M  V30 16648 C 1551.75 -1.16404 1.71049 0
M  V30 16649 C 1552.17 -1.83946 0.425378 0
M  V30 16650 O 1551.53 -1.7237 -0.599561 0
M  V30 16651 C 1551.58 -2.21796 2.85463 0
M  V30 16652 O 1551.3 -1.57009 4.08998 0
M  V30 16653 C 1552.8 -3.11303 3.15603 0
M  V30 16654 H 1550.02 -0.349314 0.572905 0
M  V30 16655 H 1552.56 -0.465297 1.99136 0
M  V30 16656 H 1550.72 -2.87318 2.59859 0
M  V30 16657 H 1551.13 -2.26977 4.72844 0
M  V30 16658 H 1552.61 -3.81299 3.99143 0
M  V30 16659 H 1553.08 -3.7437 2.2966 0
M  V30 16660 H 1553.69 -2.51435 3.43017 0
M  V30 16661 N 1552.01 -1.43353 -0.654814 0
M  V30 16662 C 1553.23 -1.48322 -1.4425 0
M  V30 16663 C 1553.65 -0.100608 -1.88532 0
M  V30 16664 O 1553.01 0.888831 -1.59393 0
M  V30 16665 C 1553.06 -2.42769 -2.67853 0
M  V30 16666 O 1552.78 -3.75653 -2.25424 0
M  V30 16667 C 1554.28 -2.56964 -3.61226 0
M  V30 16668 H 1551.5 -0.503805 -0.443195 0
M  V30 16669 H 1554.04 -1.88078 -0.802916 0
M  V30 16670 H 1552.2 -2.06212 -3.27956 0
M  V30 16671 H 1552.61 -4.26427 -3.05386 0
M  V30 16672 H 1554.09 -3.27129 -4.44624 0
M  V30 16673 H 1554.56 -1.61404 -4.08467 0
M  V30 16674 H 1555.17 -2.94325 -3.07006 0
M  V30 16675 N 1553.48 0.89303 -1.29857 0
M  V30 16676 C 1554.76 1.62492 -1.08884 0
M  V30 16677 C 1555.14 2.07926 0.364695 0
M  V30 16678 O 1554.49 1.84009 1.35473 0
M  V30 16679 C 1554.7 2.80063 -2.08245 0
M  V30 16680 C 1556.05 3.50589 -2.39526 0
M  V30 16681 O 1557.07 2.90241 -2.06492 0
M  V30 16682 O 1555.93 4.59399 -2.95998 0
M  V30 16683 H 1553.02 0.713805 -0.417626 0
M  V30 16684 H 1555.57 0.940513 -1.41253 0
M  V30 16685 H 1554.34 2.43735 -3.06119 0
M  V30 16686 H 1553.96 3.56205 -1.76645 0
M  V30 16687 N 1554.96 1.12442 1.10429 0
M  V30 16688 C 1556.21 0.874466 1.81758 0
M  V30 16689 C 1556.52 -0.601487 1.86122 0
M  V30 16690 O 1557.73 -0.968037 2.53656 0
M  V30 16691 C 1556.19 1.51478 3.2647 0
M  V30 16692 C 1555.79 3.02552 3.30403 0
M  V30 16693 C 1557.54 1.34511 4.02625 0
M  V30 16694 C 1555.44 3.59518 4.69575 0
M  V30 16695 H 1554.37 0.323494 0.681078 0
M  V30 16696 H 1557.03 1.35091 1.24188 0
M  V30 16697 H 1555.41 0.966 3.84037 0
M  V30 16698 H 1556.58 3.63924 2.82659 0
M  V30 16699 H 1554.9 3.18917 2.67733 0
M  V30 16700 H 1557.49 1.74492 5.05427 0
M  V30 16701 H 1557.84 0.288788 4.15297 0
M  V30 16702 H 1558.37 1.86311 3.51473 0
M  V30 16703 H 1555.11 4.6491 4.62103 0
M  V30 16704 H 1554.63 3.02922 5.17686 0
M  V30 16705 H 1556.31 3.58581 5.38543 0
M  V30 16706 N 1556.44 -1.28223 0.91633 0
M  V30 16707 C 1557.37 -2.26291 0.363986 0
M  V30 16708 C 1558.38 -1.54964 -0.498988 0
M  V30 16709 O 1559.57 -1.75726 -0.31345 0
M  V30 16710 C 1556.67 -3.35219 -0.498126 0
M  V30 16711 C 1555.85 -4.36054 0.34293 0
M  V30 16712 C 1554.91 -5.24232 -0.454688 0
M  V30 16713 O 1553.93 -5.69043 0.133649 0
M  V30 16714 N 1555.13 -5.53268 -1.75714 0
M  V30 16715 H 1557.9 -2.74323 1.20694 0
M  V30 16716 H 1555.46 -1.41731 0.782551 0
M  V30 16717 H 1557.45 -3.91148 -1.03852 0
M  V30 16718 H 1556.02 -2.86876 -1.2418 0
M  V30 16719 H 1555.24 -3.7955 1.06468 0
M  V30 16720 H 1556.53 -5.00444 0.918322 0
M  V30 16721 H 1555.93 -5.18698 -2.25762 0
M  V30 16722 H 1554.48 -6.11943 -2.2443 0
M  V30 16723 N 1557.92 -0.68059 -1.42147 0
M  V30 16724 C 1559.15 -0.213839 -2.05792 0
M  V30 16725 C 1559.56 1.13123 -1.51158 0
M  V30 16726 O 1558.92 1.7039 -0.653708 0
M  V30 16727 C 1558.97 -0.146507 -3.61203 0
M  V30 16728 O 1558.69 -1.43843 -4.13813 0
M  V30 16729 C 1560.19 0.343043 -4.41971 0
M  V30 16730 H 1557.41 -0.10262 -0.663106 0
M  V30 16731 H 1559.95 -0.928957 -1.82183 0
M  V30 16732 H 1558.11 0.519335 -3.83903 0
M  V30 16733 H 1558.52 -1.31561 -5.07732 0
M  V30 16734 H 1560 0.339053 -5.50958 0
M  V30 16735 H 1560.47 1.37933 -4.16979 0
M  V30 16736 H 1561.08 -0.291267 -4.24301 0
M  V30 16737 N 1559.4 1.51781 -0.424309 0
M  V30 16738 C 1560.64 2.01157 0.147925 0
M  V30 16739 C 1560.96 1.31369 1.44919 0
M  V30 16740 O 1562.16 1.71643 2.10359 0
M  V30 16741 C 1560.62 3.58526 0.31417 0
M  V30 16742 C 1560.23 4.37242 -0.975898 0
M  V30 16743 C 1561.97 4.16088 0.840876 0
M  V30 16744 C 1559.88 5.86287 -0.776009 0
M  V30 16745 H 1558.81 0.751684 0.0590568 0
M  V30 16746 H 1561.46 1.74998 -0.552079 0
M  V30 16747 H 1559.84 3.81077 1.07687 0
M  V30 16748 H 1561.02 4.26444 -1.74592 0
M  V30 16749 H 1559.33 3.9107 -1.43015 0
M  V30 16750 H 1561.93 5.25138 1.0067 0
M  V30 16751 H 1562.27 3.7442 1.81977 0
M  V30 16752 H 1562.8 3.97565 0.136836 0
M  V30 16753 H 1559.54 6.32343 -1.7269 0
M  V30 16754 H 1559.06 5.99783 -0.0455544 0
M  V30 16755 H 1560.74 6.45609 -0.424095 0
M  V30 16756 N 1560.87 0.155222 1.56834 0
M  V30 16757 C 1561.8 -0.777258 2.20184 0
M  V30 16758 C 1562.78 -1.25102 1.15254 0
M  V30 16759 O 1563.97 -1.3071 1.43627 0
M  V30 16760 C 1561.1 -2.01326 2.82993 0
M  V30 16761 C 1560.05 -1.67596 3.93822 0
M  V30 16762 C 1559.38 -2.98529 4.43604 0
M  V30 16763 C 1560.68 -0.916302 5.142 0
M  V30 16764 H 1562.37 -0.249257 2.98361 0
M  V30 16765 H 1559.92 -0.118448 1.43512 0
M  V30 16766 H 1561.87 -2.67048 3.2598 0
M  V30 16767 H 1560.6 -2.56513 2.0216 0
M  V30 16768 H 1559.26 -1.0425 3.51465 0
M  V30 16769 H 1558.9 -3.51723 3.59583 0
M  V30 16770 H 1558.6 -2.76721 5.18362 0
M  V30 16771 H 1560.13 -3.65308 4.89267 0
M  V30 16772 H 1561.54 -1.47577 5.5398 0
M  V30 16773 H 1559.94 -0.797856 5.94772 0
M  V30 16774 H 1561.01 0.0904351 4.84816 0
M  V30 16775 N 1562.35 -1.57153 -0.118549 0
M  V30 16776 C 1563.28 -1.97022 -1.1711 0
M  V30 16777 C 1564.3 -0.869599 -1.37629 0
M  V30 16778 O 1565.49 -1.14788 -1.36696 0
M  V30 16779 C 1562.59 -2.25371 -2.53103 0
M  V30 16780 C 1561.76 -3.56677 -2.5318 0
M  V30 16781 C 1560.82 -3.73233 -3.70922 0
M  V30 16782 O 1559.84 -4.4534 -3.54487 0
M  V30 16783 N 1561.05 -3.12036 -4.89504 0
M  V30 16784 H 1563.81 -2.87921 -0.831959 0
M  V30 16785 H 1561.37 -1.58947 -0.307817 0
M  V30 16786 H 1563.36 -2.33662 -3.3043 0
M  V30 16787 H 1561.93 -1.40597 -2.79197 0
M  V30 16788 H 1561.15 -3.5957 -1.61564 0
M  V30 16789 H 1562.44 -4.42982 -2.50288 0
M  V30 16790 H 1561.84 -2.53422 -5.05761 0
M  V30 16791 H 1560.4 -3.25846 -5.64506 0
M  V30 16792 N 1563.83 0.388742 -1.5273 0
M  V30 16793 C 1564.76 1.48133 -1.80496 0
M  V30 16794 C 1565.74 1.56899 -0.657008 0
M  V30 16795 O 1566.93 1.71844 -0.904621 0
M  V30 16796 C 1564.06 2.85742 -1.97405 0
M  V30 16797 C 1563.01 2.91815 -3.13094 0
M  V30 16798 C 1562.34 4.31876 -3.15258 0
M  V30 16799 C 1563.64 2.61438 -4.52159 0
M  V30 16800 H 1565.33 1.25147 -2.7199 0
M  V30 16801 H 1562.88 0.600603 -1.30877 0
M  V30 16802 H 1564.83 3.62182 -2.15412 0
M  V30 16803 H 1563.55 3.10065 -1.02601 0
M  V30 16804 H 1562.21 2.17824 -2.9487 0
M  V30 16805 H 1561.86 4.53239 -2.18135 0
M  V30 16806 H 1561.56 4.3686 -3.92972 0
M  V30 16807 H 1563.08 5.10221 -3.3542 0
M  V30 16808 H 1564.5 3.27596 -4.70483 0
M  V30 16809 H 1562.89 2.77771 -5.31943 0
M  V30 16810 H 1563.96 1.56778 -4.58856 0
M  V30 16811 N 1565.31 1.43698 0.647203 0
M  V30 16812 C 1566.24 1.52135 1.77136 0
M  V30 16813 C 1567.22 0.375551 1.65902 0
M  V30 16814 O 1568.4 0.593564 1.84907 0
M  V30 16815 C 1565.53 1.44974 3.15594 0
M  V30 16816 C 1564.49 2.57866 3.41598 0
M  V30 16817 C 1563.81 2.35757 4.7992 0
M  V30 16818 C 1565.11 4.00089 3.35747 0
M  V30 16819 H 1566.81 2.46227 1.70332 0
M  V30 16820 H 1564.35 1.18507 0.818046 0
M  V30 16821 H 1566.31 1.4948 3.93997 0
M  V30 16822 H 1565.03 0.473905 3.23143 0
M  V30 16823 H 1563.69 2.52722 2.65569 0
M  V30 16824 H 1563.34 1.36403 4.84152 0
M  V30 16825 H 1563.04 3.11436 4.98278 0
M  V30 16826 H 1564.56 2.42055 5.60572 0
M  V30 16827 H 1565.98 4.06687 4.04078 0
M  V30 16828 H 1564.37 4.75842 3.65642 0
M  V30 16829 H 1565.44 4.24798 2.33825 0
M  V30 16830 N 1566.79 -0.886131 1.30328 0
M  V30 16831 C 1567.72 -1.99733 1.12425 0
M  V30 16832 C 1568.73 -1.62659 0.067824 0
M  V30 16833 O 1569.92 -1.75721 0.313723 0
M  V30 16834 C 1567.02 -3.31757 0.692122 0
M  V30 16835 C 1566.19 -3.97276 1.83004 0
M  V30 16836 C 1565.25 -5.076 1.38666 0
M  V30 16837 O 1564.28 -5.29295 2.09368 0
M  V30 16838 N 1565.48 -5.79895 0.265039 0
M  V30 16839 H 1568.25 -2.15643 2.0813 0
M  V30 16840 H 1565.81 -1.05915 1.22449 0
M  V30 16841 H 1567.8 -4.02926 0.37854 0
M  V30 16842 H 1566.37 -3.12122 -0.172864 0
M  V30 16843 H 1565.59 -3.19295 2.3118 0
M  V30 16844 H 1566.88 -4.37789 2.59264 0
M  V30 16845 H 1566.27 -5.64771 -0.324121 0
M  V30 16846 H 1564.83 -6.51799 0.0109044 0
M  V30 16847 N 1568.26 -1.13026 -1.09832 0
M  V30 16848 C 1569.21 -0.803817 -2.1635 0
M  V30 16849 C 1570.18 0.232226 -1.64469 0
M  V30 16850 O 1571.37 0.105403 -1.90509 0
M  V30 16851 C 1568.51 -0.271414 -3.44031 0
M  V30 16852 C 1567.62 -1.36602 -4.09834 0
M  V30 16853 C 1566.75 -0.792393 -5.25257 0
M  V30 16854 C 1565.79 -1.86569 -5.82974 0
M  V30 16855 N 1564.93 -1.31032 -6.89764 0
M  V30 16856 H 1569.77 -1.71624 -2.43617 0
M  V30 16857 H 1567.31 -0.856772 -1.19574 0
M  V30 16858 H 1569.27 0.0553638 -4.17163 0
M  V30 16859 H 1567.9 0.604154 -3.17096 0
M  V30 16860 H 1566.95 -1.80946 -3.34608 0
M  V30 16861 H 1568.26 -2.17737 -4.48767 0
M  V30 16862 H 1567.41 -0.416652 -6.05268 0
M  V30 16863 H 1566.15 0.0500894 -4.87674 0
M  V30 16864 H 1565.16 -2.25054 -5.01628 0
M  V30 16865 H 1566.38 -2.7115 -6.22619 0
M  V30 16866 H 1564.33 -0.489768 -6.54169 0
M  V30 16867 H 1564.25 -2.0582 -7.27444 0
M  V30 16868 H 1565.51 -0.962011 -7.73541 0
M  V30 16869 N 1569.74 1.27735 -0.923117 0
M  V30 16870 C 1570.67 2.26095 -0.375982 0
M  V30 16871 C 1571.69 1.55227 0.490763 0
M  V30 16872 O 1572.88 1.7589 0.304127 0
M  V30 16873 C 1569.98 3.35479 0.480342 0
M  V30 16874 C 1569.15 4.35866 -0.36605 0
M  V30 16875 C 1568.21 5.24466 0.42688 0
M  V30 16876 O 1567.23 5.68964 -0.163825 0
M  V30 16877 N 1568.44 5.54192 1.72777 0
M  V30 16878 H 1571.2 2.73679 -1.22147 0
M  V30 16879 H 1568.76 1.41314 -0.790056 0
M  V30 16880 H 1570.75 3.91693 1.01776 0
M  V30 16881 H 1569.32 2.87531 1.22657 0
M  V30 16882 H 1568.54 3.7898 -1.08479 0
M  V30 16883 H 1569.83 4.9995 -0.944849 0
M  V30 16884 H 1569.23 5.19888 2.23008 0
M  V30 16885 H 1567.79 6.13125 2.21181 0
M  V30 16886 N 1571.22 0.688118 1.41784 0
M  V30 16887 C 1572.45 0.22475 2.05676 0
M  V30 16888 C 1572.86 -1.1232 1.51755 0
M  V30 16889 O 1572.22 -1.70041 0.662735 0
M  V30 16890 C 1572.27 0.165661 3.6112 0
M  V30 16891 O 1571.99 1.46035 4.13044 0
M  V30 16892 C 1573.49 -0.319599 4.42146 0
M  V30 16893 H 1570.71 0.106135 0.662553 0
M  V30 16894 H 1573.26 0.938605 1.81688 0
M  V30 16895 H 1571.41 -0.498968 3.84173 0
M  V30 16896 H 1571.83 1.34252 5.07027 0
M  V30 16897 H 1573.3 -0.30983 5.5113 0
M  V30 16898 H 1573.78 -1.3572 4.17704 0
M  V30 16899 H 1574.38 0.313764 4.24141 0
M  V30 16900 N 1572.7 -1.51554 0.432352 0
M  V30 16901 C 1573.93 -2.06462 -0.1346 0
M  V30 16902 C 1574.34 -1.30027 -1.36889 0
M  V30 16903 O 1573.7 -0.358447 -1.78945 0
M  V30 16904 C 1573.75 -3.58538 -0.461822 0
M  V30 16905 O 1573.47 -4.32085 0.723471 0
M  V30 16906 C 1574.97 -4.29943 -1.07999 0
M  V30 16907 H 1572.19 -0.670923 -0.0101329 0
M  V30 16908 H 1574.74 -1.9519 0.609999 0
M  V30 16909 H 1572.89 -3.6974 -1.15632 0
M  V30 16910 H 1573.3 -5.22611 0.444757 0
M  V30 16911 H 1574.78 -5.37451 -1.25898 0
M  V30 16912 H 1575.26 -3.87912 -2.05963 0
M  V30 16913 H 1575.86 -4.23171 -0.425022 0
M  V30 16914 N 1574.18 -0.163538 -1.56749 0
M  V30 16915 C 1575.42 0.48412 -1.96937 0
M  V30 16916 C 1575.76 1.63418 -1.04919 0
M  V30 16917 O 1575.03 1.94269 -0.094783 0
M  V30 16918 C 1575.31 0.974532 -3.46663 0
M  V30 16919 C 1575.17 -0.175173 -4.49459 0
M  V30 16920 C 1576.49 1.85082 -3.9929 0
M  V30 16921 H 1573.6 0.174503 -0.716043 0
M  V30 16922 H 1576.25 -0.248103 -1.88373 0
M  V30 16923 H 1574.4 1.59849 -3.54091 0
M  V30 16924 H 1576.07 -0.812038 -4.54096 0
M  V30 16925 H 1574.31 -0.831853 -4.2575 0
M  V30 16926 H 1574.98 0.20996 -5.51601 0
M  V30 16927 H 1577.46 1.32488 -3.94444 0
M  V30 16928 H 1576.33 2.163 -5.04485 0
M  V30 16929 H 1576.6 2.79378 -3.42638 0
M  V30 16930 N 1575.65 1.57214 0.110213 0
M  V30 16931 C 1576.9 1.85586 0.817649 0
M  V30 16932 C 1577.23 0.750536 1.79111 0
M  V30 16933 O 1576.51 -0.242864 1.92978 0
M  V30 16934 C 1576.79 3.24565 1.55979 0
M  V30 16935 C 1576.64 4.45708 0.605339 0
M  V30 16936 C 1577.96 3.61233 2.51393 0
M  V30 16937 H 1575.08 0.675037 0.295794 0
M  V30 16938 H 1577.72 1.89824 0.0816541 0
M  V30 16939 H 1575.87 3.21083 2.18718 0
M  V30 16940 H 1577.55 4.61298 -0.0138894 0
M  V30 16941 H 1575.79 4.33722 -0.0824644 0
M  V30 16942 H 1576.46 5.39643 1.16143 0
M  V30 16943 H 1578.94 3.65563 1.98754 0
M  V30 16944 H 1577.81 4.59438 3.00346 0
M  V30 16945 H 1578.07 2.89116 3.34461 0
M  V30 16946 N 1577.13 -0.380637 1.52934 0
M  V30 16947 C 1578.54 -0.958182 1.60237 0
M  V30 16948 C 1578.89 -1.90722 0.460393 0
M  V30 16949 O 1578.02 -2.12376 -0.415354 0
M  V30 16950 C 1578.61 -1.7446 2.90429 0
M  V30 16951 C 1577.17 -2.27172 3.00116 0
M  V30 16952 C 1576.32 -1.07969 2.55417 0
M  V30 16953 H 1579.27 -0.159908 1.57892 0
M  V30 16954 H 1579.29 -2.60456 2.77385 0
M  V30 16955 H 1578.8 -1.05362 3.73524 0
M  V30 16956 H 1576.91 -2.99557 2.21577 0
M  V30 16957 H 1577.02 -2.56086 4.04916 0
M  V30 16958 H 1575.38 -1.4422 2.09935 0
M  V30 16959 H 1576.17 -0.403925 3.40915 0
M  V30 16960 N 1578.61 -1.44039 -0.639573 0
M  V30 16961 C 1580.02 -1.41236 -1.22104 0
M  V30 16962 C 1580.37 -0.123367 -1.95812 0
M  V30 16963 O 1579.5 0.776641 -2.01983 0
M  V30 16964 C 1580.09 -2.55853 -2.22092 0
M  V30 16965 C 1578.65 -2.56271 -2.75685 0
M  V30 16966 C 1577.8 -2.32877 -1.50544 0
M  V30 16967 H 1580.75 -1.52742 -0.430756 0
M  V30 16968 H 1580.77 -2.28123 -3.04533 0
M  V30 16969 H 1580.28 -3.49653 -1.68417 0
M  V30 16970 H 1578.38 -1.66389 -3.33385 0
M  V30 16971 H 1578.5 -3.54486 -3.22299 0
M  V30 16972 H 1576.86 -1.81807 -1.78377 0
M  V30 16973 H 1577.64 -3.2878 -0.987845 0
M  V30 16974 N 1580.09 0.879207 -1.30796 0
M  V30 16975 C 1581.05 1.96707 -1.17639 0
M  V30 16976 C 1582.05 1.6045 -0.106013 0
M  V30 16977 O 1583.24 1.70553 -0.354573 0
M  V30 16978 C 1580.37 3.31292 -0.803625 0
M  V30 16979 H 1581.57 2.09806 -2.14293 0
M  V30 16980 H 1579.12 1.06634 -1.14276 0
M  V30 16981 H 1579.85 3.23894 0.162159 0
M  V30 16982 H 1579.64 3.58979 -1.57723 0
M  V30 16983 H 1581.13 4.11077 -0.735201 0
M  V30 16984 N 1581.57 1.13606 1.09231 0
M  V30 16985 C 1582.8 0.920958 1.84938 0
M  V30 16986 C 1583.21 -0.533706 1.81516 0
M  V30 16987 O 1582.55 -1.38127 1.21105 0
M  V30 16988 C 1582.61 1.33357 3.33851 0
M  V30 16989 C 1582.27 2.80206 3.61017 0
M  V30 16990 C 1583.27 3.78356 3.56571 0
M  V30 16991 C 1580.96 3.17415 3.89298 0
M  V30 16992 C 1582.95 5.11726 3.8002 0
M  V30 16993 C 1580.64 4.50963 4.12402 0
M  V30 16994 C 1581.64 5.47928 4.07755 0
M  V30 16995 O 1581.32 6.79066 4.3026 0
M  V30 16996 H 1581.06 0.328256 0.590952 0
M  V30 16997 H 1583.61 1.51298 1.38917 0
M  V30 16998 H 1581.84 0.684821 3.80588 0
M  V30 16999 H 1583.53 1.09061 3.90974 0
M  V30 17000 H 1584.29 3.50956 3.34746 0
M  V30 17001 H 1580.17 2.42542 3.92039 0
M  V30 17002 H 1583.72 5.87399 3.76309 0
M  V30 17003 H 1579.61 4.78088 4.33708 0
M  V30 17004 H 1580.38 6.85199 4.47711 0
M  V30 17005 N 1583.05 -1.27244 0.929878 0
M  V30 17006 C 1584.27 -1.98912 0.587277 0
M  V30 17007 C 1584.7 -1.68888 -0.828168 0
M  V30 17008 O 1584.05 -0.930394 -1.55606 0
M  V30 17009 C 1584.1 -3.51097 0.822399 0
M  V30 17010 O 1583.21 -4.12251 -0.110968 0
M  V30 17011 H 1582.55 -0.624404 0.225867 0
M  V30 17012 H 1585.08 -1.61997 1.24973 0
M  V30 17013 H 1585.09 -4.01255 0.738824 0
M  V30 17014 H 1583.76 -3.72282 1.85416 0
M  V30 17015 H 1582.34 -3.72893 0.0227053 0
M  V30 17016 N 1584.52 -0.695628 -1.41417 0
M  V30 17017 C 1585.46 0.0202064 -2.28191 0
M  V30 17018 C 1586.43 0.787887 -1.42236 0
M  V30 17019 O 1587.62 0.778692 -1.71664 0
M  V30 17020 C 1584.75 1.03599 -3.22467 0
M  V30 17021 C 1583.79 0.361472 -4.24965 0
M  V30 17022 S 1584.62 -0.896181 -5.27948 0
M  V30 17023 C 1585.78 0.118005 -6.25789 0
M  V30 17024 H 1586.01 -0.715769 -2.88555 0
M  V30 17025 H 1583.55 -0.485904 -1.46555 0
M  V30 17026 H 1585.5 1.6169 -3.77315 0
M  V30 17027 H 1584.17 1.74454 -2.61198 0
M  V30 17028 H 1583.36 1.12866 -4.912 0
M  V30 17029 H 1582.96 -0.146366 -3.73713 0
M  V30 17030 H 1585.25 0.971258 -6.70502 0
M  V30 17031 H 1586.2 -0.510417 -7.06258 0
M  V30 17032 H 1586.6 0.472806 -5.62516 0
M  V30 17033 N 1586 1.51322 -0.440383 0
M  V30 17034 C 1587.25 2.02413 0.125248 0
M  V30 17035 C 1587.58 1.32374 1.42094 0
M  V30 17036 O 1586.86 0.439624 1.89467 0
M  V30 17037 C 1587.14 3.58483 0.340858 0
M  V30 17038 C 1586.99 4.39134 -0.973701 0
M  V30 17039 C 1588.31 4.25891 1.10927 0
M  V30 17040 H 1585.43 0.735683 0.0440452 0
M  V30 17041 H 1588.07 1.80932 -0.579976 0
M  V30 17042 H 1586.22 3.76917 0.941572 0
M  V30 17043 H 1587.89 4.32343 -1.60863 0
M  V30 17044 H 1586.14 4.04097 -1.57759 0
M  V30 17045 H 1586.81 5.46506 -0.776845 0
M  V30 17046 H 1589.28 4.11746 0.600403 0
M  V30 17047 H 1588.16 5.34967 1.2289 0
M  V30 17048 H 1588.42 3.86958 2.13813 0
M  V30 17049 N 1587.48 0.171848 1.5666 0
M  V30 17050 C 1588.71 -0.479221 2.01274 0
M  V30 17051 C 1589.12 -1.56771 1.05206 0
M  V30 17052 O 1588.48 -1.82423 0.0530164 0
M  V30 17053 C 1588.53 -1.05705 3.457 0
M  V30 17054 O 1588.25 -0.0120133 4.38098 0
M  V30 17055 C 1589.75 -1.78629 4.05717 0
M  V30 17056 H 1586.97 -0.122598 0.659705 0
M  V30 17057 H 1589.52 0.273733 2.0266 0
M  V30 17058 H 1587.67 -1.7605 3.45087 0
M  V30 17059 H 1588.09 -0.438714 5.22662 0
M  V30 17060 H 1589.56 -2.14319 5.08696 0
M  V30 17061 H 1590.04 -2.68149 3.4784 0
M  V30 17062 H 1590.64 -1.12925 4.10034 0
M  V30 17063 N 1588.96 -1.5727 -0.101874 0
M  V30 17064 C 1589.92 -2.00625 -1.10826 0
M  V30 17065 C 1590.92 -0.89878 -1.33336 0
M  V30 17066 O 1592.11 -1.16442 -1.29564 0
M  V30 17067 C 1589.24 -2.36113 -2.45893 0
M  V30 17068 H 1590.44 -2.90748 -0.735238 0
M  V30 17069 H 1587.99 -1.52406 -0.346713 0
M  V30 17070 H 1588.72 -1.48923 -2.88084 0
M  V30 17071 H 1588.51 -3.169 -2.30904 0
M  V30 17072 H 1590 -2.70336 -3.1829 0
M  V30 17073 N 1590.44 0.372521 -1.53134 0
M  V30 17074 C 1591.68 1.11368 -1.68646 0
M  V30 17075 C 1592 1.90034 -0.437275 0
M  V30 17076 O 1591.27 1.88062 0.548593 0
M  V30 17077 H 1589.85 0.414129 -0.621696 0
M  V30 17078 H 1592.52 0.42082 -1.90303 0
M  V30 17079 H 1591.61 1.80738 -2.54441 0
M  V30 17080 N 1591.91 1.44376 0.631925 0
M  V30 17081 C 1593.14 1.5082 1.42366 0
M  V30 17082 C 1593.56 0.133858 1.87623 0
M  V30 17083 O 1592.92 -0.876789 1.58689 0
M  V30 17084 C 1592.97 2.47698 2.62065 0
M  V30 17085 O 1592.07 1.97796 3.61871 0
M  V30 17086 H 1591.41 0.509318 0.426018 0
M  V30 17087 H 1593.94 1.89502 0.771376 0
M  V30 17088 H 1593.95 2.65708 3.09618 0
M  V30 17089 H 1592.63 3.47526 2.2847 0
M  V30 17090 H 1591.21 1.89549 3.21131 0
M  V30 17091 N 1593.39 -0.872258 1.31261 0
M  V30 17092 C 1594.3 -2.01185 1.20673 0
M  V30 17093 C 1595.32 -1.73558 0.123921 0
M  V30 17094 O 1596.49 -1.98487 0.341288 0
M  V30 17095 C 1593.56 -3.34481 0.91232 0
M  V30 17096 C 1592.62 -3.75446 2.08179 0
M  V30 17097 C 1591.85 -5.02382 1.80134 0
M  V30 17098 O 1592.08 -5.6564 0.735358 0
M  V30 17099 O 1591.01 -5.40059 2.65744 0
M  V30 17100 H 1594.84 -2.13049 2.16434 0
M  V30 17101 H 1592.42 -1.00021 1.10978 0
M  V30 17102 H 1594.3 -4.14419 0.763879 0
M  V30 17103 H 1592.98 -3.23696 -0.0152802 0
M  V30 17104 H 1591.88 -2.96159 2.28562 0
M  V30 17105 H 1593.22 -3.90853 2.99156 0
M  V30 17106 N 1594.87 -1.14184 -1.08627 0
M  V30 17107 C 1596.1 -0.930752 -1.84447 0
M  V30 17108 C 1596.51 0.524072 -1.81797 0
M  V30 17109 O 1595.85 1.37483 -1.21836 0
M  V30 17110 C 1595.91 -1.35125 -3.33139 0
M  V30 17111 C 1595.58 -2.82117 -3.59526 0
M  V30 17112 C 1596.57 -3.80242 -3.54559 0
M  V30 17113 C 1594.26 -3.19475 -3.87609 0
M  V30 17114 C 1596.25 -5.13734 -3.77301 0
M  V30 17115 C 1593.94 -4.53144 -4.10005 0
M  V30 17116 C 1594.94 -5.50082 -4.04844 0
M  V30 17117 O 1594.63 -6.81339 -4.26653 0
M  V30 17118 H 1594.36 -0.331385 -0.589203 0
M  V30 17119 H 1596.91 -1.52033 -1.38113 0
M  V30 17120 H 1595.14 -0.704995 -3.80219 0
M  V30 17121 H 1596.83 -1.11133 -3.9039 0
M  V30 17122 H 1597.6 -3.52726 -3.32881 0
M  V30 17123 H 1593.48 -2.44617 -3.90747 0
M  V30 17124 H 1597.02 -5.89386 -3.73188 0
M  V30 17125 H 1592.92 -4.80381 -4.31166 0
M  V30 17126 H 1593.68 -6.87563 -4.44071 0
M  V30 17127 N 1596.35 1.26749 -0.936613 0
M  V30 17128 C 1597.28 2.25684 -0.399941 0
M  V30 17129 C 1598.29 1.55739 0.474271 0
M  V30 17130 O 1599.48 1.76203 0.285454 0
M  V30 17131 C 1596.58 3.35969 0.444733 0
M  V30 17132 C 1595.76 4.35453 -0.412258 0
M  V30 17133 C 1594.81 5.24889 0.37123 0
M  V30 17134 O 1593.84 5.68758 -0.224162 0
M  V30 17135 N 1595.04 5.55993 1.66889 0
M  V30 17136 H 1597.81 2.72368 -1.25043 0
M  V30 17137 H 1595.37 1.40468 -0.805 0
M  V30 17138 H 1597.36 3.92751 0.976159 0
M  V30 17139 H 1595.93 2.88816 1.196 0
M  V30 17140 H 1595.15 3.77808 -1.12493 0
M  V30 17141 H 1596.44 4.9892 -0.997822 0
M  V30 17142 H 1595.84 5.22224 2.17481 0
M  V30 17143 H 1594.39 6.15436 2.14666 0
M  V30 17144 N 1597.83 0.703118 1.41046 0
M  V30 17145 C 1599.24 0.375417 1.55122 0
M  V30 17146 C 1599.44 -1.11696 1.67709 0
M  V30 17147 O 1598.5 -1.90289 1.65971 0
M  V30 17148 C 1599.81 1.13056 2.78638 0
M  V30 17149 C 1601.36 1.11564 2.92442 0
M  V30 17150 C 1601.83 1.85268 4.18855 0
M  V30 17151 N 1603.33 1.82275 4.25829 0
M  V30 17152 C 1604.06 2.36137 5.2252 0
M  V30 17153 N 1603.56 2.98502 6.25195 0
M  V30 17154 N 1605.35 2.26349 5.14512 0
M  V30 17155 H 1597.5 1.67096 1.31121 0
M  V30 17156 H 1599.76 0.705573 0.633144 0
M  V30 17157 H 1599.47 2.18524 2.75572 0
M  V30 17158 H 1599.34 0.714037 3.7038 0
M  V30 17159 H 1601.73 0.0691901 2.95019 0
M  V30 17160 H 1601.81 1.57128 2.01853 0
M  V30 17161 H 1601.46 2.89896 4.1704 0
M  V30 17162 H 1601.39 1.37133 5.08431 0
M  V30 17163 H 1603.88 1.36812 3.52265 0
M  V30 17164 H 1604.19 3.37149 6.95378 0
M  V30 17165 H 1602.53 3.02582 6.25675 0
M  V30 17166 H 1605.73 1.77294 4.33226 0
M  V30 17167 H 1605.9 2.68629 5.89697 0
M  V30 17168 N 1599.3 -1.51086 0.448402 0
M  V30 17169 C 1600.72 -1.86696 -0.0121264 0
M  V30 17170 C 1601.07 -1.36483 -1.40949 0
M  V30 17171 O 1600.19 -0.72024 -2.04062 0
M  V30 17172 C 1600.79 -3.38788 -0.0287814 0
M  V30 17173 C 1599.35 -3.73892 -0.433758 0
M  V30 17174 C 1598.49 -2.74869 0.366362 0
M  V30 17175 H 1601.44 -1.44153 0.663744 0
M  V30 17176 H 1601.46 -3.71204 -0.835915 0
M  V30 17177 H 1600.98 -3.75304 0.988368 0
M  V30 17178 H 1599.08 -3.4297 -1.4561 0
M  V30 17179 H 1599.19 -4.78862 -0.150869 0
M  V30 17180 H 1597.55 -2.54085 -0.176862 0
M  V30 17181 H 1598.34 -3.14228 1.3826 0
M  V30 17182 N 1600.78 -0.180154 -1.56567 0
M  V30 17183 C 1602.03 0.462656 -1.96322 0
M  V30 17184 C 1602.34 1.63788 -1.06925 0
M  V30 17185 O 1603.55 2.34751 -1.36398 0
M  V30 17186 C 1602.01 0.874492 -3.49114 0
M  V30 17187 C 1601.61 -0.27562 -4.47151 0
M  V30 17188 C 1603.36 1.48522 -3.9767 0
M  V30 17189 C 1601.27 0.156341 -5.91193 0
M  V30 17190 H 1600.2 0.176619 -0.733022 0
M  V30 17191 H 1602.85 -0.269793 -1.81506 0
M  V30 17192 H 1601.23 1.66318 -3.59381 0
M  V30 17193 H 1602.4 -1.05304 -4.48606 0
M  V30 17194 H 1600.72 -0.796878 -4.08704 0
M  V30 17195 H 1603.31 1.8206 -5.02751 0
M  V30 17196 H 1603.66 2.38634 -3.41115 0
M  V30 17197 H 1604.19 0.760806 -3.90457 0
M  V30 17198 H 1600.93 -0.710221 -6.51641 0
M  V30 17199 H 1600.45 0.898933 -5.93025 0
M  V30 17200 H 1602.13 0.597228 -6.44238 0
M  V30 17201 N 1602.26 1.57322 0.0935319 0
M  V30 17202 C 1603.51 1.85353 0.795445 0
M  V30 17203 C 1603.82 0.769647 1.79822 0
M  V30 17204 O 1605.03 0.937121 2.54814 0
M  V30 17205 C 1603.48 3.28711 1.4655 0
M  V30 17206 C 1603.09 4.45174 0.502415 0
M  V30 17207 C 1604.84 3.65965 2.15105 0
M  V30 17208 C 1602.74 5.79566 1.17715 0
M  V30 17209 H 1601.67 0.691394 0.300816 0
M  V30 17210 H 1604.32 1.83436 0.0484063 0
M  V30 17211 H 1602.71 3.25173 2.26005 0
M  V30 17212 H 1603.88 4.60062 -0.260754 0
M  V30 17213 H 1602.2 4.16328 -0.0775186 0
M  V30 17214 H 1604.79 4.63655 2.66323 0
M  V30 17215 H 1605.14 2.94667 2.94069 0
M  V30 17216 H 1605.67 3.71398 1.42508 0
M  V30 17217 H 1602.41 6.54099 0.428277 0
M  V30 17218 H 1601.93 5.68519 1.9117 0
M  V30 17219 H 1603.61 6.2418 1.70318 0
M  V30 17220 N 1603.74 -0.364395 1.53329 0
M  V30 17221 C 1604.67 -1.46658 1.76137 0
M  V30 17222 C 1605.68 -1.496 0.642166 0
M  V30 17223 O 1606.87 -1.53058 0.918452 0
M  V30 17224 C 1603.97 -2.85417 1.8273 0
M  V30 17225 C 1603.15 -3.06158 3.12388 0
M  V30 17226 C 1602.2 -4.25038 3.10208 0
M  V30 17227 O 1601.23 -4.20156 3.84002 0
M  V30 17228 N 1602.43 -5.32511 2.31111 0
M  V30 17229 H 1605.2 -1.27471 2.7124 0
M  V30 17230 H 1602.76 -0.554127 1.52122 0
M  V30 17231 H 1604.75 -3.63086 1.78748 0
M  V30 17232 H 1603.32 -2.97845 0.949058 0
M  V30 17233 H 1602.54 -2.16139 3.29663 0
M  V30 17234 H 1603.83 -3.16885 3.98072 0
M  V30 17235 H 1603.23 -5.39341 1.70669 0
M  V30 17236 H 1601.78 -6.08752 2.32946 0
M  V30 17237 N 1605.22 -1.44709 -0.62426 0
M  V30 17238 C 1606.15 -1.54934 -1.74693 0
M  V30 17239 C 1607.13 -0.401897 -1.65284 0
M  V30 17240 O 1608.31 -0.622906 -1.83939 0
M  V30 17241 C 1605.44 -1.49976 -3.13248 0
M  V30 17242 C 1604.4 -2.63267 -3.37453 0
M  V30 17243 C 1603.72 -2.43362 -4.76108 0
M  V30 17244 C 1605.02 -4.0538 -3.2934 0
M  V30 17245 H 1606.72 -2.48905 -1.66393 0
M  V30 17246 H 1604.26 -1.19794 -0.799088 0
M  V30 17247 H 1606.22 -1.55729 -3.91569 0
M  V30 17248 H 1604.94 -0.525254 -3.22349 0
M  V30 17249 H 1603.6 -2.56915 -2.61515 0
M  V30 17250 H 1603.25 -1.44088 -4.81921 0
M  V30 17251 H 1602.95 -3.19324 -4.93261 0
M  V30 17252 H 1604.47 -2.50943 -5.56651 0
M  V30 17253 H 1605.88 -4.13064 -3.97556 0
M  V30 17254 H 1604.28 -4.81599 -3.58025 0
M  V30 17255 H 1605.35 -4.28465 -2.27038 0
M  V30 17256 N 1606.69 0.865285 -1.31722 0
M  V30 17257 C 1607.63 1.97629 -1.14097 0
M  V30 17258 C 1608.61 1.62543 -0.0432185 0
M  V30 17259 O 1609.79 1.8743 -0.200528 0
M  V30 17260 C 1606.92 3.30419 -0.744374 0
M  V30 17261 C 1605.96 3.84488 -1.84584 0
M  V30 17262 S 1606.8 4.09372 -3.45217 0
M  V30 17263 C 1607.95 5.45153 -3.07505 0
M  V30 17264 H 1608.18 2.12276 -2.08149 0
M  V30 17265 H 1605.72 1.01601 -1.1626 0
M  V30 17266 H 1607.68 4.07164 -0.522308 0
M  V30 17267 H 1606.34 3.136 0.177113 0
M  V30 17268 H 1605.53 4.80499 -1.52108 0
M  V30 17269 H 1605.13 3.14551 -2.02321 0
M  V30 17270 H 1607.42 6.2699 -2.56689 0
M  V30 17271 H 1608.37 5.82582 -4.02497 0
M  V30 17272 H 1608.77 5.0865 -2.44817 0
M  V30 17273 N 1608.17 1.14759 1.0802 0
M  V30 17274 C 1609.59 0.8888 1.32561 0
M  V30 17275 C 1609.79 -0.467926 1.95992 0
M  V30 17276 O 1608.84 -1.21135 2.21546 0
M  V30 17277 C 1610.16 2.02456 2.22333 0
M  V30 17278 C 1611.71 2.05831 2.35802 0
M  V30 17279 C 1612.18 3.18711 3.28918 0
M  V30 17280 N 1613.67 3.18315 3.36496 0
M  V30 17281 C 1614.41 4.02297 4.08589 0
M  V30 17282 N 1613.9 4.96327 4.83354 0
M  V30 17283 N 1615.7 3.90344 4.0446 0
M  V30 17284 H 1607.85 2.02135 0.652307 0
M  V30 17285 H 1610.11 0.881021 0.35001 0
M  V30 17286 H 1609.82 3.00354 1.82976 0
M  V30 17287 H 1609.69 1.95108 3.2282 0
M  V30 17288 H 1612.08 1.08537 2.74415 0
M  V30 17289 H 1612.16 2.17248 1.35044 0
M  V30 17290 H 1611.8 4.16253 2.91025 0
M  V30 17291 H 1611.73 3.04531 4.29614 0
M  V30 17292 H 1614.22 2.50214 2.83199 0
M  V30 17293 H 1614.54 5.56865 5.35837 0
M  V30 17294 H 1612.88 5.00321 4.82394 0
M  V30 17295 H 1616.07 3.162 3.45159 0
M  V30 17296 H 1616.24 4.56019 4.60381 0
M  V30 17297 N 1609.65 -1.26251 0.943322 0
M  V30 17298 C 1610.88 -1.97739 0.608852 0
M  V30 17299 C 1611.29 -1.70225 -0.81663 0
M  V30 17300 O 1610.65 -0.97172 -1.54479 0
M  V30 17301 C 1610.7 -3.51505 0.844172 0
M  V30 17302 O 1610.42 -3.78063 2.21359 0
M  V30 17303 C 1611.92 -4.40233 0.52054 0
M  V30 17304 H 1609.14 -0.630619 0.229262 0
M  V30 17305 H 1611.69 -1.6071 1.26461 0
M  V30 17306 H 1609.84 -3.86687 0.23499 0
M  V30 17307 H 1610.26 -4.72582 2.27523 0
M  V30 17308 H 1611.73 -5.47074 0.735802 0
M  V30 17309 H 1612.21 -4.35811 -0.544541 0
M  V30 17310 H 1612.81 -4.10599 1.10854 0
M  V30 17311 N 1611.13 -0.710588 -1.40671 0
M  V30 17312 C 1612.35 -0.256007 -2.05814 0
M  V30 17313 C 1612.78 1.09178 -1.53173 0
M  V30 17314 O 1612.14 1.68665 -0.664977 0
M  V30 17315 C 1612.19 -0.240528 -3.59797 0
M  V30 17316 O 1611.29 0.779859 -4.04959 0
M  V30 17317 H 1610.63 -0.121326 -0.652822 0
M  V30 17318 H 1613.16 -0.969667 -1.80163 0
M  V30 17319 H 1613.17 -0.0765027 -4.07928 0
M  V30 17320 H 1611.85 -1.22411 -3.97478 0
M  V30 17321 H 1610.42 0.583965 -3.68299 0
M  V30 17322 N 1612.61 1.50847 -0.456408 0
M  V30 17323 C 1613.54 2.26004 0.381421 0
M  V30 17324 C 1614.55 1.30757 0.969872 0
M  V30 17325 O 1615.74 1.56375 0.86077 0
M  V30 17326 C 1612.84 3.01506 1.54748 0
M  V30 17327 C 1612.01 4.23997 1.07448 0
M  V30 17328 C 1611.07 4.81917 2.11288 0
M  V30 17329 O 1610.1 5.43238 1.69945 0
M  V30 17330 N 1611.3 4.67622 3.43962 0
M  V30 17331 H 1614.07 2.98545 -0.262823 0
M  V30 17332 H 1611.63 1.59347 -0.286357 0
M  V30 17333 H 1613.62 3.37137 2.23877 0
M  V30 17334 H 1612.19 2.31856 2.0967 0
M  V30 17335 H 1611.41 3.93642 0.209584 0
M  V30 17336 H 1612.7 5.03446 0.736144 0
M  V30 17337 H 1612.1 4.18821 3.8027 0
M  V30 17338 H 1610.65 5.07562 4.0893 0
M  V30 17339 N 1614.09 0.188454 1.56469 0
M  V30 17340 C 1615.5 -0.325309 1.83844 0
M  V30 17341 C 1615.85 -1.61858 1.1089 0
M  V30 17342 O 1614.97 -2.13256 0.36752 0
M  V30 17343 C 1615.57 -0.597002 3.33499 0
M  V30 17344 C 1614.13 -1.05515 3.61308 0
M  V30 17345 C 1613.27 -0.100182 2.77119 0
M  V30 17346 H 1616.22 0.412378 1.53249 0
M  V30 17347 H 1616.25 -1.44709 3.51908 0
M  V30 17348 H 1615.76 0.344429 3.86569 0
M  V30 17349 H 1613.86 -2.01109 3.13665 0
M  V30 17350 H 1613.97 -0.952461 4.69537 0
M  V30 17351 H 1612.34 -0.600815 2.47512 0
M  V30 17352 H 1613.12 0.835574 3.32976 0
M  V30 17353 N 1615.56 -1.5737 -0.0851874 0
M  V30 17354 C 1616.47 -2.06097 -1.12078 0
M  V30 17355 C 1617.49 -0.987809 -1.43242 0
M  V30 17356 O 1618.67 -1.30163 -1.53686 0
M  V30 17357 C 1615.73 -2.48397 -2.41867 0
M  V30 17358 C 1614.79 -3.69951 -2.17795 0
M  V30 17359 C 1614.02 -4.10225 -3.41396 0
M  V30 17360 O 1614.25 -3.50495 -4.5001 0
M  V30 17361 O 1613.18 -5.03111 -3.30399 0
M  V30 17362 H 1617.01 -2.94625 -0.736877 0
M  V30 17363 H 1614.59 -1.4639 -0.298392 0
M  V30 17364 H 1616.47 -2.76187 -3.18274 0
M  V30 17365 H 1615.15 -1.63003 -2.79664 0
M  V30 17366 H 1614.06 -3.47263 -1.39136 0
M  V30 17367 H 1615.39 -4.56156 -1.84886 0
M  V30 17368 N 1617.04 0.356258 -1.53521 0
M  V30 17369 C 1618 1.41975 -1.79933 0
M  V30 17370 C 1619 1.46177 -0.669997 0
M  V30 17371 O 1620.19 1.46774 -0.938239 0
M  V30 17372 C 1617.33 2.81015 -1.92985 0
M  V30 17373 H 1618.52 1.19824 -2.74922 0
M  V30 17374 H 1616.07 0.589928 -1.4474 0
M  V30 17375 H 1616.81 3.08466 -1.00095 0
M  V30 17376 H 1616.59 2.79363 -2.75135 0
M  V30 17377 H 1618.08 3.58013 -2.1498 0
M  V30 17378 N 1618.52 1.45038 0.616577 0
M  V30 17379 C 1619.74 1.52321 1.40759 0
M  V30 17380 C 1620.17 0.15375 1.87471 0
M  V30 17381 O 1619.53 -0.859908 1.5961 0
M  V30 17382 C 1619.58 2.50464 2.59423 0
M  V30 17383 O 1618.68 2.01623 3.59753 0
M  V30 17384 H 1618.02 0.513808 0.420592 0
M  V30 17385 H 1620.55 1.90309 0.751234 0
M  V30 17386 H 1620.56 2.68977 3.06783 0
M  V30 17387 H 1619.24 3.4993 2.24771 0
M  V30 17388 H 1617.81 1.92945 3.19103 0
M  V30 17389 N 1620 -0.858287 1.32179 0
M  V30 17390 C 1621.25 -1.60706 1.21887 0
M  V30 17391 C 1621.56 -1.94372 -0.218836 0
M  V30 17392 O 1622.77 -2.67852 -0.443572 0
M  V30 17393 C 1621.22 -2.8977 2.13452 0
M  V30 17394 C 1620.83 -2.63542 3.62284 0
M  V30 17395 C 1622.57 -3.67779 2.11988 0
M  V30 17396 C 1620.48 -3.88584 4.45821 0
M  V30 17397 H 1619.41 -0.603026 0.452632 0
M  V30 17398 H 1622.06 -0.948016 1.57114 0
M  V30 17399 H 1620.44 -3.57112 1.71135 0
M  V30 17400 H 1621.62 -2.04534 4.12919 0
M  V30 17401 H 1619.93 -1.98869 3.65842 0
M  V30 17402 H 1622.53 -4.60561 2.71639 0
M  V30 17403 H 1622.87 -4.0123 1.10995 0
M  V30 17404 H 1623.41 -3.07336 2.52565 0
M  V30 17405 H 1620.14 -3.60276 5.47614 0
M  V30 17406 H 1619.66 -4.47001 3.99937 0
M  V30 17407 H 1621.34 -4.56358 4.58635 0
M  V30 17408 N 1621.48 -1.1533 -1.07409 0
M  V30 17409 C 1622.42 -0.849527 -2.14597 0
M  V30 17410 C 1623.39 0.197288 -1.64924 0
M  V30 17411 O 1624.58 0.0649694 -1.90689 0
M  V30 17412 C 1621.72 -0.344327 -3.43378 0
M  V30 17413 C 1620.83 -1.45264 -4.06844 0
M  V30 17414 C 1619.97 -0.90363 -5.23458 0
M  V30 17415 C 1619 -1.98892 -5.78885 0
M  V30 17416 N 1618.14 -1.45633 -6.8683 0
M  V30 17417 H 1622.98 -1.76753 -2.39922 0
M  V30 17418 H 1620.52 -0.881942 -1.17729 0
M  V30 17419 H 1622.48 -0.0331352 -4.17187 0
M  V30 17420 H 1621.11 0.536757 -3.18306 0
M  V30 17421 H 1620.16 -1.88003 -3.30695 0
M  V30 17422 H 1621.47 -2.27207 -4.44048 0
M  V30 17423 H 1620.62 -0.544945 -6.04248 0
M  V30 17424 H 1619.36 -0.0533648 -4.87671 0
M  V30 17425 H 1618.37 -2.35644 -4.96741 0
M  V30 17426 H 1619.59 -2.84295 -6.16728 0
M  V30 17427 H 1617.54 -0.628417 -6.52983 0
M  V30 17428 H 1617.46 -2.21204 -7.22914 0
M  V30 17429 H 1618.72 -1.12587 -7.71326 0
M  V30 17430 N 1622.95 1.25748 -0.950004 0
M  V30 17431 C 1624.18 1.97413 -0.61933 0
M  V30 17432 C 1624.6 1.70656 0.807591 0
M  V30 17433 O 1623.95 0.979899 1.53962 0
M  V30 17434 C 1624 3.51053 -0.862801 0
M  V30 17435 O 1623.73 3.76884 -2.23361 0
M  V30 17436 C 1625.23 4.39951 -0.543879 0
M  V30 17437 H 1622.45 0.629394 -0.232603 0
M  V30 17438 H 1624.99 1.60037 -1.27312 0
M  V30 17439 H 1623.15 3.86557 -0.255493 0
M  V30 17440 H 1623.56 4.71368 -2.30026 0
M  V30 17441 H 1625.03 5.46676 -0.764804 0
M  V30 17442 H 1625.51 4.36094 0.521421 0
M  V30 17443 H 1626.12 4.10005 -1.1303 0
M  V30 17444 N 1624.43 0.718038 1.40292 0
M  V30 17445 C 1625.71 0.185648 1.94717 0
M  V30 17446 C 1626.09 -1.30916 1.65603 0
M  V30 17447 O 1625.44 -2.06653 0.975031 0
M  V30 17448 C 1625.65 0.501015 3.45385 0
M  V30 17449 C 1626.99 0.441021 4.22303 0
M  V30 17450 O 1628.02 0.437217 3.53507 0
M  V30 17451 O 1626.88 0.420689 5.44878 0
M  V30 17452 H 1623.97 0.0281581 0.82652 0
M  V30 17453 H 1626.52 0.795738 1.49887 0
M  V30 17454 H 1625.29 1.5348 3.59944 0
M  V30 17455 H 1624.91 -0.138913 3.97357 0
M  V30 17456 N 1625.91 -1.50602 0.464402 0
M  V30 17457 C 1627.33 -1.59162 0.118173 0
M  V30 17458 C 1627.53 -1.47313 -1.37481 0
M  V30 17459 O 1626.58 -1.32819 -2.14745 0
M  V30 17460 C 1627.9 -2.93313 0.662411 0
M  V30 17461 C 1629.44 -3.06692 0.625244 0
M  V30 17462 C 1629.92 -4.43407 1.14691 0
M  V30 17463 N 1631.41 -4.49801 1.10604 0
M  V30 17464 C 1632.14 -5.53964 1.48026 0
M  V30 17465 N 1631.64 -6.65413 1.92865 0
M  V30 17466 N 1633.43 -5.44471 1.39671 0
M  V30 17467 H 1625.58 -1.56548 1.4355 0
M  V30 17468 H 1627.85 -0.739451 0.593225 0
M  V30 17469 H 1627.55 -3.07439 1.70805 0
M  V30 17470 H 1627.43 -3.77061 0.102251 0
M  V30 17471 H 1629.81 -2.92217 -0.411466 0
M  V30 17472 H 1629.9 -2.24717 1.22213 0
M  V30 17473 H 1629.54 -4.5863 2.18222 0
M  V30 17474 H 1629.47 -5.23963 0.526306 0
M  V30 17475 H 1631.96 -3.69824 0.77709 0
M  V30 17476 H 1632.27 -7.40947 2.19585 0
M  V30 17477 H 1630.62 -6.66551 1.96812 0
M  V30 17478 H 1633.81 -4.56289 1.04487 0
M  V30 17479 H 1633.98 -6.25531 1.69161 0
M  V30 17480 N 1627.39 -0.19675 -1.56367 0
M  V30 17481 C 1628.61 0.450245 -2.02454 0
M  V30 17482 C 1629.04 1.54287 -1.07597 0
M  V30 17483 O 1628.4 1.81202 -0.0597529 0
M  V30 17484 C 1628.44 0.982087 -3.46969 0
M  V30 17485 O 1627.55 2.09489 -3.5523 0
M  V30 17486 H 1626.89 0.105022 -0.655642 0
M  V30 17487 H 1629.42 -0.308112 -2.02267 0
M  V30 17488 H 1629.43 1.29826 -3.86793 0
M  V30 17489 H 1628.1 0.18224 -4.15501 0
M  V30 17490 H 1626.68 1.78723 -3.27281 0
M  V30 17491 N 1628.87 1.57413 0.0768405 0
M  V30 17492 C 1630.11 1.87002 0.776948 0
M  V30 17493 C 1630.44 0.787799 1.77831 0
M  V30 17494 O 1629.7 -0.216742 1.94496 0
M  V30 17495 C 1630 3.2324 1.52482 0
M  V30 17496 C 1629.66 4.45986 0.663899 0
M  V30 17497 C 1628.32 4.79305 0.426629 0
M  V30 17498 C 1630.68 5.21157 0.0665867 0
M  V30 17499 C 1628 5.85213 -0.417518 0
M  V30 17500 C 1630.36 6.27958 -0.764986 0
M  V30 17501 C 1629.02 6.59781 -1.01218 0
M  V30 17502 H 1628.29 0.684289 0.284306 0
M  V30 17503 H 1630.94 1.91463 0.0378686 0
M  V30 17504 H 1629.24 3.14547 2.33596 0
M  V30 17505 H 1630.94 3.43368 2.07123 0
M  V30 17506 H 1627.53 4.19905 0.858956 0
M  V30 17507 H 1631.71 4.95734 0.237022 0
M  V30 17508 H 1626.97 6.0827 -0.617827 0
M  V30 17509 H 1631.14 6.85369 -1.23459 0
M  V30 17510 H 1628.77 7.41674 -1.66806 0
M  V30 17511 N 1630.34 -0.348112 1.53707 0
M  V30 17512 C 1631.57 -1.11346 1.74976 0
M  V30 17513 C 1631.99 -1.81726 0.485525 0
M  V30 17514 O 1631.35 -1.72384 -0.561565 0
M  V30 17515 C 1631.4 -2.10611 2.92703 0
M  V30 17516 O 1630.5 -3.18042 2.62532 0
M  V30 17517 H 1629.85 -0.322247 0.580563 0
M  V30 17518 H 1632.38 -0.399898 2.00654 0
M  V30 17519 H 1632.39 -2.53912 3.19363 0
M  V30 17520 H 1631.06 -1.58782 3.84397 0
M  V30 17521 H 1629.64 -2.79591 2.46746 0
M  V30 17522 N 1631.82 -1.45363 -0.608876 0
M  V30 17523 C 1633.23 -1.43794 -1.19081 0
M  V30 17524 C 1633.58 -0.164874 -1.95506 0
M  V30 17525 O 1632.71 0.733623 -2.03585 0
M  V30 17526 C 1633.3 -2.60506 -2.16615 0
M  V30 17527 C 1631.86 -2.62061 -2.70187 0
M  V30 17528 C 1631.01 -2.36018 -1.4557 0
M  V30 17529 H 1633.96 -1.53622 -0.39826 0
M  V30 17530 H 1633.98 -2.34531 -2.99625 0
M  V30 17531 H 1633.49 -3.53147 -1.60963 0
M  V30 17532 H 1631.6 -1.73423 -3.2978 0
M  V30 17533 H 1631.71 -3.61242 -3.14708 0
M  V30 17534 H 1630.07 -1.8555 -1.74481 0
M  V30 17535 H 1630.86 -3.30802 -0.917884 0
M  V30 17536 N 1633.3 0.851265 -1.32632 0
M  V30 17537 C 1634.53 1.64328 -1.26535 0
M  V30 17538 C 1634.95 1.87392 0.163086 0
M  V30 17539 O 1634.31 1.42913 1.1156 0
M  V30 17540 C 1634.36 2.97781 -2.03369 0
M  V30 17541 O 1633.46 3.8849 -1.38381 0
M  V30 17542 H 1632.8 0.500864 -0.435926 0
M  V30 17543 H 1635.33 1.06 -1.75001 0
M  V30 17544 H 1635.34 3.47576 -2.1367 0
M  V30 17545 H 1634.02 2.80316 -3.07239 0
M  V30 17546 H 1632.59 3.4696 -1.36649 0
M  V30 17547 N 1634.78 1.15898 1.06796 0
M  V30 17548 C 1636 0.961859 1.83747 0
M  V30 17549 C 1636.43 -0.48494 1.81741 0
M  V30 17550 O 1635.79 -1.3461 1.21449 0
M  V30 17551 C 1635.83 1.48764 3.28484 0
M  V30 17552 O 1634.94 0.690576 4.06577 0
M  V30 17553 H 1634.28 0.342664 0.568751 0
M  V30 17554 H 1636.81 1.54015 1.34687 0
M  V30 17555 H 1636.82 1.50291 3.79311 0
M  V30 17556 H 1635.49 2.54089 3.29259 0
M  V30 17557 H 1634.07 0.74539 3.65374 0
M  V30 17558 N 1636.26 -1.25243 0.956659 0
M  V30 17559 C 1637.19 -2.25019 0.435795 0
M  V30 17560 C 1638.2 -1.56473 -0.449435 0
M  V30 17561 O 1639.39 -1.76635 -0.257386 0
M  V30 17562 C 1636.49 -3.36634 -0.391226 0
M  V30 17563 C 1635.66 -4.34742 0.481483 0
M  V30 17564 C 1634.72 -5.25413 -0.287678 0
M  V30 17565 O 1633.75 -5.6833 0.314618 0
M  V30 17566 N 1634.95 -5.58578 -1.58023 0
M  V30 17567 H 1637.72 -2.70344 1.2936 0
M  V30 17568 H 1635.28 -1.3917 0.827245 0
M  V30 17569 H 1637.27 -3.94254 -0.913552 0
M  V30 17570 H 1635.84 -2.90682 -1.14991 0
M  V30 17571 H 1635.06 -3.75971 1.18489 0
M  V30 17572 H 1636.35 -4.97269 1.07707 0
M  V30 17573 H 1635.74 -5.25618 -2.09146 0
M  V30 17574 H 1634.3 -6.18774 -2.04848 0
M  V30 17575 N 1637.73 -0.725468 -1.3991 0
M  V30 17576 C 1638.97 -0.273803 -2.02558 0
M  V30 17577 C 1639.34 1.11503 -1.56305 0
M  V30 17578 O 1640.54 1.66424 -2.11084 0
M  V30 17579 C 1638.81 -0.361635 -3.55566 0
M  V30 17580 S 1640.37 0.0115918 -4.38798 0
M  V30 17581 H 1637.19 -0.107908 -0.702764 0
M  V30 17582 H 1639.79 -0.949876 -1.70873 0
M  V30 17583 H 1638.49 -1.37389 -3.8672 0
M  V30 17584 H 1638.02 0.332583 -3.91992 0
M  V30 17585 H 1640.04 1.2307 -4.80695 0
M  V30 17586 N 1639.21 1.50354 -0.472382 0
M  V30 17587 C 1640.62 1.86692 -0.0175768 0
M  V30 17588 C 1640.97 1.38708 1.3876 0
M  V30 17589 O 1640.1 0.752614 2.02891 0
M  V30 17590 C 1640.69 3.38791 -0.0251205 0
M  V30 17591 C 1639.25 3.74535 0.37422 0
M  V30 17592 C 1638.4 2.74252 -0.410045 0
M  V30 17593 H 1641.35 1.43079 -0.686593 0
M  V30 17594 H 1641.37 3.72487 0.776754 0
M  V30 17595 H 1640.88 3.73684 -1.04795 0
M  V30 17596 H 1638.99 3.45243 1.40135 0
M  V30 17597 H 1639.1 4.79042 0.0746666 0
M  V30 17598 H 1637.46 2.54334 0.136417 0
M  V30 17599 H 1638.25 3.11989 -1.43241 0
M  V30 17600 N 1640.69 0.205039 1.56261 0
M  V30 17601 C 1641.6 -0.723548 2.23164 0
M  V30 17602 C 1642.62 -1.22683 1.23389 0
M  V30 17603 O 1643.79 -1.27191 1.56155 0
M  V30 17604 C 1640.86 -1.92178 2.88563 0
M  V30 17605 C 1639.92 -1.46209 4.03635 0
M  V30 17606 C 1639.15 -2.60321 4.65906 0
M  V30 17607 O 1639.38 -3.78051 4.27122 0
M  V30 17608 O 1638.31 -2.32465 5.55197 0
M  V30 17609 H 1642.14 -0.183715 3.03144 0
M  V30 17610 H 1639.72 -0.0246933 1.4938 0
M  V30 17611 H 1641.6 -2.62188 3.29902 0
M  V30 17612 H 1640.28 -2.45003 2.11555 0
M  V30 17613 H 1639.18 -0.730492 3.66899 0
M  V30 17614 H 1640.52 -0.980402 4.82337 0
M  V30 17615 N 1642.17 -1.57451 -0.0684915 0
M  V30 17616 C 1643.42 -1.87411 -0.76702 0
M  V30 17617 C 1643.74 -0.797219 -1.77411 0
M  V30 17618 O 1643 0.206424 -1.94608 0
M  V30 17619 C 1643.3 -3.24044 -1.50765 0
M  V30 17620 C 1642.96 -4.46331 -0.640238 0
M  V30 17621 C 1641.63 -4.79525 -0.401205 0
M  V30 17622 C 1643.98 -5.21185 -0.0389475 0
M  V30 17623 C 1641.31 -5.84983 0.448547 0
M  V30 17624 C 1643.66 -6.27543 0.798278 0
M  V30 17625 C 1642.32 -6.59235 1.04715 0
M  V30 17626 H 1641.59 -0.685787 -0.280673 0
M  V30 17627 H 1644.24 -1.9148 -0.0277143 0
M  V30 17628 H 1642.54 -3.15782 -2.31925 0
M  V30 17629 H 1644.24 -3.44461 -2.05299 0
M  V30 17630 H 1640.83 -4.20354 -0.836675 0
M  V30 17631 H 1645.02 -4.95852 -0.210729 0
M  V30 17632 H 1640.27 -6.07934 0.650077 0
M  V30 17633 H 1644.45 -6.84705 1.27092 0
M  V30 17634 H 1642.07 -7.40779 1.70737 0
M  V30 17635 N 1643.65 0.339955 -1.5389 0
M  V30 17636 C 1644.58 1.42316 -1.85117 0
M  V30 17637 C 1645.56 1.5473 -0.706591 0
M  V30 17638 O 1646.74 1.68879 -0.958834 0
M  V30 17639 C 1643.87 2.79317 -2.06396 0
M  V30 17640 C 1642.83 2.81707 -3.22219 0
M  V30 17641 C 1642.15 4.21627 -3.28838 0
M  V30 17642 C 1643.45 2.46921 -4.60247 0
M  V30 17643 H 1645.15 1.16431 -2.75834 0
M  V30 17644 H 1642.69 0.558661 -1.32721 0
M  V30 17645 H 1644.65 3.55145 -2.26826 0
M  V30 17646 H 1643.37 3.06644 -1.12414 0
M  V30 17647 H 1642.03 2.08332 -3.01651 0
M  V30 17648 H 1641.68 4.4607 -2.32444 0
M  V30 17649 H 1641.38 4.24137 -4.06672 0
M  V30 17650 H 1642.9 4.99292 -3.51482 0
M  V30 17651 H 1644.32 3.12462 -4.80667 0
M  V30 17652 H 1642.71 2.60707 -5.40511 0
M  V30 17653 H 1643.78 1.421 -4.63611 0
M  V30 17654 N 1645.13 1.45684 0.601159 0
M  V30 17655 C 1646.4 1.4051 1.36074 0
M  V30 17656 C 1646.78 0.0790095 2.10952 0
M  V30 17657 O 1646.13 -0.939162 2.08307 0
M  V30 17658 C 1646.34 2.62297 2.3022 0
M  V30 17659 C 1647.69 3.0766 2.92627 0
M  V30 17660 O 1648.71 2.62716 2.40539 0
M  V30 17661 O 1647.57 3.85675 3.87191 0
M  V30 17662 H 1644.67 0.557902 0.61047 0
M  V30 17663 H 1647.21 1.57822 0.623712 0
M  V30 17664 H 1645.98 3.50389 1.74194 0
M  V30 17665 H 1645.61 2.47351 3.11293 0
M  V30 17666 N 1646.6 -0.84422 1.33082 0
M  V30 17667 C 1647.53 -1.96899 1.25511 0
M  V30 17668 C 1648.51 -1.69549 0.13677 0
M  V30 17669 O 1649.7 -1.9145 0.325667 0
M  V30 17670 C 1646.83 -3.32947 0.988094 0
M  V30 17671 C 1645.78 -3.7468 2.06879 0
M  V30 17672 C 1645.11 -5.08475 1.65401 0
M  V30 17673 C 1646.41 -3.89033 3.48498 0
M  V30 17674 H 1648.1 -2.03491 2.19617 0
M  V30 17675 H 1645.65 -0.977659 1.05725 0
M  V30 17676 H 1647.6 -4.11198 0.921645 0
M  V30 17677 H 1646.33 -3.26598 0.0114067 0
M  V30 17678 H 1644.99 -2.98689 2.12557 0
M  V30 17679 H 1644.63 -4.98592 0.66449 0
M  V30 17680 H 1644.33 -5.37368 2.37717 0
M  V30 17681 H 1645.86 -5.89207 1.60212 0
M  V30 17682 H 1647.27 -4.57609 3.4535 0
M  V30 17683 H 1645.67 -4.29357 4.19253 0
M  V30 17684 H 1646.74 -2.91639 3.87395 0
M  V30 17685 N 1648.08 -1.16463 -1.0618 0
M  V30 17686 C 1648.99 -0.886601 -2.17202 0
M  V30 17687 C 1650.01 0.141568 -1.73423 0
M  V30 17688 O 1651.18 -0.0353417 -2.01369 0
M  V30 17689 C 1648.25 -0.392829 -3.44467 0
M  V30 17690 C 1647.31 -1.48636 -4.02748 0
M  V30 17691 C 1646.54 -1.01606 -5.23939 0
M  V30 17692 O 1646.77 0.133753 -5.70243 0
M  V30 17693 O 1645.7 -1.80487 -5.74202 0
M  V30 17694 H 1649.53 -1.81502 -2.43497 0
M  V30 17695 H 1647.11 -0.944691 -1.15741 0
M  V30 17696 H 1648.99 -0.124501 -4.21216 0
M  V30 17697 H 1647.67 0.507566 -3.19696 0
M  V30 17698 H 1646.57 -1.80845 -3.27484 0
M  V30 17699 H 1647.91 -2.3621 -4.31817 0
M  V30 17700 N 1649.56 1.24734 -0.963288 0
M  V30 17701 C 1650.51 2.25555 -0.48926 0
M  V30 17702 C 1651.48 1.59521 0.462848 0
M  V30 17703 O 1652.66 1.87095 0.374188 0
M  V30 17704 C 1649.8 3.44407 0.218629 0
M  V30 17705 C 1648.91 4.25051 -0.77173 0
M  V30 17706 C 1648.05 5.31185 -0.0403986 0
M  V30 17707 C 1647.09 6.03523 -1.02112 0
M  V30 17708 N 1646.23 7.0137 -0.320083 0
M  V30 17709 H 1651.07 2.6547 -1.35386 0
M  V30 17710 H 1648.6 1.30504 -0.678762 0
M  V30 17711 H 1650.56 4.12173 0.645701 0
M  V30 17712 H 1649.19 3.05341 1.04722 0
M  V30 17713 H 1648.24 3.56865 -1.31726 0
M  V30 17714 H 1649.55 4.75084 -1.51976 0
M  V30 17715 H 1648.71 6.05067 0.444886 0
M  V30 17716 H 1647.45 4.82048 0.740356 0
M  V30 17717 H 1646.45 5.28448 -1.51732 0
M  V30 17718 H 1647.68 6.54749 -1.80224 0
M  V30 17719 H 1645.62 6.54511 0.441775 0
M  V30 17720 H 1645.54 7.49263 -1.00705 0
M  V30 17721 H 1646.81 7.79368 0.143379 0
M  V30 17722 N 1651.04 0.732878 1.39523 0
M  V30 17723 C 1652.26 0.288717 2.05381 0
M  V30 17724 C 1652.69 -1.06727 1.5489 0
M  V30 17725 O 1652.05 -1.67585 0.691726 0
M  V30 17726 C 1652.09 0.297738 3.59369 0
M  V30 17727 O 1651.2 -0.715335 4.06149 0
M  V30 17728 H 1650.54 0.131696 0.650809 0
M  V30 17729 H 1653.07 0.998206 1.78597 0
M  V30 17730 H 1653.08 0.141391 4.07755 0
M  V30 17731 H 1651.75 1.28719 3.9548 0
M  V30 17732 H 1650.33 -0.525298 3.69182 0
M  V30 17733 N 1652.52 -1.50101 0.480349 0
M  V30 17734 C 1653.46 -2.28722 -0.308993 0
M  V30 17735 C 1654.43 -1.34186 -0.978948 0
M  V30 17736 O 1655.62 -1.6313 -0.989602 0
M  V30 17737 C 1652.76 -3.16322 -1.37966 0
M  V30 17738 C 1651.87 -4.25898 -0.723552 0
M  V30 17739 C 1651.01 -5.00741 -1.7729 0
M  V30 17740 C 1650.04 -6.0218 -1.09754 0
M  V30 17741 N 1649.18 -6.70266 -2.09015 0
M  V30 17742 H 1654.02 -2.95722 0.367739 0
M  V30 17743 H 1651.56 -1.45826 0.193197 0
M  V30 17744 H 1653.52 -3.65469 -2.01217 0
M  V30 17745 H 1652.15 -2.51349 -2.02543 0
M  V30 17746 H 1651.2 -3.80394 0.0217507 0
M  V30 17747 H 1652.51 -4.98435 -0.190905 0
M  V30 17748 H 1651.66 -5.53653 -2.48098 0
M  V30 17749 H 1650.4 -4.27931 -2.33937 0
M  V30 17750 H 1649.41 -5.48519 -0.375123 0
M  V30 17751 H 1650.63 -6.76967 -0.537841 0
M  V30 17752 H 1648.58 -6.00242 -2.64662 0
M  V30 17753 H 1648.5 -7.3871 -1.6076 0
M  V30 17754 H 1649.76 -7.27792 -2.79175 0
M  V30 17755 N 1653.99 -0.213323 -1.5615 0
M  V30 17756 C 1654.92 0.695003 -2.22917 0
M  V30 17757 C 1655.9 1.20738 -1.19818 0
M  V30 17758 O 1657.09 1.25289 -1.48379 0
M  V30 17759 C 1654.22 1.90685 -2.9027 0
M  V30 17760 C 1653.17 1.52865 -3.9977 0
M  V30 17761 C 1652.5 2.81859 -4.54378 0
M  V30 17762 C 1653.8 0.724829 -5.17246 0
M  V30 17763 H 1655.49 0.138351 -2.9908 0
M  V30 17764 H 1653.04 0.0651029 -1.43853 0
M  V30 17765 H 1654.99 2.54766 -3.35667 0
M  V30 17766 H 1653.72 2.48833 -2.11541 0
M  V30 17767 H 1652.38 0.911336 -3.55092 0
M  V30 17768 H 1652.02 3.38135 -3.72389 0
M  V30 17769 H 1651.72 2.57291 -5.28275 0
M  V30 17770 H 1653.25 3.46897 -5.02489 0
M  V30 17771 H 1654.66 1.26915 -5.59076 0
M  V30 17772 H 1653.06 0.57656 -5.97324 0
M  V30 17773 H 1654.13 -0.270309 -4.84146 0
M  V30 17774 N 1655.47 1.57485 0.0601405 0
M  V30 17775 C 1656.42 2.04487 1.07023 0
M  V30 17776 C 1657.39 0.927738 1.37776 0
M  V30 17777 O 1658.57 1.19621 1.48645 0
M  V30 17778 C 1655.71 2.50338 2.37539 0
M  V30 17779 C 1654.83 3.75717 2.13215 0
M  V30 17780 C 1653.96 4.10304 3.37378 0
M  V30 17781 C 1653 5.2869 3.0847 0
M  V30 17782 N 1652.14 5.58858 4.24996 0
M  V30 17783 H 1656.98 2.90544 0.662444 0
M  V30 17784 H 1654.52 1.43676 0.315515 0
M  V30 17785 H 1656.47 2.74978 3.13756 0
M  V30 17786 H 1655.1 1.67242 2.76098 0
M  V30 17787 H 1654.16 3.58348 1.27636 0
M  V30 17788 H 1655.47 4.62068 1.87869 0
M  V30 17789 H 1654.62 4.35907 4.21983 0
M  V30 17790 H 1653.36 3.22544 3.6581 0
M  V30 17791 H 1652.37 5.02871 2.22262 0
M  V30 17792 H 1653.59 6.18077 2.81349 0
M  V30 17793 H 1651.54 4.74058 4.53437 0
M  V30 17794 H 1651.45 6.39652 4.02965 0
M  V30 17795 H 1652.72 5.89019 5.10565 0
M  V30 17796 N 1656.95 -0.331789 1.54068 0
M  V30 17797 C 1658.18 -1.09484 1.76148 0
M  V30 17798 C 1658.6 -1.81201 0.504772 0
M  V30 17799 O 1657.96 -1.7297 -0.54325 0
M  V30 17800 C 1658.01 -2.07495 2.94921 0
M  V30 17801 O 1657.11 -3.15239 2.65891 0
M  V30 17802 H 1656.45 -0.316071 0.583948 0
M  V30 17803 H 1658.98 -0.378593 2.01067 0
M  V30 17804 H 1658.99 -2.5051 3.22038 0
M  V30 17805 H 1657.67 -1.54696 3.8606 0
M  V30 17806 H 1656.24 -2.76958 2.49697 0
M  V30 17807 N 1658.43 -1.46001 -0.593424 0
M  V30 17808 C 1659.38 -1.55752 -1.70323 0
M  V30 17809 C 1660.35 -0.402466 -1.6115 0
M  V30 17810 O 1661.53 -0.617804 -1.80521 0
M  V30 17811 C 1658.67 -1.54362 -3.08653 0
M  V30 17812 C 1657.78 -2.80523 -3.28529 0
M  V30 17813 C 1656.92 -2.70709 -4.57045 0
M  V30 17814 C 1655.96 -3.91857 -4.70228 0
M  V30 17815 N 1655.09 -3.80494 -5.90059 0
M  V30 17816 H 1659.93 -2.50555 -1.61326 0
M  V30 17817 H 1657.47 -1.24313 -0.786425 0
M  V30 17818 H 1659.43 -1.51542 -3.88704 0
M  V30 17819 H 1658.06 -0.630986 -3.16573 0
M  V30 17820 H 1657.11 -2.93368 -2.42155 0
M  V30 17821 H 1658.42 -3.70341 -3.3414 0
M  V30 17822 H 1657.58 -2.65935 -5.45311 0
M  V30 17823 H 1656.32 -1.78513 -4.53855 0
M  V30 17824 H 1655.32 -3.96975 -3.80383 0
M  V30 17825 H 1656.55 -4.85136 -4.75205 0
M  V30 17826 H 1654.49 -2.91077 -5.87886 0
M  V30 17827 H 1654.41 -4.63958 -5.96891 0
M  V30 17828 H 1655.68 -3.79676 -6.80783 0
M  V30 17829 N 1659.91 0.83715 -1.33527 0
M  V30 17830 C 1660.82 1.97915 -1.25964 0
M  V30 17831 C 1661.83 1.73169 -0.169894 0
M  V30 17832 O 1663.01 1.97513 -0.393793 0
M  V30 17833 C 1660.07 3.31945 -1.00068 0
M  V30 17834 C 1659.13 3.69795 -2.1806 0
M  V30 17835 C 1658.37 4.97429 -1.9339 0
M  V30 17836 O 1658.59 5.63492 -0.885069 0
M  V30 17837 O 1657.52 5.32823 -2.79969 0
M  V30 17838 H 1661.35 2.07236 -2.22007 0
M  V30 17839 H 1658.94 0.970437 -1.13591 0
M  V30 17840 H 1660.82 4.12248 -0.873487 0
M  V30 17841 H 1659.49 3.23623 -0.0705475 0
M  V30 17842 H 1658.4 2.89995 -2.36334 0
M  V30 17843 H 1659.73 3.82784 -3.09414 0
M  V30 17844 N 1661.38 1.17024 1.05561 0
M  V30 17845 C 1662.61 0.981293 1.82717 0
M  V30 17846 C 1663.03 -0.465636 1.82246 0
M  V30 17847 O 1662.39 -1.33315 1.22869 0
M  V30 17848 C 1662.44 1.52239 3.26888 0
M  V30 17849 O 1661.54 0.73366 4.05822 0
M  V30 17850 H 1660.89 0.348677 0.565084 0
M  V30 17851 H 1663.42 1.55435 1.33046 0
M  V30 17852 H 1663.43 1.54306 3.77695 0
M  V30 17853 H 1662.1 2.57567 3.26545 0
M  V30 17854 H 1660.68 0.784101 3.64563 0
M  V30 17855 N 1662.86 -1.24221 0.969889 0
M  V30 17856 C 1663.79 -2.27619 0.520745 0
M  V30 17857 C 1664.77 -1.64291 -0.440731 0
M  V30 17858 O 1665.96 -1.91265 -0.336381 0
M  V30 17859 C 1663.09 -3.46792 -0.187768 0
M  V30 17860 C 1662.04 -4.22402 0.689945 0
M  V30 17861 C 1661.37 -5.34489 -0.150186 0
M  V30 17862 C 1662.67 -4.83494 1.97562 0
M  V30 17863 H 1664.36 -2.65441 1.38498 0
M  V30 17864 H 1661.91 -1.276 0.667398 0
M  V30 17865 H 1663.86 -4.18263 -0.513216 0
M  V30 17866 H 1662.59 -3.08002 -1.08637 0
M  V30 17867 H 1661.24 -3.52734 0.998696 0
M  V30 17868 H 1660.89 -4.9194 -1.049 0
M  V30 17869 H 1660.59 -5.85996 0.433891 0
M  V30 17870 H 1662.12 -6.08786 -0.470255 0
M  V30 17871 H 1663.53 -5.47028 1.71561 0
M  V30 17872 H 1661.93 -5.45243 2.5066 0
M  V30 17873 H 1663 -4.04826 2.66915 0
M  V30 17874 N 1664.34 -0.740267 -1.39132 0
M  V30 17875 C 1665.57 -0.299605 -2.05225 0
M  V30 17876 C 1665.99 1.05904 -1.55454 0
M  V30 17877 O 1665.35 1.67216 -0.700603 0
M  V30 17878 C 1665.4 -0.316792 -3.59206 0
M  V30 17879 O 1664.5 0.693786 -4.06522 0
M  V30 17880 H 1663.84 -0.135146 -0.650101 0
M  V30 17881 H 1666.37 -1.00766 -1.78065 0
M  V30 17882 H 1666.38 -0.163013 -4.07674 0
M  V30 17883 H 1665.06 -1.30814 -3.94792 0
M  V30 17884 H 1663.63 0.505712 -3.69455 0
M  V30 17885 N 1665.82 1.49844 -0.488302 0
M  V30 17886 C 1667.04 2.07313 0.0600937 0
M  V30 17887 C 1667.47 1.3478 1.3121 0
M  V30 17888 O 1666.83 0.400634 1.76818 0
M  V30 17889 C 1666.87 3.59268 0.309658 0
M  V30 17890 O 1665.98 3.88381 1.38688 0
M  V30 17891 H 1665.32 0.663681 -0.0205947 0
M  V30 17892 H 1667.85 1.92818 -0.684284 0
M  V30 17893 H 1667.86 4.04344 0.545 0
M  V30 17894 H 1666.53 4.11474 -0.605146 0
M  V30 17895 H 1665.11 3.55128 1.13749 0
M  V30 17896 N 1667.3 0.221601 1.56034 0
M  V30 17897 C 1668.54 -0.409277 1.97912 0
M  V30 17898 C 1668.87 -1.60291 1.11049 0
M  V30 17899 O 1668.14 -1.95 0.187529 0
M  V30 17900 H 1666.72 -0.154201 0.730911 0
M  V30 17901 H 1669.38 0.314508 1.92346 0
M  V30 17902 H 1668.47 -0.73557 3.03308 0
M  V30 17903 N 1668.77 -1.57515 -0.0517878 0
M  V30 17904 C 1670.02 -1.88493 -0.748206 0
M  V30 17905 C 1670.35 -0.816494 -1.76202 0
M  V30 17906 O 1669.63 0.171075 -1.93746 0
M  V30 17907 C 1669.91 -3.30131 -1.43825 0
M  V30 17908 C 1669.76 -4.47648 -0.4395 0
M  V30 17909 C 1671.08 -3.70315 -2.37813 0
M  V30 17910 H 1668.2 -0.68555 -0.270537 0
M  V30 17911 H 1670.84 -1.89997 -0.0111457 0
M  V30 17912 H 1668.99 -3.2898 -2.06651 0
M  V30 17913 H 1670.67 -4.60929 0.185088 0
M  V30 17914 H 1668.91 -4.33117 0.243381 0
M  V30 17915 H 1669.58 -5.43582 -0.96035 0
M  V30 17916 H 1672.06 -3.72687 -1.8505 0
M  V30 17917 H 1670.93 -4.70269 -2.83087 0
M  V30 17918 H 1671.19 -3.0133 -3.23501 0
M  V30 17919 N 1670.25 0.323614 -1.54242 0
M  V30 17920 C 1671.2 1.39936 -1.80005 0
M  V30 17921 C 1672.19 1.46917 -0.656067 0
M  V30 17922 O 1673.38 1.5145 -0.916065 0
M  V30 17923 C 1670.51 2.76791 -2.03081 0
M  V30 17924 C 1669.59 2.74123 -3.23601 0
M  V30 17925 N 1669.99 2.41076 -4.44653 0
M  V30 17926 C 1668.28 3.05252 -3.25173 0
M  V30 17927 C 1668.98 2.47142 -5.26589 0
M  V30 17928 N 1667.96 2.83581 -4.6377 0
M  V30 17929 H 1671.76 1.13315 -2.71177 0
M  V30 17930 H 1669.28 0.532095 -1.53436 0
M  V30 17931 H 1671.27 3.54326 -2.19678 0
M  V30 17932 H 1669.93 3.04342 -1.13163 0
M  V30 17933 H 1670.94 2.13923 -4.71654 0
M  V30 17934 H 1667.62 3.37846 -2.45288 0
M  V30 17935 H 1669.01 2.24583 -6.33255 0
M  V30 17936 N 1671.73 1.46313 0.585673 0
M  V30 17937 C 1672.66 1.59511 1.70524 0
M  V30 17938 C 1673.64 0.445578 1.6416 0
M  V30 17939 O 1674.83 0.671455 1.82223 0
M  V30 17940 C 1671.96 1.58229 3.09162 0
M  V30 17941 C 1670.91 2.72122 3.30354 0
M  V30 17942 C 1670.24 2.559 4.69489 0
M  V30 17943 C 1671.54 4.13969 3.18476 0
M  V30 17944 H 1673.23 2.53229 1.59735 0
M  V30 17945 H 1670.78 1.2187 0.767046 0
M  V30 17946 H 1672.73 1.66056 3.87303 0
M  V30 17947 H 1671.45 0.610535 3.20843 0
M  V30 17948 H 1670.11 2.63759 2.54611 0
M  V30 17949 H 1669.76 1.56814 4.77931 0
M  V30 17950 H 1669.46 3.32289 4.84621 0
M  V30 17951 H 1670.99 2.65613 5.49802 0
M  V30 17952 H 1672.4 4.23459 3.86465 0
M  V30 17953 H 1670.8 4.90922 3.45131 0
M  V30 17954 H 1671.87 4.34334 2.15598 0
M  V30 17955 N 1673.21 -0.830057 1.33969 0
M  V30 17956 C 1674.16 -1.96189 1.2495 0
M  V30 17957 C 1675.15 -1.68743 0.149047 0
M  V30 17958 O 1676.36 -1.77248 0.31357 0
M  V30 17959 H 1672.73 -0.644184 0.387983 0
M  V30 17960 H 1674.7 -2.0092 2.20621 0
M  V30 17961 C 1673.45 -3.32569 1.01456 0
M  V30 17962 H 1672.78 -3.54232 1.85363 0
M  V30 17963 H 1674.22 -4.12237 0.991786 0
M  V30 17964 C 1672.67 -3.35715 -0.282331 0
M  V30 17965 O 1673.2 -3.80556 -1.28609 0
M  V30 17966 N 1671.41 -2.8891 -0.312952 0
M  V30 17967 H 1670.96 -2.52613 0.504446 0
M  V30 17968 H 1670.92 -2.91397 -1.18047 0
M  V30 17969 N 1674.69 -1.17582 -1.04939 0
M  V30 17970 C 1675.92 -0.990398 -1.81656 0
M  V30 17971 C 1676.33 0.461324 -1.83077 0
M  V30 17972 O 1675.69 1.32037 -1.25986 0
M  V30 17973 C 1675.74 -1.52719 -3.27657 0
M  V30 17974 O 1675.46 -2.92206 -3.26415 0
M  V30 17975 C 1676.96 -1.38671 -4.21053 0
M  V30 17976 H 1674.18 -0.35024 -0.57234 0
M  V30 17977 H 1676.72 -1.5593 -1.32311 0
M  V30 17978 H 1674.88 -1.00026 -3.74264 0
M  V30 17979 H 1675.29 -3.17068 -4.17814 0
M  V30 17980 H 1676.77 -1.8104 -5.21468 0
M  V30 17981 H 1677.24 -0.334151 -4.37927 0
M  V30 17982 H 1677.85 -1.90393 -3.80303 0
M  V30 17983 N 1676.17 1.23705 -0.976463 0
M  V30 17984 C 1677.13 2.23257 -0.518533 0
M  V30 17985 C 1678.13 1.56006 0.3897 0
M  V30 17986 O 1679.32 1.73226 0.18394 0
M  V30 17987 C 1676.45 3.39997 0.247916 0
M  V30 17988 H 1677.64 2.65284 -1.39872 0
M  V30 17989 H 1675.2 1.3647 -0.761946 0
M  V30 17990 H 1675.93 3.03421 1.14482 0
M  V30 17991 H 1675.72 3.90013 -0.403975 0
M  V30 17992 H 1677.21 4.13868 0.557034 0
M  V30 17993 N 1677.64 0.747635 1.38738 0
M  V30 17994 C 1678.87 0.310484 2.05063 0
M  V30 17995 C 1679.29 -1.05078 1.56013 0
M  V30 17996 O 1678.65 -1.66842 0.709461 0
M  V30 17997 C 1678.7 0.335837 3.59033 0
M  V30 17998 O 1677.8 -0.672218 4.06884 0
M  V30 17999 H 1677.14 0.138591 0.649375 0
M  V30 18000 H 1679.67 1.01709 1.77529 0
M  V30 18001 H 1679.68 0.184631 4.07582 0
M  V30 18002 H 1678.36 1.32906 3.94092 0
M  V30 18003 H 1676.94 -0.486112 3.69718 0
M  V30 18004 N 1679.12 -1.49583 0.496242 0
M  V30 18005 C 1680.03 -2.32808 -0.289404 0
M  V30 18006 C 1681.05 -1.44324 -0.971933 0
M  V30 18007 O 1682.22 -1.77352 -0.954366 0
M  V30 18008 C 1679.29 -3.19645 -1.34269 0
M  V30 18009 C 1678.35 -4.23975 -0.6741 0
M  V30 18010 C 1677.58 -5.06661 -1.6772 0
M  V30 18011 O 1677.81 -4.90792 -2.90654 0
M  V30 18012 O 1676.74 -5.89091 -1.23514 0
M  V30 18013 H 1680.57 -3.01164 0.391664 0
M  V30 18014 H 1678.15 -1.47162 0.257652 0
M  V30 18015 H 1680.03 -3.73453 -1.9522 0
M  V30 18016 H 1678.71 -2.53989 -2.00677 0
M  V30 18017 H 1677.61 -3.74092 -0.0249732 0
M  V30 18018 H 1678.95 -4.92172 -0.0525442 0
M  V30 18019 N 1680.6 -0.229873 -1.55915 0
M  V30 18020 C 1681.88 0.449007 -1.90377 0
M  V30 18021 C 1682.26 1.77133 -1.14835 0
M  V30 18022 O 1681.6 2.27012 -0.260328 0
M  V30 18023 C 1681.81 0.633805 -3.43197 0
M  V30 18024 C 1683.16 0.937453 -4.14122 0
M  V30 18025 O 1684.19 0.72029 -3.48841 0
M  V30 18026 O 1683.05 1.35005 -5.29562 0
M  V30 18027 H 1680.14 0.238557 -0.791846 0
M  V30 18028 H 1682.69 -0.272676 -1.67495 0
M  V30 18029 H 1681.46 -0.298587 -3.90159 0
M  V30 18030 H 1681.08 1.40667 -3.71885 0
M  V30 18031 N 1682.08 1.5754 0.0434337 0
M  V30 18032 C 1683.03 2.06683 1.067 0
M  V30 18033 C 1684.02 0.977691 1.38339 0
M  V30 18034 O 1685.23 1.16266 1.37412 0
M  V30 18035 H 1681.6 0.659378 0.361559 0
M  V30 18036 H 1683.57 2.91747 0.626605 0
M  V30 18037 C 1682.32 2.54985 2.36385 0
M  V30 18038 H 1681.64 3.384 2.12897 0
M  V30 18039 H 1683.08 2.93095 3.06384 0
M  V30 18040 C 1681.54 1.44484 3.04345 0
M  V30 18041 O 1682.07 0.80291 3.93594 0
M  V30 18042 N 1680.28 1.18292 2.65434 0
M  V30 18043 H 1679.83 1.70676 1.92944 0
M  V30 18044 H 1679.78 0.445676 3.11225 0
M  V30 18045 N 1683.56 -0.31543 1.54411 0
M  V30 18046 C 1684.49 -1.39353 1.87358 0
M  V30 18047 C 1685.47 -1.53586 0.731118 0
M  V30 18048 O 1686.65 -1.67332 0.98558 0
M  V30 18049 C 1683.78 -2.75998 2.10814 0
M  V30 18050 C 1682.74 -2.76545 3.2666 0
M  V30 18051 C 1682.06 -4.16343 3.35504 0
M  V30 18052 C 1683.36 -2.39567 4.64117 0
M  V30 18053 H 1685.06 -1.12028 2.77651 0
M  V30 18054 H 1682.6 -0.537476 1.33593 0
M  V30 18055 H 1684.55 -3.51491 2.32447 0
M  V30 18056 H 1683.28 -3.04817 1.17278 0
M  V30 18057 H 1681.94 -2.03507 3.04927 0
M  V30 18058 H 1681.59 -4.42316 2.39512 0
M  V30 18059 H 1681.29 -4.17613 4.13368 0
M  V30 18060 H 1682.81 -4.93637 3.59381 0
M  V30 18061 H 1684.22 -3.04775 4.85577 0
M  V30 18062 H 1682.62 -2.52075 5.4459 0
M  V30 18063 H 1683.69 -1.34707 4.65813 0
M  V30 18064 N 1685.03 -1.46622 -0.577906 0
M  V30 18065 C 1686.26 -1.5576 -1.36185 0
M  V30 18066 C 1686.68 -0.200403 -1.87733 0
M  V30 18067 O 1686.03 0.803091 -1.6388 0
M  V30 18068 C 1686.09 -2.56626 -2.54608 0
M  V30 18069 O 1685.81 -3.87074 -2.05195 0
M  V30 18070 C 1687.31 -2.75751 -3.47097 0
M  V30 18071 H 1684.53 -0.526589 -0.415866 0
M  V30 18072 H 1687.07 -1.9207 -0.702091 0
M  V30 18073 H 1685.23 -2.23307 -3.16564 0
M  V30 18074 H 1685.64 -4.42015 -2.82352 0
M  V30 18075 H 1687.11 -3.50237 -4.26659 0
M  V30 18076 H 1687.59 -1.82829 -3.99337 0
M  V30 18077 H 1688.2 -3.10185 -2.90973 0
M  V30 18078 N 1686.51 0.822941 -1.34408 0
M  V30 18079 C 1687.74 1.61607 -1.29992 0
M  V30 18080 C 1688.16 1.87695 0.123301 0
M  V30 18081 O 1687.52 1.45247 1.08504 0
M  V30 18082 C 1687.57 2.934 -2.09639 0
M  V30 18083 O 1686.67 3.85467 -1.4659 0
M  V30 18084 H 1686.01 0.491504 -0.446452 0
M  V30 18085 H 1688.54 1.02264 -1.7721 0
M  V30 18086 H 1688.55 3.42966 -2.20994 0
M  V30 18087 H 1687.23 2.73736 -3.13116 0
M  V30 18088 H 1685.81 3.43984 -1.43978 0
M  V30 18089 N 1687.99 1.18137 1.04314 0
M  V30 18090 C 1688.92 0.929593 2.14198 0
M  V30 18091 C 1689.9 -0.131766 1.69589 0
M  V30 18092 O 1691.09 0.0203104 1.94189 0
M  V30 18093 C 1688.22 0.451799 3.44349 0
M  V30 18094 C 1687.17 1.45336 4.02569 0
M  V30 18095 C 1686.5 0.833176 5.28169 0
M  V30 18096 C 1687.8 2.8293 4.39031 0
M  V30 18097 H 1689.49 1.84856 2.35518 0
M  V30 18098 H 1687.04 0.890217 1.13186 0
M  V30 18099 H 1688.99 0.26303 4.20578 0
M  V30 18100 H 1687.71 -0.502725 3.22708 0
M  V30 18101 H 1686.37 1.62902 3.28418 0
M  V30 18102 H 1686.02 -0.128459 5.02836 0
M  V30 18103 H 1685.72 1.50185 5.68083 0
M  V30 18104 H 1687.24 0.654881 6.07078 0
M  V30 18105 H 1688.66 2.6903 5.06257 0
M  V30 18106 H 1687.06 3.46458 4.89987 0
M  V30 18107 H 1688.13 3.3667 3.48972 0
M  V30 18108 N 1689.47 -1.23186 0.98301 0
M  V30 18109 C 1690.4 -2.27054 0.544858 0
M  V30 18110 C 1691.38 -1.64749 -0.423281 0
M  V30 18111 O 1692.56 -1.91611 -0.316075 0
M  V30 18112 C 1689.69 -3.46972 -0.150976 0
M  V30 18113 C 1688.65 -4.21647 0.734707 0
M  V30 18114 C 1687.97 -5.34618 -0.0934874 0
M  V30 18115 C 1689.27 -4.81372 2.02679 0
M  V30 18116 H 1690.97 -2.63957 1.41305 0
M  V30 18117 H 1688.51 -1.26885 0.680895 0
M  V30 18118 H 1690.47 -4.18784 -0.468825 0
M  V30 18119 H 1689.19 -3.09137 -1.05364 0
M  V30 18120 H 1687.85 -3.51655 1.03605 0
M  V30 18121 H 1687.5 -4.93025 -0.996768 0
M  V30 18122 H 1687.2 -5.85503 0.496019 0
M  V30 18123 H 1688.72 -6.09251 -0.405658 0
M  V30 18124 H 1690.14 -5.45178 1.77353 0
M  V30 18125 H 1688.53 -5.42554 2.56429 0
M  V30 18126 H 1689.6 -4.01972 2.71194 0
M  V30 18127 N 1690.95 -0.754982 -1.38339 0
M  V30 18128 C 1691.89 -0.128193 -2.30444 0
M  V30 18129 C 1692.86 0.70813 -1.50249 0
M  V30 18130 O 1694.05 0.663969 -1.78875 0
M  V30 18131 C 1691.19 0.757921 -3.36674 0
M  V30 18132 C 1690.3 -0.093181 -4.31899 0
M  V30 18133 C 1689.44 0.796067 -5.25201 0
M  V30 18134 C 1688.48 -0.0585854 -6.12072 0
M  V30 18135 N 1687.61 0.7877 -6.97667 0
M  V30 18136 H 1692.45 -0.919204 -2.83469 0
M  V30 18137 H 1689.99 -0.464921 -1.3956 0
M  V30 18138 H 1691.95 1.28632 -3.96875 0
M  V30 18139 H 1690.58 1.5147 -2.85055 0
M  V30 18140 H 1689.63 -0.73922 -3.73148 0
M  V30 18141 H 1690.94 -0.753146 -4.93081 0
M  V30 18142 H 1690.1 1.39158 -5.90525 0
M  V30 18143 H 1688.83 1.48976 -4.64389 0
M  V30 18144 H 1687.84 -0.666754 -5.45742 0
M  V30 18145 H 1689.06 -0.749361 -6.74953 0
M  V30 18146 H 1687.01 1.46632 -6.39402 0
M  V30 18147 H 1686.93 0.184662 -7.55774 0
M  V30 18148 H 1688.2 1.36814 -7.674 0
M  V30 18149 N 1692.42 1.49318 -0.504168 0
M  V30 18150 C 1693.36 2.27103 0.309327 0
M  V30 18151 C 1694.37 1.33776 0.927781 0
M  V30 18152 O 1695.56 1.59034 0.810585 0
M  V30 18153 C 1692.66 3.06277 1.45078 0
M  V30 18154 C 1691.83 4.27201 0.939045 0
M  V30 18155 C 1690.89 4.88395 1.95849 0
M  V30 18156 O 1689.92 5.4837 1.52576 0
M  V30 18157 N 1691.12 4.78328 3.28911 0
M  V30 18158 H 1693.88 2.97558 -0.35767 0
M  V30 18159 H 1691.44 1.58356 -0.336907 0
M  V30 18160 H 1693.44 3.44088 2.13038 0
M  V30 18161 H 1692.01 2.38409 2.02188 0
M  V30 18162 H 1691.23 3.9411 0.0842433 0
M  V30 18163 H 1692.51 5.05534 0.575603 0
M  V30 18164 H 1691.91 4.30707 3.66753 0
M  V30 18165 H 1690.47 5.20315 3.92576 0
M  V30 18166 N 1693.9 0.238138 1.5579 0
M  V30 18167 C 1695.18 -0.438905 1.90612 0
M  V30 18168 C 1695.56 -1.76522 1.15773 0
M  V30 18169 O 1694.91 -2.26871 0.272363 0
M  V30 18170 C 1695.12 -0.615595 3.43528 0
M  V30 18171 C 1696.47 -0.915478 4.14613 0
M  V30 18172 O 1697.49 -0.70178 3.49218 0
M  V30 18173 O 1696.35 -1.32194 5.30271 0
M  V30 18174 H 1693.44 -0.234355 0.7931 0
M  V30 18175 H 1695.99 0.281555 1.67348 0
M  V30 18176 H 1694.76 0.319274 3.89995 0
M  V30 18177 H 1694.38 -1.38692 3.72626 0
M  V30 18178 N 1695.38 -1.57561 -0.0350783 0
M  V30 18179 C 1696.61 -1.93644 -0.742753 0
M  V30 18180 C 1697.03 -0.837655 -1.68419 0
M  V30 18181 O 1696.39 0.207069 -1.80114 0
M  V30 18182 C 1696.44 -3.28779 -1.48111 0
M  V30 18183 O 1695.54 -3.20604 -2.59398 0
M  V30 18184 H 1694.88 -0.633103 -0.200192 0
M  V30 18185 H 1697.41 -2.04599 0.00765271 0
M  V30 18186 H 1697.42 -3.63527 -1.85236 0
M  V30 18187 H 1696.1 -4.08316 -0.790608 0
M  V30 18188 H 1694.67 -2.97477 -2.2486 0
M  V30 18189 N 1696.86 0.307236 -1.54576 0
M  V30 18190 C 1698.14 1.06243 -1.64231 0
M  V30 18191 C 1698.52 2.05415 -0.486589 0
M  V30 18192 O 1697.86 2.22565 0.517384 0
M  V30 18193 C 1698.07 1.74985 -3.01962 0
M  V30 18194 C 1699.42 2.2741 -3.58566 0
M  V30 18195 O 1700.45 1.85027 -3.04374 0
M  V30 18196 O 1699.3 3.05051 -4.53438 0
M  V30 18197 H 1696.4 0.490693 -0.665695 0
M  V30 18198 H 1698.94 0.305822 -1.66922 0
M  V30 18199 H 1697.72 1.02939 -3.77517 0
M  V30 18200 H 1697.34 2.57417 -3.03022 0
M  V30 18201 N 1698.34 1.46926 0.570122 0
M  V30 18202 C 1699.27 1.61311 1.68822 0
M  V30 18203 C 1700.25 0.462964 1.63678 0
M  V30 18204 O 1701.43 0.690745 1.815 0
M  V30 18205 C 1698.56 1.61499 3.07466 0
M  V30 18206 C 1697.52 2.7561 3.27449 0
M  V30 18207 C 1696.84 2.60865 4.66748 0
M  V30 18208 C 1698.14 4.17324 3.14067 0
M  V30 18209 H 1699.84 2.54909 1.5704 0
M  V30 18210 H 1697.38 1.22677 0.754077 0
M  V30 18211 H 1699.34 1.70155 3.8552 0
M  V30 18212 H 1698.06 0.64453 3.20177 0
M  V30 18213 H 1696.72 2.66444 2.51799 0
M  V30 18214 H 1696.37 1.61875 4.76241 0
M  V30 18215 H 1696.07 3.37411 4.81069 0
M  V30 18216 H 1697.59 2.7143 5.46954 0
M  V30 18217 H 1699 4.27534 3.81952 0
M  V30 18218 H 1697.4 4.94555 3.39905 0
M  V30 18219 H 1698.47 4.36596 2.10979 0
M  V30 18220 N 1699.82 -0.815801 1.34842 0
M  V30 18221 C 1701.04 -1.60915 1.30848 0
M  V30 18222 C 1701.47 -1.87758 -0.113345 0
M  V30 18223 O 1700.82 -1.4582 -1.07732 0
M  V30 18224 C 1700.87 -2.92284 2.11192 0
M  V30 18225 O 1699.98 -3.84685 1.48632 0
M  V30 18226 H 1699.32 -0.48913 0.449052 0
M  V30 18227 H 1701.85 -1.01322 1.7775 0
M  V30 18228 H 1701.86 -3.41789 2.2281 0
M  V30 18229 H 1700.53 -2.72071 3.14563 0
M  V30 18230 H 1699.11 -3.43215 1.458 0
M  V30 18231 N 1701.29 -1.18689 -1.03686 0
M  V30 18232 C 1702.22 -0.94094 -2.13702 0
M  V30 18233 C 1703.2 0.12277 -1.69656 0
M  V30 18234 O 1704.39 -0.0306085 -1.94176 0
M  V30 18235 C 1701.52 -0.470054 -3.44104 0
M  V30 18236 C 1700.47 -1.47468 -4.01792 0
M  V30 18237 C 1699.8 -0.861174 -5.2772 0
M  V30 18238 C 1701.1 -2.85254 -4.37524 0
M  V30 18239 H 1702.79 -1.86102 -2.34534 0
M  V30 18240 H 1700.34 -0.896207 -1.12713 0
M  V30 18241 H 1702.29 -0.28533 -4.20433 0
M  V30 18242 H 1701.02 0.485604 -3.2297 0
M  V30 18243 H 1699.68 -1.64641 -3.2755 0
M  V30 18244 H 1699.32 0.10179 -5.02897 0
M  V30 18245 H 1699.02 -1.53196 -5.67278 0
M  V30 18246 H 1700.55 -0.687066 -6.06722 0
M  V30 18247 H 1701.96 -2.71711 -5.04823 0
M  V30 18248 H 1700.36 -3.49051 -4.88143 0
M  V30 18249 H 1701.43 -3.38516 -3.47181 0
M  V30 18250 N 1702.77 1.22662 -0.989529 0
M  V30 18251 C 1703.68 2.28162 -0.545835 0
M  V30 18252 C 1704.7 1.69251 0.403762 0
M  V30 18253 O 1705.87 1.99563 0.271428 0
M  V30 18254 C 1702.94 3.46434 0.135808 0
M  V30 18255 C 1702 4.20673 -0.85633 0
M  V30 18256 C 1701.23 5.33298 -0.207121 0
M  V30 18257 O 1701.46 5.6157 0.99975 0
M  V30 18258 O 1700.39 5.94977 -0.910288 0
M  V30 18259 H 1704.22 2.68276 -1.42344 0
M  V30 18260 H 1701.8 1.28766 -0.757609 0
M  V30 18261 H 1703.68 4.18207 0.517776 0
M  V30 18262 H 1702.36 3.08252 0.988035 0
M  V30 18263 H 1701.26 3.51186 -1.28917 0
M  V30 18264 H 1702.6 4.62726 -1.67765 0
M  V30 18265 N 1704.25 0.762308 1.37937 0
M  V30 18266 C 1705.18 0.156036 2.32978 0
M  V30 18267 C 1706.16 -0.693795 1.55308 0
M  V30 18268 O 1707.35 -0.633195 1.83587 0
M  V30 18269 C 1704.48 -0.731199 3.39515 0
M  V30 18270 C 1703.43 0.0165834 4.27997 0
M  V30 18271 C 1702.76 -0.989476 5.25465 0
M  V30 18272 C 1704.06 1.19009 5.08561 0
M  V30 18273 H 1705.75 0.949978 2.83929 0
M  V30 18274 H 1703.3 0.458269 1.36513 0
M  V30 18275 H 1705.25 -1.16507 4.04974 0
M  V30 18276 H 1703.97 -1.55756 2.87067 0
M  V30 18277 H 1702.63 0.431128 3.64056 0
M  V30 18278 H 1702.28 -1.81013 4.69301 0
M  V30 18279 H 1701.98 -0.493738 5.85522 0
M  V30 18280 H 1703.5 -1.42248 5.93799 0
M  V30 18281 H 1704.92 0.833336 5.67211 0
M  V30 18282 H 1703.31 1.61727 5.77896 0
M  V30 18283 H 1704.38 1.99879 4.41788 0
M  V30 18284 N 1705.73 -1.49049 0.51208 0
M  V30 18285 C 1706.68 -2.26276 -0.27989 0
M  V30 18286 C 1707.66 -1.31598 -0.925787 0
M  V30 18287 O 1708.85 -1.5625 -0.831554 0
M  V30 18288 C 1705.98 -3.16191 -1.33709 0
M  V30 18289 C 1705.07 -4.18335 -0.696883 0
M  V30 18290 N 1705.46 -5.05376 0.206971 0
M  V30 18291 C 1703.76 -4.35629 -0.956187 0
M  V30 18292 C 1704.46 -5.78856 0.574543 0
M  V30 18293 N 1703.43 -5.43567 -0.0601701 0
M  V30 18294 H 1707.24 -2.90945 0.415736 0
M  V30 18295 H 1704.75 -1.59035 0.328893 0
M  V30 18296 H 1706.75 -3.70159 -1.91801 0
M  V30 18297 H 1705.41 -2.53075 -2.03428 0
M  V30 18298 H 1706.42 -5.14659 0.578481 0
M  V30 18299 H 1703.1 -3.83714 -1.64529 0
M  V30 18300 H 1704.49 -6.58913 1.31464 0
M  V30 18301 N 1707.21 -0.246397 -1.55662 0
M  V30 18302 C 1708.14 0.647563 -2.24341 0
M  V30 18303 C 1709.12 1.1817 -1.22352 0
M  V30 18304 O 1710.3 1.22114 -1.51003 0
M  V30 18305 C 1707.43 1.84485 -2.94249 0
M  V30 18306 C 1706.39 1.4435 -4.02923 0
M  V30 18307 C 1705.71 2.72158 -4.60255 0
M  V30 18308 C 1707.01 0.614951 -5.18667 0
M  V30 18309 H 1708.71 0.0748803 -2.99306 0
M  V30 18310 H 1706.25 0.034575 -1.43958 0
M  V30 18311 H 1708.2 2.47588 -3.40995 0
M  V30 18312 H 1706.93 2.4429 -2.16772 0
M  V30 18313 H 1705.59 0.835811 -3.56945 0
M  V30 18314 H 1705.24 3.3016 -3.79478 0
M  V30 18315 H 1704.94 2.46028 -5.33614 0
M  V30 18316 H 1706.46 3.36161 -5.09734 0
M  V30 18317 H 1707.87 1.15028 -5.61642 0
M  V30 18318 H 1706.27 0.449729 -5.98412 0
M  V30 18319 H 1707.34 -0.372943 -4.83464 0
M  V30 18320 N 1708.68 1.57577 0.026722 0
M  V30 18321 C 1710.1 1.54951 0.382406 0
M  V30 18322 C 1710.3 0.972826 1.76461 0
M  V30 18323 O 1709.36 0.5949 2.45392 0
M  V30 18324 C 1710.67 2.99374 0.282111 0
M  V30 18325 C 1712.22 3.10934 0.359022 0
M  V30 18326 C 1712.69 4.57093 0.28815 0
M  V30 18327 N 1714.18 4.61899 0.346873 0
M  V30 18328 C 1714.92 5.72534 0.314961 0
M  V30 18329 N 1714.41 6.92401 0.235205 0
M  V30 18330 N 1716.21 5.60915 0.364863 0
M  V30 18331 H 1708.36 1.93413 -0.877788 0
M  V30 18332 H 1710.62 0.887216 -0.333995 0
M  V30 18333 H 1710.33 3.45301 -0.667821 0
M  V30 18334 H 1710.2 3.61562 1.07484 0
M  V30 18335 H 1712.59 2.64953 1.29939 0
M  V30 18336 H 1712.67 2.51573 -0.4631 0
M  V30 18337 H 1712.31 5.03742 -0.648558 0
M  V30 18338 H 1712.24 5.14368 1.12841 0
M  V30 18339 H 1714.73 3.75659 0.410932 0
M  V30 18340 H 1715.05 7.72498 0.216019 0
M  V30 18341 H 1713.39 6.94709 0.201219 0
M  V30 18342 H 1716.58 4.66165 0.42518 0
M  V30 18343 H 1716.76 6.47126 0.336526 0
M  V30 18344 N 1710.16 -0.299034 1.54737 0
M  V30 18345 C 1711.09 -1.39055 1.82199 0
M  V30 18346 C 1712.11 -1.46741 0.705038 0
M  V30 18347 O 1713.3 -1.49025 0.982543 0
M  V30 18348 C 1710.4 -2.7741 1.94671 0
M  V30 18349 C 1709.57 -2.92633 3.25092 0
M  V30 18350 C 1708.63 -4.11499 3.27956 0
M  V30 18351 O 1707.65 -4.03491 4.01477 0
M  V30 18352 N 1708.86 -5.2223 2.53488 0
M  V30 18353 H 1711.62 -1.15852 2.76402 0
M  V30 18354 H 1709.18 -0.489108 1.54335 0
M  V30 18355 H 1711.17 -3.55178 1.93987 0
M  V30 18356 H 1709.74 -2.93552 1.07453 0
M  V30 18357 H 1708.96 -2.01962 3.38534 0
M  V30 18358 H 1710.25 -2.99716 4.11154 0
M  V30 18359 H 1709.65 -5.31617 1.93391 0
M  V30 18360 H 1708.21 -5.98325 2.58555 0
M  V30 18361 N 1711.64 -1.47227 -0.562322 0
M  V30 18362 C 1713.06 -1.32632 -0.887745 0
M  V30 18363 C 1713.26 -0.312972 -1.99055 0
M  V30 18364 O 1712.31 0.277309 -2.50973 0
M  V30 18365 C 1713.62 -2.71822 -1.28581 0
M  V30 18366 C 1715.17 -2.80068 -1.39753 0
M  V30 18367 C 1715.65 -4.19887 -1.82917 0
M  V30 18368 N 1717.14 -4.22404 -1.90077 0
M  V30 18369 C 1717.87 -5.27499 -2.24793 0
M  V30 18370 N 1717.37 -6.42904 -2.58159 0
M  V30 18371 N 1719.16 -5.14874 -2.25523 0
M  V30 18372 H 1711.31 -2.11752 0.165835 0
M  V30 18373 H 1713.58 -0.94793 0.0115238 0
M  V30 18374 H 1713.28 -3.47383 -0.549361 0
M  V30 18375 H 1713.16 -3.0326 -2.24306 0
M  V30 18376 H 1715.54 -2.04783 -2.1248 0
M  V30 18377 H 1715.62 -2.5229 -0.422286 0
M  V30 18378 H 1715.27 -4.95676 -1.10761 0
M  V30 18379 H 1715.2 -4.45086 -2.81436 0
M  V30 18380 H 1717.69 -3.39146 -1.66698 0
M  V30 18381 H 1718 -7.18857 -2.83662 0
M  V30 18382 H 1716.35 -6.46232 -2.55751 0
M  V30 18383 H 1719.54 -4.23745 -1.98892 0
M  V30 18384 H 1719.71 -5.96887 -2.5225 0
M  V30 18385 N 1713.12 0.808639 -1.35273 0
M  V30 18386 C 1714.06 1.92036 -1.28026 0
M  V30 18387 C 1715.03 1.65397 -0.152611 0
M  V30 18388 O 1716.22 1.87819 -0.335972 0
M  V30 18389 C 1713.36 3.28544 -1.05607 0
M  V30 18390 C 1712.47 3.67382 -2.27276 0
M  V30 18391 C 1711.61 4.9291 -1.98024 0
M  V30 18392 C 1710.65 5.2437 -3.15757 0
M  V30 18393 N 1709.78 6.41077 -2.86294 0
M  V30 18394 H 1714.62 1.97567 -2.23095 0
M  V30 18395 H 1712.16 0.966397 -1.10902 0
M  V30 18396 H 1714.12 4.07234 -0.906418 0
M  V30 18397 H 1712.75 3.22487 -0.142015 0
M  V30 18398 H 1711.8 2.83969 -2.53112 0
M  V30 18399 H 1713.11 3.86593 -3.15194 0
M  V30 18400 H 1712.27 5.79421 -1.79877 0
M  V30 18401 H 1711.01 4.7573 -1.07387 0
M  V30 18402 H 1710.01 4.36349 -3.34483 0
M  V30 18403 H 1711.24 5.4348 -4.07193 0
M  V30 18404 H 1709.18 6.25327 -1.98249 0
M  V30 18405 H 1709.1 6.60528 -3.67748 0
M  V30 18406 H 1710.37 7.30622 -2.71684 0
M  V30 18407 N 1714.6 1.19237 1.03055 0
M  V30 18408 C 1715.82 1.01917 1.80057 0
M  V30 18409 C 1716.24 -0.43214 1.83788 0
M  V30 18410 O 1715.6 -1.30016 1.28071 0
M  V30 18411 C 1715.65 1.57912 3.25186 0
M  V30 18412 O 1715.37 2.97362 3.21725 0
M  V30 18413 C 1716.87 1.45352 4.18793 0
M  V30 18414 H 1714.09 0.359301 0.566696 0
M  V30 18415 H 1716.63 1.58015 1.29814 0
M  V30 18416 H 1714.79 1.05967 3.72625 0
M  V30 18417 H 1715.2 3.23674 4.12717 0
M  V30 18418 H 1716.68 1.89313 5.18521 0
M  V30 18419 H 1717.15 0.40378 4.3734 0
M  V30 18420 H 1717.76 1.96419 3.77226 0
M  V30 18421 N 1716.07 -1.22136 0.99602 0
M  V30 18422 C 1717.3 -1.94696 0.691168 0
M  V30 18423 C 1717.71 -1.73754 -0.748749 0
M  V30 18424 O 1717.06 -1.03561 -1.51726 0
M  V30 18425 C 1717.12 -3.47498 0.921152 0
M  V30 18426 C 1716.78 -3.92179 2.34616 0
M  V30 18427 C 1717.78 -3.99603 3.32585 0
M  V30 18428 C 1715.46 -4.24741 2.68142 0
M  V30 18429 C 1717.46 -4.38968 4.62153 0
M  V30 18430 C 1715.14 -4.63785 3.97928 0
M  V30 18431 C 1716.14 -4.70867 4.94745 0
M  V30 18432 O 1715.83 -5.09026 6.22212 0
M  V30 18433 H 1715.56 -0.626231 0.25458 0
M  V30 18434 H 1718.12 -1.56152 1.33438 0
M  V30 18435 H 1716.35 -3.86069 0.220769 0
M  V30 18436 H 1718.04 -4.01274 0.61107 0
M  V30 18437 H 1718.8 -3.74634 3.08017 0
M  V30 18438 H 1714.68 -4.18431 1.93485 0
M  V30 18439 H 1718.22 -4.44411 5.37721 0
M  V30 18440 H 1714.12 -4.88207 4.22285 0
M  V30 18441 H 1714.89 -5.27089 6.26195 0
M  V30 18442 N 1717.55 -0.769612 -1.37531 0
M  V30 18443 C 1718.8 -0.33346 -2.0004 0
M  V30 18444 C 1719.13 1.08661 -1.60955 0
M  V30 18445 O 1718.41 1.74714 -0.854709 0
M  V30 18446 C 1718.69 -0.474588 -3.56959 0
M  V30 18447 C 1718.54 -1.93692 -4.0596 0
M  V30 18448 C 1719.86 0.122429 -4.3993 0
M  V30 18449 H 1716.98 -0.122637 -0.726725 0
M  V30 18450 H 1719.62 -0.972255 -1.6324 0
M  V30 18451 H 1717.77 0.0692352 -3.88438 0
M  V30 18452 H 1719.44 -2.54028 -3.85055 0
M  V30 18453 H 1717.69 -2.44647 -3.58232 0
M  V30 18454 H 1718.36 -1.98674 -5.15008 0
M  V30 18455 H 1720.83 -0.341557 -4.14696 0
M  V30 18456 H 1719.71 -0.00646545 -5.489 0
M  V30 18457 H 1719.97 1.21251 -4.25148 0
M  V30 18458 N 1719.03 1.48775 -0.519977 0
M  V30 18459 C 1719.98 2.26421 0.267886 0
M  V30 18460 C 1720.96 1.32087 0.918795 0
M  V30 18461 O 1722.16 1.56689 0.823256 0
M  V30 18462 C 1719.29 3.16896 1.3203 0
M  V30 18463 C 1718.37 4.18699 0.674688 0
M  V30 18464 N 1718.76 5.05259 -0.233769 0
M  V30 18465 C 1717.06 4.3613 0.933071 0
M  V30 18466 C 1717.76 5.78543 -0.605233 0
M  V30 18467 N 1716.74 5.43591 0.0313426 0
M  V30 18468 H 1720.54 2.9072 -0.43116 0
M  V30 18469 H 1718.05 1.58858 -0.337322 0
M  V30 18470 H 1720.05 3.71171 1.89836 0
M  V30 18471 H 1718.71 2.5415 2.02083 0
M  V30 18472 H 1719.72 5.14345 -0.605766 0
M  V30 18473 H 1716.4 3.84581 1.62492 0
M  V30 18474 H 1717.79 6.58207 -1.34957 0
M  V30 18475 N 1720.51 0.254649 1.55529 0
M  V30 18476 C 1721.92 -0.247042 1.85058 0
M  V30 18477 C 1722.27 -1.57009 1.17655 0
M  V30 18478 O 1721.4 -2.11506 0.457638 0
M  V30 18479 C 1721.99 -0.455017 3.35731 0
M  V30 18480 C 1720.55 -0.900961 3.65458 0
M  V30 18481 C 1719.7 0.0174436 2.77295 0
M  V30 18482 H 1722.65 0.477005 1.51362 0
M  V30 18483 H 1722.67 -1.29654 3.57729 0
M  V30 18484 H 1722.18 0.508076 3.8476 0
M  V30 18485 H 1720.28 -1.87625 3.21913 0
M  V30 18486 H 1720.39 -0.752458 4.73154 0
M  V30 18487 H 1718.76 -0.495296 2.49838 0
M  V30 18488 H 1719.54 0.976049 3.29132 0
M  V30 18489 N 1721.99 -1.57589 -0.0183649 0
M  V30 18490 C 1723.24 -1.88937 -0.706105 0
M  V30 18491 C 1723.55 -0.854565 -1.75945 0
M  V30 18492 O 1724.75 -1.05763 -2.50053 0
M  V30 18493 C 1723.21 -3.35329 -1.307 0
M  V30 18494 C 1722.82 -4.47064 -0.289444 0
M  V30 18495 C 1724.56 -3.75811 -1.97399 0
M  V30 18496 C 1722.47 -5.84523 -0.899288 0
M  V30 18497 H 1721.4 -0.704959 -0.267486 0
M  V30 18498 H 1724.05 -1.83458 0.0391685 0
M  V30 18499 H 1722.43 -3.35586 -2.10233 0
M  V30 18500 H 1723.61 -4.58294 0.479958 0
M  V30 18501 H 1721.92 -4.15484 0.276066 0
M  V30 18502 H 1724.52 -4.75834 -2.43898 0
M  V30 18503 H 1724.86 -3.08362 -2.79676 0
M  V30 18504 H 1725.39 -3.77774 -1.24626 0
M  V30 18505 H 1722.13 -6.55398 -0.11571 0
M  V30 18506 H 1721.65 -5.76993 -1.63828 0
M  V30 18507 H 1723.33 -6.31595 -1.40344 0
M  V30 18508 N 1723.46 0.290824 -1.54893 0
M  V30 18509 C 1724.88 0.637054 -1.46334 0
M  V30 18510 C 1725.08 1.90285 -0.66285 0
M  V30 18511 O 1724.14 2.51896 -0.174589 0
M  V30 18512 C 1725.45 0.780585 -2.90392 0
M  V30 18513 C 1727 0.875807 -3.00497 0
M  V30 18514 C 1727.47 1.05126 -4.45772 0
M  V30 18515 N 1728.96 1.11721 -4.49525 0
M  V30 18516 C 1729.7 1.27145 -5.59126 0
M  V30 18517 N 1729.19 1.39401 -6.7863 0
M  V30 18518 N 1730.99 1.30114 -5.46833 0
M  V30 18519 H 1723.14 -0.540707 -2.05402 0
M  V30 18520 H 1725.4 -0.180344 -0.930688 0
M  V30 18521 H 1725.11 -0.0787855 -3.51612 0
M  V30 18522 H 1724.98 1.66644 -3.38392 0
M  V30 18523 H 1727.37 1.72566 -2.39385 0
M  V30 18524 H 1727.45 -0.0342844 -2.55777 0
M  V30 18525 H 1727.09 0.206135 -5.07482 0
M  V30 18526 H 1727.02 1.97573 -4.88132 0
M  V30 18527 H 1729.51 1.03562 -3.63433 0
M  V30 18528 H 1729.83 1.50953 -7.57914 0
M  V30 18529 H 1728.17 1.36438 -6.81476 0
M  V30 18530 H 1731.36 1.20157 -4.52416 0
M  V30 18531 H 1731.54 1.4179 -6.32297 0
M  V30 18532 N 1724.94 1.47523 0.554506 0
M  V30 18533 C 1725.89 1.5662 1.65693 0
M  V30 18534 C 1726.88 0.424914 1.55188 0
M  V30 18535 O 1728.07 0.674989 1.63624 0
M  V30 18536 C 1725.2 1.58607 3.04465 0
M  V30 18537 C 1724.28 2.78129 3.20164 0
M  V30 18538 N 1724.67 4.028 3.05918 0
M  V30 18539 C 1722.97 2.74947 3.5117 0
M  V30 18540 C 1723.67 4.82859 3.24379 0
M  V30 18541 N 1722.65 4.15228 3.50837 0
M  V30 18542 H 1726.45 2.50781 1.53252 0
M  V30 18543 H 1723.97 1.43554 0.759335 0
M  V30 18544 H 1725.96 1.63214 3.83623 0
M  V30 18545 H 1724.62 0.655437 3.18016 0
M  V30 18546 H 1725.63 4.33618 2.83189 0
M  V30 18547 H 1722.31 1.91034 3.71231 0
M  V30 18548 H 1723.7 5.91716 3.1831 0
M  V30 18549 N 1726.42 -0.801453 1.357 0
M  V30 18550 C 1727.83 -1.37581 1.26208 0
M  V30 18551 C 1728.18 -1.95928 -0.103326 0
M  V30 18552 O 1727.31 -1.91676 -1.00445 0
M  V30 18553 C 1727.9 -2.50122 2.28527 0
M  V30 18554 C 1726.46 -3.03405 2.2276 0
M  V30 18555 C 1725.61 -1.76401 2.13958 0
M  V30 18556 H 1728.56 -0.60407 1.46754 0
M  V30 18557 H 1728.58 -3.28814 1.91472 0
M  V30 18558 H 1728.09 -2.07626 3.27892 0
M  V30 18559 H 1726.19 -3.50352 1.26822 0
M  V30 18560 H 1726.31 -3.61038 3.14942 0
M  V30 18561 H 1724.67 -1.98158 1.60017 0
M  V30 18562 H 1725.45 -1.3605 3.15191 0
M  V30 18563 N 1727.9 -1.19782 -1.02421 0
M  V30 18564 C 1729.12 -1.02939 -1.80051 0
M  V30 18565 C 1729.55 0.417153 -1.83416 0
M  V30 18566 O 1728.91 1.3001 -1.26361 0
M  V30 18567 C 1728.95 -1.60853 -3.22736 0
M  V30 18568 O 1728.06 -0.840999 -4.03734 0
M  V30 18569 H 1727.4 -0.363537 -0.555641 0
M  V30 18570 H 1729.93 -1.58908 -1.28878 0
M  V30 18571 H 1729.94 -1.64266 -3.73471 0
M  V30 18572 H 1728.61 -2.66135 -3.19602 0
M  V30 18573 H 1727.19 -0.880482 -3.62356 0
M  V30 18574 N 1729.38 1.21606 -1.00248 0
M  V30 18575 C 1730.31 2.26159 -0.580911 0
M  V30 18576 C 1731.29 1.65402 0.397017 0
M  V30 18577 O 1732.47 1.92089 0.285552 0
M  V30 18578 C 1729.6 3.47168 0.0957564 0
M  V30 18579 C 1728.56 4.20425 -0.801695 0
M  V30 18580 C 1727.88 5.34699 0.00842241 0
M  V30 18581 C 1729.18 4.78086 -2.10311 0
M  V30 18582 H 1730.88 2.61675 -1.45487 0
M  V30 18583 H 1728.42 1.25786 -0.700995 0
M  V30 18584 H 1730.38 4.19477 0.402141 0
M  V30 18585 H 1729.1 3.10775 1.00433 0
M  V30 18586 H 1727.76 3.49963 -1.09187 0
M  V30 18587 H 1727.41 4.94548 0.918206 0
M  V30 18588 H 1727.11 5.84639 -0.589105 0
M  V30 18589 H 1728.63 6.09819 0.30868 0
M  V30 18590 H 1730.05 5.42287 -1.86004 0
M  V30 18591 H 1728.44 5.38405 -2.65028 0
M  V30 18592 H 1729.51 3.97607 -2.77555 0
M  V30 18593 N 1730.86 0.776895 1.37121 0
M  V30 18594 C 1732.27 0.408311 1.8218 0
M  V30 18595 C 1732.62 -1.06621 1.64701 0
M  V30 18596 O 1731.74 -1.82621 1.16097 0
M  V30 18597 C 1732.34 0.734339 3.30746 0
M  V30 18598 C 1730.9 0.418746 3.74063 0
M  V30 18599 C 1730.04 0.97551 2.59575 0
M  V30 18600 H 1732.99 0.971111 1.25519 0
M  V30 18601 H 1733.02 0.0208557 3.80494 0
M  V30 18602 H 1732.53 1.80757 3.43436 0
M  V30 18603 H 1730.63 -0.646961 3.6694 0
M  V30 18604 H 1730.74 0.930597 4.69975 0
M  V30 18605 H 1729.11 0.399449 2.51548 0
M  V30 18606 H 1729.89 2.05425 2.75056 0
M  V30 18607 N 1732.33 -1.48497 0.527859 0
M  V30 18608 C 1733.61 -1.9547 -0.0713049 0
M  V30 18609 C 1733.99 -1.47005 -1.51502 0
M  V30 18610 O 1733.34 -0.695609 -2.17655 0
M  V30 18611 C 1733.55 -3.48973 0.0437547 0
M  V30 18612 C 1734.9 -4.2444 -0.116591 0
M  V30 18613 O 1735.92 -3.56187 -0.0301431 0
M  V30 18614 O 1734.78 -5.4569 -0.297491 0
M  V30 18615 H 1731.87 -0.823075 -0.080474 0
M  V30 18616 H 1734.42 -1.59028 0.592307 0
M  V30 18617 H 1733.19 -3.76963 1.04952 0
M  V30 18618 H 1732.81 -3.92104 -0.658803 0
M  V30 18619 N 1733.81 -0.262893 -1.55392 0
M  V30 18620 C 1735.04 0.363972 -2.04181 0
M  V30 18621 C 1735.46 1.49585 -1.14044 0
M  V30 18622 O 1734.82 1.80785 -0.136553 0
M  V30 18623 C 1734.87 0.834041 -3.50822 0
M  V30 18624 O 1733.97 1.94234 -3.63795 0
M  V30 18625 H 1733.31 0.0771193 -0.659506 0
M  V30 18626 H 1735.84 -0.393623 -2.00778 0
M  V30 18627 H 1735.85 1.13304 -3.91952 0
M  V30 18628 H 1734.53 0.00584833 -4.159 0
M  V30 18629 H 1733.1 1.64681 -3.34566 0
M  V30 18630 N 1735.29 1.57597 0.0100073 0
M  V30 18631 C 1736.51 1.94801 0.711852 0
M  V30 18632 C 1736.94 0.864343 1.67065 0
M  V30 18633 O 1736.3 -0.178388 1.8042 0
M  V30 18634 C 1736.35 3.31094 1.42862 0
M  V30 18635 O 1735.45 3.2469 2.54264 0
M  V30 18636 H 1734.79 0.636207 0.190095 0
M  V30 18637 H 1737.32 2.04561 -0.0402016 0
M  V30 18638 H 1737.33 3.66428 1.79429 0
M  V30 18639 H 1736.01 4.09522 0.725549 0
M  V30 18640 H 1734.58 3.01017 2.20099 0
M  V30 18641 N 1736.77 -0.282606 1.55045 0
M  V30 18642 C 1737.7 -1.35347 1.90272 0
M  V30 18643 C 1738.68 -1.52001 0.763532 0
M  V30 18644 O 1739.86 -1.65204 1.02085 0
M  V30 18645 C 1736.99 -2.71464 2.16621 0
M  V30 18646 C 1735.95 -2.69554 3.32453 0
M  V30 18647 C 1735.27 -4.09132 3.4426 0
M  V30 18648 C 1736.57 -2.29669 4.69094 0
M  V30 18649 H 1738.27 -1.06113 2.79965 0
M  V30 18650 H 1735.81 -0.509018 1.34703 0
M  V30 18651 H 1737.77 -3.46482 2.39851 0
M  V30 18652 H 1736.49 -3.02261 1.23717 0
M  V30 18653 H 1735.15 -1.96993 3.09175 0
M  V30 18654 H 1734.8 -4.37136 2.4884 0
M  V30 18655 H 1734.5 -4.08751 4.22133 0
M  V30 18656 H 1736.02 -4.85903 3.69771 0
M  V30 18657 H 1737.44 -2.94407 4.91932 0
M  V30 18658 H 1735.83 -2.40467 5.49814 0
M  V30 18659 H 1736.9 -1.24796 4.68566 0
M  V30 18660 N 1738.25 -1.47815 -0.546675 0
M  V30 18661 C 1739.47 -1.58864 -1.33331 0
M  V30 18662 C 1739.9 -0.24302 -1.86524 0
M  V30 18663 O 1739.25 0.782777 -1.63531 0
M  V30 18664 C 1739.3 -2.62556 -2.47177 0
M  V30 18665 O 1738.41 -2.18558 -3.49723 0
M  V30 18666 H 1737.75 -0.53329 -0.395598 0
M  V30 18667 H 1740.28 -1.93677 -0.659579 0
M  V30 18668 H 1740.29 -2.83307 -2.936 0
M  V30 18669 H 1738.96 -3.60255 -2.0782 0
M  V30 18670 H 1737.54 -2.0795 -3.09534 0
M  V30 18671 N 1739.72 0.794246 -1.36123 0
M  V30 18672 C 1740.95 1.58297 -1.33228 0
M  V30 18673 C 1741.37 1.88597 0.0875426 0
M  V30 18674 O 1740.72 1.49754 1.04307 0
M  V30 18675 C 1740.77 2.90687 -2.14904 0
M  V30 18676 O 1740.5 2.61695 -3.51351 0
M  V30 18677 C 1742 3.85009 -2.19734 0
M  V30 18678 H 1739.22 0.491139 -0.457191 0
M  V30 18679 H 1741.76 0.986129 -1.79153 0
M  V30 18680 H 1739.92 3.46852 -1.72546 0
M  V30 18681 H 1740.33 3.46313 -3.93913 0
M  V30 18682 H 1741.8 4.74976 -2.8125 0
M  V30 18683 H 1742.28 4.22504 -1.19946 0
M  V30 18684 H 1742.89 3.34777 -2.62307 0
M  V30 18685 N 1741.2 1.20323 1.01785 0
M  V30 18686 C 1742.45 1.01413 1.75623 0
M  V30 18687 C 1742.78 -0.452801 1.88847 0
M  V30 18688 O 1742.06 -1.33618 1.41338 0
M  V30 18689 C 1742.34 1.69686 3.17614 0
M  V30 18690 C 1742.19 3.23815 3.12192 0
M  V30 18691 C 1743.51 1.42891 4.16257 0
M  V30 18692 H 1740.63 0.369822 0.637495 0
M  V30 18693 H 1743.27 1.4832 1.18749 0
M  V30 18694 H 1741.42 1.29806 3.66173 0
M  V30 18695 H 1743.09 3.72981 2.71446 0
M  V30 18696 H 1741.34 3.54785 2.4962 0
M  V30 18697 H 1742.01 3.66741 4.12559 0
M  V30 18698 H 1744.48 1.77486 3.76348 0
M  V30 18699 H 1743.36 1.93195 5.13777 0
M  V30 18700 H 1743.62 0.356263 4.40662 0
M  V30 18701 N 1742.68 -1.21073 1.00892 0
M  V30 18702 C 1743.93 -1.89866 0.69248 0
M  V30 18703 C 1744.25 -1.7874 -0.779562 0
M  V30 18704 O 1743.52 -1.18482 -1.56009 0
M  V30 18705 H 1742.1 -0.702799 0.253145 0
M  V30 18706 H 1744.76 -1.47075 1.27887 0
M  V30 18707 H 1743.86 -2.96673 0.969098 0
M  V30 18708 N 1744.16 -0.784156 -1.36707 0
M  V30 18709 C 1745.41 -0.350748 -1.98627 0
M  V30 18710 C 1745.72 1.08208 -1.62943 0
M  V30 18711 O 1746.93 1.6175 -2.18058 0
M  V30 18712 C 1745.38 -0.576173 -3.55258 0
M  V30 18713 C 1744.99 -2.02008 -3.99871 0
M  V30 18714 C 1746.73 -0.207008 -4.23995 0
M  V30 18715 C 1744.64 -2.19244 -5.4926 0
M  V30 18716 H 1743.57 -0.127403 -0.743158 0
M  V30 18717 H 1746.22 -0.965044 -1.56074 0
M  V30 18718 H 1744.6 0.10776 -3.95853 0
M  V30 18719 H 1745.78 -2.73998 -3.70489 0
M  V30 18720 H 1744.09 -2.34699 -3.43955 0
M  V30 18721 H 1746.69 -0.314139 -5.33776 0
M  V30 18722 H 1747.03 0.844253 -4.07649 0
M  V30 18723 H 1747.57 -0.843971 -3.88744 0
M  V30 18724 H 1744.31 -3.22734 -5.70546 0
M  V30 18725 H 1743.83 -1.51752 -5.80286 0
M  V30 18726 H 1745.5 -1.99703 -6.15408 0
M  V30 18727 N 1745.64 1.48215 -0.535727 0
M  V30 18728 C 1746.88 2.028 -0.00373305 0
M  V30 18729 C 1747.22 1.41143 1.33388 0
M  V30 18730 O 1746.49 0.559227 1.86287 0
M  V30 18731 C 1746.77 3.59925 0.112186 0
M  V30 18732 C 1746.63 4.32053 -1.251 0
M  V30 18733 C 1747.95 4.32083 0.836177 0
M  V30 18734 H 1745.06 0.736995 -0.00283063 0
M  V30 18735 H 1747.71 1.76877 -0.693868 0
M  V30 18736 H 1745.86 3.82142 0.69996 0
M  V30 18737 H 1747.53 4.21238 -1.88033 0
M  V30 18738 H 1745.77 3.93246 -1.83139 0
M  V30 18739 H 1746.44 5.4046 -1.12283 0
M  V30 18740 H 1748.92 4.1473 0.337333 0
M  V30 18741 H 1747.79 5.41699 0.886196 0
M  V30 18742 H 1748.06 3.99772 1.88771 0
M  V30 18743 N 1747.11 0.27113 1.5525 0
M  V30 18744 C 1748.36 -0.346106 1.99114 0
M  V30 18745 C 1748.68 -1.56677 1.16092 0
M  V30 18746 O 1747.95 -1.94305 0.249472 0
M  V30 18747 H 1746.53 -0.13087 0.735447 0
M  V30 18748 H 1749.2 0.375542 1.91248 0
M  V30 18749 H 1748.29 -0.638703 3.05495 0
M  V30 18750 N 1748.59 -1.576 -0.00164943 0
M  V30 18751 C 1749.52 -2.11354 -0.992554 0
M  V30 18752 C 1750.5 -1.0223 -1.35952 0
M  V30 18753 O 1751.69 -1.29904 -1.44356 0
M  V30 18754 C 1748.82 -2.61549 -2.28494 0
M  V30 18755 C 1747.77 -3.75185 -2.05962 0
M  V30 18756 C 1747.1 -4.11688 -3.412 0
M  V30 18757 C 1748.4 -5.02526 -1.42355 0
M  V30 18758 H 1750.09 -2.94398 -0.544986 0
M  V30 18759 H 1747.64 -1.4162 -0.260702 0
M  V30 18760 H 1749.59 -2.97782 -2.98168 0
M  V30 18761 H 1748.32 -1.75625 -2.75361 0
M  V30 18762 H 1746.97 -3.39343 -1.38714 0
M  V30 18763 H 1746.62 -3.22789 -3.85767 0
M  V30 18764 H 1746.32 -4.88246 -3.2694 0
M  V30 18765 H 1747.85 -4.50478 -4.12192 0
M  V30 18766 H 1749.26 -5.3654 -2.01984 0
M  V30 18767 H 1747.66 -5.83878 -1.38589 0
M  V30 18768 H 1748.73 -4.83308 -0.392565 0
M  V30 18769 N 1750.07 0.274379 -1.55193 0
M  V30 18770 C 1751.02 1.34139 -1.84366 0
M  V30 18771 C 1752 1.44755 -0.702475 0
M  V30 18772 O 1753.2 1.48459 -0.963785 0
M  V30 18773 C 1750.33 2.7019 -2.11784 0
M  V30 18774 C 1749.41 2.63689 -3.32158 0
M  V30 18775 N 1749.8 2.26808 -4.52097 0
M  V30 18776 C 1748.1 2.94752 -3.34719 0
M  V30 18777 C 1748.8 2.30264 -5.34185 0
M  V30 18778 N 1747.78 2.68683 -4.72557 0
M  V30 18779 H 1751.58 1.0463 -2.74645 0
M  V30 18780 H 1749.09 0.483012 -1.55051 0
M  V30 18781 H 1751.09 3.47158 -2.30839 0
M  V30 18782 H 1749.75 3.00588 -1.22788 0
M  V30 18783 H 1750.76 1.98809 -4.78221 0
M  V30 18784 H 1747.44 3.29871 -2.55912 0
M  V30 18785 H 1748.83 2.04323 -6.4008 0
M  V30 18786 N 1751.55 1.48103 0.538828 0
M  V30 18787 C 1752.96 1.34028 0.866532 0
M  V30 18788 C 1753.16 0.3446 1.98531 0
M  V30 18789 O 1752.22 -0.237347 2.51382 0
M  V30 18790 C 1753.53 2.73833 1.24241 0
M  V30 18791 C 1755.08 2.82256 1.35279 0
M  V30 18792 C 1755.56 4.22744 1.76214 0
M  V30 18793 N 1757.05 4.25374 1.83332 0
M  V30 18794 C 1757.78 5.31009 2.16373 0
M  V30 18795 N 1757.28 6.4693 2.47899 0
M  V30 18796 N 1759.07 5.18397 2.17304 0
M  V30 18797 H 1751.22 2.11461 -0.199502 0
M  V30 18798 H 1753.49 0.947627 -0.0266031 0
M  V30 18799 H 1753.19 3.48213 0.494025 0
M  V30 18800 H 1753.07 3.0679 2.19453 0
M  V30 18801 H 1755.45 2.08137 2.09196 0
M  V30 18802 H 1755.53 2.5293 0.382096 0
M  V30 18803 H 1755.18 4.97375 1.02862 0
M  V30 18804 H 1755.11 4.49507 2.74319 0
M  V30 18805 H 1757.6 3.41755 1.61282 0
M  V30 18806 H 1757.91 7.23279 2.7219 0
M  V30 18807 H 1756.26 6.50219 2.45438 0
M  V30 18808 H 1759.45 4.26855 1.92126 0
M  V30 18809 H 1759.62 6.00824 2.42722 0
M  V30 18810 N 1753.03 -0.787016 1.36542 0
M  V30 18811 C 1753.98 -1.88956 1.27592 0
M  V30 18812 C 1754.96 -1.60032 0.166904 0
M  V30 18813 O 1756.15 -1.72423 0.399932 0
M  V30 18814 C 1753.28 -3.26204 1.06986 0
M  V30 18815 C 1752.37 -3.6113 2.22365 0
M  V30 18816 N 1752.76 -3.67346 3.47693 0
M  V30 18817 C 1751.06 -3.91205 2.14183 0
M  V30 18818 C 1751.76 -3.98581 4.23684 0
M  V30 18819 N 1750.73 -4.13688 3.52651 0
M  V30 18820 H 1754.54 -1.91992 2.22522 0
M  V30 18821 H 1752.05 -0.982664 1.29296 0
M  V30 18822 H 1754.05 -4.05058 0.986603 0
M  V30 18823 H 1752.71 -3.24441 0.129582 0
M  V30 18824 H 1753.72 -3.49931 3.81797 0
M  V30 18825 H 1750.39 -3.97354 1.28125 0
M  V30 18826 H 1751.78 -4.10294 5.32079 0
M  V30 18827 N 1754.5 -1.20861 -1.01145 0
M  V30 18828 C 1755.75 -1.02343 -1.75082 0
M  V30 18829 C 1756.08 0.44278 -1.89085 0
M  V30 18830 O 1755.36 1.32867 -1.42045 0
M  V30 18831 C 1755.64 -1.71368 -3.1671 0
M  V30 18832 C 1755.49 -3.25466 -3.1047 0
M  V30 18833 C 1756.81 -1.45097 -4.15494 0
M  V30 18834 H 1753.93 -0.373198 -0.635525 0
M  V30 18835 H 1756.57 -1.48947 -1.17961 0
M  V30 18836 H 1754.72 -1.31746 -3.6548 0
M  V30 18837 H 1756.4 -3.74415 -2.69464 0
M  V30 18838 H 1754.64 -3.56104 -2.47735 0
M  V30 18839 H 1755.31 -3.68924 -4.10608 0
M  V30 18840 H 1757.79 -1.7948 -3.75401 0
M  V30 18841 H 1756.66 -1.95917 -5.12745 0
M  V30 18842 H 1756.92 -0.379628 -4.40467 0
M  V30 18843 N 1755.98 1.20536 -1.01532 0
M  V30 18844 C 1757.21 1.94393 -0.722908 0
M  V30 18845 C 1757.63 1.74191 0.709857 0
M  V30 18846 O 1756.99 1.03538 1.48827 0
M  V30 18847 C 1757.04 3.44597 -1.06231 0
M  V30 18848 O 1756.14 4.12036 -0.173286 0
M  V30 18849 H 1755.48 0.607361 -0.268345 0
M  V30 18850 H 1758.01 1.53003 -1.35835 0
M  V30 18851 H 1758.02 3.95212 -1.01348 0
M  V30 18852 H 1756.7 3.58624 -2.10621 0
M  V30 18853 H 1755.28 3.71851 -0.27953 0
M  V30 18854 N 1757.46 0.791395 1.36289 0
M  V30 18855 C 1758.74 0.288602 1.93459 0
M  V30 18856 C 1759.12 -1.21953 1.7231 0
M  V30 18857 O 1758.47 -2.01194 1.0832 0
M  V30 18858 C 1758.68 0.683392 3.42244 0
M  V30 18859 C 1760.02 0.664255 4.19372 0
M  V30 18860 O 1761.05 0.623988 3.50692 0
M  V30 18861 O 1759.91 0.708926 5.41882 0
M  V30 18862 H 1757 0.0719305 0.823866 0
M  V30 18863 H 1759.55 0.874071 1.45458 0
M  V30 18864 H 1758.32 1.72344 3.51302 0
M  V30 18865 H 1757.94 0.0719128 3.97535 0
M  V30 18866 N 1758.94 -1.47929 0.54358 0
M  V30 18867 C 1760.35 -1.86395 0.10663 0
M  V30 18868 C 1760.7 -1.45171 -1.31984 0
M  V30 18869 O 1759.83 -0.848558 -1.99069 0
M  V30 18870 C 1760.42 -3.38285 0.186733 0
M  V30 18871 C 1758.98 -3.75894 -0.195098 0
M  V30 18872 C 1758.13 -2.71983 0.540427 0
M  V30 18873 H 1761.08 -1.3964 0.754076 0
M  V30 18874 H 1761.1 -3.75769 -0.598151 0
M  V30 18875 H 1760.61 -3.68258 1.22505 0
M  V30 18876 H 1758.71 -3.51536 -1.23504 0
M  V30 18877 H 1758.83 -4.78853 0.153975 0
M  V30 18878 H 1757.19 -2.54696 -0.0149151 0
M  V30 18879 H 1757.97 -3.04799 1.57963 0
M  V30 18880 N 1760.42 -0.27936 -1.55104 0
M  V30 18881 C 1761.67 0.335541 -1.99295 0
M  V30 18882 C 1761.99 1.56059 -1.16921 0
M  V30 18883 O 1761.26 1.9417 -0.259773 0
M  V30 18884 H 1759.84 0.126968 -0.736131 0
M  V30 18885 H 1762.5 -0.385679 -1.91046 0
M  V30 18886 H 1761.59 0.622493 -3.05829 0
M  V30 18887 N 1761.9 1.57599 -0.0067085 0
M  V30 18888 C 1762.83 2.11878 0.981331 0
M  V30 18889 C 1763.81 1.02949 1.35408 0
M  V30 18890 O 1764.99 1.30667 1.43665 0
M  V30 18891 C 1762.12 2.62757 2.27104 0
M  V30 18892 C 1761.08 3.76272 2.0397 0
M  V30 18893 C 1760.4 4.13491 3.39012 0
M  V30 18894 C 1761.7 5.03274 1.39688 0
M  V30 18895 H 1763.4 2.94683 0.529366 0
M  V30 18896 H 1760.94 1.41757 0.253187 0
M  V30 18897 H 1762.89 2.99359 2.96585 0
M  V30 18898 H 1761.62 1.77082 2.74426 0
M  V30 18899 H 1760.28 3.40074 1.36913 0
M  V30 18900 H 1759.93 3.24831 3.8405 0
M  V30 18901 H 1759.63 4.89972 3.24347 0
M  V30 18902 H 1761.15 4.52657 4.09797 0
M  V30 18903 H 1762.56 5.37604 1.99136 0
M  V30 18904 H 1760.96 5.84604 1.3549 0
M  V30 18905 H 1762.03 4.8351 0.366928 0
M  V30 18906 N 1763.37 -0.266145 1.55336 0
M  V30 18907 C 1764.78 -0.836683 1.66903 0
M  V30 18908 C 1765.14 -1.86781 0.600597 0
M  V30 18909 O 1764.26 -2.14872 -0.256674 0
M  V30 18910 C 1764.86 -1.52436 3.0257 0
M  V30 18911 C 1763.41 -2.04284 3.1614 0
M  V30 18912 C 1762.56 -0.887248 2.62723 0
M  V30 18913 H 1765.51 -0.0423472 1.58643 0
M  V30 18914 H 1765.53 -2.39163 2.95941 0
M  V30 18915 H 1765.05 -0.773649 3.80311 0
M  V30 18916 H 1763.15 -2.82296 2.43187 0
M  V30 18917 H 1763.26 -2.25345 4.22796 0
M  V30 18918 H 1761.62 -1.28251 2.20054 0
M  V30 18919 H 1762.41 -0.14993 3.42972 0
M  V30 18920 N 1764.85 -1.48386 -0.530967 0
M  V30 18921 C 1766.1 -1.56045 -1.28431 0
M  V30 18922 C 1766.42 -0.235695 -1.9357 0
M  V30 18923 O 1765.69 0.742677 -1.81276 0
M  V30 18924 H 1764.27 -0.574868 -0.477007 0
M  V30 18925 H 1766.93 -1.84844 -0.617955 0
M  V30 18926 H 1766.03 -2.34096 -2.0641 0
M  V30 18927 N 1766.33 0.779763 -1.36958 0
M  V30 18928 C 1767.28 1.89278 -1.32071 0
M  V30 18929 C 1768.25 1.65037 -0.18766 0
M  V30 18930 O 1769.43 1.87064 -0.375736 0
M  V30 18931 C 1766.57 3.2623 -1.12552 0
M  V30 18932 C 1765.68 3.62479 -2.35017 0
M  V30 18933 C 1764.82 4.88599 -2.08434 0
M  V30 18934 C 1763.86 5.17555 -3.26808 0
M  V30 18935 N 1763 6.3486 -2.99828 0
M  V30 18936 H 1767.84 1.9279 -2.27235 0
M  V30 18937 H 1765.37 0.942656 -1.12927 0
M  V30 18938 H 1767.33 4.0522 -0.992595 0
M  V30 18939 H 1765.96 3.22114 -0.210387 0
M  V30 18940 H 1765.01 2.78536 -2.59079 0
M  V30 18941 H 1766.32 3.7982 -3.23324 0
M  V30 18942 H 1765.48 5.75476 -1.92127 0
M  V30 18943 H 1764.22 4.73346 -1.17453 0
M  V30 18944 H 1763.22 4.29156 -3.43664 0
M  V30 18945 H 1764.45 5.34721 -4.18629 0
M  V30 18946 H 1762.39 6.20981 -2.11468 0
M  V30 18947 H 1762.31 6.52579 -3.81676 0
M  V30 18948 H 1763.58 7.24695 -2.8712 0
M  V30 18949 O 1767.85 1.32763 0.919584 0
M  V30 18950 H 1768.54 1.15835 1.55248 0
M  V30 END ATOM
M  V30 BEGIN BOND
M  V30 END BOND
M  V30 END CTAB
M  END
$$$$
