drugbank_target|P0A6J8 D-alanine--D-alanine ligase A (DB00260)
 OpenBabel12092119383D

  0  0  0     0  0            999 V3000
M  V30 BEGIN CTAB
M  V30 COUNTS 5540 5588 0 0 0
M  V30 BEGIN ATOM
M  V30 1 H -0.908 1.98254 -0.117106 0
M  V30 2 N 0 1.576 0 0
M  V30 3 C 0.933 2.03868 1.02534 0
M  V30 4 C 1.911 0.928543 1.3348 0
M  V30 5 O 3.095 1.19667 1.45644 0
M  V30 6 C 0.222 2.43627 2.35294 0
M  V30 7 C -0.732 3.65373 2.2001 0
M  V30 8 S 0.101 5.13292 1.52614 0
M  V30 9 C 1.257 5.56322 2.86805 0
M  V30 10 H 1.49 2.90518 0.631377 0
M  V30 11 H -0.977 1.52953 0.210867 0
M  V30 12 H 0.981 2.67203 3.11629 0
M  V30 13 H -0.358 1.57376 2.7183 0
M  V30 14 H -1.165 3.90944 3.18086 0
M  V30 15 H -1.563 3.418 1.51819 0
M  V30 16 H 0.729 5.58782 3.83104 0
M  V30 17 H 1.672 6.56266 2.65933 0
M  V30 18 H 2.08 4.83886 2.90714 0
M  V30 19 N 1.4781 -0.272755 1.55222 0
M  V30 20 C 2.3881 -1.35918 1.91216 0
M  V30 21 C 3.4041 -1.54026 0.809436 0
M  V30 22 O 4.5801 -1.68148 1.10852 0
M  V30 23 C 1.6451 -2.69834 2.17693 0
M  V30 24 C 0.7061 -2.6047 3.41253 0
M  V30 25 C -0.0609 -3.88 3.66458 0
M  V30 26 O 0.1621 -4.88693 2.94169 0
M  V30 27 O -0.9039 -3.88189 4.59992 0
M  V30 28 H 2.9221 -1.0839 2.83699 0
M  V30 29 H 0.5071 -0.471301 1.41771 0
M  V30 30 H 2.3891 -3.49017 2.36147 0
M  V30 31 H 1.0641 -2.97148 1.28392 0
M  V30 32 H -0.0289 -1.79663 3.28134 0
M  V30 33 H 1.3041 -2.38106 4.30774 0
M  V30 34 N 2.9562 -1.48159 -0.537278 0
M  V30 35 C 3.9032 -1.62138 -1.64256 0
M  V30 36 C 4.8732 -0.463668 -1.59497 0
M  V30 37 O 6.0582 -0.686241 -1.78032 0
M  V30 38 C 3.1982 -1.66028 -3.02537 0
M  V30 39 C 2.3112 -2.92855 -3.17585 0
M  V30 40 C 1.4462 -2.87952 -4.46382 0
M  V30 41 C 0.4852 -4.09516 -4.54932 0
M  V30 42 N -0.3778 -4.02733 -5.75109 0
M  V30 43 H 4.4622 -2.56529 -1.51647 0
M  V30 44 H 1.9992 -1.27224 -0.738414 0
M  V30 45 H 3.9572 -1.66265 -3.82638 0
M  V30 46 H 2.5872 -0.751331 -3.13934 0
M  V30 47 H 1.6392 -3.02395 -2.30784 0
M  V30 48 H 2.9512 -3.82822 -3.19764 0
M  V30 49 H 2.1052 -2.8655 -5.34765 0
M  V30 50 H 0.8442 -1.95702 -4.46712 0
M  V30 51 H -0.1508 -4.11201 -3.64957 0
M  V30 52 H 1.0742 -5.02917 -4.56346 0
M  V30 53 H -0.9798 -3.13299 -5.76351 0
M  V30 54 H -1.0628 -4.86397 -5.78752 0
M  V30 55 H 0.2052 -4.05379 -6.65799 0
M  V30 56 N 4.4343 0.785586 -1.36625 0
M  V30 57 C 5.3643 1.91259 -1.33949 0
M  V30 58 C 6.3453 1.68795 -0.210325 0
M  V30 59 O 7.5303 1.89854 -0.408561 0
M  V30 60 C 4.6603 3.28339 -1.13186 0
M  V30 61 C 3.6143 3.65335 -2.22967 0
M  V30 62 C 2.9403 5.00806 -1.87342 0
M  V30 63 C 4.2403 3.7352 -3.65075 0
M  V30 64 H 5.9343 1.93755 -2.28253 0
M  V30 65 H 3.4803 0.930788 -1.09874 0
M  V30 66 H 5.4333 4.06804 -1.09948 0
M  V30 67 H 4.1573 3.2624 -0.153332 0
M  V30 68 H 2.8163 2.89169 -2.25337 0
M  V30 69 H 2.4643 4.95233 -0.880545 0
M  V30 70 H 2.1643 5.26529 -2.60846 0
M  V30 71 H 3.6883 5.81687 -1.85667 0
M  V30 72 H 5.1023 4.42168 -3.64911 0
M  V30 73 H 3.4993 4.10731 -4.37516 0
M  V30 74 H 4.5693 2.74527 -3.99703 0
M  V30 75 N 5.9124 1.20967 1.01018 0
M  V30 76 C 7.3284 0.965905 1.27053 0
M  V30 77 C 7.5284 -0.350785 1.98423 0
M  V30 78 O 6.5844 -1.07773 2.28344 0
M  V30 79 C 7.8974 2.15294 2.09926 0
M  V30 80 C 9.4454 2.19463 2.23171 0
M  V30 81 C 9.9204 3.3767 3.09424 0
M  V30 82 N 11.4114 3.37724 3.17012 0
M  V30 83 C 12.1464 4.25837 3.83993 0
M  V30 84 N 11.6424 5.24138 4.53047 0
M  V30 85 N 13.4354 4.1366 3.80581 0
M  V30 86 H 5.5864 2.0565 0.531194 0
M  V30 87 H 7.8494 0.90024 0.297106 0
M  V30 88 H 7.5554 3.10684 1.64828 0
M  V30 89 H 7.4294 2.13923 3.10672 0
M  V30 90 H 9.8164 1.24632 2.6749 0
M  V30 91 H 9.8974 2.2488 1.21912 0
M  V30 92 H 9.5414 4.32791 2.65808 0
M  V30 93 H 9.4714 3.29491 4.10784 0
M  V30 94 H 11.9624 2.6658 2.6785 0
M  V30 95 H 12.2754 5.87684 5.01844 0
M  V30 96 H 10.6204 5.28068 4.5185 0
M  V30 97 H 13.8114 3.36127 3.25785 0
M  V30 98 H 13.9844 4.82538 4.32505 0
M  V30 99 N 7.3905 -1.2043 1.01659 0
M  V30 100 C 8.6365 -1.90079 0.706963 0
M  V30 101 C 8.9695 -1.78648 -0.761474 0
M  V30 102 O 8.2445 -1.17069 -1.55323 0
M  V30 103 C 8.5275 -3.41469 1.14327 0
M  V30 104 C 8.3805 -3.61833 2.67201 0
M  V30 105 C 9.6995 -4.34261 0.714529 0
M  V30 106 H 6.8185 -0.690254 0.2583 0
M  V30 107 H 9.4605 -1.41826 1.26433 0
M  V30 108 H 7.6105 -3.82696 0.669056 0
M  V30 109 H 9.2825 -3.2986 3.22475 0
M  V30 110 H 7.5255 -3.05304 3.08175 0
M  V30 111 H 8.1965 -4.67955 2.92783 0
M  V30 112 H 10.6725 -4.00682 1.12221 0
M  V30 113 H 9.5485 -5.38806 1.04784 0
M  V30 114 H 9.8095 -4.40431 -0.383799 0
M  V30 115 N 8.8686 -0.792821 -1.36206 0
M  V30 116 C 10.1166 -0.366062 -1.98757 0
M  V30 117 C 10.4376 1.0668 -1.63231 0
M  V30 118 O 9.7076 1.73587 -0.907978 0
M  V30 119 H 8.2876 -0.132364 -0.735179 0
M  V30 120 H 10.9496 -1.01562 -1.66347 0
M  V30 121 H 10.0456 -0.460638 -3.08682 0
M  V30 122 N 10.3467 1.47872 -0.545128 0
M  V30 123 C 11.5957 2.01695 -0.0145033 0
M  V30 124 C 11.9087 1.42609 1.33873 0
M  V30 125 O 13.1147 1.88021 1.95858 0
M  V30 126 C 11.5707 3.59892 0.0245068 0
M  V30 127 C 11.1787 4.27966 -1.32475 0
M  V30 128 C 12.9227 4.21507 0.50316 0
M  V30 129 C 10.8297 5.78136 -1.2455 0
M  V30 130 H 9.7597 0.753998 -0.00165172 0
M  V30 131 H 12.4107 1.69985 -0.691175 0
M  V30 132 H 10.7927 3.88509 0.766575 0
M  V30 133 H 11.9667 4.11003 -2.08357 0
M  V30 134 H 10.2817 3.78286 -1.74036 0
M  V30 135 H 12.8787 5.31538 0.580656 0
M  V30 136 H 13.2217 3.87855 1.51243 0
M  V30 137 H 13.7547 3.97376 -0.183681 0
M  V30 138 H 10.4937 6.16388 -2.23039 0
M  V30 139 H 10.0137 5.97469 -0.528282 0
M  V30 140 H 11.6927 6.40099 -0.942488 0
M  V30 141 N 11.8248 0.280983 1.55075 0
M  V30 142 C 13.0708 -0.33461 2.00021 0
M  V30 143 C 13.4038 -1.55063 1.16915 0
M  V30 144 O 12.6788 -1.93006 0.240646 0
M  V30 145 C 12.9618 -0.711007 3.53011 0
M  V30 146 C 12.8148 0.512766 4.46868 0
M  V30 147 C 14.1338 -1.54522 4.12081 0
M  V30 148 H 11.2528 -0.120147 0.727141 0
M  V30 149 H 13.8948 0.389097 1.85973 0
M  V30 150 H 12.0448 -1.32761 3.65112 0
M  V30 151 H 13.7168 1.15131 4.46702 0
M  V30 152 H 11.9598 1.14975 4.18286 0
M  V30 153 H 12.6308 0.205556 5.51617 0
M  V30 154 H 15.1068 -1.02442 4.03293 0
M  V30 155 H 13.9828 -1.77739 5.19327 0
M  V30 156 H 14.2438 -2.52813 3.62682 0
M  V30 157 N 13.3029 -1.57598 0.00835791 0
M  V30 158 C 14.5499 -1.90928 -0.674732 0
M  V30 159 C 14.8779 -0.88277 -1.73313 0
M  V30 160 O 14.1329 0.111294 -1.95383 0
M  V30 161 C 14.4319 -3.3101 -1.34787 0
M  V30 162 C 14.0979 -4.48922 -0.421861 0
M  V30 163 C 12.7599 -4.8091 -0.166927 0
M  V30 164 C 15.1119 -5.20755 0.215211 0
M  V30 165 C 12.4399 -5.821 0.733232 0
M  V30 166 C 14.7919 -6.22905 1.1033 0
M  V30 167 C 13.4559 -6.53346 1.36733 0
M  V30 168 H 12.7259 -0.698656 -0.246902 0
M  V30 169 H 15.3729 -1.91387 0.0656779 0
M  V30 170 H 13.6779 -3.26714 -2.16253 0
M  V30 171 H 15.3749 -3.54061 -1.8826 0
M  V30 172 H 11.9649 -4.23934 -0.630729 0
M  V30 173 H 16.1489 -4.9629 0.0312829 0
M  V30 174 H 11.4049 -6.04042 0.945712 0
M  V30 175 H 15.5789 -6.77694 1.60325 0
M  V30 176 H 13.2059 -7.31573 2.06652 0
M  V30 177 N 14.781 0.264519 -1.55364 0
M  V30 178 C 16.029 0.993021 -1.76021 0
M  V30 179 C 16.35 1.86511 -0.569099 0
M  V30 180 O 15.62 1.91438 0.415735 0
M  V30 181 H 14.2 0.369639 -0.649135 0
M  V30 182 H 16.862 0.286707 -1.9278 0
M  V30 183 H 15.958 1.62502 -2.66457 0
M  V30 184 N 16.2591 1.48442 0.529413 0
M  V30 185 C 17.5071 1.56179 1.28267 0
M  V30 186 C 17.8281 0.237721 1.93546 0
M  V30 187 O 17.0981 -0.740779 1.81354 0
M  V30 188 H 15.6781 0.575367 0.476405 0
M  V30 189 H 18.3401 1.84909 0.61602 0
M  V30 190 H 17.4361 2.34312 2.06165 0
M  V30 191 N 17.7372 -0.778329 1.37039 0
M  V30 192 C 18.6842 -1.89139 1.32269 0
M  V30 193 C 19.6542 -1.65017 0.189387 0
M  V30 194 O 20.8392 -1.87024 0.377693 0
M  V30 195 C 17.9792 -3.26112 1.12894 0
M  V30 196 C 17.0922 -3.62233 2.35396 0
M  V30 197 C 16.2272 -4.8838 2.08946 0
M  V30 198 C 15.2662 -5.17212 3.2735 0
M  V30 199 N 14.4032 -6.34546 3.00492 0
M  V30 200 H 19.2432 -1.92552 2.27437 0
M  V30 201 H 16.7802 -0.941473 1.13025 0
M  V30 202 H 18.7382 -4.05116 0.996835 0
M  V30 203 H 17.3682 -3.22091 0.213758 0
M  V30 204 H 16.4202 -2.78265 2.5937 0
M  V30 205 H 17.7322 -3.79481 3.23721 0
M  V30 206 H 16.8862 -5.75274 1.92729 0
M  V30 207 H 15.6252 -4.73222 1.17949 0
M  V30 208 H 14.6302 -4.28796 3.44113 0
M  V30 209 H 15.8552 -5.34283 4.19188 0
M  V30 210 H 13.8012 -6.20759 2.12118 0
M  V30 211 H 13.7182 -6.52179 3.82358 0
M  V30 212 H 14.9862 -7.24394 2.87879 0
M  V30 213 N 19.2153 -1.21501 -1.00376 0
M  V30 214 C 20.4403 -1.05977 -1.78279 0
M  V30 215 C 20.8653 0.385994 -1.84097 0
M  V30 216 O 20.2233 1.27849 -1.28547 0
M  V30 217 C 20.2713 -1.66302 -3.19963 0
M  V30 218 O 19.3753 -0.909333 -4.0225 0
M  V30 219 H 18.7163 -0.372906 -0.549397 0
M  V30 220 H 21.2463 -1.6107 -1.26165 0
M  V30 221 H 21.2563 -1.70574 -3.70632 0
M  V30 222 H 19.9313 -2.71515 -3.15043 0
M  V30 223 H 18.5083 -0.941795 -3.60811 0
M  V30 224 N 20.6934 1.19889 -1.02296 0
M  V30 225 C 21.6564 2.21116 -0.603351 0
M  V30 226 C 22.6564 1.5738 0.329884 0
M  V30 227 O 23.8464 1.73802 0.117702 0
M  V30 228 C 20.9784 3.40696 0.117992 0
M  V30 229 H 22.1714 2.59754 -1.49893 0
M  V30 230 H 19.7244 1.33463 -0.813468 0
M  V30 231 H 20.4594 3.07569 1.0282 0
M  V30 232 H 20.2444 3.88188 -0.552511 0
M  V30 233 H 21.7344 4.15692 0.398696 0
M  V30 234 N 22.1715 0.800033 1.35784 0
M  V30 235 C 23.0815 0.207204 2.33683 0
M  V30 236 C 24.0975 -0.64631 1.61551 0
M  V30 237 O 25.2735 -0.559604 1.93469 0
M  V30 238 C 22.3385 -0.639659 3.40748 0
M  V30 239 C 21.3995 0.233585 4.28664 0
M  V30 240 C 20.6325 -0.572954 5.30616 0
M  V30 241 O 20.8555 -1.80816 5.40982 0
M  V30 242 O 19.7895 0.0327285 6.01891 0
M  V30 243 H 23.6155 1.01692 2.86169 0
M  V30 244 H 21.2005 0.561691 1.38439 0
M  V30 245 H 23.0825 -1.12223 4.06182 0
M  V30 246 H 21.7575 -1.42708 2.90544 0
M  V30 247 H 20.6645 0.763147 3.66233 0
M  V30 248 H 21.9975 0.984784 4.82248 0
M  V30 249 N 23.6496 -1.47581 0.552962 0
M  V30 250 C 24.5996 -2.26961 -0.217423 0
M  V30 251 C 25.5836 -1.34099 -0.889168 0
M  V30 252 O 26.7756 -1.58483 -0.788176 0
M  V30 253 C 23.9046 -3.19756 -1.24944 0
M  V30 254 C 22.9906 -4.20097 -0.581327 0
M  V30 255 N 23.3816 -5.04614 0.346171 0
M  V30 256 C 21.6796 -4.38099 -0.835767 0
M  V30 257 C 22.3806 -5.77052 0.733854 0
M  V30 258 N 21.3566 -5.43526 0.0896567 0
M  V30 259 H 25.1586 -2.89688 0.495761 0
M  V30 260 H 22.6726 -1.58068 0.372597 0
M  V30 261 H 24.6696 -3.75305 -1.81527 0
M  V30 262 H 23.3296 -2.58585 -1.96376 0
M  V30 263 H 24.3406 -5.12869 0.720098 0
M  V30 264 H 21.0176 -3.88102 -1.53892 0
M  V30 265 H 22.4076 -6.5504 1.49574 0
M  V30 266 N 25.1277 -0.289203 -1.54924 0
M  V30 267 C 26.0377 0.601863 -2.26748 0
M  V30 268 C 27.0537 1.15834 -1.2984 0
M  V30 269 O 28.2297 1.18564 -1.62802 0
M  V30 270 C 25.2947 1.76299 -2.98529 0
M  V30 271 C 24.3557 1.24178 -4.10948 0
M  V30 272 C 23.5887 2.34757 -4.79296 0
M  V30 273 O 23.8117 3.54411 -4.46933 0
M  V30 274 O 22.7457 2.02115 -5.66951 0
M  V30 275 H 26.5717 0.0195879 -3.03694 0
M  V30 276 H 24.1567 -0.0560868 -1.49295 0
M  V30 277 H 26.0387 2.43973 -3.43592 0
M  V30 278 H 24.7137 2.33209 -2.24488 0
M  V30 279 H 23.6207 0.531104 -3.70311 0
M  V30 280 H 24.9537 0.718252 -4.86931 0
M  V30 281 N 26.6058 1.57591 -0.0167156 0
M  V30 282 C 27.8518 1.91567 0.665582 0
M  V30 283 C 28.1848 0.892298 1.72487 0
M  V30 284 O 27.4598 -0.0867127 1.94307 0
M  V30 285 C 27.7428 3.36069 1.29342 0
M  V30 286 C 27.5958 4.49135 0.244541 0
M  V30 287 C 28.9148 3.803 2.21495 0
M  V30 288 H 26.0338 0.69666 0.240488 0
M  V30 289 H 28.6758 1.89866 -0.0714356 0
M  V30 290 H 26.8258 3.3765 1.92158 0
M  V30 291 H 28.4978 4.59689 -0.385228 0
M  V30 292 H 26.7408 4.3165 -0.431379 0
M  V30 293 H 27.4118 5.47242 0.723207 0
M  V30 294 H 29.8878 3.80377 1.68678 0
M  V30 295 H 28.7638 4.82127 2.62382 0
M  V30 296 H 29.0248 3.15104 3.101 0
M  V30 297 N 28.0839 -0.256276 1.55502 0
M  V30 298 C 29.3089 -1.00766 1.81276 0
M  V30 299 C 29.7339 -1.78524 0.59252 0
M  V30 300 O 29.0919 -1.75413 -0.45827 0
M  V30 301 C 29.1399 -1.92869 3.04687 0
M  V30 302 O 28.2439 -3.019 2.80945 0
M  V30 303 H 27.5849 -0.287224 0.598664 0
M  V30 304 H 30.1149 -0.280109 2.02674 0
M  V30 305 H 30.1249 -2.34511 3.33869 0
M  V30 306 H 28.7999 -1.35689 3.93143 0
M  V30 307 H 27.3769 -2.64454 2.62904 0
M  V30 308 N 29.562 -1.4872 -0.521534 0
M  V30 309 C 30.492 -1.66771 -1.63431 0
M  V30 310 C 31.473 -0.516499 -1.62069 0
M  V30 311 O 32.658 -0.750013 -1.79132 0
M  V30 312 C 29.788 -1.71515 -3.01993 0
M  V30 313 C 28.742 -2.86222 -3.18216 0
M  V30 314 C 28.068 -2.76061 -4.57924 0
M  V30 315 C 29.368 -4.27419 -3.00184 0
M  V30 316 H 31.062 -2.59932 -1.48579 0
M  V30 317 H 28.608 -1.25089 -0.713358 0
M  V30 318 H 30.561 -1.82731 -3.7972 0
M  V30 319 H 29.285 -0.749393 -3.17886 0
M  V30 320 H 27.944 -2.74575 -2.42908 0
M  V30 321 H 27.592 -1.77437 -4.70665 0
M  V30 322 H 27.292 -3.53037 -4.69722 0
M  V30 323 H 28.816 -2.89256 -5.37739 0
M  V30 324 H 30.23 -4.39855 -3.67697 0
M  V30 325 H 28.627 -5.05458 -3.2347 0
M  V30 326 H 29.697 -4.43293 -1.96518 0
M  V30 327 N 31.0401 0.771051 -1.3745 0
M  V30 328 C 31.9721 1.89352 -1.29146 0
M  V30 329 C 32.9851 1.61477 -0.207124 0
M  V30 330 O 34.1741 1.72382 -0.463324 0
M  V30 331 C 31.2741 3.24596 -0.974195 0
M  V30 332 C 30.4471 3.80111 -2.16413 0
M  V30 333 C 29.5061 4.93832 -1.81703 0
M  V30 334 O 28.5321 5.09382 -2.54006 0
M  V30 335 N 29.7341 5.75483 -0.761573 0
M  V30 336 H 32.4991 1.96991 -2.25864 0
M  V30 337 H 30.0601 0.950191 -1.31084 0
M  V30 338 H 32.0521 3.98193 -0.722828 0
M  V30 339 H 30.6221 3.12454 -0.0955527 0
M  V30 340 H 29.8421 2.98284 -2.57721 0
M  V30 341 H 31.1301 4.13932 -2.95867 0
M  V30 342 H 30.5281 5.65469 -0.161609 0
M  V30 343 H 29.0851 6.49302 -0.570064 0
M  V30 344 N 32.5182 1.22032 0.997298 0
M  V30 345 C 33.7432 1.06921 1.77715 0
M  V30 346 C 34.1682 -0.376226 1.84299 0
M  V30 347 O 33.5262 -1.27165 1.29223 0
M  V30 348 C 33.5742 1.67996 3.19076 0
M  V30 349 O 32.6782 0.930653 4.01762 0
M  V30 350 H 32.0192 0.375814 0.547412 0
M  V30 351 H 34.5492 1.61737 1.25309 0
M  V30 352 H 34.5592 1.72538 3.69723 0
M  V30 353 H 33.2342 2.73182 3.13599 0
M  V30 354 H 31.8112 0.960917 3.60307 0
M  V30 355 N 33.9963 -1.19345 1.0293 0
M  V30 356 C 34.9593 -2.20793 0.615069 0
M  V30 357 C 35.9593 -1.57553 -0.321533 0
M  V30 358 O 37.1493 -1.73862 -0.108483 0
M  V30 359 C 34.2813 -3.40754 -0.0999222 0
M  V30 360 H 35.4743 -2.58955 1.51269 0
M  V30 361 H 33.0273 -1.3303 0.820534 0
M  V30 362 H 33.7623 -3.0811 -1.01187 0
M  V30 363 H 33.5473 -3.87889 0.57309 0
M  V30 364 H 35.0373 -4.15898 -0.376645 0
M  V30 365 N 35.4744 -0.807222 -1.35358 0
M  V30 366 C 36.4214 -0.216037 -2.29787 0
M  V30 367 C 37.3914 0.650278 -1.52842 0
M  V30 368 O 38.5764 0.595227 -1.81278 0
M  V30 369 C 35.7164 0.628893 -3.39321 0
M  V30 370 C 34.8294 -0.257927 -4.31229 0
M  V30 371 C 33.9644 0.595069 -5.27856 0
M  V30 372 C 33.0034 -0.292111 -6.11403 0
M  V30 373 N 32.1404 0.520895 -7.00165 0
M  V30 374 H 36.9804 -1.02671 -2.79755 0
M  V30 375 H 34.5174 -0.517839 -1.37684 0
M  V30 376 H 36.4754 1.13393 -4.01494 0
M  V30 377 H 35.1054 1.40482 -2.90628 0
M  V30 378 H 34.1574 -0.881076 -3.70056 0
M  V30 379 H 35.4694 -0.940759 -4.89848 0
M  V30 380 H 34.6234 1.16522 -5.95405 0
M  V30 381 H 33.3624 1.31146 -4.69736 0
M  V30 382 H 32.3674 -0.874525 -5.428 0
M  V30 383 H 33.5924 -1.00638 -6.71602 0
M  V30 384 H 31.5384 1.22125 -6.44532 0
M  V30 385 H 31.4554 -0.103877 -7.55929 0
M  V30 386 H 32.7234 1.0743 -7.72062 0
M  V30 387 N 36.9525 1.47285 -0.560781 0
M  V30 388 C 37.9005 2.31756 0.197942 0
M  V30 389 C 38.8945 1.43146 0.905854 0
M  V30 390 O 40.1005 1.59891 0.826733 0
M  V30 391 H 36.4755 0.747438 0.0827049 0
M  V30 392 H 38.4465 2.9359 -0.533629 0
M  V30 393 C 37.1955 3.25874 1.21249 0
M  V30 394 H 36.5185 3.94023 0.67719 0
M  V30 395 H 37.9585 3.87803 1.71419 0
M  V30 396 C 36.4175 2.49651 2.26221 0
M  V30 397 O 36.9475 2.24355 3.33208 0
M  V30 398 N 35.1535 2.10597 2.00243 0
M  V30 399 H 34.7005 2.31369 1.13252 0
M  V30 400 H 34.6585 1.59913 2.70694 0
M  V30 401 N 38.4306 0.297415 1.54768 0
M  V30 402 C 39.6796 -0.313669 1.99246 0
M  V30 403 C 39.9926 -1.55281 1.18942 0
M  V30 404 O 41.1986 -2.23825 1.5367 0
M  V30 405 C 39.6546 -0.609407 3.54703 0
M  V30 406 C 39.2626 0.611192 4.43811 0
M  V30 407 C 41.0066 -1.18188 4.07715 0
M  V30 408 C 38.9136 0.288805 5.90694 0
M  V30 409 H 37.8436 -0.120979 0.744231 0
M  V30 410 H 40.4946 0.40556 1.78962 0
M  V30 411 H 38.8766 -1.38813 3.70873 0
M  V30 412 H 40.0506 1.3875 4.39414 0
M  V30 413 H 38.3656 1.10205 4.01552 0
M  V30 414 H 40.9626 -1.43727 5.15021 0
M  V30 415 H 41.3056 -2.12299 3.58099 0
M  V30 416 H 41.8386 -0.464944 3.95074 0
M  V30 417 H 38.5776 1.19838 6.44453 0
M  V30 418 H 38.0976 -0.450305 5.98107 0
M  V30 419 H 39.7766 -0.110933 6.46905 0
M  V30 420 N 39.9087 -1.5758 0.0250728 0
M  V30 421 C 41.1547 -1.91917 -0.655413 0
M  V30 422 C 41.4877 -0.901433 -1.72011 0
M  V30 423 O 40.7627 0.0764069 -1.9435 0
M  V30 424 C 41.0457 -3.36751 -1.27558 0
M  V30 425 C 40.8987 -4.49258 -0.220719 0
M  V30 426 C 42.2177 -3.81469 -2.19475 0
M  V30 427 H 39.3367 -0.697925 -0.23679 0
M  V30 428 H 41.9787 -1.89825 0.0815036 0
M  V30 429 H 40.1287 -3.38664 -1.90365 0
M  V30 430 H 41.8007 -4.59478 0.409601 0
M  V30 431 H 40.0437 -4.31415 0.454264 0
M  V30 432 H 40.7147 -5.47618 -0.694175 0
M  V30 433 H 43.1907 -3.81266 -1.66659 0
M  V30 434 H 42.0667 -4.83512 -2.59822 0
M  V30 435 H 42.3277 -3.16744 -3.08424 0
M  V30 436 N 41.3868 0.248026 -1.55636 0
M  V30 437 C 42.6638 0.998988 -1.68165 0
M  V30 438 C 43.0438 2.03409 -0.564621 0
M  V30 439 O 42.3918 2.24378 0.432076 0
M  V30 440 C 42.6018 1.63334 -3.0842 0
M  V30 441 C 43.9498 2.13562 -3.66983 0
M  V30 442 O 44.9738 1.73277 -3.11213 0
M  V30 443 O 43.8328 2.87526 -4.64749 0
M  V30 444 H 40.9268 0.464933 -0.683935 0
M  V30 445 H 43.4728 0.241902 -1.67967 0
M  V30 446 H 42.2448 0.884583 -3.8117 0
M  V30 447 H 41.8678 2.45666 -3.12624 0
M  V30 448 N 42.8649 1.48995 0.513639 0
M  V30 449 C 43.8279 1.64229 1.59879 0
M  V30 450 C 44.8279 0.514696 1.5234 0
M  V30 451 O 46.0179 0.78087 1.55718 0
M  V30 452 C 43.1499 1.62783 2.99524 0
M  V30 453 H 44.3429 2.61004 1.47705 0
M  V30 454 H 41.8959 1.37837 0.736936 0
M  V30 455 H 42.6309 0.675461 3.17188 0
M  V30 456 H 42.4159 2.4466 3.06404 0
M  V30 457 H 43.9059 1.76669 3.78388 0
M  V30 458 N 44.343 -0.763751 1.37857 0
M  V30 459 C 45.592 -1.51789 1.32827 0
M  V30 460 C 45.905 -1.95426 -0.0823719 0
M  V30 461 O 47.111 -2.70298 -0.255172 0
M  V30 462 C 45.567 -2.74133 2.33193 0
M  V30 463 C 45.175 -2.37562 3.79827 0
M  V30 464 C 46.919 -3.52054 2.37188 0
M  V30 465 C 44.826 -3.56456 4.71904 0
M  V30 466 H 43.756 -0.569896 0.493695 0
M  V30 467 H 46.407 -0.835822 1.63359 0
M  V30 468 H 44.789 -3.4427 1.9569 0
M  V30 469 H 45.963 -1.75157 4.26212 0
M  V30 470 H 44.278 -1.72798 3.78853 0
M  V30 471 H 46.875 -4.40437 3.03182 0
M  V30 472 H 47.218 -3.92486 1.38782 0
M  V30 473 H 47.751 -2.88921 2.7344 0
M  V30 474 H 44.49 -3.21099 5.71468 0
M  V30 475 H 44.01 -4.17938 4.30218 0
M  V30 476 H 45.689 -4.23168 4.89426 0
M  V30 477 N 45.8211 -1.22559 -0.990812 0
M  V30 478 C 47.0981 -0.959875 -1.70428 0
M  V30 479 C 47.4781 0.524455 -2.04481 0
M  V30 480 O 46.8261 1.49302 -1.72977 0
M  V30 481 C 47.0361 -1.85955 -2.95333 0
M  V30 482 C 48.3841 -2.11687 -3.68068 0
M  V30 483 O 49.4081 -1.8342 -3.05345 0
M  V30 484 O 48.2671 -2.59572 -4.80921 0
M  V30 485 H 45.3611 -0.361154 -0.743974 0
M  V30 486 H 47.9071 -1.33554 -1.04697 0
M  V30 487 H 46.6791 -2.86346 -2.66687 0
M  V30 488 H 46.3021 -1.4856 -3.68803 0
M  V30 489 N 47.2992 1.18797 -1.03562 0
M  V30 490 C 48.2462 2.22253 -0.622259 0
M  V30 491 C 49.2162 1.61987 0.36736 0
M  V30 492 O 50.4012 1.88986 0.262492 0
M  V30 493 C 47.5412 3.45097 0.0138462 0
M  V30 494 C 46.6542 4.19722 -1.02263 0
M  V30 495 C 45.7892 5.30009 -0.355573 0
M  V30 496 C 44.8282 5.96399 -1.37749 0
M  V30 497 N 43.9652 6.98234 -0.735766 0
M  V30 498 H 48.8052 2.56968 -1.50903 0
M  V30 499 H 46.3422 1.26245 -0.755017 0
M  V30 500 H 48.3002 4.15279 0.399948 0
M  V30 501 H 46.9302 3.11018 0.864158 0
M  V30 502 H 45.9822 3.48418 -1.52673 0
M  V30 503 H 47.2942 4.65227 -1.79903 0
M  V30 504 H 46.4482 6.0664 0.0850095 0
M  V30 505 H 45.1872 4.85592 0.452967 0
M  V30 506 H 44.1922 5.18512 -1.82826 0
M  V30 507 H 45.4172 6.42899 -2.18764 0
M  V30 508 H 43.3632 6.55979 0.0525597 0
M  V30 509 H 43.2802 7.41965 -1.44995 0
M  V30 510 H 44.5482 7.78845 -0.31941 0
M  V30 511 N 48.7773 0.814389 1.34928 0
M  V30 512 C 50.0023 0.410097 2.03305 0
M  V30 513 C 50.4273 -0.973464 1.60951 0
M  V30 514 O 49.7853 -1.63185 0.789964 0
M  V30 515 C 49.8333 0.51049 3.56968 0
M  V30 516 O 48.9373 -0.473035 4.09678 0
M  V30 517 H 48.2783 0.170088 0.641846 0
M  V30 518 H 50.8083 1.10244 1.72358 0
M  V30 519 H 50.8183 0.383135 4.06197 0
M  V30 520 H 49.4933 1.51963 3.87144 0
M  V30 521 H 48.0703 -0.305272 3.71648 0
M  V30 522 N 50.2554 -1.46986 0.568584 0
M  V30 523 C 51.6714 -1.57946 0.229189 0
M  V30 524 C 51.8714 -1.56567 -1.26843 0
M  V30 525 O 50.9274 -1.47511 -2.04931 0
M  V30 526 C 52.2404 -2.87963 0.865909 0
M  V30 527 C 53.7884 -3.01568 0.838188 0
M  V30 528 C 54.2634 -4.34301 1.45419 0
M  V30 529 N 55.7544 -4.40965 1.41788 0
M  V30 530 C 56.4894 -5.42256 1.86403 0
M  V30 531 N 55.9854 -6.50297 2.38926 0
M  V30 532 N 57.7784 -5.3337 1.77405 0
M  V30 533 H 49.9294 -1.46126 1.54146 0
M  V30 534 H 52.1924 -0.696156 0.643484 0
M  V30 535 H 51.8984 -2.94742 1.91886 0
M  V30 536 H 51.7724 -3.75423 0.365687 0
M  V30 537 H 54.1594 -2.94379 -0.206106 0
M  V30 538 H 54.2404 -2.1562 1.37629 0
M  V30 539 H 53.8844 -4.42247 2.49761 0
M  V30 540 H 53.8144 -5.19 0.891435 0
M  V30 541 H 56.3054 -3.63484 1.03381 0
M  V30 542 H 56.6184 -7.23777 2.70863 0
M  V30 543 H 54.9634 -6.51155 2.42944 0
M  V30 544 H 58.1544 -4.47865 1.3614 0
M  V30 545 H 58.3274 -6.12169 2.12492 0
M  V30 546 N 51.7335 -0.305618 -1.54608 0
M  V30 547 C 52.9805 0.302298 -2.00231 0
M  V30 548 C 53.3085 1.5354 -1.19398 0
M  V30 549 O 52.5635 1.93973 -0.259423 0
M  V30 550 C 52.8625 0.698983 -3.50498 0
M  V30 551 C 52.5285 -0.432903 -4.48817 0
M  V30 552 C 51.1905 -0.743622 -4.75419 0
M  V30 553 C 53.5425 -1.19409 -5.07337 0
M  V30 554 C 50.8705 -1.81857 -5.57804 0
M  V30 555 C 53.2225 -2.25899 -5.90891 0
M  V30 556 C 51.8865 -2.57572 -6.15803 0
M  V30 557 H 51.1565 0.110619 -0.732697 0
M  V30 558 H 53.8035 -0.425674 -1.86709 0
M  V30 559 H 52.1085 1.50711 -3.61654 0
M  V30 560 H 53.8055 1.1806 -3.83227 0
M  V30 561 H 50.3955 -0.18063 -4.28219 0
M  V30 562 H 54.5795 -0.967295 -4.86782 0
M  V30 563 H 49.8355 -2.06864 -5.75341 0
M  V30 564 H 54.0095 -2.85335 -6.35261 0
M  V30 565 H 51.6365 -3.40998 -6.7943 0
M  V30 566 N 53.2116 1.57565 -0.0334293 0
M  V30 567 C 54.4886 1.83282 0.683163 0
M  V30 568 C 54.8686 0.91823 1.90084 0
M  V30 569 O 54.2166 -0.025113 2.28486 0
M  V30 570 C 54.4266 3.32599 1.0573 0
M  V30 571 C 55.7746 3.99179 1.44711 0
M  V30 572 O 56.7986 3.3712 1.15015 0
M  V30 573 O 55.6576 5.08565 2.0006 0
M  V30 574 H 52.7516 0.755869 0.335546 0
M  V30 575 H 55.2976 1.69589 -0.0614402 0
M  V30 576 H 54.0696 3.90834 0.190828 0
M  V30 577 H 53.6926 3.51415 1.85993 0
M  V30 578 N 54.6897 -0.239769 1.55765 0
M  V30 579 C 55.9357 -0.968234 1.78194 0
M  V30 580 C 56.2687 -1.84701 0.599938 0
M  V30 581 O 55.5437 -1.9031 -0.401524 0
M  V30 582 C 55.8267 -1.8227 3.10564 0
M  V30 583 C 55.6797 -0.971633 4.3918 0
M  V30 584 C 56.9987 -2.80388 3.39221 0
M  V30 585 H 54.1177 -0.350572 0.648281 0
M  V30 586 H 56.7597 -0.238259 1.885 0
M  V30 587 H 54.9097 -2.44507 3.01908 0
M  V30 588 H 56.5817 -0.367408 4.59835 0
M  V30 589 H 54.8247 -0.276276 4.32919 0
M  V30 590 H 55.4957 -1.60346 5.28198 0
M  V30 591 H 57.9717 -2.28287 3.47885 0
M  V30 592 H 56.8477 -3.3729 4.33044 0
M  V30 593 H 57.1087 -3.57212 2.60484 0
M  V30 594 N 56.1678 -1.49265 -0.50573 0
M  V30 595 C 57.4138 -1.58748 -1.26202 0
M  V30 596 C 57.7468 -0.271227 -1.92297 0
M  V30 597 O 57.0218 0.724831 -1.80489 0
M  V30 598 C 57.3048 -2.74332 -2.33268 0
M  V30 599 C 57.1578 -4.15737 -1.71705 0
M  V30 600 C 58.4768 -2.85576 -3.34865 0
M  V30 601 H 55.5958 -0.577826 -0.457478 0
M  V30 602 H 58.2378 -1.81532 -0.560897 0
M  V30 603 H 56.3878 -2.55036 -2.93068 0
M  V30 604 H 58.0598 -4.46537 -1.15769 0
M  V30 605 H 56.3028 -4.21605 -1.02135 0
M  V30 606 H 56.9738 -4.92477 -2.49341 0
M  V30 607 H 59.4498 -3.03127 -2.8505 0
M  V30 608 H 58.3258 -3.68135 -4.07146 0
M  V30 609 H 58.5868 -1.94732 -3.96903 0
M  V30 610 N 57.6459 0.756429 -1.3826 0
M  V30 611 C 58.5759 1.88374 -1.37976 0
M  V30 612 C 59.5569 1.68311 -0.246082 0
M  V30 613 O 60.7419 1.88944 -0.44874 0
M  V30 614 C 57.8719 3.25864 -1.20125 0
M  V30 615 C 56.8259 3.60523 -2.30666 0
M  V30 616 C 56.1519 4.9672 -1.97923 0
M  V30 617 C 57.4519 3.65692 -3.72916 0
M  V30 618 H 59.1459 1.88869 -2.32312 0
M  V30 619 H 56.6919 0.907272 -1.11824 0
M  V30 620 H 58.6449 4.0438 -1.18552 0
M  V30 621 H 57.3689 3.25841 -0.222498 0
M  V30 622 H 56.0279 2.84324 -2.3142 0
M  V30 623 H 55.6759 4.93253 -0.985393 0
M  V30 624 H 55.3759 5.20878 -2.71955 0
M  V30 625 H 56.8999 5.77618 -1.97964 0
M  V30 626 H 58.3139 4.34328 -3.74208 0
M  V30 627 H 56.7109 4.01358 -4.4613 0
M  V30 628 H 57.7809 2.65987 -4.05436 0
M  V30 629 N 59.124 1.23083 0.984299 0
M  V30 630 C 60.054 1.03292 2.09411 0
M  V30 631 C 61.035 -0.048923 1.7003 0
M  V30 632 O 62.22 0.114967 1.93859 0
M  V30 633 C 59.35 0.619155 3.41736 0
M  V30 634 C 58.304 1.64791 3.95004 0
M  V30 635 C 57.63 1.0897 5.23478 0
M  V30 636 C 58.93 3.03999 4.24714 0
M  V30 637 H 60.624 1.96119 2.26225 0
M  V30 638 H 58.17 0.944344 1.08711 0
M  V30 639 H 60.123 0.467777 4.18796 0
M  V30 640 H 58.847 -0.344786 3.24775 0
M  V30 641 H 57.506 1.78721 3.20085 0
M  V30 642 H 57.154 0.11686 5.02864 0
M  V30 643 H 56.854 1.77704 5.60085 0
M  V30 644 H 58.378 0.950093 6.03163 0
M  V30 645 H 59.792 2.93393 4.92538 0
M  V30 646 H 58.189 3.69936 4.72512 0
M  V30 647 H 59.259 3.53285 3.32142 0
M  V30 648 N 60.6021 -1.18246 1.0419 0
M  V30 649 C 61.8501 -1.87886 0.744543 0
M  V30 650 C 62.1711 -1.8082 -0.730006 0
M  V30 651 O 61.4411 -1.22736 -1.52685 0
M  V30 652 H 60.0211 -0.695556 0.272417 0
M  V30 653 H 62.6831 -1.43494 1.31892 0
M  V30 654 H 61.7791 -2.9389 1.05049 0
M  V30 655 N 62.0802 -0.821533 -1.34494 0
M  V30 656 C 63.3292 -0.405355 -1.97585 0
M  V30 657 C 63.6422 1.03677 -1.65863 0
M  V30 658 O 64.8482 1.55679 -2.22433 0
M  V30 659 C 63.3042 -0.673861 -3.53535 0
M  V30 660 C 62.9122 -2.12951 -3.94152 0
M  V30 661 C 64.6562 -0.32378 -4.23263 0
M  V30 662 C 62.5632 -2.34298 -5.43009 0
M  V30 663 H 61.4932 -0.147836 -0.739365 0
M  V30 664 H 64.1442 -1.00769 -1.53355 0
M  V30 665 H 62.5262 -0.00137554 -3.96 0
M  V30 666 H 63.7002 -2.84104 -3.62797 0
M  V30 667 H 62.0152 -2.44089 -3.37356 0
M  V30 668 H 64.6122 -0.461126 -5.32708 0
M  V30 669 H 64.9552 0.731586 -4.09821 0
M  V30 670 H 65.4882 -0.950786 -3.8627 0
M  V30 671 H 62.2272 -3.38335 -5.61435 0
M  V30 672 H 61.7472 -1.67687 -5.75883 0
M  V30 673 H 63.4262 -2.16588 -6.09671 0
M  V30 674 N 63.5583 1.46682 -0.576371 0
M  V30 675 C 64.8353 1.95599 0.00703437 0
M  V30 676 C 65.2153 1.51904 1.46589 0
M  V30 677 O 64.5633 0.766755 2.15251 0
M  V30 678 C 64.7733 3.4864 -0.158404 0
M  V30 679 C 66.1213 4.24594 -0.0229439 0
M  V30 680 O 67.1453 3.56094 -0.0869173 0
M  V30 681 O 66.0043 5.46373 0.118015 0
M  V30 682 H 63.0983 0.825275 0.053384 0
M  V30 683 H 65.6443 1.56996 -0.644244 0
M  V30 684 H 64.4163 3.7331 -1.17282 0
M  V30 685 H 64.0393 3.94057 0.5296 0
M  V30 686 N 65.0364 0.313813 1.54444 0
M  V30 687 C 65.9834 -0.55655 2.23989 0
M  V30 688 C 66.9534 -1.11943 1.22711 0
M  V30 689 O 68.1384 -1.16158 1.51367 0
M  V30 690 C 65.2784 -1.71635 2.99392 0
M  V30 691 C 64.3914 -1.18364 4.15468 0
M  V30 692 C 63.5264 -2.30834 4.78424 0
M  V30 693 C 62.5654 -1.74762 5.86622 0
M  V30 694 N 61.7024 -2.80855 6.43479 0
M  V30 695 H 66.5424 0.0430893 2.97969 0
M  V30 696 H 64.0794 0.0330359 1.47063 0
M  V30 697 H 66.0374 -2.39868 3.41349 0
M  V30 698 H 64.6674 -2.28742 2.27765 0
M  V30 699 H 63.7194 -0.393163 3.78363 0
M  V30 700 H 65.0314 -0.733262 4.93381 0
M  V30 701 H 64.1854 -3.0699 5.23299 0
M  V30 702 H 62.9244 -2.79204 3.99871 0
M  V30 703 H 61.9294 -0.970995 5.41158 0
M  V30 704 H 63.1544 -1.2728 6.67066 0
M  V30 705 H 61.1004 -3.28535 5.67804 0
M  V30 706 H 61.0174 -2.40351 7.16776 0
M  V30 707 H 62.2854 -3.5687 6.93011 0
M  V30 708 N 66.5145 -1.57545 0.0417849 0
M  V30 709 C 67.4465 -2.07904 -0.964799 0
M  V30 710 C 68.4595 -1.00497 -1.28079 0
M  V30 711 O 69.6485 -1.28087 -1.24322 0
M  V30 712 C 66.7485 -2.49928 -2.28887 0
M  V30 713 C 65.9215 -3.80562 -2.15619 0
M  V30 714 C 64.9805 -4.08999 -3.31069 0
M  V30 715 O 64.0065 -4.79061 -3.0739 0
M  V30 716 N 65.2085 -3.6017 -4.55256 0
M  V30 717 H 67.9735 -2.94886 -0.535029 0
M  V30 718 H 65.5345 -1.61252 -0.144681 0
M  V30 719 H 67.5265 -2.66034 -3.04972 0
M  V30 720 H 66.0965 -1.68245 -2.63463 0
M  V30 721 H 65.3165 -3.74129 -1.24183 0
M  V30 722 H 66.6045 -4.66126 -2.03971 0
M  V30 723 H 66.0025 -3.03512 -4.77386 0
M  V30 724 H 64.5595 -3.81532 -5.28466 0
M  V30 725 N 67.9926 0.231505 -1.5589 0
M  V30 726 C 69.2406 0.955461 -1.78088 0
M  V30 727 C 69.5616 1.85262 -0.608533 0
M  V30 728 O 68.8316 1.92277 0.375035 0
M  V30 729 H 67.4116 0.355787 -0.656829 0
M  V30 730 H 70.0736 0.245751 -1.93344 0
M  V30 731 H 69.1696 1.56814 -2.69844 0
M  V30 732 N 69.4707 1.49531 0.497807 0
M  V30 733 C 70.4027 1.62559 1.61578 0
M  V30 734 C 71.4157 0.508134 1.54667 0
M  V30 735 O 72.6047 0.780309 1.60541 0
M  V30 736 C 69.7047 1.56925 3.00379 0
M  V30 737 C 68.8777 2.84257 3.3244 0
M  V30 738 C 67.9367 2.71632 4.50669 0
M  V30 739 O 66.9627 3.4557 4.52294 0
M  V30 740 N 68.1647 1.83391 5.5077 0
M  V30 741 H 70.9297 2.58981 1.50828 0
M  V30 742 H 68.4907 1.4666 0.685743 0
M  V30 743 H 70.4827 1.46129 3.77397 0
M  V30 744 H 69.0527 0.683483 3.05037 0
M  V30 745 H 68.2727 3.09381 2.44289 0
M  V30 746 H 69.5607 3.68666 3.5066 0
M  V30 747 H 68.9587 1.22583 5.52259 0
M  V30 748 H 67.5157 1.78515 6.26878 0
M  V30 749 N 70.9488 -0.749086 1.3866 0
M  V30 750 C 72.1948 -1.50959 1.36319 0
M  V30 751 C 72.5498 -1.92347 -0.0452451 0
M  V30 752 O 71.8428 -1.6289 -1.00884 0
M  V30 753 C 72.0368 -2.7712 2.25697 0
M  V30 754 C 71.8658 -2.48067 3.7509 0
M  V30 755 C 70.6358 -2.41062 4.44091 0
M  V30 756 C 72.8338 -2.14544 4.67414 0
M  V30 757 N 70.8158 -2.04331 5.78897 0
M  V30 758 C 72.1868 -1.88141 5.90765 0
M  V30 759 C 74.2418 -2.00892 4.55573 0
M  V30 760 C 72.9448 -1.49463 7.036 0
M  V30 761 C 74.9708 -1.63616 5.68317 0
M  V30 762 C 74.3328 -1.38088 6.90732 0
M  V30 763 H 70.4318 -0.551804 0.554108 0
M  V30 764 H 73.0158 -0.871886 1.74087 0
M  V30 765 H 71.1868 -3.38693 1.9011 0
M  V30 766 H 72.9188 -3.4321 2.1445 0
M  V30 767 H 69.6738 -2.57685 3.9736 0
M  V30 768 H 70.0978 -1.88598 6.502 0
M  V30 769 H 74.7398 -2.19301 3.61479 0
M  V30 770 H 72.4578 -1.29794 7.97608 0
M  V30 771 H 76.0438 -1.53678 5.61137 0
M  V30 772 H 74.9238 -1.09674 7.76493 0
M  V30 773 N 72.4269 -1.23603 -0.977757 0
M  V30 774 C 73.3769 -0.986664 -2.05545 0
M  V30 775 C 74.3609 0.0683009 -1.60755 0
M  V30 776 O 75.5529 -0.144162 -1.76412 0
M  V30 777 C 72.6819 -0.582623 -3.3832 0
M  V30 778 C 71.7679 -1.67313 -3.89701 0
M  V30 779 N 72.1589 -2.90394 -4.14132 0
M  V30 780 C 70.4569 -1.54832 -4.18262 0
M  V30 781 C 71.1579 -3.61017 -4.56116 0
M  V30 782 N 70.1339 -2.8854 -4.60701 0
M  V30 783 H 73.9359 -1.92139 -2.22396 0
M  V30 784 H 71.4499 -1.1358 -1.16074 0
M  V30 785 H 73.4469 -0.38524 -4.15116 0
M  V30 786 H 72.1069 0.34503 -3.22862 0
M  V30 787 H 73.1179 -3.26673 -4.01877 0
M  V30 788 H 69.7949 -0.687969 -4.11793 0
M  V30 789 H 71.1849 -4.66544 -4.83514 0
M  V30 790 N 73.905 1.17692 -1.04816 0
M  V30 791 C 75.151 1.88137 -0.75711 0
M  V30 792 C 75.484 1.80604 0.713841 0
M  V30 793 O 74.759 1.21146 1.52164 0
M  V30 794 C 75.042 3.38318 -1.2334 0
M  V30 795 C 74.895 3.54622 -2.76701 0
M  V30 796 C 76.214 4.32214 -0.829415 0
M  V30 797 H 73.333 0.683163 -0.27651 0
M  V30 798 H 75.975 1.38424 -1.30149 0
M  V30 799 H 74.125 3.80787 -0.770286 0
M  V30 800 H 75.797 3.21194 -3.31107 0
M  V30 801 H 74.04 2.97026 -3.16161 0
M  V30 802 H 74.711 4.60028 -3.05088 0
M  V30 803 H 77.187 3.97565 -1.22805 0
M  V30 804 H 76.063 5.35838 -1.19033 0
M  V30 805 H 76.324 4.41294 0.266891 0
M  V30 806 N 75.3831 0.828654 1.34056 0
M  V30 807 C 76.6081 0.431637 2.02859 0
M  V30 808 C 77.0331 -0.956339 1.61975 0
M  V30 809 O 76.3911 -1.62338 0.807228 0
M  V30 810 C 76.4391 0.548323 3.56407 0
M  V30 811 O 75.5431 -0.429556 4.10157 0
M  V30 812 H 74.8841 0.176886 0.640006 0
M  V30 813 H 77.4141 1.12066 1.71179 0
M  V30 814 H 77.4241 0.426196 4.05768 0
M  V30 815 H 76.0991 1.5606 3.8551 0
M  V30 816 H 74.6761 -0.265836 3.71951 0
M  V30 817 N 76.8612 -1.46375 0.584142 0
M  V30 818 C 78.1382 -1.956 0.0033388 0
M  V30 819 C 78.5182 -1.52679 -1.45782 0
M  V30 820 O 77.8662 -0.77816 -2.14842 0
M  V30 821 C 78.0762 -3.48551 0.176891 0
M  V30 822 C 79.4242 -4.24576 0.0454609 0
M  V30 823 O 80.4482 -3.56043 0.105801 0
M  V30 824 O 79.3072 -5.46427 -0.0890376 0
M  V30 825 H 76.4012 -0.825547 -0.0490066 0
M  V30 826 H 78.9472 -1.56652 0.65256 0
M  V30 827 H 77.7192 -3.72683 1.1926 0
M  V30 828 H 77.3422 -3.94332 -0.508695 0
M  V30 829 N 78.3393 -0.321999 -1.54275 0
M  V30 830 C 79.3023 0.531975 -2.22941 0
M  V30 831 C 80.3023 1.04478 -1.22234 0
M  V30 832 O 81.4923 0.937452 -1.46825 0
M  V30 833 C 78.6243 1.73874 -2.93224 0
M  V30 834 H 79.8173 -0.0682612 -2.99822 0
M  V30 835 H 77.3703 -0.0730644 -1.56129 0
M  V30 836 H 78.1053 2.37825 -2.20476 0
M  V30 837 H 77.8903 1.37847 -3.6707 0
M  V30 838 H 79.3803 2.34496 -3.45545 0
M  V30 839 N 79.8174 1.5752 -0.0501392 0
M  V30 840 C 81.0424 1.97376 0.636997 0
M  V30 841 C 81.4674 0.927466 1.63645 0
M  V30 842 O 80.8254 -0.10941 1.8097 0
M  V30 843 C 80.8734 3.36304 1.30123 0
M  V30 844 O 79.9774 3.34156 2.41689 0
M  V30 845 H 79.3184 0.642998 0.165679 0
M  V30 846 H 81.8484 2.04258 -0.118233 0
M  V30 847 H 81.8584 3.73008 1.65315 0
M  V30 848 H 80.5334 4.11993 0.568746 0
M  V30 849 H 79.1104 3.09196 2.08451 0
M  V30 850 N 81.2955 -0.223234 1.56011 0
M  V30 851 C 82.2435 -1.29627 1.93131 0
M  V30 852 C 83.2375 -1.48608 0.813146 0
M  V30 853 O 84.4435 -1.49802 0.997966 0
M  V30 854 H 80.8185 -0.434563 0.613726 0
M  V30 855 H 82.7895 -0.955995 2.82672 0
M  V30 856 C 81.5385 -2.63983 2.26292 0
M  V30 857 H 80.8615 -2.50185 3.11846 0
M  V30 858 H 82.3015 -3.3788 2.56151 0
M  V30 859 C 80.7605 -3.18866 1.08747 0
M  V30 860 O 81.2905 -4.00192 0.347727 0
M  V30 861 N 79.4965 -2.77217 0.871743 0
M  V30 862 H 79.0435 -2.1119 1.47501 0
M  V30 863 H 79.0015 -3.1428 0.0869905 0
M  V30 864 N 82.7736 -1.49793 -0.48987 0
M  V30 865 C 84.0036 -1.6333 -1.26518 0
M  V30 866 C 84.4116 -0.308392 -1.8667 0
M  V30 867 O 83.7546 0.717512 -1.69108 0
M  V30 868 C 83.8166 -2.6522 -2.4269 0
M  V30 869 C 83.4806 -4.09279 -2.03321 0
M  V30 870 C 84.4776 -4.95738 -1.56652 0
M  V30 871 C 82.1626 -4.55082 -2.12616 0
M  V30 872 C 84.1566 -6.26041 -1.19795 0
M  V30 873 C 81.8436 -5.85396 -1.75371 0
M  V30 874 C 82.8416 -6.707 -1.29036 0
M  V30 875 O 82.5296 -7.98584 -0.92299 0
M  V30 876 H 82.2616 -0.552502 -0.389509 0
M  V30 877 H 84.8156 -1.96642 -0.593381 0
M  V30 878 H 83.0456 -2.27112 -3.12981 0
M  V30 879 H 84.7346 -2.68171 -3.04695 0
M  V30 880 H 85.5006 -4.61575 -1.48908 0
M  V30 881 H 81.3796 -3.88844 -2.47631 0
M  V30 882 H 84.9236 -6.92578 -0.835582 0
M  V30 883 H 80.8206 -6.19085 -1.82768 0
M  V30 884 H 81.5886 -8.11692 -1.05349 0
M  V30 885 N 84.2517 0.741722 -1.39055 0
M  V30 886 C 85.1817 1.869 -1.39966 0
M  V30 887 C 86.1627 1.6804 -0.26392 0
M  V30 888 O 87.3477 1.88458 -0.468755 0
M  V30 889 C 84.4777 3.24572 -1.23574 0
M  V30 890 C 83.4317 3.58056 -2.34477 0
M  V30 891 C 82.7577 4.94593 -2.0318 0
M  V30 892 C 84.0577 3.61716 -3.76774 0
M  V30 893 H 85.7517 1.86395 -2.34302 0
M  V30 894 H 83.2977 0.895361 -1.1278 0
M  V30 895 H 85.2507 4.031 -1.22834 0
M  V30 896 H 83.9747 3.25587 -0.257045 0
M  V30 897 H 82.6337 2.81854 -2.34423 0
M  V30 898 H 82.2817 4.92181 -1.03765 0
M  V30 899 H 81.9817 5.17964 -2.77465 0
M  V30 900 H 83.5057 5.75486 -2.04079 0
M  V30 901 H 84.9197 4.30335 -3.78794 0
M  V30 902 H 83.3167 3.96603 -4.50362 0
M  V30 903 H 84.3867 2.61672 -4.08235 0
M  V30 904 N 85.7298 1.2412 0.971189 0
M  V30 905 C 86.6598 1.05508 2.08304 0
M  V30 906 C 87.6408 -0.0308864 1.70072 0
M  V30 907 O 88.8258 0.135521 1.93727 0
M  V30 908 C 85.9558 0.655365 3.4106 0
M  V30 909 C 84.9098 1.68971 3.93234 0
M  V30 910 C 84.2358 1.14516 5.22293 0
M  V30 911 C 85.5358 3.08487 4.21465 0
M  V30 912 H 87.2298 1.98507 2.24132 0
M  V30 913 H 84.7758 0.955821 1.07704 0
M  V30 914 H 86.7288 0.51217 4.18276 0
M  V30 915 H 85.4528 -0.31032 3.25122 0
M  V30 916 H 84.1118 1.82106 3.18171 0
M  V30 917 H 83.7598 0.170189 5.02712 0
M  V30 918 H 83.4598 1.83635 5.58168 0
M  V30 919 H 84.9838 1.01401 6.02121 0
M  V30 920 H 86.3978 2.98601 4.89398 0
M  V30 921 H 84.7948 3.74926 4.68562 0
M  V30 922 H 85.8648 3.56787 3.28376 0
M  V30 923 N 87.2079 -1.17134 1.05439 0
M  V30 924 C 88.1559 -2.23289 0.651511 0
M  V30 925 C 89.1499 -1.66186 -0.328411 0
M  V30 926 O 90.3559 -1.78949 -0.194206 0
M  V30 927 H 86.7309 -0.726938 0.192523 0
M  V30 928 H 88.7019 -2.54565 1.55689 0
M  V30 929 C 87.4509 -3.47671 0.0448436 0
M  V30 930 H 86.7739 -3.91918 0.78996 0
M  V30 931 H 88.2139 -4.2353 -0.19964 0
M  V30 932 C 86.6729 -3.14453 -1.20918 0
M  V30 933 O 87.2029 -3.29459 -2.29825 0
M  V30 934 N 85.4089 -2.68657 -1.10779 0
M  V30 935 H 84.9559 -2.56646 -0.221526 0
M  V30 936 H 84.9139 -2.46804 -1.9477 0
M  V30 937 N 88.686 -0.835752 -1.33615 0
M  V30 938 C 89.649 -0.272 -2.2758 0
M  V30 939 C 90.649 0.557487 -1.50827 0
M  V30 940 O 91.839 0.37173 -1.70188 0
M  V30 941 C 88.971 0.617173 -3.35267 0
M  V30 942 H 90.164 -1.10111 -2.78954 0
M  V30 943 H 87.717 -0.608594 -1.43965 0
M  V30 944 H 88.452 1.46884 -2.89129 0
M  V30 945 H 88.237 0.0237066 -3.92093 0
M  V30 946 H 89.727 1.005 -4.05326 0
M  V30 947 N 90.1641 1.46063 -0.591896 0
M  V30 948 C 91.4411 1.95595 -0.0137119 0
M  V30 949 C 91.8211 1.5345 1.4497 0
M  V30 950 O 91.1691 0.789543 2.14426 0
M  V30 951 C 91.3791 3.48453 -0.195373 0
M  V30 952 C 92.7271 4.24546 -0.0679765 0
M  V30 953 O 93.7511 3.55982 -0.124681 0
M  V30 954 O 92.6101 5.46467 0.0600579 0
M  V30 955 H 89.7041 0.825795 0.0446279 0
M  V30 956 H 92.2501 1.56303 -0.660859 0
M  V30 957 H 91.0221 3.72045 -1.21235 0
M  V30 958 H 90.6451 3.94597 0.487775 0
M  V30 959 N 91.6422 0.330177 1.54103 0
M  V30 960 C 92.9192 -0.325007 1.92881 0
M  V30 961 C 93.2992 -1.6934 1.26045 0
M  V30 962 O 92.6472 -2.24855 0.406526 0
M  V30 963 C 92.8572 -0.410634 3.46576 0
M  V30 964 C 94.2052 -0.667801 4.19316 0
M  V30 965 O 95.2292 -0.49329 3.52768 0
M  V30 966 O 94.0882 -1.00491 5.37181 0
M  V30 967 H 91.1822 -0.186873 0.80561 0
M  V30 968 H 93.7282 0.380376 1.65382 0
M  V30 969 H 92.5002 0.550164 3.87413 0
M  V30 970 H 92.1232 -1.16333 3.802 0
M  V30 971 N 93.1203 -1.57491 0.0584922 0
M  V30 972 C 94.5313 -1.80526 -0.476138 0
M  V30 973 C 94.8823 -0.971334 -1.70469 0
M  V30 974 O 94.0073 -0.190012 -2.15564 0
M  V30 975 C 94.6023 -3.27424 -0.870587 0
M  V30 976 C 93.1613 -3.51351 -1.35015 0
M  V30 977 C 92.3083 -2.75343 -0.32887 0
M  V30 978 H 95.2593 -1.56133 0.284312 0
M  V30 979 H 95.2803 -3.38745 -1.73299 0
M  V30 980 H 94.7923 -3.88093 0.0237627 0
M  V30 981 H 92.8933 -2.95971 -2.26345 0
M  V30 982 H 93.0063 -4.60059 -1.33726 0
M  V30 983 H 91.3703 -2.417 -0.803321 0
M  V30 984 H 92.1533 -3.38743 0.557521 0
M  V30 985 N 94.5984 0.214957 -1.56127 0
M  V30 986 C 95.5614 1.24997 -1.92116 0
M  V30 987 C 96.5614 1.39467 -0.800344 0
M  V30 988 O 97.7514 1.37619 -1.06802 0
M  V30 989 C 94.8834 2.62271 -2.17777 0
M  V30 990 H 96.0764 0.942875 -2.84693 0
M  V30 991 H 93.6294 0.455654 -1.49511 0
M  V30 992 H 94.3644 2.98068 -1.27773 0
M  V30 993 H 94.1494 2.53143 -2.99434 0
M  V30 994 H 95.6394 3.36946 -2.46693 0
M  V30 995 N 96.0765 1.50051 0.48192 0
M  V30 996 C 97.0265 1.64512 1.5786 0
M  V30 997 C 98.0105 0.500073 1.52932 0
M  V30 998 O 99.2025 0.753964 1.60139 0
M  V30 999 C 96.3315 1.73263 2.9637 0
M  V30 1000 C 95.4175 2.93409 3.06222 0
M  V30 1001 N 95.8085 4.17236 2.85915 0
M  V30 1002 C 94.1065 2.91742 3.37346 0
M  V30 1003 C 94.8075 4.981 3.00451 0
M  V30 1004 N 93.7835 4.3184 3.30174 0
M  V30 1005 H 97.5855 2.57955 1.40842 0
M  V30 1006 H 95.0995 1.47086 0.688439 0
M  V30 1007 H 97.0965 1.81724 3.75209 0
M  V30 1008 H 95.7565 0.809711 3.14442 0
M  V30 1009 H 96.7675 4.46909 2.6171 0
M  V30 1010 H 93.4445 2.08907 3.61475 0
M  V30 1011 H 94.8345 6.06532 2.89082 0
M  V30 1012 N 97.5546 -0.734337 1.39446 0
M  V30 1013 C 98.8036 -1.48937 1.36017 0
M  V30 1014 C 99.1166 -1.95557 -0.0409005 0
M  V30 1015 O 100.323 -2.70779 -0.19778 0
M  V30 1016 C 98.7786 -2.69125 2.38955 0
M  V30 1017 C 98.3866 -2.29452 3.8478 0
M  V30 1018 C 100.131 -3.46944 2.44603 0
M  V30 1019 C 98.0376 -3.46366 4.79358 0
M  V30 1020 H 96.9676 -0.559296 0.505672 0
M  V30 1021 H 99.6186 -0.800983 1.65095 0
M  V30 1022 H 98.0006 -3.40041 2.02948 0
M  V30 1023 H 99.1746 -1.66077 4.29831 0
M  V30 1024 H 97.4896 -1.64723 3.82433 0
M  V30 1025 H 100.087 -4.33907 3.12456 0
M  V30 1026 H 100.43 -3.89454 1.47076 0
M  V30 1027 H 100.963 -2.83056 2.79507 0
M  V30 1028 H 97.7016 -3.08905 5.78151 0
M  V30 1029 H 97.2216 -4.08719 4.38986 0
M  V30 1030 H 98.9006 -4.12691 4.98292 0
M  V30 1031 N 99.0327 -1.24633 -0.964593 0
M  V30 1032 C 99.9957 -1.0424 -2.04124 0
M  V30 1033 C 100.996 0.00137563 -1.608 0
M  V30 1034 O 102.186 -0.239883 -1.7254 0
M  V30 1035 C 99.3177 -0.580588 -3.3592 0
M  V30 1036 H 100.511 -1.99803 -2.23649 0
M  V30 1037 H 98.0637 -1.06899 -1.14027 0
M  V30 1038 H 98.7987 0.3781 -3.22088 0
M  V30 1039 H 98.5837 -1.33398 -3.6871 0
M  V30 1040 H 100.074 -0.459034 -4.15069 0
M  V30 1041 N 100.511 1.16574 -1.06058 0
M  V30 1042 C 101.441 2.23057 -0.690488 0
M  V30 1043 C 102.422 1.67141 0.315901 0
M  V30 1044 O 103.607 1.93253 0.191556 0
M  V30 1045 C 100.737 3.47222 -0.073625 0
M  V30 1046 C 99.6908 4.16016 -1.00573 0
M  V30 1047 C 99.0168 5.34104 -0.252289 0
M  V30 1048 C 100.317 4.67264 -2.33371 0
M  V30 1049 H 102.011 2.54271 -1.58072 0
M  V30 1050 H 99.5568 1.22218 -0.76149 0
M  V30 1051 H 101.51 4.20939 0.19714 0
M  V30 1052 H 100.234 3.15302 0.85161 0
M  V30 1053 H 98.8928 3.44223 -1.2612 0
M  V30 1054 H 98.5408 4.98437 0.675988 0
M  V30 1055 H 98.2408 5.81072 -0.873455 0
M  V30 1056 H 99.7648 6.10599 0.0109857 0
M  V30 1057 H 101.179 5.32573 -2.12223 0
M  V30 1058 H 99.5758 5.24843 -2.90963 0
M  V30 1059 H 100.646 3.83602 -2.96611 0
M  V30 1060 N 101.989 0.842826 1.3317 0
M  V30 1061 C 103.405 0.531128 1.50503 0
M  V30 1062 C 103.605 -0.940734 1.78192 0
M  V30 1063 O 102.661 -1.72436 1.84451 0
M  V30 1064 C 103.974 1.40789 2.65705 0
M  V30 1065 C 105.522 1.40708 2.79589 0
M  V30 1066 C 105.997 2.26878 3.97857 0
M  V30 1067 N 107.488 2.24609 4.05099 0
M  V30 1068 C 108.223 2.88019 4.95815 0
M  V30 1069 N 107.719 3.60496 5.9162 0
M  V30 1070 N 109.512 2.77469 4.88843 0
M  V30 1071 H 101.663 1.79557 1.1346 0
M  V30 1072 H 103.926 0.766267 0.558156 0
M  V30 1073 H 103.632 2.454 2.51936 0
M  V30 1074 H 103.506 1.08677 3.61205 0
M  V30 1075 H 105.893 0.368668 2.92788 0
M  V30 1076 H 105.974 1.76829 1.84838 0
M  V30 1077 H 105.618 3.3078 3.85418 0
M  V30 1078 H 105.548 1.88096 4.91861 0
M  V30 1079 H 108.039 1.71906 3.36536 0
M  V30 1080 H 108.352 4.06076 6.57512 0
M  V30 1081 H 106.697 3.64604 5.91683 0
M  V30 1082 H 109.888 2.20406 4.12963 0
M  V30 1083 H 110.061 3.2717 5.59342 0
M  V30 1084 N 103.467 -1.45747 0.599634 0
M  V30 1085 C 104.878 -1.85853 0.177681 0
M  V30 1086 C 105.229 -1.50102 -1.26348 0
M  V30 1087 O 104.354 -0.923905 -1.95686 0
M  V30 1088 C 104.949 -3.37326 0.315688 0
M  V30 1089 C 103.508 -3.76365 -0.0515144 0
M  V30 1090 C 102.655 -2.69722 0.643822 0
M  V30 1091 H 105.606 -1.36661 0.806814 0
M  V30 1092 H 105.627 -3.77778 -0.454321 0
M  V30 1093 H 105.139 -3.63315 1.36468 0
M  V30 1094 H 103.24 -3.55993 -1.09999 0
M  V30 1095 H 103.353 -4.77916 0.336594 0
M  V30 1096 H 101.717 -2.54567 0.0822881 0
M  V30 1097 H 102.5 -2.98549 1.6948 0
M  V30 1098 N 104.945 -0.338344 -1.53925 0
M  V30 1099 C 106.17 0.263987 -2.05713 0
M  V30 1100 C 106.595 1.43847 -1.21201 0
M  V30 1101 O 105.953 1.79904 -0.224535 0
M  V30 1102 C 106.001 0.662 -3.54471 0
M  V30 1103 O 105.105 1.76265 -3.72833 0
M  V30 1104 H 104.446 0.0448722 -0.662482 0
M  V30 1105 H 106.976 -0.491048 -1.9862 0
M  V30 1106 H 106.986 0.940594 -3.9701 0
M  V30 1107 H 105.661 -0.196937 -4.15433 0
M  V30 1108 H 104.238 1.48173 -3.42198 0
M  V30 1109 N 106.423 1.57458 -0.0668435 0
M  V30 1110 C 107.386 2.11323 0.887422 0
M  V30 1111 C 108.386 1.03618 1.22964 0
M  V30 1112 O 109.576 1.29626 1.16373 0
M  V30 1113 C 106.708 2.61048 2.19242 0
M  V30 1114 H 107.901 2.96942 0.420194 0
M  V30 1115 H 105.454 1.55239 0.181793 0
M  V30 1116 H 106.189 1.78868 2.70512 0
M  V30 1117 H 105.974 3.39769 1.95702 0
M  V30 1118 H 107.464 3.02814 2.87565 0
M  V30 1119 N 107.901 -0.206675 1.56239 0
M  V30 1120 C 109.129 -0.945345 1.8404 0
M  V30 1121 C 109.544 -1.77336 0.647885 0
M  V30 1122 O 108.901 -1.78425 -0.383511 0
M  V30 1123 C 108.952 -1.8509 3.10522 0
M  V30 1124 O 108.673 -1.05634 4.25174 0
M  V30 1125 C 110.174 -2.70222 3.51418 0
M  V30 1126 H 107.394 -0.276372 0.61144 0
M  V30 1127 H 109.938 -0.217417 2.03341 0
M  V30 1128 H 108.093 -2.53259 2.93153 0
M  V30 1129 H 108.507 -1.67238 4.97124 0
M  V30 1130 H 109.981 -3.29438 4.42916 0
M  V30 1131 H 110.458 -3.43358 2.73864 0
M  V30 1132 H 111.064 -2.07443 3.71278 0
M  V30 1133 N 109.379 -1.50304 -0.473955 0
M  V30 1134 C 110.604 -1.65175 -1.25427 0
M  V30 1135 C 111.029 -0.333673 -1.85117 0
M  V30 1136 O 110.387 0.702114 -1.67153 0
M  V30 1137 C 110.435 -2.74295 -2.34082 0
M  V30 1138 O 109.539 -2.35349 -3.38651 0
M  V30 1139 H 108.88 -0.551944 -0.369126 0
M  V30 1140 H 111.41 -1.96662 -0.564364 0
M  V30 1141 H 111.42 -2.97285 -2.79438 0
M  V30 1142 H 110.095 -3.69959 -1.90008 0
M  V30 1143 H 108.672 -2.22794 -2.99027 0
M  V30 1144 N 110.857 0.726932 -1.39834 0
M  V30 1145 C 111.787 1.85405 -1.41941 0
M  V30 1146 C 112.768 1.67751 -0.281728 0
M  V30 1147 O 113.953 1.8795 -0.488717 0
M  V30 1148 C 111.083 3.23243 -1.2701 0
M  V30 1149 C 110.037 3.55549 -2.38262 0
M  V30 1150 C 109.363 4.9241 -2.08415 0
M  V30 1151 C 110.663 3.577 -3.80589 0
M  V30 1152 H 112.357 1.83899 -2.36266 0
M  V30 1153 H 109.903 0.883349 -1.13723 0
M  V30 1154 H 111.856 4.01775 -1.27103 0
M  V30 1155 H 110.58 3.25296 -0.291564 0
M  V30 1156 H 109.239 2.79351 -2.37399 0
M  V30 1157 H 108.887 4.91052 -1.0898 0
M  V30 1158 H 108.587 5.14992 -2.82943 0
M  V30 1159 H 110.111 5.73289 -2.10171 0
M  V30 1160 H 111.525 4.26293 -3.83337 0
M  V30 1161 H 109.922 3.91804 -4.54543 0
M  V30 1162 H 110.992 2.57328 -4.10987 0
M  V30 1163 N 112.336 1.25143 0.95797 0
M  V30 1164 C 113.299 1.05321 2.03569 0
M  V30 1165 C 114.299 0.007152 1.60798 0
M  V30 1166 O 115.489 0.24903 1.72411 0
M  V30 1167 C 112.621 0.598394 3.35607 0
M  V30 1168 H 113.814 2.00986 2.22586 0
M  V30 1169 H 111.367 1.07502 1.13459 0
M  V30 1170 H 112.102 -0.361014 3.22284 0
M  V30 1171 H 111.887 1.35351 3.67998 0
M  V30 1172 H 113.377 0.48104 4.1482 0
M  V30 1173 N 113.814 -1.1601 1.06675 0
M  V30 1174 C 114.746 -2.20115 0.638921 0
M  V30 1175 C 115.759 -1.59916 -0.305057 0
M  V30 1176 O 116.948 -1.78245 -0.0954446 0
M  V30 1177 C 114.048 -3.38798 -0.0830083 0
M  V30 1178 C 113.221 -4.2855 0.875426 0
M  V30 1179 C 112.28 -5.25849 0.192042 0
M  V30 1180 O 111.306 -5.63102 0.830921 0
M  V30 1181 N 112.508 -5.70648 -1.06493 0
M  V30 1182 H 115.273 -2.57439 1.53444 0
M  V30 1183 H 112.834 -1.31057 0.950557 0
M  V30 1184 H 114.826 -4.00936 -0.550685 0
M  V30 1185 H 113.396 -2.99947 -0.880386 0
M  V30 1186 H 112.616 -3.63617 1.52238 0
M  V30 1187 H 113.904 -4.85393 1.52548 0
M  V30 1188 H 113.302 -5.42482 -1.60405 0
M  V30 1189 H 111.859 -6.34859 -1.47641 0
M  V30 1190 N 115.292 -0.849877 -1.32721 0
M  V30 1191 C 116.538 -0.451591 -1.97708 0
M  V30 1192 C 116.871 0.989175 -1.6712 0
M  V30 1193 O 116.146 1.69334 -0.956891 0
M  V30 1194 C 116.429 -0.685598 -3.53513 0
M  V30 1195 C 116.282 -2.17444 -3.93749 0
M  V30 1196 C 117.601 -0.138874 -4.39881 0
M  V30 1197 H 114.72 -0.16555 -0.718166 0
M  V30 1198 H 117.362 -1.06742 -1.57182 0
M  V30 1199 H 115.512 -0.161416 -3.88165 0
M  V30 1200 H 117.184 -2.76433 -3.693 0
M  V30 1201 H 115.427 -2.65476 -3.43081 0
M  V30 1202 H 116.098 -2.28888 -5.02309 0
M  V30 1203 H 118.574 -0.587068 -4.11938 0
M  V30 1204 H 117.45 -0.332213 -5.47894 0
M  V30 1205 H 117.711 0.95806 -4.31594 0
M  V30 1206 N 116.77 1.45427 -0.607355 0
M  V30 1207 C 118.181 1.85756 -0.187535 0
M  V30 1208 C 118.532 1.5077 1.25551 0
M  V30 1209 O 117.657 0.93427 1.95193 0
M  V30 1210 C 118.252 3.37154 -0.333572 0
M  V30 1211 C 116.811 3.76387 0.0315542 0
M  V30 1212 C 115.958 2.69377 -0.658117 0
M  V30 1213 H 118.909 1.36231 -0.81405 0
M  V30 1214 H 118.93 3.78014 0.43428 0
M  V30 1215 H 118.442 3.62586 -1.38393 0
M  V30 1216 H 116.543 3.56571 1.0811 0
M  V30 1217 H 116.656 4.77731 -0.361935 0
M  V30 1218 H 115.02 2.5452 -0.0957873 0
M  V30 1219 H 115.803 2.97646 -1.7106 0
M  V30 1220 N 118.248 0.346503 1.53744 0
M  V30 1221 C 119.496 -0.248612 2.00565 0
M  V30 1222 C 119.817 -1.5083 1.23593 0
M  V30 1223 O 119.087 -1.92858 0.343912 0
M  V30 1224 H 117.667 -0.0948564 0.740953 0
M  V30 1225 H 120.329 0.468341 1.89189 0
M  V30 1226 H 119.425 -0.488994 3.08245 0
M  V30 1227 N 119.726 -1.57421 0.075193 0
M  V30 1228 C 120.673 -2.12915 -0.890843 0
M  V30 1229 C 121.643 -1.04252 -1.29309 0
M  V30 1230 O 122.828 -1.31933 -1.37834 0
M  V30 1231 C 119.968 -2.69795 -2.15186 0
M  V30 1232 C 119.081 -3.92624 -1.80194 0
M  V30 1233 C 118.216 -4.37736 -3.00933 0
M  V30 1234 C 117.255 -5.53205 -2.61974 0
M  V30 1235 N 116.392 -5.9326 -3.75483 0
M  V30 1236 H 121.232 -2.95156 -0.410735 0
M  V30 1237 H 118.769 -1.45854 -0.191086 0
M  V30 1238 H 120.727 -3.00883 -2.89008 0
M  V30 1239 H 119.357 -1.90313 -2.60731 0
M  V30 1240 H 118.409 -3.67977 -0.964218 0
M  V30 1241 H 119.721 -4.76482 -1.47534 0
M  V30 1242 H 118.875 -4.70503 -3.8303 0
M  V30 1243 H 117.614 -3.52739 -3.36789 0
M  V30 1244 H 116.619 -5.20086 -1.783 0
M  V30 1245 H 117.844 -6.39936 -2.27284 0
M  V30 1246 H 115.79 -5.11212 -4.11094 0
M  V30 1247 H 115.707 -6.71865 -3.46602 0
M  V30 1248 H 116.975 -6.30651 -4.58148 0
M  V30 1249 N 121.204 0.198386 -1.56346 0
M  V30 1250 C 122.154 1.2499 -1.90687 0
M  V30 1251 C 123.138 1.41158 -0.772217 0
M  V30 1252 O 124.33 1.43584 -1.03502 0
M  V30 1253 C 121.459 2.59542 -2.24706 0
M  V30 1254 C 120.545 2.47181 -3.44619 0
M  V30 1255 N 120.936 2.04495 -4.62618 0
M  V30 1256 C 119.234 2.78082 -3.48692 0
M  V30 1257 C 119.935 2.03945 -5.44776 0
M  V30 1258 N 118.911 2.45323 -4.85095 0
M  V30 1259 H 122.713 0.911149 -2.7942 0
M  V30 1260 H 120.227 0.40684 -1.57221 0
M  V30 1261 H 122.224 3.3549 -2.47491 0
M  V30 1262 H 120.884 2.94244 -1.37298 0
M  V30 1263 H 121.895 1.75256 -4.87345 0
M  V30 1264 H 118.572 3.17002 -2.71691 0
M  V30 1265 H 119.962 1.72872 -6.4928 0
M  V30 1266 N 122.682 1.50554 0.465978 0
M  V30 1267 C 123.592 1.72585 1.58907 0
M  V30 1268 C 124.608 0.60911 1.6299 0
M  V30 1269 O 125.784 0.88804 1.80765 0
M  V30 1270 C 122.849 1.81995 2.95091 0
M  V30 1271 C 121.91 3.05751 3.01355 0
M  V30 1272 C 121.143 3.14702 4.31043 0
M  V30 1273 O 121.366 2.30313 5.21835 0
M  V30 1274 O 120.3 4.07468 4.43005 0
M  V30 1275 H 124.126 2.67799 1.43239 0
M  V30 1276 H 121.711 1.34711 0.646013 0
M  V30 1277 H 123.593 1.90335 3.75966 0
M  V30 1278 H 122.268 0.899659 3.10947 0
M  V30 1279 H 121.175 3.02908 2.19539 0
M  V30 1280 H 122.508 3.97375 2.90437 0
M  V30 1281 N 124.16 -0.719506 1.40217 0
M  V30 1282 C 125.11 -1.8251 1.36653 0
M  V30 1283 C 126.094 -1.59028 0.244732 0
M  V30 1284 O 127.286 -1.70268 0.483524 0
M  V30 1285 C 124.415 -3.20599 1.22763 0
M  V30 1286 C 123.501 -3.49858 2.39708 0
M  V30 1287 N 123.892 -3.49957 3.6519 0
M  V30 1288 C 122.19 -3.80297 2.33002 0
M  V30 1289 C 122.891 -3.77449 4.42614 0
M  V30 1290 N 121.867 -3.96002 3.72402 0
M  V30 1291 H 125.669 -1.80914 2.31619 0
M  V30 1292 H 123.183 -0.918455 1.33933 0
M  V30 1293 H 125.18 -3.99766 1.18292 0
M  V30 1294 H 123.84 -3.23424 0.287614 0
M  V30 1295 H 124.851 -3.309 3.98404 0
M  V30 1296 H 121.528 -3.90635 1.47346 0
M  V30 1297 H 122.918 -3.83863 5.51451 0
M  V30 1298 N 125.638 -1.25649 -0.95132 0
M  V30 1299 C 126.57 -1.02112 -2.05197 0
M  V30 1300 C 127.583 0.0150571 -1.62793 0
M  V30 1301 O 128.772 -0.223874 -1.77091 0
M  V30 1302 C 125.872 -0.522361 -3.3485 0
M  V30 1303 C 125.045 -1.62546 -4.06076 0
M  V30 1304 C 124.104 -1.12649 -5.14001 0
M  V30 1305 O 123.13 -1.82156 -5.39266 0
M  V30 1306 N 124.332 0.03047 -5.80492 0
M  V30 1307 H 127.097 -1.96885 -2.25957 0
M  V30 1308 H 124.658 -1.16899 -1.1201 0
M  V30 1309 H 126.65 -0.172961 -4.0433 0
M  V30 1310 H 125.22 0.33151 -3.10837 0
M  V30 1311 H 124.44 -2.14628 -3.30649 0
M  V30 1312 H 125.728 -2.36644 -4.50419 0
M  V30 1313 H 125.126 0.611169 -5.62389 0
M  V30 1314 H 123.683 0.320875 -6.5101 0
M  V30 1315 N 127.117 1.15442 -1.07289 0
M  V30 1316 C 128.047 2.22312 -0.714107 0
M  V30 1317 C 129.028 1.67467 0.298155 0
M  V30 1318 O 130.213 1.93445 0.171048 0
M  V30 1319 C 127.343 3.47124 -0.110448 0
M  V30 1320 C 126.297 4.14926 -1.04979 0
M  V30 1321 C 125.623 5.33807 -0.308924 0
M  V30 1322 C 126.923 4.64762 -2.38314 0
M  V30 1323 H 128.617 2.5258 -1.6076 0
M  V30 1324 H 126.163 1.21404 -0.77441 0
M  V30 1325 H 128.116 4.21124 0.152482 0
M  V30 1326 H 126.84 3.16187 0.81812 0
M  V30 1327 H 125.499 3.42866 -1.29764 0
M  V30 1328 H 125.147 4.99126 0.623084 0
M  V30 1329 H 124.847 5.80113 -0.935036 0
M  V30 1330 H 126.371 6.10576 -0.0537771 0
M  V30 1331 H 127.785 5.30292 -2.1786 0
M  V30 1332 H 126.182 5.21728 -2.96514 0
M  V30 1333 H 127.252 3.80434 -3.00663 0
M  V30 1334 N 128.595 0.856903 1.32268 0
M  V30 1335 C 129.844 0.457599 1.96441 0
M  V30 1336 C 130.157 -0.992426 1.68553 0
M  V30 1337 O 131.363 -1.49727 2.26482 0
M  V30 1338 C 129.819 0.767358 3.51624 0
M  V30 1339 C 129.427 2.23326 3.88367 0
M  V30 1340 C 131.171 0.435887 4.22256 0
M  V30 1341 C 129.078 2.48613 5.36606 0
M  V30 1342 H 128.008 0.167387 0.735185 0
M  V30 1343 H 130.659 1.048 1.5063 0
M  V30 1344 H 129.041 0.106367 3.95857 0
M  V30 1345 H 130.215 2.93623 3.55137 0
M  V30 1346 H 128.53 2.52948 3.30766 0
M  V30 1347 H 131.127 0.602202 5.31298 0
M  V30 1348 H 131.47 -0.622672 4.11617 0
M  V30 1349 H 132.003 1.05286 3.83614 0
M  V30 1350 H 128.742 3.53101 5.52268 0
M  V30 1351 H 128.262 1.82896 5.71235 0
M  V30 1352 H 129.941 2.32676 6.03714 0
M  V30 1353 N 130.073 -1.45103 0.615059 0
M  V30 1354 C 131.35 -1.95549 0.0448276 0
M  V30 1355 C 131.73 -1.55737 -1.4251 0
M  V30 1356 O 131.078 -0.823556 -2.13143 0
M  V30 1357 C 131.288 -3.48098 0.250785 0
M  V30 1358 C 132.636 -4.24384 0.135509 0
M  V30 1359 O 133.66 -3.55738 0.181299 0
M  V30 1360 O 132.519 -5.46493 0.0268878 0
M  V30 1361 H 129.613 -0.8264 -0.0314845 0
M  V30 1362 H 132.159 -1.55232 0.685642 0
M  V30 1363 H 130.931 -3.7007 1.27139 0
M  V30 1364 H 130.554 -3.95323 -0.424937 0
M  V30 1365 N 131.551 -0.354651 -1.53558 0
M  V30 1366 C 132.514 0.484566 -2.24019 0
M  V30 1367 C 133.514 1.01861 -1.24422 0
M  V30 1368 O 134.704 0.906097 -1.4878 0
M  V30 1369 C 131.836 1.67615 -2.96847 0
M  V30 1370 H 133.029 -0.131843 -2.9961 0
M  V30 1371 H 130.582 -0.106165 -1.55939 0
M  V30 1372 H 131.317 2.33095 -2.25471 0
M  V30 1373 H 131.102 1.30029 -3.69912 0
M  V30 1374 H 132.592 2.27114 -3.50441 0
M  V30 1375 N 133.029 1.57378 -0.0835403 0
M  V30 1376 C 133.961 2.10389 0.909338 0
M  V30 1377 C 134.974 1.03858 1.25369 0
M  V30 1378 O 136.163 1.31338 1.20882 0
M  V30 1379 C 133.263 2.55908 2.2218 0
M  V30 1380 C 132.436 3.86145 2.05453 0
M  V30 1381 C 131.495 4.17633 3.20108 0
M  V30 1382 O 130.521 4.87043 2.94581 0
M  V30 1383 N 131.723 3.72113 4.45547 0
M  V30 1384 H 134.488 2.962 0.456657 0
M  V30 1385 H 132.049 1.61579 0.101877 0
M  V30 1386 H 134.041 2.74027 2.97811 0
M  V30 1387 H 132.611 1.75171 2.58909 0
M  V30 1388 H 131.831 3.7729 1.1422 0
M  V30 1389 H 133.119 4.7137 1.91541 0
M  V30 1390 H 132.517 3.16062 4.69171 0
M  V30 1391 H 131.074 3.95409 5.18165 0
M  V30 1392 N 134.507 -0.190092 1.56449 0
M  V30 1393 C 135.455 -1.25501 1.95837 0
M  V30 1394 C 136.449 -1.4685 0.844485 0
M  V30 1395 O 137.655 -1.47651 1.02952 0
M  V30 1396 H 134.03 -0.421447 0.622805 0
M  V30 1397 H 136.001 -0.895821 2.84636 0
M  V30 1398 C 134.75 -2.59124 2.31841 0
M  V30 1399 H 134.073 -2.43514 3.17082 0
M  V30 1400 H 135.513 -3.32371 2.6326 0
M  V30 1401 C 133.972 -3.16488 1.15486 0
M  V30 1402 O 134.502 -3.99365 0.432535 0
M  V30 1403 N 132.708 -2.75305 0.930349 0
M  V30 1404 H 132.255 -2.08013 1.51948 0
M  V30 1405 H 132.213 -3.14024 0.153634 0
M  V30 1406 N 135.985 -1.50799 -0.457987 0
M  V30 1407 C 137.233 -1.62121 -1.2067 0
M  V30 1408 C 137.554 -0.329793 -1.92191 0
M  V30 1409 O 136.824 0.653409 -1.84682 0
M  V30 1410 H 135.404 -0.597441 -0.448411 0
M  V30 1411 H 138.066 -1.87637 -0.527096 0
M  V30 1412 H 137.162 -2.43882 -1.94751 0
M  V30 1413 N 137.463 0.71206 -1.40597 0
M  V30 1414 C 138.395 1.83704 -1.37061 0
M  V30 1415 C 139.408 1.60453 -0.275426 0
M  V30 1416 O 140.597 1.70262 -0.53602 0
M  V30 1417 C 137.697 3.20172 -1.11099 0
M  V30 1418 C 136.87 3.7059 -2.3234 0
M  V30 1419 C 135.929 4.85681 -2.02485 0
M  V30 1420 O 134.955 4.9815 -2.75382 0
M  V30 1421 N 136.157 5.71735 -1.00497 0
M  V30 1422 H 138.922 1.87235 -2.34016 0
M  V30 1423 H 136.483 0.893739 -1.34996 0
M  V30 1424 H 138.475 3.94768 -0.891064 0
M  V30 1425 H 137.045 3.11767 -0.227989 0
M  V30 1426 H 136.265 2.87085 -2.7014 0
M  V30 1427 H 137.553 4.01011 -3.13157 0
M  V30 1428 H 136.951 5.64275 -0.401298 0
M  V30 1429 H 135.508 6.463 -0.844942 0
M  V30 1430 N 138.941 1.26152 0.944643 0
M  V30 1431 C 140.352 1.10454 1.50522 0
M  V30 1432 C 140.703 -0.31635 1.93633 0
M  V30 1433 O 139.828 -1.20746 1.79581 0
M  V30 1434 C 140.423 1.99891 2.73549 0
M  V30 1435 C 138.982 1.88348 3.25886 0
M  V30 1436 C 138.129 1.93447 1.9868 0
M  V30 1437 H 141.08 1.39292 0.760489 0
M  V30 1438 H 141.101 1.54477 3.47732 0
M  V30 1439 H 140.613 3.03297 2.42141 0
M  V30 1440 H 138.714 0.878636 3.62092 0
M  V30 1441 H 138.827 2.73696 3.93227 0
M  V30 1442 H 137.191 1.37456 2.14425 0
M  V30 1443 H 137.974 2.98476 1.69607 0
M  V30 1444 N 140.419 -1.14872 1.07899 0
M  V30 1445 C 141.349 -2.2193 0.725887 0
M  V30 1446 C 142.33 -1.67622 -0.28927 0
M  V30 1447 O 143.515 -1.93533 -0.160787 0
M  V30 1448 C 140.645 -3.47061 0.128856 0
M  V30 1449 C 139.599 -4.14363 1.07178 0
M  V30 1450 C 138.925 -5.33636 0.337229 0
M  V30 1451 C 140.225 -4.63492 2.40775 0
M  V30 1452 H 141.919 -2.51724 1.62097 0
M  V30 1453 H 139.465 -1.20991 0.780838 0
M  V30 1454 H 141.418 -4.21199 -0.130147 0
M  V30 1455 H 140.142 -3.16617 -0.80134 0
M  V30 1456 H 138.801 -3.42173 1.3158 0
M  V30 1457 H 138.449 -4.99449 -0.596606 0
M  V30 1458 H 138.149 -5.79609 0.965788 0
M  V30 1459 H 139.673 -6.10539 0.0861567 0
M  V30 1460 H 141.087 -5.2913 2.20669 0
M  V30 1461 H 139.484 -5.20148 2.99276 0
M  V30 1462 H 140.554 -3.78834 3.02676 0
M  V30 1463 N 141.898 -0.863906 -1.31812 0
M  V30 1464 C 143.309 -0.52522 -1.7916 0
M  V30 1465 C 143.66 0.957518 -1.71248 0
M  V30 1466 O 142.785 1.74734 -1.27659 0
M  V30 1467 C 143.38 -0.9466 -3.25307 0
M  V30 1468 C 141.939 -0.659668 -3.70574 0
M  V30 1469 C 141.086 -1.14126 -2.52726 0
M  V30 1470 H 144.037 -1.05022 -1.1898 0
M  V30 1471 H 144.058 -0.266766 -3.79564 0
M  V30 1472 H 143.57 -2.02579 -3.31034 0
M  V30 1473 H 141.671 0.408416 -3.70355 0
M  V30 1474 H 141.784 -1.23245 -4.62977 0
M  V30 1475 H 140.148 -0.561216 -2.4844 0
M  V30 1476 H 140.931 -2.22775 -2.61201 0
M  V30 1477 N 143.376 1.44774 -0.622745 0
M  V30 1478 C 144.604 2.06487 -0.130722 0
M  V30 1479 C 145.019 1.46476 1.19123 0
M  V30 1480 O 144.376 0.584502 1.72887 0
M  V30 1481 C 144.427 3.615 -0.000807207 0
M  V30 1482 O 144.148 4.19274 -1.27048 0
M  V30 1483 C 145.649 4.40229 0.520898 0
M  V30 1484 H 142.869 0.666704 -0.0758106 0
M  V30 1485 H 145.413 1.85779 -0.854774 0
M  V30 1486 H 143.568 3.81498 0.673643 0
M  V30 1487 H 143.982 5.12622 -1.1099 0
M  V30 1488 H 145.456 5.49144 0.560838 0
M  V30 1489 H 145.933 4.1108 1.54627 0
M  V30 1490 H 146.539 4.25131 -0.120018 0
M  V30 1491 N 144.854 0.36279 1.53368 0
M  V30 1492 C 146.1 -0.228113 2.01513 0
M  V30 1493 C 146.433 -1.48648 1.2497 0
M  V30 1494 O 145.708 -1.91459 0.342616 0
M  V30 1495 C 145.991 -0.522884 3.56284 0
M  V30 1496 C 145.844 0.74892 4.43521 0
M  V30 1497 C 147.163 -1.32461 4.19693 0
M  V30 1498 H 144.282 -0.0814343 0.732487 0
M  V30 1499 H 146.924 0.48713 1.83649 0
M  V30 1500 H 145.074 -1.1322 3.71636 0
M  V30 1501 H 146.746 1.38648 4.39971 0
M  V30 1502 H 144.989 1.36986 4.11603 0
M  V30 1503 H 145.66 0.497667 5.49752 0
M  V30 1504 H 148.136 -0.809203 4.08156 0
M  V30 1505 H 147.012 -1.49961 5.28018 0
M  V30 1506 H 147.273 -2.33232 3.75573 0
M  V30 1507 N 146.332 -1.57332 0.0918853 0
M  V30 1508 C 147.609 -1.85691 -0.614668 0
M  V30 1509 C 147.989 -0.988146 -1.86545 0
M  V30 1510 O 147.337 -0.0597055 -2.28422 0
M  V30 1511 C 147.547 -3.36294 -0.933126 0
M  V30 1512 C 148.895 -4.04275 -1.29796 0
M  V30 1513 O 149.919 -3.41157 -1.02424 0
M  V30 1514 O 148.778 -5.1564 -1.81047 0
M  V30 1515 H 145.872 -0.767802 -0.307261 0
M  V30 1516 H 148.418 -1.69244 0.12434 0
M  V30 1517 H 147.19 -3.91273 -0.0456404 0
M  V30 1518 H 146.813 -3.58076 -1.72822 0
M  V30 1519 N 147.81 0.181792 -1.56548 0
M  V30 1520 C 149.056 0.901431 -1.81665 0
M  V30 1521 C 149.389 1.82347 -0.668075 0
M  V30 1522 O 148.664 1.91669 0.330615 0
M  V30 1523 C 148.947 1.70618 -3.17115 0
M  V30 1524 C 148.8 0.807964 -4.42484 0
M  V30 1525 C 150.119 2.67605 -3.49393 0
M  V30 1526 H 147.238 0.32627 -0.660846 0
M  V30 1527 H 149.88 0.168134 -1.89255 0
M  V30 1528 H 148.03 2.33133 -3.10775 0
M  V30 1529 H 149.702 0.19649 -4.60881 0
M  V30 1530 H 147.945 0.115411 -4.33646 0
M  V30 1531 H 148.616 1.40632 -5.33785 0
M  V30 1532 H 151.092 2.15218 -3.56118 0
M  V30 1533 H 149.968 3.20985 -4.45264 0
M  V30 1534 H 150.229 3.47298 -2.73563 0
M  V30 1535 N 149.288 1.51039 0.449983 0
M  V30 1536 C 150.537 1.62317 1.19733 0
M  V30 1537 C 150.85 0.339101 1.92638 0
M  V30 1538 O 152.056 0.331069 2.69474 0
M  V30 1539 C 150.512 2.86608 2.17678 0
M  V30 1540 C 150.12 4.21972 1.50479 0
M  V30 1541 C 151.864 3.07239 2.92924 0
M  V30 1542 C 149.771 5.37426 2.46834 0
M  V30 1543 H 148.701 0.604532 0.450619 0
M  V30 1544 H 151.352 1.77494 0.465625 0
M  V30 1545 H 149.734 2.65037 2.94231 0
M  V30 1546 H 150.908 4.53878 0.795716 0
M  V30 1547 H 149.223 4.07117 0.874344 0
M  V30 1548 H 151.82 3.90668 3.65079 0
M  V30 1549 H 152.163 2.19807 3.5354 0
M  V30 1550 H 152.696 3.29091 2.23481 0
M  V30 1551 H 149.435 6.27079 1.90926 0
M  V30 1552 H 148.955 5.09912 3.15832 0
M  V30 1553 H 150.634 5.68862 3.08228 0
M  V30 1554 N 150.766 -0.704594 1.40972 0
M  V30 1555 C 152.013 -1.46458 1.39844 0
M  V30 1556 C 152.341 -1.94499 0.00447594 0
M  V30 1557 O 151.596 -1.69275 -0.982057 0
M  V30 1558 C 151.895 -2.698 2.34399 0
M  V30 1559 C 151.561 -2.40464 3.81429 0
M  V30 1560 C 150.223 -2.32174 4.21484 0
M  V30 1561 C 152.575 -2.16086 4.74296 0
M  V30 1562 C 149.903 -1.97589 5.52427 0
M  V30 1563 C 152.255 -1.83011 6.05549 0
M  V30 1564 C 150.919 -1.7321 6.44635 0
M  V30 1565 H 150.189 -0.535927 0.511725 0
M  V30 1566 H 152.836 -0.806124 1.73706 0
M  V30 1567 H 151.141 -3.40536 1.93759 0
M  V30 1568 H 152.838 -3.27919 2.30804 0
M  V30 1569 H 149.428 -2.47808 3.49699 0
M  V30 1570 H 153.612 -2.2144 4.4416 0
M  V30 1571 H 148.868 -1.88547 5.81601 0
M  V30 1572 H 153.042 -1.63164 6.77016 0
M  V30 1573 H 150.669 -1.46179 7.46013 0
M  V30 1574 N 152.244 -1.26651 -0.937939 0
M  V30 1575 C 153.655 -1.1125 -1.49934 0
M  V30 1576 C 154.006 0.306077 -1.93798 0
M  V30 1577 O 153.131 1.19792 -1.80219 0
M  V30 1578 C 153.726 -2.01339 -2.72485 0
M  V30 1579 C 152.285 -1.90074 -3.24883 0
M  V30 1580 C 151.432 -1.94498 -1.97651 0
M  V30 1581 H 154.383 -1.39693 -0.753091 0
M  V30 1582 H 154.404 -1.56319 -3.46907 0
M  V30 1583 H 153.916 -3.04577 -2.40529 0
M  V30 1584 H 152.017 -0.897827 -3.61621 0
M  V30 1585 H 152.13 -2.75778 -3.9177 0
M  V30 1586 H 150.494 -1.38591 -2.13693 0
M  V30 1587 H 151.277 -2.99372 -1.68022 0
M  V30 1588 N 153.722 1.14298 -1.08507 0
M  V30 1589 C 154.971 1.84708 -0.810305 0
M  V30 1590 C 155.284 1.83903 0.666271 0
M  V30 1591 O 156.49 2.50112 1.05624 0
M  V30 1592 C 154.946 3.31572 -1.39957 0
M  V30 1593 C 154.554 3.40791 -2.90801 0
M  V30 1594 C 156.298 4.07087 -1.20334 0
M  V30 1595 C 154.205 4.81872 -3.4286 0
M  V30 1596 H 153.135 0.691985 -0.299454 0
M  V30 1597 H 155.786 1.28841 -1.30661 0
M  V30 1598 H 154.168 3.87183 -0.830976 0
M  V30 1599 H 155.342 2.95225 -3.53806 0
M  V30 1600 H 153.657 2.78732 -3.0935 0
M  V30 1601 H 156.254 5.11225 -1.56693 0
M  V30 1602 H 156.597 4.16054 -0.143237 0
M  V30 1603 H 157.13 3.57779 -1.73893 0
M  V30 1604 H 153.869 4.78094 -4.48449 0
M  V30 1605 H 153.389 5.27972 -2.84615 0
M  V30 1606 H 155.068 5.50765 -3.39509 0
M  V30 1607 N 155.201 0.870884 1.31352 0
M  V30 1608 C 156.447 0.482987 1.96965 0
M  V30 1609 C 156.78 -0.962462 1.68672 0
M  V30 1610 O 156.055 -1.6779 0.98371 0
M  V30 1611 C 156.338 0.741752 3.52378 0
M  V30 1612 C 156.191 2.2368 3.9024 0
M  V30 1613 C 157.51 0.208838 4.39604 0
M  V30 1614 H 154.629 0.176955 0.715441 0
M  V30 1615 H 157.271 1.09229 1.55464 0
M  V30 1616 H 155.421 0.223149 3.87859 0
M  V30 1617 H 157.093 2.82273 3.64856 0
M  V30 1618 H 155.336 2.70901 3.38814 0
M  V30 1619 H 156.007 2.3685 4.98604 0
M  V30 1620 H 158.483 0.652529 4.10952 0
M  V30 1621 H 157.359 0.419336 5.47296 0
M  V30 1622 H 157.62 -0.889275 4.33064 0
M  V30 1623 N 156.679 -1.44442 0.630414 0
M  V30 1624 C 157.629 -2.27794 -0.0968103 0
M  V30 1625 C 158.613 -1.38624 -0.816834 0
M  V30 1626 O 159.805 -1.62438 -0.70306 0
M  V30 1627 C 156.934 -3.25929 -1.07819 0
M  V30 1628 C 156.02 -4.22588 -0.357826 0
M  V30 1629 N 156.411 -5.0207 0.613169 0
M  V30 1630 C 154.709 -4.41914 -0.602365 0
M  V30 1631 C 155.41 -5.72351 1.03871 0
M  V30 1632 N 154.386 -5.42287 0.377642 0
M  V30 1633 H 158.188 -2.86653 0.648621 0
M  V30 1634 H 155.702 -1.55871 0.455862 0
M  V30 1635 H 157.699 -3.84399 -1.61378 0
M  V30 1636 H 156.359 -2.68631 -1.82393 0
M  V30 1637 H 157.37 -5.08331 0.990947 0
M  V30 1638 H 154.047 -3.95714 -1.33103 0
M  V30 1639 H 155.437 -6.4619 1.84086 0
M  V30 1640 N 158.157 -0.370918 -1.53173 0
M  V30 1641 C 159.405 0.216673 -2.00935 0
M  V30 1642 C 159.726 1.48845 -1.25977 0
M  V30 1643 O 158.996 1.92286 -0.374551 0
M  V30 1644 H 157.576 0.0830565 -0.742368 0
M  V30 1645 H 160.238 -0.49838 -1.8842 0
M  V30 1646 H 159.334 0.439893 -3.08984 0
M  V30 1647 N 159.635 1.57281 -0.100228 0
M  V30 1648 C 160.863 1.98879 0.570509 0
M  V30 1649 C 161.278 0.979476 1.61405 0
M  V30 1650 O 160.635 -0.0302288 1.82475 0
M  V30 1651 C 160.686 3.4052 1.2136 0
M  V30 1652 O 160.407 4.37588 0.211786 0
M  V30 1653 C 161.908 3.97149 1.96945 0
M  V30 1654 H 159.128 0.653428 0.152555 0
M  V30 1655 H 161.672 2.03697 -0.18103 0
M  V30 1656 H 159.827 3.367 1.91603 0
M  V30 1657 H 160.241 5.20118 0.676607 0
M  V30 1658 H 161.715 4.98393 2.37294 0
M  V30 1659 H 162.192 3.3525 2.83733 0
M  V30 1660 H 162.798 4.04458 1.31506 0
M  V30 1661 N 161.113 -0.173488 1.56642 0
M  V30 1662 C 162.043 -1.2171 1.99271 0
M  V30 1663 C 163.024 -1.46289 0.867959 0
M  V30 1664 O 164.209 -1.5766 1.13388 0
M  V30 1665 C 161.339 -2.55651 2.35074 0
M  V30 1666 C 160.293 -2.45645 3.50489 0
M  V30 1667 C 159.619 -3.84056 3.72028 0
M  V30 1668 C 160.919 -1.96302 4.84007 0
M  V30 1669 H 162.613 -0.86275 2.867 0
M  V30 1670 H 160.159 -0.413571 1.37933 0
M  V30 1671 H 162.112 -3.2886 2.63494 0
M  V30 1672 H 160.836 -2.92869 1.44552 0
M  V30 1673 H 159.495 -1.7489 3.22194 0
M  V30 1674 H 159.143 -4.18664 2.788 0
M  V30 1675 H 158.843 -3.7823 4.49684 0
M  V30 1676 H 160.367 -4.58854 4.02846 0
M  V30 1677 H 161.781 -2.59284 5.11317 0
M  V30 1678 H 160.178 -2.01429 5.65284 0
M  V30 1679 H 161.248 -0.917226 4.76146 0
M  V30 1680 N 162.591 -1.51276 -0.441967 0
M  V30 1681 C 163.839 -1.63392 -1.18943 0
M  V30 1682 C 164.16 -0.350159 -1.9183 0
M  V30 1683 O 163.43 0.633784 -1.85364 0
M  V30 1684 H 162.01 -0.602164 -0.442049 0
M  V30 1685 H 164.672 -1.88186 -0.507165 0
M  V30 1686 H 163.768 -2.45934 -1.92154 0
M  V30 1687 N 164.069 0.697108 -1.41344 0
M  V30 1688 C 164.979 1.84088 -1.45427 0
M  V30 1689 C 165.995 1.70545 -0.34501 0
M  V30 1690 O 167.171 1.92488 -0.592492 0
M  V30 1691 C 164.236 3.20056 -1.33286 0
M  V30 1692 C 163.297 3.45718 -2.54514 0
M  V30 1693 C 162.53 4.75199 -2.42944 0
M  V30 1694 O 162.753 5.51579 -1.45318 0
M  V30 1695 O 161.687 5.0161 -3.32672 0
M  V30 1696 H 165.513 1.836 -2.41919 0
M  V30 1697 H 163.098 0.849966 -1.22866 0
M  V30 1698 H 164.98 4.01236 -1.28794 0
M  V30 1699 H 163.655 3.2123 -0.39909 0
M  V30 1700 H 162.562 2.64474 -2.64583 0
M  V30 1701 H 163.895 3.49356 -3.46715 0
M  V30 1702 N 165.547 1.27147 0.931209 0
M  V30 1703 C 166.824 1.0401 1.65654 0
M  V30 1704 C 167.204 -0.426297 2.06751 0
M  V30 1705 O 166.552 -1.40879 1.79904 0
M  V30 1706 C 166.762 1.99834 2.86125 0
M  V30 1707 C 168.11 2.29007 3.57549 0
M  V30 1708 O 169.134 1.97779 2.96246 0
M  V30 1709 O 167.993 2.82222 4.67989 0
M  V30 1710 H 165.087 0.396239 0.725895 0
M  V30 1711 H 167.633 1.38397 0.982056 0
M  V30 1712 H 166.405 2.98744 2.52721 0
M  V30 1713 H 166.028 1.65987 3.61295 0
M  V30 1714 N 167.025 -1.13721 1.09112 0
M  V30 1715 C 168.273 -1.84559 0.823562 0
M  V30 1716 C 168.594 -1.83754 -0.652658 0
M  V30 1717 O 167.864 -1.29102 -1.47342 0
M  V30 1718 H 166.444 -0.683376 0.301673 0
M  V30 1719 H 169.106 -1.37771 1.37859 0
M  V30 1720 H 168.202 -2.8917 1.17419 0
M  V30 1721 N 168.503 -0.877838 -1.30888 0
M  V30 1722 C 169.728 -0.506629 -2.01117 0
M  V30 1723 C 170.153 0.895564 -1.65412 0
M  V30 1724 O 169.511 1.5923 -0.866922 0
M  V30 1725 C 169.559 -0.680223 -3.54126 0
M  V30 1726 O 168.663 0.277033 -4.11468 0
M  V30 1727 H 168.004 -0.200518 -0.633 0
M  V30 1728 H 170.534 -1.18342 -1.66902 0
M  V30 1729 H 170.544 -0.5765 -4.03907 0
M  V30 1730 H 169.219 -1.70261 -3.79452 0
M  V30 1731 H 167.796 0.127606 -3.72682 0
M  V30 1732 N 169.982 1.44106 -0.638065 0
M  V30 1733 C 170.912 2.33448 0.0494287 0
M  V30 1734 C 171.893 1.48606 0.827672 0
M  V30 1735 O 173.078 1.77308 0.792173 0
M  V30 1736 C 170.208 3.31771 1.02691 0
M  V30 1737 C 169.162 4.26485 0.359823 0
M  V30 1738 C 168.488 5.14729 1.44769 0
M  V30 1739 C 169.788 5.17056 -0.738296 0
M  V30 1740 H 171.482 2.91183 -0.696636 0
M  V30 1741 H 169.028 1.40014 -0.336456 0
M  V30 1742 H 170.981 3.93161 1.51666 0
M  V30 1743 H 169.705 2.7226 1.80395 0
M  V30 1744 H 168.364 3.66437 -0.10934 0
M  V30 1745 H 168.012 4.51566 2.21578 0
M  V30 1746 H 167.712 5.78913 1.00668 0
M  V30 1747 H 169.236 5.78991 1.93911 0
M  V30 1748 H 170.65 5.72342 -0.331354 0
M  V30 1749 H 169.047 5.89879 -1.10286 0
M  V30 1750 H 170.117 4.57652 -1.60258 0
M  V30 1751 N 171.46 0.379036 1.52974 0
M  V30 1752 C 172.392 -0.495963 2.2377 0
M  V30 1753 C 173.405 -1.03517 1.25651 0
M  V30 1754 O 174.594 -0.939249 1.51791 0
M  V30 1755 C 171.694 -1.69894 2.93239 0
M  V30 1756 C 170.867 -1.2889 4.17979 0
M  V30 1757 C 169.926 -2.35543 4.70538 0
M  V30 1758 O 168.952 -1.97375 5.33883 0
M  V30 1759 N 170.154 -3.67318 4.49508 0
M  V30 1760 H 172.919 0.110523 2.99496 0
M  V30 1761 H 170.48 0.204878 1.60598 0
M  V30 1762 H 172.472 -2.40747 3.25304 0
M  V30 1763 H 171.042 -2.212 2.20883 0
M  V30 1764 H 170.262 -0.409676 3.92065 0
M  V30 1765 H 171.55 -0.991443 4.99047 0
M  V30 1766 H 170.948 -4.01095 3.98923 0
M  V30 1767 H 169.505 -4.34235 4.8609 0
M  V30 1768 N 172.938 -1.57226 0.108567 0
M  V30 1769 C 174.186 -1.94448 -0.550853 0
M  V30 1770 C 174.507 -0.992074 -1.67878 0
M  V30 1771 O 173.777 -0.0465 -1.95845 0
M  V30 1772 H 172.357 -0.717897 -0.206479 0
M  V30 1773 H 175.019 -1.94112 0.175062 0
M  V30 1774 H 174.115 -2.97218 -0.952259 0
M  V30 1775 N 174.416 0.165178 -1.56732 0
M  V30 1776 C 175.349 1.23336 -1.91998 0
M  V30 1777 C 176.327 1.42476 -0.783531 0
M  V30 1778 O 177.511 1.57384 -1.03743 0
M  V30 1779 C 174.638 2.59533 -2.17625 0
M  V30 1780 C 173.684 2.57093 -3.40302 0
M  V30 1781 S 174.517 2.05571 -4.9447 0
M  V30 1782 C 175.673 3.43532 -5.23198 0
M  V30 1783 H 175.906 0.932387 -2.82301 0
M  V30 1784 H 173.439 0.370013 -1.49901 0
M  V30 1785 H 175.397 3.37918 -2.3307 0
M  V30 1786 H 174.058 2.86827 -1.28019 0
M  V30 1787 H 173.251 3.57308 -3.55453 0
M  V30 1788 H 172.853 1.86806 -3.24005 0
M  V30 1789 H 175.145 4.39559 -5.15552 0
M  V30 1790 H 176.088 3.33251 -6.2478 0
M  V30 1791 H 176.496 3.39828 -4.50752 0
M  V30 1792 N 175.894 1.51508 0.433938 0
M  V30 1793 C 176.824 1.76016 1.53429 0
M  V30 1794 C 177.805 0.610112 1.58782 0
M  V30 1795 O 178.99 0.853177 1.74455 0
M  V30 1796 C 176.12 1.88831 2.9148 0
M  V30 1797 C 175.074 3.04288 3.00987 0
M  V30 1798 C 174.4 3.0229 4.4105 0
M  V30 1799 C 175.7 4.44193 2.74754 0
M  V30 1800 H 177.394 2.68152 1.33171 0
M  V30 1801 H 174.94 1.29035 0.639214 0
M  V30 1802 H 176.893 2.04559 3.6842 0
M  V30 1803 H 175.617 0.933455 3.12976 0
M  V30 1804 H 174.276 2.8827 2.26486 0
M  V30 1805 H 173.924 2.04576 4.59519 0
M  V30 1806 H 173.624 3.79822 4.4834 0
M  V30 1807 H 175.148 3.20116 5.1996 0
M  V30 1808 H 176.562 4.60544 3.41426 0
M  V30 1809 H 174.959 5.23457 2.9345 0
M  V30 1810 H 176.029 4.53996 1.70339 0
M  V30 1811 N 177.372 -0.689602 1.41712 0
M  V30 1812 C 178.788 -1.00093 1.24312 0
M  V30 1813 C 178.988 -2.01036 0.136729 0
M  V30 1814 O 178.044 -2.47562 -0.496918 0
M  V30 1815 C 179.357 -1.51985 2.59463 0
M  V30 1816 C 180.905 -1.63838 2.66695 0
M  V30 1817 C 181.38 -2.1913 4.02177 0
M  V30 1818 N 182.871 -2.26483 4.04054 0
M  V30 1819 C 183.606 -2.70306 5.0569 0
M  V30 1820 N 183.102 -3.13691 6.17713 0
M  V30 1821 N 184.895 -2.69923 4.9305 0
M  V30 1822 H 177.046 -0.0210029 2.1239 0
M  V30 1823 H 179.309 -0.0718733 0.945272 0
M  V30 1824 H 179.015 -0.85269 3.41207 0
M  V30 1825 H 178.889 -2.50103 2.82362 0
M  V30 1826 H 181.276 -2.29664 1.85306 0
M  V30 1827 H 181.357 -0.642492 2.476 0
M  V30 1828 H 181.001 -1.53918 4.84016 0
M  V30 1829 H 180.931 -3.19482 4.18615 0
M  V30 1830 H 183.422 -1.95874 3.23174 0
M  V30 1831 H 183.735 -3.45773 6.9113 0
M  V30 1832 H 182.08 -3.11585 6.21241 0
M  V30 1833 H 185.271 -2.35382 4.04614 0
M  V30 1834 H 185.444 -3.03758 5.72394 0
M  V30 1835 N 178.85 -1.27639 -0.924453 0
M  V30 1836 C 180.096 -1.14336 -1.67497 0
M  V30 1837 C 180.429 0.309465 -1.91718 0
M  V30 1838 O 179.704 1.22608 -1.50989 0
M  V30 1839 C 179.987 -1.93096 -3.0395 0
M  V30 1840 C 179.84 -3.46381 -2.8695 0
M  V30 1841 C 181.159 -1.73798 -4.0433 0
M  V30 1842 H 178.278 -0.416728 -0.607871 0
M  V30 1843 H 180.92 -1.56832 -1.07256 0
M  V30 1844 H 179.07 -1.56982 -3.55372 0
M  V30 1845 H 180.742 -3.92343 -2.42621 0
M  V30 1846 H 178.985 -3.72557 -2.22225 0
M  V30 1847 H 179.656 -3.96735 -3.83804 0
M  V30 1848 H 182.132 -2.05293 -3.61931 0
M  V30 1849 H 181.008 -2.31294 -4.97789 0
M  V30 1850 H 181.269 -0.686725 -4.36734 0
M  V30 1851 N 180.328 1.1314 -1.09713 0
M  V30 1852 C 181.291 2.16831 -0.742751 0
M  V30 1853 C 182.291 1.59159 0.229129 0
M  V30 1854 O 183.481 1.74199 0.00693237 0
M  V30 1855 C 180.613 3.40756 -0.0989168 0
M  V30 1856 H 181.806 2.49695 -1.66109 0
M  V30 1857 H 179.359 1.2802 -0.896699 0
M  V30 1858 H 180.094 3.13485 0.830514 0
M  V30 1859 H 179.879 3.83888 -0.798265 0
M  V30 1860 H 181.369 4.17386 0.133524 0
M  V30 1861 N 181.806 0.884767 1.30421 0
M  V30 1862 C 182.754 0.340869 2.30089 0
M  V30 1863 C 183.748 -0.55201 1.60154 0
M  V30 1864 O 184.954 -0.436467 1.74628 0
M  V30 1865 H 181.329 0.0915739 0.746404 0
M  V30 1866 H 183.3 1.19513 2.73421 0
M  V30 1867 C 182.049 -0.429779 3.45034 0
M  V30 1868 H 181.372 0.248024 3.9903 0
M  V30 1869 H 182.812 -0.775445 4.16849 0
M  V30 1870 C 181.271 -1.62677 2.95022 0
M  V30 1871 O 181.801 -2.72614 2.95033 0
M  V30 1872 N 180.007 -1.46387 2.51036 0
M  V30 1873 H 179.554 -0.569506 2.51226 0
M  V30 1874 H 179.512 -2.26612 2.17932 0
M  V30 1875 N 183.284 -1.43765 0.645699 0
M  V30 1876 C 184.214 -2.33471 -0.0370477 0
M  V30 1877 C 185.195 -1.49042 -0.819779 0
M  V30 1878 O 186.38 -1.77726 -0.782758 0
M  V30 1879 C 183.51 -3.32311 -1.0093 0
M  V30 1880 C 182.464 -4.2667 -0.337201 0
M  V30 1881 C 181.79 -5.1549 -1.42037 0
M  V30 1882 C 183.09 -5.16657 0.765706 0
M  V30 1883 H 184.784 -2.90809 0.712069 0
M  V30 1884 H 182.33 -1.39834 0.343876 0
M  V30 1885 H 184.283 -3.9396 -1.49578 0
M  V30 1886 H 183.007 -2.73213 -1.78948 0
M  V30 1887 H 181.666 -3.66374 0.128771 0
M  V30 1888 H 181.314 -4.52735 -2.1918 0
M  V30 1889 H 181.014 -5.79438 -0.975966 0
M  V30 1890 H 182.538 -5.80012 -1.90838 0
M  V30 1891 H 183.952 -5.72158 0.361702 0
M  V30 1892 H 182.349 -5.89286 1.13413 0
M  V30 1893 H 183.419 -4.56796 1.62683 0
M  V30 1894 N 184.763 -0.387143 -1.52771 0
M  V30 1895 C 186.174 0.0873634 -1.86495 0
M  V30 1896 C 186.525 1.46336 -1.30691 0
M  V30 1897 O 185.65 2.068 -0.637409 0
M  V30 1898 C 186.245 0.165305 -3.38396 0
M  V30 1899 C 184.804 0.584101 -3.7184 0
M  V30 1900 C 183.951 -0.255279 -2.76122 0
M  V30 1901 H 186.902 -0.605104 -1.46711 0
M  V30 1902 H 186.923 0.984848 -3.67534 0
M  V30 1903 H 186.435 -0.836301 -3.78982 0
M  V30 1904 H 184.536 1.59315 -3.36823 0
M  V30 1905 H 184.649 0.343749 -4.77865 0
M  V30 1906 H 183.013 0.279126 -2.53166 0
M  V30 1907 H 183.796 -1.25482 -3.19545 0
M  V30 1908 N 186.241 1.57166 -0.116904 0
M  V30 1909 C 187.488 1.95123 0.541603 0
M  V30 1910 C 187.816 1.00006 1.6682 0
M  V30 1911 O 187.071 0.0235658 1.95686 0
M  V30 1912 C 187.37 3.39508 1.11664 0
M  V30 1913 C 187.036 4.50762 0.111606 0
M  V30 1914 C 185.698 4.80918 -0.164758 0
M  V30 1915 C 188.05 5.18036 -0.573438 0
M  V30 1916 C 185.378 5.75666 -1.13249 0
M  V30 1917 C 187.73 6.13824 -1.52978 0
M  V30 1918 C 186.394 6.42374 -1.81415 0
M  V30 1919 H 185.664 0.714005 0.198187 0
M  V30 1920 H 188.311 1.9048 -0.197365 0
M  V30 1921 H 186.616 3.40835 1.93232 0
M  V30 1922 H 188.313 3.66189 1.63422 0
M  V30 1923 H 184.903 4.27272 0.337192 0
M  V30 1924 H 189.087 4.94896 -0.373092 0
M  V30 1925 H 184.343 5.96092 -1.35958 0
M  V30 1926 H 188.517 6.65039 -2.06629 0
M  V30 1927 H 186.144 7.15599 -2.56557 0
M  V30 1928 N 187.719 -0.156864 1.56817 0
M  V30 1929 C 188.965 -0.872416 1.83076 0
M  V30 1930 C 189.298 -1.81261 0.697001 0
M  V30 1931 O 188.573 -1.92171 -0.30008 0
M  V30 1932 C 188.856 -1.65551 3.19789 0
M  V30 1933 C 188.709 -0.737467 4.43713 0
M  V30 1934 C 190.028 -2.62012 3.53606 0
M  V30 1935 H 187.147 -0.315715 0.665953 0
M  V30 1936 H 189.789 -0.138004 1.89498 0
M  V30 1937 H 187.939 -2.28159 3.14445 0
M  V30 1938 H 189.611 -0.123143 4.61136 0
M  V30 1939 H 187.854 -0.0464067 4.33775 0
M  V30 1940 H 188.525 -1.32122 5.35955 0
M  V30 1941 H 191.001 -2.09525 3.59497 0
M  V30 1942 H 189.877 -3.13861 4.50314 0
M  V30 1943 H 190.138 -3.42902 2.79053 0
M  V30 1944 N 189.197 -1.51736 -0.425897 0
M  V30 1945 C 190.445 -1.64644 -1.17204 0
M  V30 1946 C 190.766 -0.370486 -1.91448 0
M  V30 1947 O 190.036 0.614088 -1.86026 0
M  V30 1948 H 188.616 -0.606819 -0.435638 0
M  V30 1949 H 191.278 -1.88713 -0.487177 0
M  V30 1950 H 190.374 -2.47958 -1.89534 0
M  V30 1951 N 190.675 0.682077 -1.42076 0
M  V30 1952 C 191.9 1.47558 -1.45744 0
M  V30 1953 C 192.325 1.87977 -0.0680981 0
M  V30 1954 O 191.683 1.55522 0.9318 0
M  V30 1955 C 191.731 2.70575 -2.38373 0
M  V30 1956 O 190.835 3.68573 -1.85007 0
M  V30 1957 H 190.176 0.443585 -0.494093 0
M  V30 1958 H 192.706 0.837238 -1.86686 0
M  V30 1959 H 192.716 3.18729 -2.54707 0
M  V30 1960 H 191.391 2.40495 -3.39315 0
M  V30 1961 H 189.968 3.2757 -1.78192 0
M  V30 1962 N 192.153 1.28127 0.917671 0
M  V30 1963 C 193.43 1.05761 1.64542 0
M  V30 1964 C 193.81 -0.404344 2.07191 0
M  V30 1965 O 193.158 -1.38963 1.81388 0
M  V30 1966 C 193.368 2.02857 2.83989 0
M  V30 1967 C 194.716 2.32786 3.551 0
M  V30 1968 O 195.74 2.0091 2.94132 0
M  V30 1969 O 194.599 2.87169 4.64969 0
M  V30 1970 H 191.693 0.403916 0.721652 0
M  V30 1971 H 194.239 1.39431 0.967322 0
M  V30 1972 H 193.011 3.01407 2.49538 0
M  V30 1973 H 192.634 1.69809 3.59514 0
M  V30 1974 N 193.631 -1.12557 1.10312 0
M  V30 1975 C 194.877 -1.84311 0.846011 0
M  V30 1976 C 195.21 -1.83805 -0.626859 0
M  V30 1977 O 194.485 -1.28268 -1.46211 0
M  V30 1978 C 194.768 -3.32048 1.39341 0
M  V30 1979 C 194.621 -3.41016 2.93305 0
M  V30 1980 C 195.94 -4.27764 1.03468 0
M  V30 1981 H 193.059 -0.669192 0.30879 0
M  V30 1982 H 195.701 -1.32057 1.36605 0
M  V30 1983 H 193.851 -3.76678 0.951087 0
M  V30 1984 H 195.523 -3.05031 3.46055 0
M  V30 1985 H 193.766 -2.81603 3.29973 0
M  V30 1986 H 194.437 -4.44948 3.26689 0
M  V30 1987 H 196.913 -3.91253 1.41633 0
M  V30 1988 H 195.789 -5.29549 1.44463 0
M  V30 1989 H 196.05 -4.42064 -0.0560404 0
M  V30 1990 N 195.109 -0.891671 -1.2995 0
M  V30 1991 C 196.039 -0.379797 -2.30391 0
M  V30 1992 C 197.02 0.540919 -1.6127 0
M  V30 1993 O 198.205 0.453352 -1.88834 0
M  V30 1994 C 195.335 0.400654 -3.44981 0
M  V30 1995 C 194.289 -0.428905 -4.25846 0
M  V30 1996 C 193.615 0.478557 -5.32554 0
M  V30 1997 C 194.915 -1.67458 -4.94727 0
M  V30 1998 H 196.609 -1.21914 -2.73454 0
M  V30 1999 H 194.155 -0.587675 -1.31462 0
M  V30 2000 H 196.108 0.769434 -4.14316 0
M  V30 2001 H 194.832 1.27371 -3.0074 0
M  V30 2002 H 193.491 -0.779911 -3.58208 0
M  V30 2003 H 193.139 1.34951 -4.84559 0
M  V30 2004 H 192.839 -0.0727433 -5.87555 0
M  V30 2005 H 194.363 0.843705 -6.04743 0
M  V30 2006 H 195.777 -1.376 -5.56542 0
M  V30 2007 H 194.174 -2.16659 -5.59624 0
M  V30 2008 H 195.244 -2.41518 -4.20473 0
M  V30 2009 N 196.587 1.43421 -0.653314 0
M  V30 2010 C 197.55 2.29182 0.0287951 0
M  V30 2011 C 198.55 1.42213 0.750465 0
M  V30 2012 O 199.74 1.63843 0.591701 0
M  V30 2013 C 196.872 3.24278 1.05151 0
M  V30 2014 H 198.065 2.90985 -0.725786 0
M  V30 2015 H 195.618 1.50702 -0.414545 0
M  V30 2016 H 196.353 2.6737 1.83532 0
M  V30 2017 H 196.138 3.88396 0.537687 0
M  V30 2018 H 197.628 3.88647 1.52786 0
M  V30 2019 N 198.065 0.39524 1.52563 0
M  V30 2020 C 199.29 -0.187456 2.06551 0
M  V30 2021 C 199.715 -1.39249 1.26457 0
M  V30 2022 O 199.073 -1.78947 0.291151 0
M  V30 2023 C 199.121 -0.529985 3.56684 0
M  V30 2024 O 198.225 -1.62307 3.79118 0
M  V30 2025 H 197.566 -0.0202537 0.663691 0
M  V30 2026 H 200.096 0.564426 1.96661 0
M  V30 2027 H 200.106 -0.792598 4.00227 0
M  V30 2028 H 198.781 0.350987 4.14416 0
M  V30 2029 H 197.358 -1.3537 3.47461 0
M  V30 2030 N 199.544 -1.57102 0.125237 0
M  V30 2031 C 200.507 -2.14471 -0.80838 0
M  V30 2032 C 201.507 -1.0811 -1.19033 0
M  V30 2033 O 202.697 -1.33856 -1.11482 0
M  V30 2034 C 199.829 -2.69005 -2.09402 0
M  V30 2035 H 201.022 -2.98297 -0.309696 0
M  V30 2036 H 198.575 -1.55807 -0.124051 0
M  V30 2037 H 199.31 -1.88785 -2.63687 0
M  V30 2038 H 199.095 -3.46799 -1.82957 0
M  V30 2039 H 200.585 -3.13278 -2.76128 0
M  V30 2040 N 201.022 0.148545 -1.56898 0
M  V30 2041 C 201.985 1.16736 -1.97244 0
M  V30 2042 C 202.985 1.35947 -0.858777 0
M  V30 2043 O 204.175 1.32966 -1.12542 0
M  V30 2044 C 201.307 2.52798 -2.28705 0
M  V30 2045 H 202.5 0.821279 -2.88435 0
M  V30 2046 H 200.053 0.391831 -1.51309 0
M  V30 2047 H 200.788 2.92381 -1.403 0
M  V30 2048 H 200.573 2.40216 -3.09901 0
M  V30 2049 H 202.063 3.26179 -2.60762 0
M  V30 2050 N 202.5 1.5196 0.417844 0
M  V30 2051 C 203.74 1.67262 1.17486 0
M  V30 2052 C 204.104 0.38983 1.88001 0
M  V30 2053 O 205.305 0.418845 2.65517 0
M  V30 2054 C 203.576 2.85526 2.14965 0
M  V30 2055 S 205.135 3.21263 2.98891 0
M  V30 2056 H 201.953 0.589077 0.398132 0
M  V30 2057 H 204.555 1.89927 0.463452 0
M  V30 2058 H 203.259 3.77145 1.61833 0
M  V30 2059 H 202.79 2.65107 2.90657 0
M  V30 2060 H 204.805 2.69208 4.16823 0
M  V30 2061 N 203.978 -0.674533 1.42435 0
M  V30 2062 C 204.911 -1.79924 1.40366 0
M  V30 2063 C 205.889 -1.60378 0.267899 0
M  V30 2064 O 207.073 -1.82847 0.458159 0
M  V30 2065 C 204.2 -3.16927 1.19478 0
M  V30 2066 C 203.246 -3.55221 2.36051 0
M  V30 2067 S 204.079 -3.5762 3.98583 0
M  V30 2068 C 205.235 -4.97315 3.80038 0
M  V30 2069 H 205.468 -1.81405 2.35541 0
M  V30 2070 H 203.001 -0.845221 1.29211 0
M  V30 2071 H 204.959 -3.96007 1.08114 0
M  V30 2072 H 203.62 -3.13031 0.258883 0
M  V30 2073 H 202.813 -4.54804 2.17185 0
M  V30 2074 H 202.415 -2.83502 2.43932 0
M  V30 2075 H 204.707 -5.85401 3.41045 0
M  V30 2076 H 205.65 -5.21228 4.79298 0
M  V30 2077 H 206.058 -4.69845 3.12899 0
M  V30 2078 N 205.456 -1.28612 -0.910864 0
M  V30 2079 C 206.733 -1.06632 -1.63979 0
M  V30 2080 C 207.113 0.393351 -2.07403 0
M  V30 2081 O 206.461 1.37999 -1.82122 0
M  V30 2082 C 206.671 -2.0436 -2.8291 0
M  V30 2083 C 208.019 -2.34666 -3.5386 0
M  V30 2084 O 209.043 -2.02467 -2.93062 0
M  V30 2085 O 207.902 -2.89631 -4.63439 0
M  V30 2086 H 204.996 -0.407737 -0.7195 0
M  V30 2087 H 207.542 -1.39942 -0.959914 0
M  V30 2088 H 206.314 -3.02727 -2.47936 0
M  V30 2089 H 205.937 -1.71714 -3.58609 0
M  V30 2090 N 206.934 1.1197 -1.10907 0
M  V30 2091 C 207.881 2.17846 -0.762345 0
M  V30 2092 C 208.851 1.63995 0.263599 0
M  V30 2093 O 210.036 1.90273 0.141773 0
M  V30 2094 C 207.176 3.44487 -0.205651 0
M  V30 2095 C 206.289 4.12369 -1.28748 0
M  V30 2096 C 205.424 5.26674 -0.691919 0
M  V30 2097 C 204.463 5.86431 -1.75399 0
M  V30 2098 N 203.6 6.92142 -1.17833 0
M  V30 2099 H 208.44 2.46851 -1.6694 0
M  V30 2100 H 205.977 1.21188 -0.833776 0
M  V30 2101 H 207.935 4.16981 0.135037 0
M  V30 2102 H 206.565 3.15884 0.664613 0
M  V30 2103 H 205.617 3.38003 -1.74522 0
M  V30 2104 H 206.929 4.52844 -2.09125 0
M  V30 2105 H 206.083 6.05953 -0.300963 0
M  V30 2106 H 204.822 4.8749 0.143232 0
M  V30 2107 H 203.827 5.05835 -2.15432 0
M  V30 2108 H 205.052 6.27685 -2.59208 0
M  V30 2109 H 202.998 6.54985 -0.364725 0
M  V30 2110 H 202.915 7.31242 -1.91887 0
M  V30 2111 H 204.183 7.75237 -0.81408 0
M  V30 2112 N 208.412 0.89855 1.29475 0
M  V30 2113 C 209.689 0.443416 1.90508 0
M  V30 2114 C 210.069 -1.07685 1.81569 0
M  V30 2115 O 209.417 -1.9182 1.24166 0
M  V30 2116 C 209.627 0.956708 3.35631 0
M  V30 2117 C 210.975 0.999728 4.12663 0
M  V30 2118 O 211.999 0.904299 3.4453 0
M  V30 2119 O 210.858 1.14289 5.34416 0
M  V30 2120 H 207.952 0.138025 0.815401 0
M  V30 2121 H 210.498 0.98834 1.37949 0
M  V30 2122 H 209.27 2.00067 3.36287 0
M  V30 2123 H 208.893 0.391728 3.95666 0
M  V30 2124 N 209.89 -1.43072 0.660911 0
M  V30 2125 C 211.136 -2.0202 0.177708 0
M  V30 2126 C 211.469 -1.52066 -1.20787 0
M  V30 2127 O 210.744 -0.716987 -1.80802 0
M  V30 2128 C 211.027 -3.59561 0.197019 0
M  V30 2129 C 210.88 -4.19727 1.61706 0
M  V30 2130 C 212.199 -4.37664 -0.462396 0
M  V30 2131 H 209.318 -0.734034 0.0660494 0
M  V30 2132 H 211.96 -1.70272 0.843058 0
M  V30 2133 H 210.11 -3.86739 -0.369527 0
M  V30 2134 H 211.782 -4.03553 2.23479 0
M  V30 2135 H 210.025 -3.76084 2.16201 0
M  V30 2136 H 210.696 -5.28834 1.58237 0
M  V30 2137 H 213.172 -4.16095 0.0197215 0
M  V30 2138 H 212.048 -5.47305 -0.418188 0
M  V30 2139 H 212.309 -4.14493 -1.53778 0
M  V30 2140 N 211.368 -0.403325 -1.52352 0
M  V30 2141 C 212.596 0.174012 -2.06167 0
M  V30 2142 C 213.011 1.39347 -1.27388 0
M  V30 2143 O 212.368 1.79597 -0.324201 0
M  V30 2144 C 212.419 0.530223 -3.5759 0
M  V30 2145 O 212.14 -0.640806 -4.33388 0
M  V30 2146 C 213.641 1.16192 -4.27802 0
M  V30 2147 H 210.861 0.0229464 -0.670608 0
M  V30 2148 H 213.405 -0.572604 -1.9632 0
M  V30 2149 H 211.56 1.22673 -3.67464 0
M  V30 2150 H 211.974 -0.344851 -5.23365 0
M  V30 2151 H 213.448 1.36141 -5.34948 0
M  V30 2152 H 213.925 2.13335 -3.83907 0
M  V30 2153 H 214.531 0.505775 -4.22282 0
M  V30 2154 N 212.846 1.57033 -0.133567 0
M  V30 2155 C 213.793 2.16074 0.811208 0
M  V30 2156 C 214.763 1.08979 1.2535 0
M  V30 2157 O 215.948 1.36958 1.32843 0
M  V30 2158 C 213.088 2.77595 2.05024 0
M  V30 2159 C 212.201 3.99042 1.65498 0
M  V30 2160 C 211.336 4.48603 2.84479 0
M  V30 2161 C 210.375 5.62547 2.41262 0
M  V30 2162 N 209.512 6.06787 3.53206 0
M  V30 2163 H 214.352 2.96477 0.300906 0
M  V30 2164 H 211.889 1.46462 0.136822 0
M  V30 2165 H 213.847 3.11402 2.77642 0
M  V30 2166 H 212.477 1.99859 2.53488 0
M  V30 2167 H 211.529 3.71302 0.826981 0
M  V30 2168 H 212.841 4.81629 1.29748 0
M  V30 2169 H 211.995 4.84395 3.65303 0
M  V30 2170 H 210.734 3.64995 3.23465 0
M  V30 2171 H 209.739 5.26345 1.58874 0
M  V30 2172 H 210.964 6.47931 2.03377 0
M  V30 2173 H 208.91 5.26117 3.91838 0
M  V30 2174 H 208.827 6.84266 3.21427 0
M  V30 2175 H 210.095 6.4722 4.34427 0
M  V30 2176 N 214.325 -0.140222 1.56975 0
M  V30 2177 C 215.741 -0.493088 1.51792 0
M  V30 2178 C 215.941 -1.83013 0.843116 0
M  V30 2179 O 214.997 -2.49041 0.416493 0
M  V30 2180 C 216.31 -0.497144 2.96562 0
M  V30 2181 C 217.858 -0.582186 3.07538 0
M  V30 2182 C 218.333 -0.616838 4.53827 0
M  V30 2183 N 219.824 -0.678873 4.58198 0
M  V30 2184 C 220.559 -0.726782 5.68775 0
M  V30 2185 N 220.055 -0.733623 6.88905 0
M  V30 2186 N 221.848 -0.768179 5.56826 0
M  V30 2187 H 213.999 0.736108 1.99237 0
M  V30 2188 H 216.262 0.269182 0.90898 0
M  V30 2189 H 215.968 0.417217 3.49217 0
M  V30 2190 H 215.842 -1.33263 3.52875 0
M  V30 2191 H 218.229 -1.48697 2.54899 0
M  V30 2192 H 218.31 0.280581 2.54257 0
M  V30 2193 H 217.954 0.283812 5.07106 0
M  V30 2194 H 217.884 -1.49619 5.04898 0
M  V30 2195 H 220.375 -0.68061 3.7172 0
M  V30 2196 H 220.688 -0.772215 7.68932 0
M  V30 2197 H 219.033 -0.701389 6.91452 0
M  V30 2198 H 222.224 -0.760051 4.61888 0
M  V30 2199 H 222.397 -0.80205 6.43017 0
M  V30 2200 N 215.803 -1.52179 -0.40978 0
M  V30 2201 C 216.733 -1.78435 -1.5061 0
M  V30 2202 C 217.714 -0.635295 -1.57791 0
M  V30 2203 O 218.899 -0.880823 -1.73076 0
M  V30 2204 C 216.029 -1.93444 -2.88439 0
M  V30 2205 C 214.983 -3.09038 -2.96108 0
M  V30 2206 C 214.309 -3.09268 -4.36185 0
M  V30 2207 C 215.609 -4.48508 -2.67652 0
M  V30 2208 H 217.303 -2.70237 -1.28889 0
M  V30 2209 H 214.849 -1.30036 -0.618605 0
M  V30 2210 H 216.802 -2.10394 -3.65119 0
M  V30 2211 H 215.526 -0.983129 -3.11452 0
M  V30 2212 H 214.185 -2.91837 -2.21872 0
M  V30 2213 H 213.833 -2.11861 -4.56206 0
M  V30 2214 H 213.533 -3.86907 -4.42241 0
M  V30 2215 H 215.057 -3.28348 -5.14801 0
M  V30 2216 H 216.471 -4.65918 -3.34056 0
M  V30 2217 H 214.868 -5.28059 -2.85085 0
M  V30 2218 H 215.938 -4.56649 -1.63095 0
M  V30 2219 N 217.281 0.66697 -1.42791 0
M  V30 2220 C 218.211 1.79218 -1.49677 0
M  V30 2221 C 219.192 1.66405 -0.352623 0
M  V30 2222 O 220.377 1.85708 -0.567993 0
M  V30 2223 C 217.507 3.17565 -1.40605 0
M  V30 2224 C 216.461 3.45124 -2.53127 0
M  V30 2225 C 215.787 4.83127 -2.29112 0
M  V30 2226 C 217.087 3.41236 -3.95418 0
M  V30 2227 H 218.781 1.73713 -2.43853 0
M  V30 2228 H 216.327 0.83432 -1.17367 0
M  V30 2229 H 218.28 3.96022 -1.44029 0
M  V30 2230 H 217.004 3.23767 -0.429271 0
M  V30 2231 H 215.663 2.69031 -2.49034 0
M  V30 2232 H 215.311 4.85988 -1.29709 0
M  V30 2233 H 215.011 5.02528 -3.04531 0
M  V30 2234 H 216.535 5.63859 -2.34297 0
M  V30 2235 H 217.949 4.09651 -4.01073 0
M  V30 2236 H 216.346 3.72173 -4.70752 0
M  V30 2237 H 217.416 2.39665 -4.21532 0
M  V30 2238 N 218.759 1.29093 0.90403 0
M  V30 2239 C 220.175 1.07011 1.1841 0
M  V30 2240 C 220.375 -0.181358 2.00682 0
M  V30 2241 O 219.431 -0.880331 2.36657 0
M  V30 2242 C 220.744 2.32311 1.90924 0
M  V30 2243 C 222.292 2.37587 2.03768 0
M  V30 2244 C 222.767 3.62679 2.79693 0
M  V30 2245 N 224.258 3.63376 2.87249 0
M  V30 2246 C 224.993 4.56848 3.46522 0
M  V30 2247 N 224.489 5.60648 4.06996 0
M  V30 2248 N 226.282 4.44426 3.44154 0
M  V30 2249 H 218.433 2.09412 0.354993 0
M  V30 2250 H 220.696 0.922181 0.219742 0
M  V30 2251 H 220.402 3.23536 1.37905 0
M  V30 2252 H 220.276 2.39483 2.91424 0
M  V30 2253 H 222.663 1.46853 2.55965 0
M  V30 2254 H 222.744 2.34403 1.02415 0
M  V30 2255 H 222.388 4.53762 2.28173 0
M  V30 2256 H 222.318 3.63119 3.81381 0
M  V30 2257 H 224.809 2.88321 2.44293 0
M  V30 2258 H 225.122 6.28101 4.50232 0
M  V30 2259 H 223.467 5.64463 4.05471 0
M  V30 2260 H 226.658 3.62529 2.96126 0
M  V30 2261 H 226.831 5.17457 3.90054 0
M  V30 2262 N 220.237 -1.11381 1.11499 0
M  V30 2263 C 221.514 -1.7955 0.775965 0
M  V30 2264 C 221.894 -1.97859 -0.73588 0
M  V30 2265 O 221.242 -1.56376 -1.66609 0
M  V30 2266 C 221.452 -3.13196 1.53977 0
M  V30 2267 C 222.8 -3.88227 1.71944 0
M  V30 2268 O 223.824 -3.22887 1.50407 0
M  V30 2269 O 222.683 -5.05477 2.07738 0
M  V30 2270 H 219.777 -0.777728 0.28119 0
M  V30 2271 H 222.323 -1.18118 1.21845 0
M  V30 2272 H 221.095 -2.95229 2.56818 0
M  V30 2273 H 220.718 -3.82342 1.09088 0
M  V30 2274 N 221.715 -0.905404 -1.28997 0
M  V30 2275 C 222.678 -0.392253 -2.25819 0
M  V30 2276 C 223.678 0.476753 -1.5357 0
M  V30 2277 O 224.868 0.280994 -1.71919 0
M  V30 2278 C 222 0.438588 -3.38067 0
M  V30 2279 H 223.193 -1.24743 -2.72725 0
M  V30 2280 H 220.746 -0.684051 -1.40536 0
M  V30 2281 H 221.481 1.31352 -2.96508 0
M  V30 2282 H 221.266 -0.184167 -3.91667 0
M  V30 2283 H 222.756 0.78873 -4.10084 0
M  V30 2284 N 223.193 1.4272 -0.668489 0
M  V30 2285 C 224.441 2.01226 -0.187769 0
M  V30 2286 C 224.762 1.53092 1.2078 0
M  V30 2287 O 224.032 0.74993 1.80977 0
M  V30 2288 H 222.612 0.744041 -0.0664272 0
M  V30 2289 H 225.274 1.74723 -0.863583 0
M  V30 2290 H 224.37 3.11556 -0.184166 0
M  V30 2291 N 224.671 0.411399 1.52136 0
M  V30 2292 C 225.601 -0.404015 2.29978 0
M  V30 2293 C 226.582 -1.04412 1.34284 0
M  V30 2294 O 227.767 -1.0527 1.63192 0
M  V30 2295 C 224.897 -1.5197 3.12286 0
M  V30 2296 C 223.851 -1.00448 4.16046 0
M  V30 2297 C 223.177 -2.21393 4.86712 0
M  V30 2298 C 224.477 -0.0569336 5.22269 0
M  V30 2299 H 226.171 0.245529 2.98392 0
M  V30 2300 H 223.717 0.119525 1.43503 0
M  V30 2301 H 225.67 -2.09715 3.6551 0
M  V30 2302 H 224.394 -2.19716 2.41646 0
M  V30 2303 H 223.053 -0.449421 3.63835 0
M  V30 2304 H 222.701 -2.87699 4.12599 0
M  V30 2305 H 222.401 -1.87571 5.56858 0
M  V30 2306 H 223.925 -2.7974 5.4275 0
M  V30 2307 H 225.339 -0.54325 5.7072 0
M  V30 2308 H 223.736 0.192594 5.99791 0
M  V30 2309 H 224.806 0.887663 4.76706 0
M  V30 2310 N 226.149 -1.5696 0.141893 0
M  V30 2311 C 227.097 -2.17784 -0.816874 0
M  V30 2312 C 228.091 -1.1334 -1.25899 0
M  V30 2313 O 229.297 -1.316 -1.22806 0
M  V30 2314 H 225.672 -0.697278 -0.281615 0
M  V30 2315 H 227.643 -2.97087 -0.279621 0
M  V30 2316 C 226.392 -2.80983 -2.04802 0
M  V30 2317 H 225.715 -3.61062 -1.7168 0
M  V30 2318 H 227.155 -3.2705 -2.69841 0
M  V30 2319 C 225.614 -1.79228 -2.8527 0
M  V30 2320 O 226.144 -1.25962 -3.8144 0
M  V30 2321 N 224.35 -1.48647 -2.49704 0
M  V30 2322 H 223.897 -1.92155 -1.71564 0
M  V30 2323 H 223.855 -0.808115 -3.03837 0
M  V30 2324 N 227.627 0.131896 -1.57047 0
M  V30 2325 C 228.876 0.84044 -1.83356 0
M  V30 2326 C 229.189 1.81646 -0.725535 0
M  V30 2327 O 230.395 2.57025 -0.874659 0
M  V30 2328 C 228.851 1.54528 -3.25037 0
M  V30 2329 C 228.459 0.610902 -4.43815 0
M  V30 2330 C 230.203 2.23972 -3.60606 0
M  V30 2331 C 228.11 1.31823 -5.76521 0
M  V30 2332 H 227.04 0.317599 -0.683847 0
M  V30 2333 H 229.691 0.0931561 -1.83263 0
M  V30 2334 H 228.073 2.33873 -3.19561 0
M  V30 2335 H 229.247 -0.148407 -4.60561 0
M  V30 2336 H 227.562 0.0241016 -4.16393 0
M  V30 2337 H 230.159 2.77558 -4.57018 0
M  V30 2338 H 230.502 3.01173 -2.87403 0
M  V30 2339 H 231.035 1.51529 -3.6781 0
M  V30 2340 H 227.774 0.587771 -6.52859 0
M  V30 2341 H 227.294 2.04987 -5.63685 0
M  V30 2342 H 228.973 1.855 -6.19838 0
M  V30 2343 N 229.106 1.52395 0.401703 0
M  V30 2344 C 230.069 1.75636 1.47257 0
M  V30 2345 C 231.069 0.62628 1.48103 0
M  V30 2346 O 232.259 0.894227 1.49497 0
M  V30 2347 C 229.391 1.84553 2.86624 0
M  V30 2348 H 230.584 2.71241 1.27938 0
M  V30 2349 H 228.137 1.42923 0.632662 0
M  V30 2350 H 228.872 0.908882 3.11303 0
M  V30 2351 H 228.657 2.66715 2.87412 0
M  V30 2352 H 230.147 2.04251 3.64241 0
M  V30 2353 N 230.584 -0.659388 1.43143 0
M  V30 2354 C 231.995 -1.24041 1.39537 0
M  V30 2355 C 232.346 -1.95963 0.0963364 0
M  V30 2356 O 231.471 -2.00892 -0.804438 0
M  V30 2357 C 232.066 -2.25601 2.52764 0
M  V30 2358 C 230.625 -2.79195 2.52443 0
M  V30 2359 C 229.772 -1.53743 2.30778 0
M  V30 2360 H 232.723 -0.451792 1.52133 0
M  V30 2361 H 232.744 -3.07651 2.23899 0
M  V30 2362 H 232.256 -1.73226 3.47296 0
M  V30 2363 H 230.357 -3.35649 1.61773 0
M  V30 2364 H 230.47 -3.2716 3.50004 0
M  V30 2365 H 228.834 -1.80869 1.79328 0
M  V30 2366 H 229.617 -1.03312 3.27386 0
M  V30 2367 N 232.062 -1.29571 -0.897171 0
M  V30 2368 C 233.309 -1.17689 -1.6479 0
M  V30 2369 C 233.637 0.27107 -1.92602 0
M  V30 2370 O 232.892 1.21193 -1.53658 0
M  V30 2371 C 233.191 -1.9382 -3.00281 0
M  V30 2372 C 232.857 -3.43522 -2.92068 0
M  V30 2373 C 231.519 -3.84348 -2.89535 0
M  V30 2374 C 233.871 -4.38906 -2.81089 0
M  V30 2375 C 231.199 -5.18869 -2.73846 0
M  V30 2376 C 233.551 -5.73521 -2.66939 0
M  V30 2377 C 232.215 -6.13601 -2.62774 0
M  V30 2378 H 231.485 -0.430654 -0.603008 0
M  V30 2379 H 234.132 -1.60536 -1.04404 0
M  V30 2380 H 232.437 -1.4357 -3.64547 0
M  V30 2381 H 234.134 -1.82028 -3.57305 0
M  V30 2382 H 230.724 -3.11072 -2.94842 0
M  V30 2383 H 234.908 -4.08315 -2.82121 0
M  V30 2384 H 230.164 -5.4903 -2.69027 0
M  V30 2385 H 234.338 -6.47078 -2.57416 0
M  V30 2386 H 231.965 -7.17786 -2.50375 0
M  V30 2387 N 233.54 1.10788 -1.12088 0
M  V30 2388 C 234.789 1.82036 -0.868659 0
M  V30 2389 C 235.102 1.85929 0.607426 0
M  V30 2390 O 236.308 2.53346 0.97613 0
M  V30 2391 C 234.764 3.26951 -1.50435 0
M  V30 2392 C 234.372 3.31367 -3.01496 0
M  V30 2393 C 236.116 4.03053 -1.33225 0
M  V30 2394 C 234.023 4.7072 -3.58017 0
M  V30 2395 H 232.953 0.682108 -0.321318 0
M  V30 2396 H 235.604 1.24618 -1.34694 0
M  V30 2397 H 233.986 3.84343 -0.953735 0
M  V30 2398 H 235.16 2.83819 -3.6302 0
M  V30 2399 H 233.475 2.6875 -3.18061 0
M  V30 2400 H 236.072 5.05981 -1.72878 0
M  V30 2401 H 236.415 4.15387 -0.275529 0
M  V30 2402 H 236.948 3.52066 -1.85188 0
M  V30 2403 H 233.687 4.63585 -4.63432 0
M  V30 2404 H 233.207 5.1865 -3.01268 0
M  V30 2405 H 234.886 5.39685 -3.56859 0
M  V30 2406 N 235.018 0.912232 1.28515 0
M  V30 2407 C 236.246 0.560416 1.99166 0
M  V30 2408 C 236.661 -0.857927 1.68182 0
M  V30 2409 O 236.018 -1.56805 0.933733 0
M  V30 2410 C 236.069 0.758142 3.53461 0
M  V30 2411 O 235.79 2.12067 3.83352 0
M  V30 2412 C 237.291 0.412954 4.41372 0
M  V30 2413 H 234.511 0.213805 0.636026 0
M  V30 2414 H 237.055 1.22502 1.63749 0
M  V30 2415 H 235.21 0.140556 3.87145 0
M  V30 2416 H 235.624 2.15923 4.77993 0
M  V30 2417 H 237.098 0.60208 5.48707 0
M  V30 2418 H 237.575 -0.65073 4.34353 0
M  V30 2419 H 238.181 1.00802 4.13182 0
M  V30 2420 N 236.496 -1.42363 0.676048 0
M  V30 2421 C 237.426 -2.33497 0.0124832 0
M  V30 2422 C 238.407 -1.50748 -0.787981 0
M  V30 2423 O 239.592 -1.79346 -0.744884 0
M  V30 2424 C 236.722 -3.34377 -0.938582 0
M  V30 2425 C 235.676 -4.27289 -0.246622 0
M  V30 2426 C 235.002 -5.18386 -1.31071 0
M  V30 2427 C 236.302 -5.14916 0.875125 0
M  V30 2428 H 237.996 -2.89233 0.773593 0
M  V30 2429 H 235.542 -1.39073 0.37346 0
M  V30 2430 H 237.495 -3.97044 -1.41188 0
M  V30 2431 H 236.219 -2.76947 -1.73113 0
M  V30 2432 H 234.878 -3.66018 0.206456 0
M  V30 2433 H 234.526 -4.57282 -2.09528 0
M  V30 2434 H 234.226 -5.81378 -0.852839 0
M  V30 2435 H 235.75 -5.83929 -1.78492 0
M  V30 2436 H 237.164 -5.71262 0.482983 0
M  V30 2437 H 235.561 -5.86747 1.25887 0
M  V30 2438 H 236.631 -4.53242 1.72335 0
M  V30 2439 N 237.974 -0.419461 -1.51915 0
M  V30 2440 C 239.202 0.152136 -2.0634 0
M  V30 2441 C 239.617 1.37988 -1.28859 0
M  V30 2442 O 238.974 1.79243 -0.343232 0
M  V30 2443 C 239.025 0.492266 -3.58133 0
M  V30 2444 O 238.746 -0.686736 -4.32684 0
M  V30 2445 C 240.247 1.11648 -4.2901 0
M  V30 2446 H 237.467 0.0158325 -0.670813 0
M  V30 2447 H 240.011 -0.593394 -1.95702 0
M  V30 2448 H 238.166 1.18769 -3.68745 0
M  V30 2449 H 238.58 -0.400341 -5.2297 0
M  V30 2450 H 240.054 1.3046 -5.36362 0
M  V30 2451 H 240.531 2.09251 -3.86148 0
M  V30 2452 H 241.137 0.460958 -4.22795 0
M  V30 2453 N 239.452 1.56882 -0.150215 0
M  V30 2454 C 240.868 1.58263 0.20617 0
M  V30 2455 C 241.068 1.16464 1.64434 0
M  V30 2456 O 240.124 0.866422 2.3717 0
M  V30 2457 C 241.437 3.00649 -0.0555025 0
M  V30 2458 C 242.985 3.12999 0.00795388 0
M  V30 2459 C 243.46 4.5744 -0.226429 0
M  V30 2460 N 244.951 4.62875 -0.173469 0
M  V30 2461 C 245.686 5.72454 -0.329288 0
M  V30 2462 N 245.182 6.90669 -0.543005 0
M  V30 2463 N 246.975 5.61467 -0.266666 0
M  V30 2464 H 239.126 1.82345 -1.08922 0
M  V30 2465 H 241.389 0.844149 -0.431413 0
M  V30 2466 H 241.095 3.3563 -1.05096 0
M  V30 2467 H 240.969 3.71337 0.66246 0
M  V30 2468 H 243.356 2.77857 0.993966 0
M  V30 2469 H 243.437 2.4479 -0.742388 0
M  V30 2470 H 243.081 4.93287 -1.20956 0
M  V30 2471 H 243.011 5.2378 0.544274 0
M  V30 2472 H 245.502 3.77898 -0.0130709 0
M  V30 2473 H 245.815 7.70045 -0.651922 0
M  V30 2474 H 244.16 6.92581 -0.579366 0
M  V30 2475 H 247.351 4.67992 -0.100441 0
M  V30 2476 H 247.524 6.46816 -0.391535 0
M  V30 2477 N 240.93 -0.123565 1.57115 0
M  V30 2478 C 241.893 -1.13583 1.99076 0
M  V30 2479 C 242.893 -1.34564 0.880296 0
M  V30 2480 O 244.083 -1.31158 1.14644 0
M  V30 2481 C 241.215 -2.49128 2.32698 0
M  V30 2482 H 242.408 -0.775287 2.89706 0
M  V30 2483 H 239.961 -0.36771 1.51913 0
M  V30 2484 H 240.696 -2.90111 1.44934 0
M  V30 2485 H 240.481 -2.35255 3.13684 0
M  V30 2486 H 241.971 -3.2199 2.65918 0
M  V30 2487 N 242.408 -1.52605 -0.393616 0
M  V30 2488 C 243.356 -1.77688 -1.50099 0
M  V30 2489 C 244.35 -0.644615 -1.56656 0
M  V30 2490 O 245.556 -0.826997 -1.59877 0
M  V30 2491 H 241.931 -0.562159 -0.499481 0
M  V30 2492 H 243.902 -2.7043 -1.26135 0
M  V30 2493 C 242.651 -1.95858 -2.87289 0
M  V30 2494 H 241.974 -2.8241 -2.82992 0
M  V30 2495 H 243.414 -2.174 -3.64024 0
M  V30 2496 C 241.873 -0.729848 -3.28899 0
M  V30 2497 O 242.403 0.0949217 -4.01588 0
M  V30 2498 N 240.609 -0.561283 -2.85128 0
M  V30 2499 H 240.156 -1.23357 -2.26143 0
M  V30 2500 H 240.114 0.2595 -3.13327 0
M  V30 2501 N 243.887 0.651787 -1.4349 0
M  V30 2502 C 245.303 0.96762 -1.26922 0
M  V30 2503 C 245.503 2.00602 -0.189982 0
M  V30 2504 O 244.559 2.48793 0.431107 0
M  V30 2505 C 245.872 1.45052 -2.63401 0
M  V30 2506 C 247.42 1.5671 -2.70945 0
M  V30 2507 C 247.895 2.0839 -4.07845 0
M  V30 2508 N 249.386 2.1569 -4.09917 0
M  V30 2509 C 250.121 2.56804 -5.12679 0
M  V30 2510 N 249.617 2.97203 -6.25813 0
M  V30 2511 N 251.41 2.56756 -5.00033 0
M  V30 2512 H 243.561 -0.0353158 -2.12371 0
M  V30 2513 H 245.824 0.0467858 -0.946845 0
M  V30 2514 H 245.53 0.761926 -3.43348 0
M  V30 2515 H 245.404 2.42529 -2.88894 0
M  V30 2516 H 247.791 2.2467 -1.9133 0
M  V30 2517 H 247.872 0.57662 -2.49216 0
M  V30 2518 H 247.516 1.41031 -4.87927 0
M  V30 2519 H 247.446 3.08271 -4.26938 0
M  V30 2520 H 249.937 1.87237 -3.28254 0
M  V30 2521 H 250.25 3.27328 -7.00055 0
M  V30 2522 H 248.595 2.95004 -6.29283 0
M  V30 2523 H 251.786 2.24572 -4.10713 0
M  V30 2524 H 251.959 2.88475 -5.80247 0
M  V30 2525 N 245.365 1.30045 0.890287 0
M  V30 2526 C 246.315 1.12592 1.9826 0
M  V30 2527 C 247.299 0.0426021 1.60844 0
M  V30 2528 O 248.491 0.265346 1.75 0
M  V30 2529 C 245.62 0.814301 3.33503 0
M  V30 2530 C 244.706 1.93761 3.7725 0
M  V30 2531 N 245.097 3.18232 3.93143 0
M  V30 2532 C 243.395 1.83277 4.06602 0
M  V30 2533 C 244.096 3.9158 4.30163 0
M  V30 2534 N 243.072 3.19591 4.3973 0
M  V30 2535 H 246.874 2.07003 2.08631 0
M  V30 2536 H 244.388 1.21307 1.07974 0
M  V30 2537 H 246.385 0.67029 4.11476 0
M  V30 2538 H 245.045 -0.121797 3.24471 0
M  V30 2539 H 246.056 3.53581 3.78419 0
M  V30 2540 H 242.733 0.97001 4.06075 0
M  V30 2541 H 244.123 4.98744 4.50226 0
M  V30 2542 N 246.843 -1.10192 1.12674 0
M  V30 2543 C 247.791 -2.18694 0.792196 0
M  V30 2544 C 248.785 -1.67938 -0.222058 0
M  V30 2545 O 249.991 -1.79822 -0.0800074 0
M  V30 2546 H 246.366 -0.713223 0.238364 0
M  V30 2547 H 248.337 -2.44149 1.71564 0
M  V30 2548 C 247.086 -3.46682 0.265859 0
M  V30 2549 H 246.409 -3.86101 1.03761 0
M  V30 2550 H 247.849 -4.23942 0.0701128 0
M  V30 2551 C 246.308 -3.21506 -1.00675 0
M  V30 2552 O 246.838 -3.43408 -2.08408 0
M  V30 2553 N 245.044 -2.75158 -0.934692 0
M  V30 2554 H 244.591 -2.57535 -0.0578604 0
M  V30 2555 H 244.549 -2.58691 -1.7868 0
M  V30 2556 N 248.321 -0.919034 -1.28029 0
M  V30 2557 C 249.57 -0.550802 -1.94034 0
M  V30 2558 C 249.883 0.910877 -1.73096 0
M  V30 2559 O 251.089 1.3875 -2.33368 0
M  V30 2560 C 249.545 -0.934249 -3.47563 0
M  V30 2561 C 249.153 -2.41602 -3.7727 0
M  V30 2562 C 250.897 -0.636854 -4.19696 0
M  V30 2563 C 248.804 -2.73932 -5.24133 0
M  V30 2564 H 247.734 -0.202273 -0.726362 0
M  V30 2565 H 250.385 -1.11867 -1.45458 0
M  V30 2566 H 248.767 -0.295115 -3.94899 0
M  V30 2567 H 249.941 -3.10233 -3.40723 0
M  V30 2568 H 248.256 -2.68441 -3.18321 0
M  V30 2569 H 250.853 -0.855005 -5.2782 0
M  V30 2570 H 251.196 0.425575 -4.14119 0
M  V30 2571 H 251.729 -1.23469 -3.78154 0
M  V30 2572 H 248.468 -3.79049 -5.34792 0
M  V30 2573 H 247.988 -2.09942 -5.61858 0
M  V30 2574 H 249.667 -2.61215 -5.91925 0
M  V30 2575 N 249.799 1.42003 -0.683588 0
M  V30 2576 C 251.024 2.06265 -0.216647 0
M  V30 2577 C 251.449 1.51059 1.12083 0
M  V30 2578 O 250.807 0.632638 1.69904 0
M  V30 2579 C 250.855 3.60191 -0.171759 0
M  V30 2580 O 249.959 4.03396 0.857069 0
M  V30 2581 H 249.3 0.65502 -0.108834 0
M  V30 2582 H 251.83 1.81982 -0.935077 0
M  V30 2583 H 251.84 4.08 0.0014303 0
M  V30 2584 H 250.515 3.99743 -1.14796 0
M  V30 2585 H 249.092 3.67117 0.654208 0
M  V30 2586 N 251.277 0.427512 1.51691 0
M  V30 2587 C 252.524 -0.142229 2.02 0
M  V30 2588 C 252.852 -1.43566 1.31221 0
M  V30 2589 O 252.107 -1.91298 0.412744 0
M  V30 2590 C 252.406 -0.418249 3.54944 0
M  V30 2591 C 252.072 0.788187 4.43958 0
M  V30 2592 C 250.734 1.11906 4.68007 0
M  V30 2593 C 253.086 1.59347 4.96244 0
M  V30 2594 C 250.414 2.25608 5.41588 0
M  V30 2595 C 252.766 2.7214 5.71072 0
M  V30 2596 C 251.43 3.05692 5.93387 0
M  V30 2597 H 250.7 -0.0520451 0.73917 0
M  V30 2598 H 253.347 0.572697 1.82736 0
M  V30 2599 H 251.652 -1.21496 3.72486 0
M  V30 2600 H 253.349 -0.872339 3.91397 0
M  V30 2601 H 249.939 0.520344 4.2543 0
M  V30 2602 H 254.123 1.35106 4.77556 0
M  V30 2603 H 249.379 2.51929 5.57083 0
M  V30 2604 H 253.553 3.34914 6.10578 0
M  V30 2605 H 251.18 3.9391 6.50184 0
M  V30 2606 N 252.755 -1.56801 0.158532 0
M  V30 2607 C 253.718 -2.16138 -0.762705 0
M  V30 2608 C 254.718 -1.1061 -1.16713 0
M  V30 2609 O 255.908 -1.36191 -1.08617 0
M  V30 2610 C 253.04 -2.73386 -2.03649 0
M  V30 2611 H 254.233 -2.98886 -0.246354 0
M  V30 2612 H 251.786 -1.56035 -0.0909744 0
M  V30 2613 H 252.521 -1.94335 -2.59623 0
M  V30 2614 H 252.306 -3.50601 -1.75559 0
M  V30 2615 H 253.796 -3.19065 -2.6942 0
M  V30 2616 N 254.233 0.115231 -1.57178 0
M  V30 2617 C 255.143 1.15994 -2.03918 0
M  V30 2618 C 256.159 1.45103 -0.960268 0
M  V30 2619 O 257.335 1.56144 -1.27204 0
M  V30 2620 C 254.4 2.46568 -2.43732 0
M  V30 2621 C 253.461 2.24822 -3.65723 0
M  V30 2622 C 252.694 3.4917 -4.03629 0
M  V30 2623 O 252.917 4.56623 -3.41835 0
M  V30 2624 O 251.851 3.39949 -4.96708 0
M  V30 2625 H 255.677 0.793019 -2.93164 0
M  V30 2626 H 253.262 0.3263 -1.45793 0
M  V30 2627 H 255.144 3.23492 -2.70057 0
M  V30 2628 H 253.819 2.82726 -1.57631 0
M  V30 2629 H 252.726 1.45744 -3.44542 0
M  V30 2630 H 254.059 1.93566 -4.52541 0
M  V30 2631 N 255.711 1.52812 0.385517 0
M  V30 2632 C 256.957 1.68275 1.13188 0
M  V30 2633 C 257.29 0.423179 1.89533 0
M  V30 2634 O 256.565 -0.579113 1.85679 0
M  V30 2635 C 256.848 2.92001 2.1073 0
M  V30 2636 C 256.701 4.28067 1.38125 0
M  V30 2637 C 258.02 3.11283 3.11113 0
M  V30 2638 H 255.139 0.612352 0.410115 0
M  V30 2639 H 257.781 1.85415 0.414869 0
M  V30 2640 H 255.931 2.77519 2.71874 0
M  V30 2641 H 257.603 4.54324 0.799187 0
M  V30 2642 H 255.846 4.28388 0.683092 0
M  V30 2643 H 256.517 5.10733 2.09417 0
M  V30 2644 H 258.993 3.2482 2.6006 0
M  V30 2645 H 257.869 3.99325 3.76605 0
M  V30 2646 H 258.13 2.25656 3.80173 0
M  V30 2647 N 257.189 -0.644168 1.43834 0
M  V30 2648 C 258.099 -1.78563 1.52159 0
M  V30 2649 C 259.115 -1.69147 0.408069 0
M  V30 2650 O 260.291 -1.90156 0.663524 0
M  V30 2651 C 257.356 -3.14888 1.45073 0
M  V30 2652 C 256.417 -3.36034 2.6717 0
M  V30 2653 C 255.65 -4.65855 2.60413 0
M  V30 2654 O 255.873 -5.45805 1.65689 0
M  V30 2655 O 254.807 -4.88918 3.5106 0
M  V30 2656 H 258.633 -1.74494 2.48567 0
M  V30 2657 H 256.218 -0.80378 1.25935 0
M  V30 2658 H 258.1 -3.96179 1.43597 0
M  V30 2659 H 256.775 -3.19528 0.518037 0
M  V30 2660 H 255.682 -2.54472 2.74217 0
M  V30 2661 H 257.015 -3.36247 3.59442 0
M  V30 2662 N 258.668 -1.30515 -0.883378 0
M  V30 2663 C 259.893 -1.22487 -1.67367 0
M  V30 2664 C 260.318 0.208767 -1.86938 0
M  V30 2665 O 259.676 1.15015 -1.40148 0
M  V30 2666 C 259.724 -1.96041 -3.02655 0
M  V30 2667 O 258.828 -1.28859 -3.91751 0
M  V30 2668 H 258.169 -0.423573 -0.511353 0
M  V30 2669 H 260.699 -1.72362 -1.10239 0
M  V30 2670 H 260.709 -2.05124 -3.52687 0
M  V30 2671 H 259.384 -3.00307 -2.8773 0
M  V30 2672 H 257.961 -1.28141 -3.50192 0
M  V30 2673 N 260.146 1.09593 -1.13257 0
M  V30 2674 C 261.093 2.1618 -0.808381 0
M  V30 2675 C 262.063 1.64517 0.228754 0
M  V30 2676 O 263.248 1.9053 0.101381 0
M  V30 2677 C 260.388 3.43973 -0.278675 0
M  V30 2678 C 259.501 4.09545 -1.37466 0
M  V30 2679 C 258.636 5.25088 -0.803479 0
M  V30 2680 C 257.675 5.82579 -1.87799 0
M  V30 2681 N 256.812 6.89486 -1.32488 0
M  V30 2682 H 261.652 2.43254 -1.72138 0
M  V30 2683 H 259.189 1.19392 -0.859294 0
M  V30 2684 H 261.147 4.17174 0.0465583 0
M  V30 2685 H 259.777 3.17223 0.597459 0
M  V30 2686 H 258.829 3.34226 -1.81652 0
M  V30 2687 H 260.141 4.48307 -2.18684 0
M  V30 2688 H 259.295 6.05178 -0.429427 0
M  V30 2689 H 258.034 4.87684 0.0397956 0
M  V30 2690 H 257.039 5.01152 -2.26113 0
M  V30 2691 H 258.264 6.22045 -2.72463 0
M  V30 2692 H 256.21 6.54064 -0.503575 0
M  V30 2693 H 256.127 7.27007 -2.07355 0
M  V30 2694 H 257.395 7.73336 -0.978336 0
M  V30 2695 N 261.624 0.925811 1.2754 0
M  V30 2696 C 262.554 0.440748 2.29303 0
M  V30 2697 C 263.535 -0.497971 1.62648 0
M  V30 2698 O 264.72 -0.403126 1.8997 0
M  V30 2699 C 261.85 -0.309048 3.45922 0
M  V30 2700 C 260.804 0.54166 4.24559 0
M  V30 2701 C 260.13 -0.337191 5.33636 0
M  V30 2702 C 261.43 1.80516 4.90114 0
M  V30 2703 H 263.124 1.29121 2.70126 0
M  V30 2704 H 260.67 0.622323 1.29858 0
M  V30 2705 H 262.623 -0.659315 4.1621 0
M  V30 2706 H 261.347 -1.19352 3.04011 0
M  V30 2707 H 260.006 0.874609 3.56014 0
M  V30 2708 H 259.654 -1.22056 4.87966 0
M  V30 2709 H 259.354 0.228497 5.87156 0
M  V30 2710 H 260.878 -0.683072 6.06767 0
M  V30 2711 H 262.292 1.52307 5.52698 0
M  V30 2712 H 260.689 2.3142 5.53683 0
M  V30 2713 H 261.759 2.52581 4.13921 0
M  V30 2714 N 263.102 -1.41638 0.69111 0
M  V30 2715 C 264.35 -2.00902 0.219758 0
M  V30 2716 C 264.671 -1.54994 -1.18329 0
M  V30 2717 O 263.941 -0.778628 -1.79762 0
M  V30 2718 H 262.521 -0.74289 0.0782558 0
M  V30 2719 H 265.183 -1.73327 0.891271 0
M  V30 2720 H 264.279 -3.11224 0.233708 0
M  V30 2721 N 264.58 -0.43555 -1.51462 0
M  V30 2722 C 265.51 0.367376 -2.30592 0
M  V30 2723 C 266.491 1.02263 -1.35928 0
M  V30 2724 O 267.676 1.02661 -1.64847 0
M  V30 2725 C 264.806 1.46983 -3.14664 0
M  V30 2726 C 263.76 0.938161 -4.17591 0
M  V30 2727 C 263.086 2.13622 -4.90173 0
M  V30 2728 C 264.386 -0.0261621 -5.22293 0
M  V30 2729 H 266.08 -0.292969 -2.97963 0
M  V30 2730 H 263.626 -0.14234 -1.43295 0
M  V30 2731 H 265.579 2.03873 -3.688 0
M  V30 2732 H 264.303 2.15843 -2.4511 0
M  V30 2733 H 262.962 0.391481 -3.64504 0
M  V30 2734 H 262.61 2.81098 -4.17124 0
M  V30 2735 H 262.31 1.78688 -5.59772 0
M  V30 2736 H 263.834 2.7107 -5.47132 0
M  V30 2737 H 265.248 0.452384 -5.71512 0
M  V30 2738 H 263.645 -0.287992 -5.99409 0
M  V30 2739 H 264.715 -0.963391 -4.75233 0
M  V30 2740 N 266.058 1.56714 -0.166846 0
M  V30 2741 C 267.469 1.83378 0.350646 0
M  V30 2742 C 267.82 1.08646 1.63372 0
M  V30 2743 O 266.945 0.338058 2.13743 0
M  V30 2744 C 267.54 3.32643 0.642963 0
M  V30 2745 C 266.099 3.59818 1.10491 0
M  V30 2746 C 265.246 2.76954 0.138411 0
M  V30 2747 H 268.197 1.53803 -0.391193 0
M  V30 2748 H 268.218 3.49878 1.49551 0
M  V30 2749 H 267.73 3.87007 -0.291055 0
M  V30 2750 H 265.831 3.1086 2.05418 0
M  V30 2751 H 265.944 4.68178 1.01716 0
M  V30 2752 H 264.308 2.4666 0.634911 0
M  V30 2753 H 265.091 3.34097 -0.789549 0
M  V30 2754 N 267.536 -0.106894 1.57237 0
M  V30 2755 C 268.466 -1.13148 2.04254 0
M  V30 2756 C 269.447 -1.42476 0.929224 0
M  V30 2757 O 270.632 -1.52709 1.19973 0
M  V30 2758 C 267.762 -2.4545 2.45706 0
M  V30 2759 C 266.716 -2.30558 3.60592 0
M  V30 2760 C 266.042 -3.67931 3.87983 0
M  V30 2761 C 267.342 -1.75597 4.91897 0
M  V30 2762 H 269.036 -0.740374 2.90101 0
M  V30 2763 H 266.582 -0.354696 1.39563 0
M  V30 2764 H 268.535 -3.17389 2.77205 0
M  V30 2765 H 267.259 -2.86475 1.56843 0
M  V30 2766 H 265.918 -1.61067 3.29322 0
M  V30 2767 H 265.566 -4.06462 2.96306 0
M  V30 2768 H 265.266 -3.58817 4.65322 0
M  V30 2769 H 266.79 -4.41356 4.21945 0
M  V30 2770 H 268.204 -2.37364 5.21854 0
M  V30 2771 H 266.601 -1.77272 5.73319 0
M  V30 2772 H 267.671 -0.714451 4.79608 0
M  V30 2773 N 269.014 -1.53014 -0.377408 0
M  V30 2774 C 270.261 -1.68623 -1.12128 0
M  V30 2775 C 270.589 -0.431997 -1.89642 0
M  V30 2776 O 269.844 0.585855 -1.86725 0
M  V30 2777 C 270.143 -2.87982 -2.11663 0
M  V30 2778 C 269.809 -4.24964 -1.50719 0
M  V30 2779 C 268.471 -4.62217 -1.33825 0
M  V30 2780 C 270.823 -5.10199 -1.06519 0
M  V30 2781 C 268.151 -5.82352 -0.712963 0
M  V30 2782 C 270.503 -6.30969 -0.453955 0
M  V30 2783 C 269.167 -6.66944 -0.272411 0
M  V30 2784 H 268.437 -0.617034 -0.410305 0
M  V30 2785 H 271.084 -1.8718 -0.404484 0
M  V30 2786 H 269.389 -2.63889 -2.89603 0
M  V30 2787 H 271.086 -2.97253 -2.6915 0
M  V30 2788 H 267.676 -3.95626 -1.64858 0
M  V30 2789 H 271.86 -4.81978 -1.18368 0
M  V30 2790 H 267.116 -6.08824 -0.560611 0
M  V30 2791 H 271.29 -6.96324 -0.103217 0
M  V30 2792 H 268.917 -7.59898 0.214181 0
M  V30 2793 N 270.492 0.636531 -1.44174 0
M  V30 2794 C 271.738 1.39826 -1.4689 0
M  V30 2795 C 272.071 1.93947 -0.0990585 0
M  V30 2796 O 271.346 1.73325 0.882544 0
M  V30 2797 C 271.629 2.56751 -2.5249 0
M  V30 2798 C 271.482 2.08014 -3.98811 0
M  V30 2799 C 272.801 3.58946 -2.54649 0
M  V30 2800 H 269.92 0.507075 -0.53483 0
M  V30 2801 H 272.562 0.720188 -1.75822 0
M  V30 2802 H 270.712 3.14597 -2.2795 0
M  V30 2803 H 272.384 1.5504 -4.34466 0
M  V30 2804 H 270.627 1.39242 -4.10846 0
M  V30 2805 H 271.298 2.92169 -4.68339 0
M  V30 2806 H 273.774 3.1089 -2.76563 0
M  V30 2807 H 272.65 4.38286 -3.3045 0
M  V30 2808 H 272.911 4.12655 -1.58646 0
M  V30 2809 N 271.97 1.30982 0.876444 0
M  V30 2810 C 272.917 1.18085 1.98304 0
M  V30 2811 C 273.887 0.0682263 1.6596 0
M  V30 2812 O 275.072 0.239937 1.89285 0
M  V30 2813 C 272.212 0.887475 3.33493 0
M  V30 2814 C 271.325 2.08281 3.78475 0
M  V30 2815 C 270.46 1.72678 5.0235 0
M  V30 2816 C 269.499 2.88657 5.39762 0
M  V30 2817 N 268.636 2.53292 6.54819 0
M  V30 2818 H 273.476 2.1275 2.08666 0
M  V30 2819 H 271.013 1.05839 1.02159 0
M  V30 2820 H 272.971 0.697961 4.1132 0
M  V30 2821 H 271.601 -0.022315 3.22792 0
M  V30 2822 H 270.653 2.3833 2.96484 0
M  V30 2823 H 271.965 2.95108 4.02135 0
M  V30 2824 H 271.119 1.50151 5.87826 0
M  V30 2825 H 269.858 0.830327 4.8058 0
M  V30 2826 H 268.863 3.1184 4.52809 0
M  V30 2827 H 270.088 3.79002 5.63502 0
M  V30 2828 H 268.034 1.66163 6.34607 0
M  V30 2829 H 267.951 3.3365 6.7839 0
M  V30 2830 H 269.219 2.34143 7.43503 0
M  V30 2831 N 273.449 -1.08991 1.13837 0
M  V30 2832 C 274.86 -1.62746 0.914917 0
M  V30 2833 C 275.211 -1.88403 -0.547594 0
M  V30 2834 O 274.336 -1.63706 -1.41525 0
M  V30 2835 C 274.931 -2.95662 1.65437 0
M  V30 2836 C 273.49 -3.46225 1.47666 0
M  V30 2837 C 272.637 -2.20562 1.6807 0
M  V30 2838 H 275.588 -0.922946 1.29102 0
M  V30 2839 H 275.609 -3.63825 1.11407 0
M  V30 2840 H 275.121 -2.76956 2.71877 0
M  V30 2841 H 273.222 -3.70046 0.435478 0
M  V30 2842 H 273.335 -4.23368 2.24268 0
M  V30 2843 H 271.699 -2.29439 1.10589 0
M  V30 2844 H 272.482 -2.0437 2.7584 0
M  V30 2845 N 274.927 -0.932562 -1.27047 0
M  V30 2846 C 275.89 -0.440064 -2.24936 0
M  V30 2847 C 276.89 0.444071 -1.54547 0
M  V30 2848 O 278.08 0.244465 -1.72476 0
M  V30 2849 C 275.212 0.36678 -3.38921 0
M  V30 2850 H 276.405 -1.305 -2.70018 0
M  V30 2851 H 273.958 -0.713707 -1.39054 0
M  V30 2852 H 274.693 1.25033 -2.99228 0
M  V30 2853 H 274.478 -0.267204 -3.91188 0
M  V30 2854 H 275.968 0.701567 -4.11665 0
M  V30 2855 N 276.405 1.4127 -0.698611 0
M  V30 2856 C 277.353 2.32588 -0.023855 0
M  V30 2857 C 278.347 1.51128 0.765292 0
M  V30 2858 O 279.553 1.67043 0.670571 0
M  V30 2859 H 275.928 0.751918 0.0110871 0
M  V30 2860 H 277.899 2.87167 -0.811031 0
M  V30 2861 C 276.648 3.35947 0.896369 0
M  V30 2862 H 275.971 3.98684 0.298548 0
M  V30 2863 H 277.411 4.02376 1.33676 0
M  V30 2864 C 275.87 2.70076 2.01396 0
M  V30 2865 O 276.4 2.55093 3.10307 0
M  V30 2866 N 274.606 2.28724 1.79259 0
M  V30 2867 H 274.153 2.4111 0.906841 0
M  V30 2868 H 274.111 1.84986 2.54219 0
M  V30 2869 N 277.883 0.443576 1.51229 0
M  V30 2870 C 278.815 -0.400608 2.25672 0
M  V30 2871 C 279.828 -0.980945 1.29928 0
M  V30 2872 O 281.017 -0.874024 1.55638 0
M  V30 2873 C 278.117 -1.57304 3.00181 0
M  V30 2874 C 277.29 -1.11046 4.23069 0
M  V30 2875 C 276.349 -2.15374 4.80105 0
M  V30 2876 O 275.375 -1.74554 5.41774 0
M  V30 2877 N 276.577 -3.47922 4.64683 0
M  V30 2878 H 279.342 0.23745 2.98758 0
M  V30 2879 H 276.903 0.272809 1.59585 0
M  V30 2880 H 278.895 -2.26733 3.35223 0
M  V30 2881 H 277.465 -2.11632 2.30066 0
M  V30 2882 H 276.685 -0.243019 3.9345 0
M  V30 2883 H 277.973 -0.778888 5.02803 0
M  V30 2884 H 277.371 -3.83815 4.15575 0
M  V30 2885 H 275.928 -4.13228 5.0407 0
M  V30 2886 N 279.361 -1.56624 0.175154 0
M  V30 2887 C 280.609 -1.96609 -0.467885 0
M  V30 2888 C 280.93 -1.06238 -1.63519 0
M  V30 2889 O 280.2 -0.129523 -1.95471 0
M  V30 2890 H 278.78 -0.726008 -0.175845 0
M  V30 2891 H 281.442 -1.93195 0.257234 0
M  V30 2892 H 280.538 -3.00989 -0.825342 0
M  V30 2893 N 280.839 0.0985539 -1.57292 0
M  V30 2894 C 282.064 0.820196 -1.90493 0
M  V30 2895 C 282.489 1.71658 -0.769094 0
M  V30 2896 O 281.847 1.79133 0.279495 0
M  V30 2897 C 281.895 1.61242 -3.22542 0
M  V30 2898 O 280.999 2.72108 -3.09888 0
M  V30 2899 H 280.34 0.225547 -0.62452 0
M  V30 2900 H 282.87 0.0748159 -2.04463 0
M  V30 2901 H 282.88 1.99737 -3.55766 0
M  V30 2902 H 281.555 0.954535 -4.04798 0
M  V30 2903 H 280.132 2.36667 -2.88172 0
M  V30 2904 N 282.317 1.53212 0.369288 0
M  V30 2905 C 283.542 1.73423 1.1375 0
M  V30 2906 C 283.967 0.460404 1.82378 0
M  V30 2907 O 283.325 -0.585298 1.71592 0
M  V30 2908 C 283.373 2.89769 2.1463 0
M  V30 2909 O 282.477 2.58119 3.21634 0
M  V30 2910 H 281.818 0.576061 0.330227 0
M  V30 2911 H 284.348 2.00083 0.427547 0
M  V30 2912 H 284.358 3.15829 2.58294 0
M  V30 2913 H 283.033 3.8217 1.64071 0
M  V30 2914 H 281.61 2.42864 2.82969 0
M  V30 2915 N 283.795 -0.628877 1.44509 0
M  V30 2916 C 285.041 -1.39045 1.47629 0
M  V30 2917 C 285.374 -1.93892 0.109343 0
M  V30 2918 O 284.649 -1.7379 -0.87334 0
M  V30 2919 C 284.932 -2.55408 2.53848 0
M  V30 2920 C 284.785 -2.05896 3.99909 0
M  V30 2921 C 286.104 -3.5759 2.56549 0
M  V30 2922 H 283.223 -0.504232 0.537512 0
M  V30 2923 H 285.865 -0.710854 1.76201 0
M  V30 2924 H 284.015 -3.13384 2.29615 0
M  V30 2925 H 285.687 -1.52734 4.35282 0
M  V30 2926 H 283.93 -1.37061 4.11578 0
M  V30 2927 H 284.601 -2.89681 4.69882 0
M  V30 2928 H 287.077 -3.09419 2.78207 0
M  V30 2929 H 285.953 -4.36527 3.32769 0
M  V30 2930 H 286.214 -4.11808 1.60832 0
M  V30 2931 N 285.273 -1.31445 -0.869486 0
M  V30 2932 C 286.521 -1.20918 -1.61936 0
M  V30 2933 C 286.842 0.232683 -1.93607 0
M  V30 2934 O 286.112 1.15352 -1.58338 0
M  V30 2935 H 284.692 -0.44454 -0.600328 0
M  V30 2936 H 287.354 -1.64776 -1.0409 0
M  V30 2937 H 286.45 -1.78124 -2.56278 0
M  V30 2938 N 286.751 1.08385 -1.14413 0
M  V30 2939 C 287.997 1.81044 -0.913834 0
M  V30 2940 C 288.33 1.86004 0.558209 0
M  V30 2941 O 287.605 1.33606 1.4135 0
M  V30 2942 C 287.888 3.26648 -1.51569 0
M  V30 2943 C 287.741 3.29895 -3.0576 0
M  V30 2944 C 289.06 4.23629 -1.19273 0
M  V30 2945 H 286.179 0.65727 -0.333414 0
M  V30 2946 H 288.821 1.26896 -1.41412 0
M  V30 2947 H 286.971 3.72889 -1.09023 0
M  V30 2948 H 288.643 2.91977 -3.57137 0
M  V30 2949 H 286.886 2.69163 -3.40197 0
M  V30 2950 H 287.557 4.32516 -3.42977 0
M  V30 2951 H 290.033 3.85727 -1.56057 0
M  V30 2952 H 288.909 5.23822 -1.64017 0
M  V30 2953 H 289.17 4.41968 -0.108068 0
M  V30 2954 N 288.23 0.939286 1.26551 0
M  V30 2955 C 289.455 0.602008 1.98471 0
M  V30 2956 C 289.88 -0.815624 1.69497 0
M  V30 2957 O 289.238 -1.54912 0.941905 0
M  V30 2958 C 289.286 0.848407 3.50477 0
M  V30 2959 O 288.39 -0.0804009 4.12322 0
M  V30 2960 H 287.731 0.23049 0.622712 0
M  V30 2961 H 290.261 1.2617 1.61066 0
M  V30 2962 H 290.271 0.768553 4.00696 0
M  V30 2963 H 288.946 1.88171 3.70897 0
M  V30 2964 H 287.523 0.0503508 3.72866 0
M  V30 2965 N 289.708 -1.40897 0.706093 0
M  V30 2966 C 290.655 -2.30751 0.0474474 0
M  V30 2967 C 291.625 -1.47678 -0.76029 0
M  V30 2968 O 292.81 -1.76441 -0.726177 0
M  V30 2969 C 289.95 -3.33815 -0.875309 0
M  V30 2970 C 289.063 -4.31961 -0.0580623 0
M  V30 2971 C 288.198 -5.22093 -0.979425 0
M  V30 2972 C 287.237 -6.11902 -0.155706 0
M  V30 2973 N 286.374 -6.94482 -1.03144 0
M  V30 2974 H 291.214 -2.86513 0.819413 0
M  V30 2975 H 288.751 -1.41102 0.415783 0
M  V30 2976 H 290.709 -3.92129 -1.42446 0
M  V30 2977 H 289.339 -2.79579 -1.61356 0
M  V30 2978 H 288.391 -3.75507 0.608147 0
M  V30 2979 H 289.703 -4.95415 0.580082 0
M  V30 2980 H 288.857 -5.85292 -1.59744 0
M  V30 2981 H 287.596 -4.5889 -1.65141 0
M  V30 2982 H 286.601 -5.47742 0.475309 0
M  V30 2983 H 287.826 -6.77162 0.512635 0
M  V30 2984 H 285.772 -6.33877 -1.68924 0
M  V30 2985 H 285.689 -7.54665 -0.449108 0
M  V30 2986 H 286.957 -7.6214 -1.63593 0
M  V30 2987 N 291.186 -0.45159 -1.50991 0
M  V30 2988 C 292.432 0.110237 -2.025 0
M  V30 2989 C 292.765 1.41109 -1.33424 0
M  V30 2990 O 292.04 1.89135 -0.453659 0
M  V30 2991 C 292.323 0.314271 -3.58726 0
M  V30 2992 C 292.176 -1.00623 -4.38401 0
M  V30 2993 C 293.495 1.07767 -4.26702 0
M  V30 2994 H 290.614 0.0385897 -0.735989 0
M  V30 2995 H 293.256 -0.593374 -1.80497 0
M  V30 2996 H 291.406 0.913601 -3.77605 0
M  V30 2997 H 293.078 -1.64064 -4.31139 0
M  V30 2998 H 291.321 -1.6075 -4.02917 0
M  V30 2999 H 291.992 -0.817341 -5.45915 0
M  V30 3000 H 294.468 0.56986 -4.12179 0
M  V30 3001 H 293.344 1.18921 -5.35863 0
M  V30 3002 H 293.605 2.10939 -3.88532 0
M  V30 3003 N 292.664 1.56529 -0.183458 0
M  V30 3004 C 293.892 2.01623 0.464285 0
M  V30 3005 C 294.307 1.06366 1.55986 0
M  V30 3006 O 293.664 0.0665398 1.82379 0
M  V30 3007 C 293.715 3.46475 1.03139 0
M  V30 3008 O 293.436 4.38095 -0.0204675 0
M  V30 3009 C 294.937 4.0703 1.75617 0
M  V30 3010 H 292.157 0.660596 0.117704 0
M  V30 3011 H 294.701 2.02451 -0.288751 0
M  V30 3012 H 292.856 3.46383 1.73486 0
M  V30 3013 H 293.27 5.22973 0.399952 0
M  V30 3014 H 294.744 5.10271 2.10542 0
M  V30 3015 H 295.221 3.49819 2.65563 0
M  V30 3016 H 295.827 4.1086 1.09882 0
M  V30 3017 N 294.142 -0.090211 1.57342 0
M  V30 3018 C 295.367 -0.810082 1.90925 0
M  V30 3019 C 295.792 -1.71248 0.778187 0
M  V30 3020 O 295.15 -1.79278 -0.269991 0
M  V30 3021 C 295.198 -1.59529 3.23393 0
M  V30 3022 O 294.302 -2.70461 3.11327 0
M  V30 3023 H 293.643 -0.222231 0.625707 0
M  V30 3024 H 296.173 -0.0639716 2.045 0
M  V30 3025 H 296.183 -1.97847 3.5682 0
M  V30 3026 H 294.858 -0.933055 4.05299 0
M  V30 3027 H 293.435 -2.35135 2.89423 0
M  V30 3028 N 295.62 -1.53406 -0.361157 0
M  V30 3029 C 296.53 -1.83122 -1.4664 0
M  V30 3030 C 297.546 -0.719943 -1.58407 0
M  V30 3031 O 298.722 -1.01046 -1.74218 0
M  V30 3032 C 295.787 -2.01891 -2.81853 0
M  V30 3033 C 294.848 -3.25784 -2.79577 0
M  V30 3034 C 294.081 -3.43648 -4.0834 0
M  V30 3035 O 294.304 -2.65714 -5.0473 0
M  V30 3036 O 293.238 -4.37018 -4.13883 0
M  V30 3037 H 297.064 -2.7703 -1.24451 0
M  V30 3038 H 294.649 -1.38841 -0.551678 0
M  V30 3039 H 296.531 -2.15782 -3.61962 0
M  V30 3040 H 295.206 -1.11173 -3.0401 0
M  V30 3041 H 294.113 -3.17312 -1.98151 0
M  V30 3042 H 295.446 -4.16439 -2.62373 0
M  V30 3043 N 297.098 0.621204 -1.44841 0
M  V30 3044 C 298.008 1.7612 -1.5498 0
M  V30 3045 C 299.024 1.68477 -0.434927 0
M  V30 3046 O 300.2 1.89076 -0.693693 0
M  V30 3047 C 297.265 3.1254 -1.50065 0
M  V30 3048 C 296.326 3.31741 -2.72482 0
M  V30 3049 C 295.559 4.61653 -2.67792 0
M  V30 3050 O 295.782 5.431 -1.74352 0
M  V30 3051 O 294.716 4.83271 -3.58794 0
M  V30 3052 H 298.542 1.70518 -2.51311 0
M  V30 3053 H 296.127 0.783643 -1.27198 0
M  V30 3054 H 298.009 3.93844 -1.49882 0
M  V30 3055 H 296.684 3.18663 -0.568806 0
M  V30 3056 H 295.591 2.50077 -2.7823 0
M  V30 3057 H 296.924 3.30486 -3.64746 0
M  V30 3058 N 298.576 1.31904 0.862503 0
M  V30 3059 C 299.508 1.16005 1.97675 0
M  V30 3060 C 300.521 0.0971234 1.6251 0
M  V30 3061 O 301.71 0.345337 1.75128 0
M  V30 3062 C 298.81 0.751791 3.30456 0
M  V30 3063 C 297.983 1.90133 3.93914 0
M  V30 3064 C 297.042 1.4779 5.05019 0
M  V30 3065 O 296.068 2.18872 5.25437 0
M  V30 3066 N 297.27 0.369491 5.79323 0
M  V30 3067 H 300.035 2.11982 2.11857 0
M  V30 3068 H 297.596 1.24337 1.03691 0
M  V30 3069 H 299.588 0.451084 4.02178 0
M  V30 3070 H 298.158 -0.116593 3.12382 0
M  V30 3071 H 297.378 2.36896 3.15078 0
M  V30 3072 H 298.666 2.67111 4.33047 0
M  V30 3073 H 298.064 -0.222299 5.65263 0
M  V30 3074 H 296.621 0.128354 6.51674 0
M  V30 3075 N 300.054 -1.07777 1.14986 0
M  V30 3076 C 301.284 -1.83752 0.944402 0
M  V30 3077 C 301.692 -1.8218 -0.51058 0
M  V30 3078 O 301.035 -1.22852 -1.36576 0
M  V30 3079 C 301.097 -3.32128 1.37592 0
M  V30 3080 C 300.761 -3.57425 2.84775 0
M  V30 3081 C 301.758 -3.5173 3.8286 0
M  V30 3082 C 299.443 -3.8523 3.2234 0
M  V30 3083 C 301.437 -3.73482 5.16517 0
M  V30 3084 C 299.124 -4.06634 4.56171 0
M  V30 3085 C 300.122 -4.00754 5.53069 0
M  V30 3086 O 299.81 -4.2159 6.84483 0
M  V30 3087 H 299.542 -0.58673 0.335744 0
M  V30 3088 H 302.096 -1.36982 1.53052 0
M  V30 3089 H 300.326 -3.79686 0.733165 0
M  V30 3090 H 302.015 -3.89555 1.14024 0
M  V30 3091 H 302.781 -3.30256 3.55184 0
M  V30 3092 H 298.66 -3.88923 2.47508 0
M  V30 3093 H 302.204 -3.68808 5.92137 0
M  V30 3094 H 298.101 -4.27593 4.83564 0
M  V30 3095 H 298.869 -4.38961 6.90837 0
M  V30 3096 N 301.532 -0.945985 -1.26051 0
M  V30 3097 C 302.495 -0.463897 -2.24456 0
M  V30 3098 C 303.495 0.427655 -1.55009 0
M  V30 3099 O 304.685 0.226157 -1.72726 0
M  V30 3100 C 301.817 0.330812 -3.39291 0
M  V30 3101 H 303.01 -1.33357 -2.68619 0
M  V30 3102 H 300.563 -0.728416 -1.38289 0
M  V30 3103 H 301.298 1.21852 -3.00537 0
M  V30 3104 H 301.083 -0.308679 -3.90883 0
M  V30 3105 H 302.573 0.657865 -4.12386 0
M  V30 3106 N 303.011 1.40521 -0.713556 0
M  V30 3107 C 304.26 2.00155 -0.249192 0
M  V30 3108 C 304.573 1.57224 1.16362 0
M  V30 3109 O 305.779 2.09542 1.72639 0
M  V30 3110 C 304.235 3.5773 -0.3946 0
M  V30 3111 C 303.843 4.09635 -1.81392 0
M  V30 3112 C 305.587 4.24499 0.00907364 0
M  V30 3113 C 303.494 5.59707 -1.91003 0
M  V30 3114 H 302.424 0.74868 -0.0894114 0
M  V30 3115 H 305.075 1.60784 -0.884352 0
M  V30 3116 H 303.457 3.94792 0.30911 0
M  V30 3117 H 304.631 3.83955 -2.54785 0
M  V30 3118 H 302.946 3.55456 -2.16888 0
M  V30 3119 H 305.543 5.34683 -0.0420404 0
M  V30 3120 H 305.886 4.02824 1.05065 0
M  V30 3121 H 306.419 3.92536 -0.645007 0
M  V30 3122 H 303.158 5.86234 -2.93275 0
M  V30 3123 H 302.678 5.87258 -1.22019 0
M  V30 3124 H 304.357 6.24776 -1.6812 0
M  V30 3125 N 304.489 0.459591 1.5075 0
M  V30 3126 C 305.452 -0.329093 2.26825 0
M  V30 3127 C 306.452 -0.930481 1.31144 0
M  V30 3128 O 307.642 -0.801453 1.54669 0
M  V30 3129 C 304.774 -1.46768 3.07688 0
M  V30 3130 H 305.967 0.337924 2.9799 0
M  V30 3131 H 303.52 0.213336 1.54837 0
M  V30 3132 H 304.255 -2.17009 2.40993 0
M  V30 3133 H 304.04 -1.04238 3.77991 0
M  V30 3134 H 305.53 -2.02433 3.65254 0
M  V30 3135 N 305.967 -1.56429 0.191757 0
M  V30 3136 C 307.213 -1.97777 -0.448554 0
M  V30 3137 C 307.546 -1.07847 -1.61501 0
M  V30 3138 O 306.821 -0.129774 -1.94067 0
M  V30 3139 C 307.104 -3.48362 -0.911906 0
M  V30 3140 C 306.957 -4.4907 0.256136 0
M  V30 3141 C 308.276 -4.02561 -1.77857 0
M  V30 3142 H 305.395 -0.719071 -0.161572 0
M  V30 3143 H 308.037 -1.87896 0.282007 0
M  V30 3144 H 306.187 -3.56914 -1.53442 0
M  V30 3145 H 307.859 -4.5256 0.893733 0
M  V30 3146 H 306.102 -4.24181 0.908436 0
M  V30 3147 H 306.773 -5.51889 -0.11053 0
M  V30 3148 H 309.249 -3.96767 -1.25359 0
M  V30 3149 H 308.125 -5.08301 -2.07174 0
M  V30 3150 H 308.386 -3.47616 -2.73158 0
M  V30 3151 N 307.445 0.0818655 -1.57387 0
M  V30 3152 C 308.722 0.815343 -1.77796 0
M  V30 3153 C 309.102 1.96289 -0.77679 0
M  V30 3154 O 308.45 2.27691 0.192106 0
M  V30 3155 C 308.66 1.29765 -3.23978 0
M  V30 3156 C 310.008 1.7351 -3.8753 0
M  V30 3157 O 311.032 1.39356 -3.27808 0
M  V30 3158 O 309.891 2.36708 -4.92576 0
M  V30 3159 H 306.985 0.389914 -0.729312 0
M  V30 3160 H 309.531 0.0627213 -1.69584 0
M  V30 3161 H 308.303 0.47608 -3.88393 0
M  V30 3162 H 307.926 2.11189 -3.36875 0
M  V30 3163 N 308.923 1.53595 0.353017 0
M  V30 3164 C 309.853 1.83902 1.43883 0
M  V30 3165 C 310.834 0.693421 1.55324 0
M  V30 3166 O 312.019 0.944452 1.69687 0
M  V30 3167 C 309.149 2.04016 2.8106 0
M  V30 3168 C 308.103 3.19814 2.84434 0
M  V30 3169 C 307.429 3.25244 4.24406 0
M  V30 3170 C 308.729 4.58133 2.50822 0
M  V30 3171 H 310.423 2.74835 1.1877 0
M  V30 3172 H 307.969 1.32242 0.569917 0
M  V30 3173 H 309.922 2.238 3.57059 0
M  V30 3174 H 308.646 1.09804 3.07588 0
M  V30 3175 H 307.305 2.9987 2.10887 0
M  V30 3176 H 306.953 2.28646 4.48029 0
M  V30 3177 H 306.653 4.03054 4.27576 0
M  V30 3178 H 308.177 3.47228 5.0226 0
M  V30 3179 H 309.591 4.77995 3.16534 0
M  V30 3180 H 307.988 5.38276 2.6529 0
M  V30 3181 H 309.058 4.62387 1.46034 0
M  V30 3182 N 310.401 -0.613514 1.45168 0
M  V30 3183 C 311.364 -1.7065 1.53007 0
M  V30 3184 C 312.364 -1.5548 0.410184 0
M  V30 3185 O 313.554 -1.60656 0.673455 0
M  V30 3186 C 310.686 -3.09875 1.42093 0
M  V30 3187 H 311.879 -1.65068 2.50385 0
M  V30 3188 H 309.432 -0.828728 1.32521 0
M  V30 3189 H 310.167 -3.21039 0.458769 0
M  V30 3190 H 309.952 -3.22293 2.23315 0
M  V30 3191 H 311.442 -3.895 1.50598 0
M  V30 3192 N 311.879 -1.3236 -0.855495 0
M  V30 3193 C 313.126 -1.22872 -1.60962 0
M  V30 3194 C 313.454 0.209658 -1.93367 0
M  V30 3195 O 312.709 1.16243 -1.57436 0
M  V30 3196 C 313.008 -2.03275 -2.93963 0
M  V30 3197 C 312.674 -3.5264 -2.80991 0
M  V30 3198 C 311.336 -3.93364 -2.7716 0
M  V30 3199 C 313.688 -4.47626 -2.66983 0
M  V30 3200 C 311.016 -5.27319 -2.572 0
M  V30 3201 C 313.368 -5.81723 -2.48558 0
M  V30 3202 C 312.032 -6.2165 -2.4312 0
M  V30 3203 H 311.302 -0.44962 -0.589001 0
M  V30 3204 H 313.949 -1.63777 -0.992442 0
M  V30 3205 H 312.254 -1.55095 -3.59795 0
M  V30 3206 H 313.951 -1.93303 -3.51333 0
M  V30 3207 H 310.541 -3.20295 -2.84797 0
M  V30 3208 H 314.725 -4.17084 -2.68988 0
M  V30 3209 H 309.981 -5.57311 -2.51424 0
M  V30 3210 H 314.155 -6.5494 -2.36699 0
M  V30 3211 H 311.782 -7.25388 -2.27412 0
M  V30 3212 N 313.357 1.07166 -1.15556 0
M  V30 3213 C 314.267 2.17947 -0.868116 0
M  V30 3214 C 315.283 1.73297 0.156297 0
M  V30 3215 O 316.459 2.01392 -0.0182327 0
M  V30 3216 C 313.524 3.44789 -0.36355 0
M  V30 3217 C 312.585 4.03996 -1.45209 0
M  V30 3218 C 311.818 5.24783 -0.971508 0
M  V30 3219 O 312.041 5.70109 0.182194 0
M  V30 3220 O 310.975 5.75715 -1.75603 0
M  V30 3221 H 314.801 2.4503 -1.79427 0
M  V30 3222 H 312.386 1.16539 -0.934824 0
M  V30 3223 H 314.268 4.21307 -0.0887113 0
M  V30 3224 H 312.943 3.19253 0.534708 0
M  V30 3225 H 311.85 3.29009 -1.78056 0
M  V30 3226 H 313.183 4.33808 -2.32533 0
M  V30 3227 N 314.835 0.952656 1.25548 0
M  V30 3228 C 316.082 0.606373 1.93208 0
M  V30 3229 C 316.41 -0.85631 1.74636 0
M  V30 3230 O 315.665 -1.62951 1.08376 0
M  V30 3231 C 315.964 0.908818 3.45652 0
M  V30 3232 C 315.63 2.35722 3.84378 0
M  V30 3233 C 314.292 2.75312 3.9466 0
M  V30 3234 C 316.644 3.29793 4.03591 0
M  V30 3235 C 313.972 4.08047 4.21562 0
M  V30 3236 C 316.324 4.62138 4.31985 0
M  V30 3237 C 314.988 5.01528 4.40484 0
M  V30 3238 H 314.258 0.221888 0.706998 0
M  V30 3239 H 316.905 1.20132 1.49133 0
M  V30 3240 H 315.21 0.231456 3.91116 0
M  V30 3241 H 316.907 0.619498 3.96186 0
M  V30 3242 H 313.497 2.04017 3.76928 0
M  V30 3243 H 317.681 3.00397 3.95064 0
M  V30 3244 H 312.937 4.38212 4.26357 0
M  V30 3245 H 317.111 5.35012 4.45797 0
M  V30 3246 H 314.738 6.04406 4.61083 0
M  V30 3247 N 316.313 -1.40141 0.720998 0
M  V30 3248 C 317.59 -1.94677 0.189757 0
M  V30 3249 C 317.97 -1.65879 -1.30566 0
M  V30 3250 O 317.318 -0.979391 -2.06447 0
M  V30 3251 C 317.528 -3.45279 0.508304 0
M  V30 3252 C 318.876 -4.22209 0.449934 0
M  V30 3253 O 319.9 -3.53413 0.444677 0
M  V30 3254 O 318.759 -5.44788 0.432189 0
M  V30 3255 H 315.853 -0.826459 0.0299026 0
M  V30 3256 H 318.399 -1.49719 0.7989 0
M  V30 3257 H 317.171 -3.59619 1.54239 0
M  V30 3258 H 316.794 -3.97386 -0.130525 0
M  V30 3259 N 317.792 -0.46758 -1.50504 0
M  V30 3260 C 318.742 0.34698 -2.25344 0
M  V30 3261 C 319.726 0.964469 -1.2879 0
M  V30 3262 O 320.918 0.8776 -1.53711 0
M  V30 3263 C 318.047 1.43042 -3.1208 0
M  V30 3264 C 317.133 0.82084 -4.16081 0
M  V30 3265 N 317.524 -0.0567602 -5.05768 0
M  V30 3266 C 315.822 1.08517 -4.32597 0
M  V30 3267 C 316.523 -0.402343 -5.80307 0
M  V30 3268 N 315.499 0.221607 -5.43148 0
M  V30 3269 H 319.301 -0.329129 -2.92051 0
M  V30 3270 H 316.815 -0.281508 -1.59942 0
M  V30 3271 H 318.812 2.02712 -3.64299 0
M  V30 3272 H 317.472 2.10856 -2.46921 0
M  V30 3273 H 318.483 -0.425349 -5.1615 0
M  V30 3274 H 315.16 1.75855 -3.78657 0
M  V30 3275 H 316.55 -1.11834 -6.62528 0
M  V30 3276 N 319.27 1.56325 -0.20005 0
M  V30 3277 C 320.217 2.1932 0.718833 0
M  V30 3278 C 321.187 1.14198 1.20615 0
M  V30 3279 O 322.372 1.42469 1.26914 0
M  V30 3280 C 319.512 2.86041 1.93066 0
M  V30 3281 C 318.625 4.05702 1.48425 0
M  V30 3282 C 317.76 4.60266 2.65196 0
M  V30 3283 C 316.799 5.72273 2.17185 0
M  V30 3284 N 315.936 6.21221 3.27152 0
M  V30 3285 H 320.776 2.97486 0.17489 0
M  V30 3286 H 318.313 1.46911 0.0745794 0
M  V30 3287 H 320.271 3.22897 2.64184 0
M  V30 3288 H 318.901 2.1043 2.44783 0
M  V30 3289 H 317.953 3.74475 0.668755 0
M  V30 3290 H 319.265 4.86699 1.09204 0
M  V30 3291 H 318.419 4.99453 3.4443 0
M  V30 3292 H 317.158 3.78386 3.07693 0
M  V30 3293 H 316.163 5.3261 1.36407 0
M  V30 3294 H 317.388 6.55974 1.75713 0
M  V30 3295 H 315.334 5.42263 3.69171 0
M  V30 3296 H 315.251 6.97284 2.92116 0
M  V30 3297 H 316.519 6.65063 4.06585 0
M  V30 3298 N 320.748 -0.0735177 1.57428 0
M  V30 3299 C 321.994 -0.774145 1.87443 0
M  V30 3300 C 322.327 -1.77311 0.792103 0
M  V30 3301 O 321.602 -1.93492 -0.197793 0
M  V30 3302 C 321.885 -1.48367 3.28115 0
M  V30 3303 C 321.738 -0.501227 4.46999 0
M  V30 3304 C 323.057 -2.429 3.66998 0
M  V30 3305 H 320.176 -0.279971 0.681752 0
M  V30 3306 H 322.818 -0.0373616 1.89963 0
M  V30 3307 H 320.968 -2.11171 3.26097 0
M  V30 3308 H 322.64 0.121468 4.6114 0
M  V30 3309 H 320.883 0.183593 4.33411 0
M  V30 3310 H 321.554 -1.03526 5.42205 0
M  V30 3311 H 324.03 -1.90175 3.70098 0
M  V30 3312 H 322.906 -2.89549 4.66318 0
M  V30 3313 H 323.167 -3.27628 2.96837 0
M  V30 3314 N 322.226 -1.5378 -0.344866 0
M  V30 3315 C 323.475 -1.7018 -1.08267 0
M  V30 3316 C 323.788 -0.471 -1.89845 0
M  V30 3317 O 324.994 -0.515917 -2.66553 0
M  V30 3318 C 323.45 -3.00923 -1.97417 0
M  V30 3319 C 323.058 -4.31335 -1.21053 0
M  V30 3320 C 324.802 -3.26688 -2.71063 0
M  V30 3321 C 322.709 -5.53153 -2.09225 0
M  V30 3322 H 321.639 -0.634138 -0.407903 0
M  V30 3323 H 324.29 -1.8028 -0.342246 0
M  V30 3324 H 322.672 -2.84676 -2.75274 0
M  V30 3325 H 323.846 -4.58281 -0.481159 0
M  V30 3326 H 322.161 -4.12173 -0.591813 0
M  V30 3327 H 324.758 -4.1489 -3.37299 0
M  V30 3328 H 325.101 -2.43639 -3.37558 0
M  V30 3329 H 325.634 -3.43705 -2.0028 0
M  V30 3330 H 322.373 -6.38741 -1.47274 0
M  V30 3331 H 321.893 -5.30458 -2.79955 0
M  V30 3332 H 323.572 -5.88744 -2.68308 0
M  V30 3333 N 323.704 0.605807 -1.45491 0
M  V30 3334 C 324.95 1.36679 -1.49823 0
M  V30 3335 C 325.283 1.93693 -0.140175 0
M  V30 3336 O 324.558 1.75158 0.845581 0
M  V30 3337 C 324.841 2.51337 -2.57879 0
M  V30 3338 C 324.694 1.99508 -4.03134 0
M  V30 3339 C 326.013 3.53463 -2.62205 0
M  V30 3340 H 323.132 0.495617 -0.545466 0
M  V30 3341 H 325.774 0.682732 -1.7731 0
M  V30 3342 H 323.924 3.09691 -2.34571 0
M  V30 3343 H 325.596 1.45789 -4.37656 0
M  V30 3344 H 323.839 1.30496 -4.13707 0
M  V30 3345 H 324.51 2.82169 -4.74431 0
M  V30 3346 H 326.986 3.04953 -2.83095 0
M  V30 3347 H 325.862 4.31178 -3.39672 0
M  V30 3348 H 326.123 4.09197 -1.67363 0
M  V30 3349 N 325.182 1.32811 0.848464 0
M  V30 3350 C 326.092 1.24278 1.98978 0
M  V30 3351 C 327.108 0.155176 1.73307 0
M  V30 3352 O 328.284 0.376999 1.9784 0
M  V30 3353 C 325.349 0.972444 3.32783 0
M  V30 3354 C 324.41 2.14911 3.71634 0
M  V30 3355 C 323.643 1.89157 4.99054 0
M  V30 3356 O 323.866 0.837165 5.64223 0
M  V30 3357 O 322.8 2.75433 5.35183 0
M  V30 3358 H 326.626 2.20238 2.09115 0
M  V30 3359 H 324.211 1.12762 0.980052 0
M  V30 3360 H 326.093 0.838432 4.12975 0
M  V30 3361 H 324.768 0.043051 3.23671 0
M  V30 3362 H 323.675 2.33862 2.91992 0
M  V30 3363 H 325.008 3.06151 3.85399 0
M  V30 3364 N 326.66 -1.06551 1.16123 0
M  V30 3365 C 327.592 -2.13908 0.823171 0
M  V30 3366 C 328.605 -1.61926 -0.16843 0
M  V30 3367 O 329.794 -1.78412 0.055962 0
M  V30 3368 C 326.894 -3.38283 0.204424 0
M  V30 3369 C 326.067 -4.19589 1.23548 0
M  V30 3370 C 325.126 -5.2233 0.637011 0
M  V30 3371 O 324.152 -5.54034 1.30516 0
M  V30 3372 N 325.354 -5.77621 -0.577474 0
M  V30 3373 H 328.119 -2.43508 1.74711 0
M  V30 3374 H 325.68 -1.2253 1.05821 0
M  V30 3375 H 327.672 -4.0416 -0.208909 0
M  V30 3376 H 326.242 -3.06329 -0.623012 0
M  V30 3377 H 325.462 -3.49406 1.82507 0
M  V30 3378 H 326.75 -4.70718 1.93137 0
M  V30 3379 H 326.148 -5.54125 -1.13853 0
M  V30 3380 H 324.705 -6.45087 -0.933053 0
M  V30 3381 N 328.138 -0.959301 -1.25041 0
M  V30 3382 C 329.386 -0.615393 -1.92503 0
M  V30 3383 C 329.707 0.850969 -1.75452 0
M  V30 3384 O 328.977 1.60658 -1.12098 0
M  V30 3385 H 327.557 -0.224613 -0.712431 0
M  V30 3386 H 330.219 -1.21855 -1.5211 0
M  V30 3387 H 329.315 -0.848738 -3.00338 0
M  V30 3388 N 329.616 1.39756 -0.72842 0
M  V30 3389 C 330.865 1.99879 -0.270407 0
M  V30 3390 C 331.178 1.58449 1.14688 0
M  V30 3391 O 332.384 2.11362 1.70407 0
M  V30 3392 C 330.84 3.57292 -0.43252 0
M  V30 3393 C 330.448 4.07688 -1.85727 0
M  V30 3394 C 332.192 4.24485 -0.0359507 0
M  V30 3395 C 330.099 5.5765 -1.96928 0
M  V30 3396 H 329.029 0.747689 -0.0973472 0
M  V30 3397 H 331.68 1.59837 -0.901355 0
M  V30 3398 H 330.062 3.95097 0.267219 0
M  V30 3399 H 331.236 3.81231 -2.58843 0
M  V30 3400 H 329.551 3.53135 -2.20646 0
M  V30 3401 H 332.148 5.34609 -0.0987484 0
M  V30 3402 H 332.491 4.03915 1.00787 0
M  V30 3403 H 333.024 3.9183 -0.686604 0
M  V30 3404 H 329.763 5.8309 -2.99476 0
M  V30 3405 H 329.283 5.8593 -1.28241 0
M  V30 3406 H 330.962 6.22957 -1.74737 0
M  V30 3407 N 331.094 0.475555 1.50254 0
M  V30 3408 C 332.041 -0.316293 2.28622 0
M  V30 3409 C 333.011 -0.983227 1.33873 0
M  V30 3410 O 334.196 -0.994805 1.62814 0
M  V30 3411 C 331.336 -1.38975 3.1588 0
M  V30 3412 C 330.449 -0.737146 4.25664 0
M  V30 3413 C 329.584 -1.78887 5.00173 0
M  V30 3414 C 328.623 -1.11676 6.01826 0
M  V30 3415 N 327.76 -2.11154 6.69596 0
M  V30 3416 H 332.6 0.358297 2.95838 0
M  V30 3417 H 330.137 0.188541 1.45887 0
M  V30 3418 H 332.095 -2.02383 3.64825 0
M  V30 3419 H 330.725 -2.03344 2.50701 0
M  V30 3420 H 329.777 0.0096065 3.80399 0
M  V30 3421 H 331.089 -0.206816 4.98371 0
M  V30 3422 H 330.243 -2.49865 5.52859 0
M  V30 3423 H 328.982 -2.35302 4.27182 0
M  V30 3424 H 327.987 -0.392633 5.48396 0
M  V30 3425 H 329.212 -0.55945 6.76792 0
M  V30 3426 H 327.158 -2.66577 5.99394 0
M  V30 3427 H 327.075 -1.63118 7.38193 0
M  V30 3428 H 328.343 -2.81497 7.26897 0
M  V30 3429 N 332.573 -1.56217 0.208337 0
M  V30 3430 C 333.821 -1.97558 -0.426076 0
M  V30 3431 C 334.142 -1.09683 -1.61229 0
M  V30 3432 O 333.412 -0.170956 -1.95153 0
M  V30 3433 H 331.992 -0.729575 -0.160405 0
M  V30 3434 H 334.654 -1.92606 0.298155 0
M  V30 3435 H 333.75 -3.02672 -0.761312 0
M  V30 3436 N 334.051 0.0651679 -1.57465 0
M  V30 3437 C 335.467 0.420105 -1.53972 0
M  V30 3438 C 335.667 1.78782 -0.929474 0
M  V30 3439 O 334.723 2.46771 -0.534839 0
M  V30 3440 C 336.036 0.355084 -2.98596 0
M  V30 3441 C 337.584 0.434792 -3.09965 0
M  V30 3442 C 338.059 0.399609 -4.56253 0
M  V30 3443 N 339.55 0.459488 -4.60915 0
M  V30 3444 C 340.285 0.454584 -5.71595 0
M  V30 3445 N 339.781 0.404102 -6.9162 0
M  V30 3446 N 341.574 0.501635 -5.59857 0
M  V30 3447 H 333.725 -0.830328 -1.95498 0
M  V30 3448 H 335.988 -0.312244 -0.895102 0
M  V30 3449 H 335.694 -0.583357 -3.46828 0
M  V30 3450 H 335.568 1.16275 -3.58831 0
M  V30 3451 H 337.955 1.36366 -2.61703 0
M  V30 3452 H 338.036 -0.40157 -2.52628 0
M  V30 3453 H 337.68 -0.525436 -5.05175 0
M  V30 3454 H 337.61 1.25359 -5.11461 0
M  V30 3455 H 340.101 0.502482 -3.74544 0
M  V30 3456 H 340.414 0.404468 -7.71741 0
M  V30 3457 H 338.759 0.37069 -6.94011 0
M  V30 3458 H 341.95 0.538812 -4.64989 0
M  V30 3459 H 342.123 0.494345 -6.46112 0
M  V30 3460 N 335.529 1.53961 0.336706 0
M  V30 3461 C 336.439 1.85432 1.43708 0
M  V30 3462 C 337.455 0.745053 1.57242 0
M  V30 3463 O 338.631 1.03804 1.72588 0
M  V30 3464 C 335.696 2.06349 2.78605 0
M  V30 3465 C 334.757 3.30191 2.74358 0
M  V30 3466 C 333.99 3.50101 4.02822 0
M  V30 3467 O 334.213 2.7371 5.00439 0
M  V30 3468 O 333.147 4.43547 4.06878 0
M  V30 3469 H 336.973 2.78975 1.20028 0
M  V30 3470 H 334.558 1.39701 0.52952 0
M  V30 3471 H 336.44 2.21513 3.58483 0
M  V30 3472 H 335.115 1.15995 3.02203 0
M  V30 3473 H 334.022 3.20425 1.93078 0
M  V30 3474 H 335.355 4.2056 2.55715 0
M  V30 3475 N 337.007 -0.598083 1.45811 0
M  V30 3476 C 338.256 -1.35295 1.49594 0
M  V30 3477 C 338.569 -1.95057 0.145679 0
M  V30 3478 O 339.775 -2.71431 0.0612099 0
M  V30 3479 C 338.231 -2.45124 2.63519 0
M  V30 3480 C 337.839 -1.91732 4.04899 0
M  V30 3481 C 339.583 -3.2205 2.76558 0
M  V30 3482 C 337.49 -2.991 5.1019 0
M  V30 3483 H 336.42 -0.508552 0.556679 0
M  V30 3484 H 339.071 -0.639977 1.71978 0
M  V30 3485 H 337.453 -3.19149 2.34435 0
M  V30 3486 H 338.627 -1.24352 4.43704 0
M  V30 3487 H 336.942 -1.27522 3.96393 0
M  V30 3488 H 339.539 -4.0215 3.52391 0
M  V30 3489 H 339.882 -3.73663 1.83526 0
M  V30 3490 H 340.415 -2.55127 3.05213 0
M  V30 3491 H 337.154 -2.52393 6.04961 0
M  V30 3492 H 336.674 -3.65017 4.75944 0
M  V30 3493 H 338.353 -3.63318 5.35359 0
M  V30 3494 N 338.485 -1.33259 -0.841409 0
M  V30 3495 C 339.395 -1.25332 -1.98316 0
M  V30 3496 C 340.411 -0.164364 -1.73222 0
M  V30 3497 O 341.587 -0.387486 -1.97637 0
M  V30 3498 C 338.652 -0.990078 -3.32262 0
M  V30 3499 C 337.713 -2.16879 -3.70489 0
M  V30 3500 C 336.946 -1.91801 -4.98044 0
M  V30 3501 O 337.169 -0.867075 -5.63771 0
M  V30 3502 O 336.103 -2.78267 -5.33714 0
M  V30 3503 H 339.929 -2.21344 -2.07944 0
M  V30 3504 H 337.514 -1.1328 -0.974058 0
M  V30 3505 H 339.396 -0.860321 -4.12524 0
M  V30 3506 H 338.071 -0.0602155 -3.23644 0
M  V30 3507 H 336.978 -2.35407 -2.90748 0
M  V30 3508 H 338.311 -3.0819 -3.8377 0
M  V30 3509 N 339.963 1.05934 -1.16686 0
M  V30 3510 C 341.203 1.80382 -0.961345 0
M  V30 3511 C 341.567 1.85331 0.501643 0
M  V30 3512 O 342.768 2.55795 0.825986 0
M  V30 3513 C 341.039 3.20777 -1.57596 0
M  V30 3514 S 342.598 4.11795 -1.51559 0
M  V30 3515 H 339.416 0.621332 -0.345641 0
M  V30 3516 H 342.018 1.27157 -1.48497 0
M  V30 3517 H 340.722 3.14773 -2.63337 0
M  V30 3518 H 340.253 3.79078 -1.05182 0
M  V30 3519 H 342.268 4.93485 -0.518374 0
M  V30 3520 N 341.441 0.965919 1.2453 0
M  V30 3521 C 342.404 0.499547 2.2369 0
M  V30 3522 C 343.404 -0.40294 1.5567 0
M  V30 3523 O 344.594 -0.19865 1.73064 0
M  V30 3524 C 341.726 -0.276792 3.39774 0
M  V30 3525 H 342.919 1.37613 2.66463 0
M  V30 3526 H 340.472 0.750324 1.37112 0
M  V30 3527 H 341.207 -1.17055 3.02438 0
M  V30 3528 H 340.992 0.370826 3.90343 0
M  V30 3529 H 342.482 -0.592175 4.1338 0
M  V30 3530 N 342.919 -1.39368 0.735821 0
M  V30 3531 C 344.165 -2.00794 0.284544 0
M  V30 3532 C 344.498 -1.58255 -1.12557 0
M  V30 3533 O 343.773 -0.811819 -1.76748 0
M  V30 3534 C 344.056 -3.58011 0.387337 0
M  V30 3535 C 343.909 -4.10566 1.83728 0
M  V30 3536 C 345.228 -4.395 -0.22975 0
M  V30 3537 H 342.347 -0.729501 0.104866 0
M  V30 3538 H 344.989 -1.65564 0.93213 0
M  V30 3539 H 343.139 -3.88154 -0.164006 0
M  V30 3540 H 344.811 -3.91139 2.44556 0
M  V30 3541 H 343.054 -3.64095 2.35833 0
M  V30 3542 H 343.725 -5.19702 1.86047 0
M  V30 3543 H 346.201 -4.15406 0.240257 0
M  V30 3544 H 345.077 -5.48752 -0.127485 0
M  V30 3545 H 345.338 -4.22062 -1.3159 0
M  V30 3546 N 344.397 -0.483516 -1.5 0
M  V30 3547 C 345.327 0.293829 -2.31644 0
M  V30 3548 C 346.308 0.978864 -1.39112 0
M  V30 3549 O 347.493 0.973644 -1.68029 0
M  V30 3550 C 344.623 1.36897 -3.19181 0
M  V30 3551 C 343.577 0.804833 -4.20365 0
M  V30 3552 C 342.903 1.9792 -4.96721 0
M  V30 3553 C 344.203 -0.192313 -5.21946 0
M  V30 3554 H 345.897 -0.387616 -2.9688 0
M  V30 3555 H 343.443 -0.187856 -1.42769 0
M  V30 3556 H 345.396 1.92037 -3.751 0
M  V30 3557 H 344.12 2.07936 -2.51853 0
M  V30 3558 H 342.779 0.275319 -3.65565 0
M  V30 3559 H 342.427 2.67686 -4.25856 0
M  V30 3560 H 342.127 1.60789 -5.65173 0
M  V30 3561 H 343.651 2.53526 -5.55479 0
M  V30 3562 H 345.065 0.270333 -5.72662 0
M  V30 3563 H 343.462 -0.478543 -5.98189 0
M  V30 3564 H 344.532 -1.11409 -4.71928 0
M  V30 3565 N 345.875 1.56104 -0.216619 0
M  V30 3566 C 347.123 1.97781 0.415593 0
M  V30 3567 C 347.444 1.10536 1.60645 0
M  V30 3568 O 346.714 0.181303 1.95059 0
M  V30 3569 H 345.294 0.730415 0.156534 0
M  V30 3570 H 347.956 1.92445 -0.308366 0
M  V30 3571 H 347.052 3.03072 0.74525 0
M  V30 3572 N 347.353 -0.0568162 1.57498 0
M  V30 3573 C 348.301 -1.08452 2.05769 0
M  V30 3574 C 349.295 -1.39164 0.965903 0
M  V30 3575 O 350.501 -1.38395 1.15095 0
M  V30 3576 H 346.876 -0.367148 0.656282 0
M  V30 3577 H 348.847 -0.651368 2.91204 0
M  V30 3578 C 347.596 -2.38543 2.52968 0
M  V30 3579 H 346.919 -2.15765 3.36579 0
M  V30 3580 H 348.359 -3.08863 2.90481 0
M  V30 3581 C 346.818 -3.05562 1.41893 0
M  V30 3582 O 347.348 -3.94262 0.769442 0
M  V30 3583 N 345.554 -2.6643 1.16032 0
M  V30 3584 H 345.101 -1.94387 1.6903 0
M  V30 3585 H 345.059 -3.11593 0.419219 0
M  V30 3586 N 348.832 -1.54138 -0.328536 0
M  V30 3587 C 350.109 -1.62749 -1.08499 0
M  V30 3588 C 350.489 -0.458198 -2.06067 0
M  V30 3589 O 349.837 0.548046 -2.2183 0
M  V30 3590 C 350.047 -2.99519 -1.79135 0
M  V30 3591 C 351.395 -3.55394 -2.32337 0
M  V30 3592 O 352.419 -3.01792 -1.89209 0
M  V30 3593 O 351.278 -4.49186 -3.11279 0
M  V30 3594 H 348.372 -0.65886 -0.499832 0
M  V30 3595 H 350.918 -1.66484 -0.328826 0
M  V30 3596 H 349.69 -3.76061 -1.08139 0
M  V30 3597 H 349.313 -2.99441 -2.61574 0
M  V30 3598 N 350.31 0.590341 -1.46126 0
M  V30 3599 C 351.258 1.72105 -1.5647 0
M  V30 3600 C 352.252 1.63756 -0.433612 0
M  V30 3601 O 353.458 1.69342 -0.610194 0
M  V30 3602 H 349.833 0.568889 -0.491802 0
M  V30 3603 H 351.804 1.6051 -2.51553 0
M  V30 3604 C 350.553 3.10493 -1.56491 0
M  V30 3605 H 349.876 3.17583 -2.4286 0
M  V30 3606 H 351.316 3.8939 -1.67785 0
M  V30 3607 C 349.775 3.3563 -0.292231 0
M  V30 3608 O 350.305 3.96875 0.620739 0
M  V30 3609 N 348.511 2.90026 -0.182523 0
M  V30 3610 H 348.058 2.40367 -0.926356 0
M  V30 3611 H 348.016 3.07218 0.668152 0
M  V30 3612 N 351.788 1.33704 0.83433 0
M  V30 3613 C 353.199 1.22813 1.4062 0
M  V30 3614 C 353.55 -0.151107 1.95617 0
M  V30 3615 O 352.675 -1.05092 1.89168 0
M  V30 3616 C 353.27 2.22355 2.55624 0
M  V30 3617 C 351.829 2.1529 3.08751 0
M  V30 3618 C 350.976 2.09589 1.8157 0
M  V30 3619 H 353.927 1.45236 0.639702 0
M  V30 3620 H 353.948 1.83391 3.33389 0
M  V30 3621 H 353.46 3.22728 2.15566 0
M  V30 3622 H 351.561 1.18235 3.53343 0
M  V30 3623 H 351.674 3.06038 3.68616 0
M  V30 3624 H 350.038 1.55134 2.02004 0
M  V30 3625 H 350.821 3.11777 1.43701 0
M  V30 3626 N 353.266 -1.05314 1.17247 0
M  V30 3627 C 354.198 -2.13023 0.845812 0
M  V30 3628 C 355.211 -1.62096 -0.151246 0
M  V30 3629 O 356.4 -1.78343 0.0748818 0
M  V30 3630 C 353.5 -3.38047 0.240292 0
M  V30 3631 C 352.673 -4.18255 1.27991 0
M  V30 3632 C 351.732 -5.21625 0.692375 0
M  V30 3633 O 350.758 -5.52619 1.36385 0
M  V30 3634 N 351.96 -5.78201 -0.516178 0
M  V30 3635 H 354.725 -2.41642 1.77283 0
M  V30 3636 H 352.286 -1.21401 1.07115 0
M  V30 3637 H 354.278 -4.04359 -0.16603 0
M  V30 3638 H 352.848 -3.06972 -0.590487 0
M  V30 3639 H 352.068 -3.47451 1.86203 0
M  V30 3640 H 353.356 -4.68643 1.98119 0
M  V30 3641 H 352.754 -5.55301 -1.07969 0
M  V30 3642 H 351.311 -6.4604 -0.86458 0
M  V30 3643 N 354.744 -0.972509 -1.24016 0
M  V30 3644 C 355.707 -0.511403 -2.23422 0
M  V30 3645 C 356.707 0.394679 -1.55881 0
M  V30 3646 O 357.897 0.189469 -1.73167 0
M  V30 3647 C 355.029 0.258769 -3.39916 0
M  V30 3648 H 356.222 -1.39024 -2.6573 0
M  V30 3649 H 353.775 -0.757585 -1.36713 0
M  V30 3650 H 354.51 1.1545 -3.03054 0
M  V30 3651 H 354.295 -0.391522 -3.9014 0
M  V30 3652 H 355.785 0.570244 -4.13688 0
M  V30 3653 N 356.222 1.38976 -0.743202 0
M  V30 3654 C 357.447 2.05161 -0.303936 0
M  V30 3655 C 357.872 1.55677 1.05576 0
M  V30 3656 O 357.23 0.704131 1.67068 0
M  V30 3657 C 357.278 3.59138 -0.324373 0
M  V30 3658 O 356.382 4.06668 0.685204 0
M  V30 3659 H 355.723 0.649815 -0.136518 0
M  V30 3660 H 358.253 1.77852 -1.01142 0
M  V30 3661 H 358.263 4.07639 -0.171618 0
M  V30 3662 H 356.938 3.94515 -1.31647 0
M  V30 3663 H 355.515 3.69561 0.497913 0
M  V30 3664 N 357.7 0.491464 1.49741 0
M  V30 3665 C 358.928 -0.0535151 2.06831 0
M  V30 3666 C 359.343 -1.31683 1.35296 0
M  V30 3667 O 358.7 -1.77402 0.42836 0
M  V30 3668 C 358.751 -0.320835 3.60073 0
M  V30 3669 O 358.472 0.892394 4.28915 0
M  V30 3670 C 359.973 -0.910519 4.33848 0
M  V30 3671 H 357.193 0.0161909 0.670805 0
M  V30 3672 H 359.737 0.68609 1.92647 0
M  V30 3673 H 357.892 -1.0104 3.73991 0
M  V30 3674 H 358.306 0.649401 5.20464 0
M  V30 3675 H 359.78 -1.04721 5.41976 0
M  V30 3676 H 360.257 -1.90589 3.95692 0
M  V30 3677 H 360.863 -0.258712 4.24512 0
M  V30 3678 N 359.178 -1.55987 0.224894 0
M  V30 3679 C 360.418 -2.00293 -0.407706 0
M  V30 3680 C 360.782 -1.1093 -1.56711 0
M  V30 3681 O 361.983 -1.44597 -2.26595 0
M  V30 3682 C 360.254 -3.47675 -0.82805 0
M  V30 3683 S 361.813 -4.14 -1.45429 0
M  V30 3684 H 358.631 -0.699152 -0.129256 0
M  V30 3685 H 361.233 -1.92609 0.334967 0
M  V30 3686 H 359.937 -4.10392 0.0253964 0
M  V30 3687 H 359.468 -3.59239 -1.60345 0
M  V30 3688 H 361.483 -4.13465 -2.74337 0
M  V30 3689 N 360.656 0.0484629 -1.57525 0
M  V30 3690 C 361.904 0.741657 -1.88 0
M  V30 3691 C 362.225 1.76918 -0.820054 0
M  V30 3692 O 361.495 1.95335 0.148661 0
M  V30 3693 H 360.075 0.276908 -0.69378 0
M  V30 3694 H 362.737 0.019013 -1.94891 0
M  V30 3695 H 361.833 1.24336 -2.86264 0
M  V30 3696 N 362.134 1.5431 0.320358 0
M  V30 3697 C 363.044 1.86946 1.41734 0
M  V30 3698 C 364.06 0.761689 1.56443 0
M  V30 3699 O 365.236 1.05629 1.71477 0
M  V30 3700 C 362.301 2.09293 2.76401 0
M  V30 3701 C 361.362 3.33082 2.70841 0
M  V30 3702 C 360.595 3.54353 3.99086 0
M  V30 3703 O 360.818 2.79002 4.97508 0
M  V30 3704 O 359.752 4.47838 4.0215 0
M  V30 3705 H 363.578 2.80232 1.17062 0
M  V30 3706 H 361.163 1.40255 0.514673 0
M  V30 3707 H 363.045 2.25303 3.56113 0
M  V30 3708 H 361.72 1.19194 3.00956 0
M  V30 3709 H 360.627 3.22454 1.89668 0
M  V30 3710 H 361.96 4.23249 2.5124 0
M  V30 3711 N 363.613 -0.582584 1.46437 0
M  V30 3712 C 364.862 -1.337 1.5102 0
M  V30 3713 C 365.175 -1.94891 0.166359 0
M  V30 3714 O 366.381 -2.71351 0.0899954 0
M  V30 3715 C 364.837 -2.42315 2.66104 0
M  V30 3716 C 364.445 -1.87427 4.06909 0
M  V30 3717 C 366.189 -3.19099 2.79958 0
M  V30 3718 C 364.096 -2.93672 5.13333 0
M  V30 3719 H 363.026 -0.502619 0.562041 0
M  V30 3720 H 365.677 -0.621701 1.72647 0
M  V30 3721 H 364.059 -3.16645 2.37807 0
M  V30 3722 H 365.233 -1.19639 4.44998 0
M  V30 3723 H 363.548 -1.2331 3.97723 0
M  V30 3724 H 366.145 -3.9839 3.56636 0
M  V30 3725 H 366.488 -3.71695 1.87479 0
M  V30 3726 H 367.021 -2.51875 3.07902 0
M  V30 3727 H 363.76 -2.45962 6.07604 0
M  V30 3728 H 363.28 -3.59948 4.79789 0
M  V30 3729 H 364.959 -3.5762 5.39182 0
M  V30 3730 N 365.091 -1.34144 -0.827227 0
M  V30 3731 C 366.337 -1.26446 -1.58554 0
M  V30 3732 C 366.67 0.1664 -1.93486 0
M  V30 3733 O 365.945 1.1107 -1.59667 0
M  V30 3734 C 366.228 -2.15111 -2.8879 0
M  V30 3735 C 366.081 -3.66712 -2.60465 0
M  V30 3736 C 367.4 -2.03311 -3.90324 0
M  V30 3737 H 364.519 -0.46067 -0.575284 0
M  V30 3738 H 367.161 -1.64356 -0.953269 0
M  V30 3739 H 365.311 -1.8291 -3.42748 0
M  V30 3740 H 366.983 -4.09259 -2.1285 0
M  V30 3741 H 365.226 -3.88014 -1.93978 0
M  V30 3742 H 365.897 -4.24112 -3.53317 0
M  V30 3743 H 368.373 -2.31574 -3.45706 0
M  V30 3744 H 367.249 -2.67582 -4.79261 0
M  V30 3745 H 367.51 -1.00879 -4.30437 0
M  V30 3746 N 366.569 1.04691 -1.17803 0
M  V30 3747 C 367.499 2.14494 -0.92275 0
M  V30 3748 C 368.48 1.69546 0.137179 0
M  V30 3749 O 369.665 1.94195 -0.0141108 0
M  V30 3750 C 366.795 3.44491 -0.440803 0
M  V30 3751 C 365.749 4.03031 -1.4405 0
M  V30 3752 C 365.075 5.28432 -0.81631 0
M  V30 3753 C 366.375 4.39932 -2.81527 0
M  V30 3754 H 368.069 2.36107 -1.84103 0
M  V30 3755 H 365.615 1.1347 -0.886599 0
M  V30 3756 H 367.568 4.2066 -0.249602 0
M  V30 3757 H 366.292 3.22546 0.513025 0
M  V30 3758 H 364.951 3.28937 -1.61853 0
M  V30 3759 H 364.599 5.02792 0.144511 0
M  V30 3760 H 364.299 5.68559 -1.48371 0
M  V30 3761 H 365.823 6.07284 -0.635496 0
M  V30 3762 H 367.237 5.07113 -2.67412 0
M  V30 3763 H 365.634 4.9109 -3.44892 0
M  V30 3764 H 366.704 3.50045 -3.35554 0
M  V30 3765 N 368.047 0.979072 1.23499 0
M  V30 3766 C 369.275 0.665202 1.95915 0
M  V30 3767 C 369.69 -0.767571 1.72493 0
M  V30 3768 O 369.047 -1.51635 1.01554 0
M  V30 3769 C 369.098 0.944438 3.48945 0
M  V30 3770 O 368.819 2.3209 3.71572 0
M  V30 3771 C 370.32 0.646336 4.38563 0
M  V30 3772 H 367.54 0.247218 0.623798 0
M  V30 3773 H 370.084 1.31009 1.57025 0
M  V30 3774 H 368.239 0.345575 3.85856 0
M  V30 3775 H 368.653 2.40957 4.65876 0
M  V30 3776 H 370.127 0.892091 5.44744 0
M  V30 3777 H 370.604 -0.419575 4.37191 0
M  V30 3778 H 371.21 1.22562 4.07258 0
M  V30 3779 N 369.525 -1.3858 0.750561 0
M  V30 3780 C 370.75 -2.04997 0.314812 0
M  V30 3781 C 371.175 -1.56235 -1.04749 0
M  V30 3782 O 370.533 -0.712981 -1.66692 0
M  V30 3783 C 370.581 -3.58961 0.343415 0
M  V30 3784 O 369.685 -4.07025 -0.663628 0
M  V30 3785 H 369.026 -0.649081 0.139962 0
M  V30 3786 H 371.556 -1.77313 1.02084 0
M  V30 3787 H 371.566 -4.07542 0.193233 0
M  V30 3788 H 370.241 -3.93811 1.33738 0
M  V30 3789 H 368.818 -3.6982 -0.478307 0
M  V30 3790 N 371.003 -0.499398 -1.49478 0
M  V30 3791 C 372.28 0.108629 -1.95298 0
M  V30 3792 C 372.66 1.54282 -1.44084 0
M  V30 3793 O 372.008 2.18944 -0.653908 0
M  V30 3794 C 372.218 0.0229111 -3.48992 0
M  V30 3795 C 373.566 0.197643 -4.2414 0
M  V30 3796 O 374.59 0.0981735 -3.56065 0
M  V30 3797 O 373.449 0.401669 -5.45022 0
M  V30 3798 H 370.543 0.096181 -0.821388 0
M  V30 3799 H 373.089 -0.561822 -1.6013 0
M  V30 3800 H 371.861 -0.977321 -3.78899 0
M  V30 3801 H 371.484 0.733579 -3.90774 0
M  V30 3802 N 372.481 1.55866 -0.233164 0
M  V30 3803 C 373.728 1.98603 0.395374 0
M  V30 3804 C 374.056 1.12105 1.58942 0
M  V30 3805 O 373.311 0.168656 1.94972 0
M  V30 3806 C 373.61 3.46856 0.861724 0
M  V30 3807 C 373.276 4.50348 -0.223066 0
M  V30 3808 C 371.938 4.78371 -0.521038 0
M  V30 3809 C 374.29 5.12355 -0.956124 0
M  V30 3810 C 371.618 5.6568 -1.55638 0
M  V30 3811 C 373.97 6.00786 -1.98089 0
M  V30 3812 C 372.634 6.27148 -2.28565 0
M  V30 3813 H 371.904 0.726739 0.144677 0
M  V30 3814 H 374.551 1.88491 -0.338114 0
M  V30 3815 H 372.856 3.5423 1.67418 0
M  V30 3816 H 374.553 3.77302 1.35809 0
M  V30 3817 H 371.143 4.28596 0.0193234 0
M  V30 3818 H 375.327 4.90765 -0.739166 0
M  V30 3819 H 370.583 5.84365 -1.798 0
M  V30 3820 H 374.757 6.4788 -2.55391 0
M  V30 3821 H 372.384 6.94597 -3.08932 0
M  V30 3822 N 373.959 -0.0401083 1.57549 0
M  V30 3823 C 375.189 -0.744115 1.92734 0
M  V30 3824 C 375.597 -1.70005 0.830348 0
M  V30 3825 O 374.94 -1.82576 -0.20286 0
M  V30 3826 C 375.002 -1.56516 3.2364 0
M  V30 3827 C 374.666 -0.7752 4.50377 0
M  V30 3828 C 375.663 -0.0803326 5.19838 0
M  V30 3829 C 373.348 -0.733002 4.96923 0
M  V30 3830 C 375.342 0.646154 6.34116 0
M  V30 3831 C 373.029 -0.00276321 6.111 0
M  V30 3832 C 374.027 0.685585 6.7955 0
M  V30 3833 O 373.715 1.40399 7.91545 0
M  V30 3834 H 373.447 -0.214861 0.640945 0
M  V30 3835 H 376.001 -0.00503675 2.05399 0
M  V30 3836 H 374.231 -2.3478 3.07271 0
M  V30 3837 H 375.92 -2.15076 3.44234 0
M  V30 3838 H 376.686 -0.104035 4.84888 0
M  V30 3839 H 372.565 -1.25827 4.43496 0
M  V30 3840 H 376.109 1.18398 6.87479 0
M  V30 3841 H 372.006 0.0229012 6.45496 0
M  V30 3842 H 372.774 1.31653 8.07843 0
M  V30 3843 N 375.437 -1.54477 -0.31217 0
M  V30 3844 C 376.4 -1.83923 -1.36766 0
M  V30 3845 C 377.4 -0.711563 -1.44199 0
M  V30 3846 O 378.59 -0.979866 -1.44029 0
M  V30 3847 C 375.722 -2.0095 -2.75376 0
M  V30 3848 H 376.915 -2.78239 -1.11906 0
M  V30 3849 H 374.468 -1.46369 -0.548257 0
M  V30 3850 H 375.203 -1.08883 -3.05475 0
M  V30 3851 H 374.988 -2.83018 -2.71373 0
M  V30 3852 H 376.478 -2.2514 -3.51713 0
M  V30 3853 N 376.915 0.57481 -1.46744 0
M  V30 3854 C 378.145 1.35659 -1.55821 0
M  V30 3855 C 378.553 1.88129 -0.201036 0
M  V30 3856 O 377.896 1.64723 0.813134 0
M  V30 3857 C 377.958 2.57473 -2.50894 0
M  V30 3858 C 377.622 2.26415 -3.9697 0
M  V30 3859 C 378.619 1.84771 -4.85958 0
M  V30 3860 C 376.304 2.38316 -4.42166 0
M  V30 3861 C 378.298 1.55434 -6.18158 0
M  V30 3862 C 375.985 2.08591 -5.74398 0
M  V30 3863 C 376.983 1.67216 -6.62214 0
M  V30 3864 O 376.671 1.37859 -7.91991 0
M  V30 3865 H 376.403 0.420496 -0.529301 0
M  V30 3866 H 378.957 0.704967 -1.92923 0
M  V30 3867 H 377.187 3.25468 -2.08824 0
M  V30 3868 H 378.876 3.19546 -2.50291 0
M  V30 3869 H 379.642 1.75085 -4.52295 0
M  V30 3870 H 375.521 2.69483 -3.74032 0
M  V30 3871 H 379.065 1.23065 -6.86659 0
M  V30 3872 H 374.962 2.17905 -6.07608 0
M  V30 3873 H 375.73 1.51638 -8.04331 0
M  V30 3874 N 378.394 1.34581 0.820102 0
M  V30 3875 C 379.671 1.17675 1.56244 0
M  V30 3876 C 380.051 -0.249541 2.0962 0
M  V30 3877 O 379.399 -1.25125 1.91196 0
M  V30 3878 C 379.609 2.23364 2.6816 0
M  V30 3879 C 380.957 2.58485 3.36854 0
M  V30 3880 O 381.981 2.22175 2.78418 0
M  V30 3881 O 380.84 3.20868 4.42386 0
M  V30 3882 H 377.934 0.456333 0.689702 0
M  V30 3883 H 380.48 1.46222 0.861231 0
M  V30 3884 H 379.252 3.19087 2.26493 0
M  V30 3885 H 378.875 1.96009 3.45928 0
M  V30 3886 N 379.872 -1.04064 1.18357 0
M  V30 3887 C 381.1 -1.80916 1.00384 0
M  V30 3888 C 381.515 -1.83414 -0.447738 0
M  V30 3889 O 380.872 -1.26962 -1.31099 0
M  V30 3890 C 380.923 -3.26516 1.55144 0
M  V30 3891 O 380.644 -3.2424 2.94618 0
M  V30 3892 C 382.145 -4.20013 1.41789 0
M  V30 3893 H 379.365 -0.569728 0.354474 0
M  V30 3894 H 381.909 -1.31151 1.56906 0
M  V30 3895 H 380.064 -3.73512 1.02798 0
M  V30 3896 H 380.478 -4.15452 3.20156 0
M  V30 3897 H 381.952 -5.20111 1.84901 0
M  V30 3898 H 382.429 -4.37667 0.36661 0
M  V30 3899 H 383.035 -3.78881 1.93207 0
M  V30 3900 N 381.35 -0.985608 -1.22978 0
M  V30 3901 C 382.297 -0.529825 -2.24636 0
M  V30 3902 C 383.267 0.434028 -1.60329 0
M  V30 3903 O 384.452 0.340414 -1.87739 0
M  V30 3904 C 381.592 0.156533 -3.44745 0
M  V30 3905 C 380.705 -0.848197 -4.23591 0
M  V30 3906 C 379.84 -0.136109 -5.31026 0
M  V30 3907 C 378.879 -1.1297 -6.01585 0
M  V30 3908 N 378.016 -0.446415 -7.00679 0
M  V30 3909 H 382.856 -1.40148 -2.62988 0
M  V30 3910 H 380.393 -0.702168 -1.29259 0
M  V30 3911 H 382.351 0.571324 -4.1327 0
M  V30 3912 H 380.981 0.992025 -3.07179 0
M  V30 3913 H 380.033 -1.38135 -3.54433 0
M  V30 3914 H 381.345 -1.60512 -4.72268 0
M  V30 3915 H 380.499 0.335784 -6.0577 0
M  V30 3916 H 379.238 0.653373 -4.83304 0
M  V30 3917 H 378.243 -1.6123 -5.25628 0
M  V30 3918 H 379.468 -1.91993 -6.51395 0
M  V30 3919 H 377.414 0.323763 -6.55201 0
M  V30 3920 H 377.331 -1.1419 -7.47326 0
M  V30 3921 H 378.599 0.00291697 -7.795 0
M  V30 3922 N 382.828 1.3818 -0.7579 0
M  V30 3923 C 384.058 2.04004 -0.326463 0
M  V30 3924 C 384.466 1.57286 1.05156 0
M  V30 3925 O 383.809 0.743144 1.67997 0
M  V30 3926 C 383.871 3.58444 -0.275402 0
M  V30 3927 C 383.535 4.28237 -1.59569 0
M  V30 3928 C 384.532 4.53312 -2.54566 0
M  V30 3929 C 382.217 4.66341 -1.86631 0
M  V30 3930 C 384.211 5.15531 -3.74842 0
M  V30 3931 C 381.898 5.28283 -3.0718 0
M  V30 3932 C 382.896 5.52814 -4.01106 0
M  V30 3933 O 382.584 6.13465 -5.19534 0
M  V30 3934 H 382.316 0.662026 -0.136739 0
M  V30 3935 H 384.87 1.7777 -1.02893 0
M  V30 3936 H 383.1 3.83667 0.483337 0
M  V30 3937 H 384.789 4.05701 0.127099 0
M  V30 3938 H 385.555 4.24299 -2.34936 0
M  V30 3939 H 381.434 4.46591 -1.14358 0
M  V30 3940 H 384.978 5.34594 -4.48168 0
M  V30 3941 H 380.875 5.56719 -3.26702 0
M  V30 3942 H 381.643 6.31951 -5.20173 0
M  V30 3943 N 384.306 0.507319 1.49211 0
M  V30 3944 C 385.555 -0.0368315 2.01666 0
M  V30 3945 C 385.868 -1.37459 1.39156 0
M  V30 3946 O 387.074 -2.00579 1.82976 0
M  V30 3947 C 385.53 -0.116089 3.59713 0
M  V30 3948 C 385.138 1.2154 4.31198 0
M  V30 3949 C 386.882 -0.610268 4.2009 0
M  V30 3950 C 384.789 1.09796 5.81119 0
M  V30 3951 H 383.719 -0.0175376 0.753796 0
M  V30 3952 H 386.37 0.647691 1.71689 0
M  V30 3953 H 384.752 -0.8652 3.86433 0
M  V30 3954 H 385.926 1.9783 4.16173 0
M  V30 3955 H 384.241 1.64352 3.82593 0
M  V30 3956 H 386.838 -0.715742 5.29888 0
M  V30 3957 H 387.181 -1.61064 3.8388 0
M  V30 3958 H 387.714 0.0824916 3.97714 0
M  V30 3959 H 384.453 2.0728 6.21864 0
M  V30 3960 H 383.973 0.376058 5.9862 0
M  V30 3961 H 385.652 0.779281 6.4229 0
M  V30 3962 N 385.784 -1.5574 0.241426 0
M  V30 3963 C 387.061 -1.90704 -0.434881 0
M  V30 3964 C 387.441 -1.16145 -1.76277 0
M  V30 3965 O 386.789 -0.277152 -2.26813 0
M  V30 3966 C 386.999 -3.43657 -0.608343 0
M  V30 3967 C 388.347 -4.14806 -0.906725 0
M  V30 3968 O 389.371 -3.49366 -0.694408 0
M  V30 3969 O 388.23 -5.30548 -1.31075 0
M  V30 3970 H 385.324 -0.793592 -0.23268 0
M  V30 3971 H 387.87 -1.67288 0.285086 0
M  V30 3972 H 386.642 -3.89927 0.327505 0
M  V30 3973 H 386.265 -3.72918 -1.37906 0
M  V30 3974 N 387.262 0.0317525 -1.57568 0
M  V30 3975 C 388.172 1.05021 -2.0978 0
M  V30 3976 C 389.188 1.39809 -1.03583 0
M  V30 3977 O 390.364 1.49182 -1.35302 0
M  V30 3978 C 387.429 2.33301 -2.56459 0
M  V30 3979 C 386.49 2.0512 -3.77127 0
M  V30 3980 C 385.723 3.27283 -4.2157 0
M  V30 3981 O 385.946 4.37861 -3.65559 0
M  V30 3982 O 384.88 3.13141 -5.14029 0
M  V30 3983 H 388.706 0.636505 -2.96955 0
M  V30 3984 H 386.291 0.248559 -1.47318 0
M  V30 3985 H 388.173 3.08722 -2.86825 0
M  V30 3986 H 386.848 2.73973 -1.72397 0
M  V30 3987 H 385.755 1.27276 -3.51784 0
M  V30 3988 H 387.088 1.69305 -4.62165 0
M  V30 3989 N 388.74 1.54641 0.303973 0
M  V30 3990 C 390.017 1.64455 1.05896 0
M  V30 3991 C 390.397 0.490923 2.05312 0
M  V30 3992 O 389.745 -0.512685 2.22674 0
M  V30 3993 C 389.955 3.02331 1.74347 0
M  V30 3994 C 391.303 3.59045 2.26653 0
M  V30 3995 O 392.327 3.04764 1.84384 0
M  V30 3996 O 391.186 4.54081 3.04093 0
M  V30 3997 H 388.28 0.666729 0.489287 0
M  V30 3998 H 390.826 1.66986 0.302298 0
M  V30 3999 H 389.598 3.77734 1.02142 0
M  V30 4000 H 389.221 3.03565 2.56777 0
M  V30 4001 N 390.218 -0.567019 1.47046 0
M  V30 4002 C 391.466 -1.322 1.52864 0
M  V30 4003 C 391.787 -1.94088 0.188388 0
M  V30 4004 O 391.057 -1.7941 -0.786693 0
M  V30 4005 H 389.637 -0.490894 0.563056 0
M  V30 4006 H 392.299 -0.662879 1.83281 0
M  V30 4007 H 391.395 -2.12062 2.2899 0
M  V30 4008 N 391.696 -1.35014 -0.812953 0
M  V30 4009 C 392.659 -1.27292 -1.90602 0
M  V30 4010 C 393.659 -0.185817 -1.59723 0
M  V30 4011 O 394.849 -0.439102 -1.68575 0
M  V30 4012 C 391.981 -0.967676 -3.26877 0
M  V30 4013 H 393.174 -2.24479 -1.9887 0
M  V30 4014 H 390.727 -1.19446 -1.00808 0
M  V30 4015 H 391.462 0.0005954 -3.243 0
M  V30 4016 H 391.247 -1.75412 -3.50675 0
M  V30 4017 H 392.737 -0.939085 -4.06904 0
M  V30 4018 N 393.175 1.03435 -1.18907 0
M  V30 4019 C 394.122 2.11591 -0.921837 0
M  V30 4020 C 395.092 1.65499 0.141226 0
M  V30 4021 O 396.277 1.908 0.000242829 0
M  V30 4022 C 393.417 3.42012 -0.460616 0
M  V30 4023 C 392.53 4.01682 -1.58982 0
M  V30 4024 C 391.665 5.20091 -1.08069 0
M  V30 4025 C 390.704 5.71805 -2.18416 0
M  V30 4026 N 389.841 6.81494 -1.68849 0
M  V30 4027 H 394.681 2.33787 -1.8479 0
M  V30 4028 H 392.218 1.1467 -0.921373 0
M  V30 4029 H 394.176 4.16834 -0.174642 0
M  V30 4030 H 392.806 3.19944 0.428467 0
M  V30 4031 H 391.858 3.24127 -1.99113 0
M  V30 4032 H 393.17 4.36084 -2.4214 0
M  V30 4033 H 392.324 6.02051 -0.749615 0
M  V30 4034 H 391.063 4.87209 -0.218771 0
M  V30 4035 H 390.068 4.88461 -2.5236 0
M  V30 4036 H 391.293 6.06728 -3.05054 0
M  V30 4037 H 389.239 6.50475 -0.849572 0
M  V30 4038 H 389.156 7.14994 -2.45601 0
M  V30 4039 H 390.424 7.67063 -1.38689 0
M  V30 4040 N 394.653 0.992116 1.22453 0
M  V30 4041 C 395.899 0.668523 1.91464 0
M  V30 4042 C 396.232 -0.797313 1.77078 0
M  V30 4043 O 395.507 -1.5765 1.13916 0
M  V30 4044 C 395.79 1.07424 3.43703 0
M  V30 4045 C 395.643 2.59857 3.67143 0
M  V30 4046 C 396.962 0.626891 4.35612 0
M  V30 4047 H 394.081 0.244341 0.695318 0
M  V30 4048 H 396.723 1.2355 1.44345 0
M  V30 4049 H 394.873 0.591816 3.83966 0
M  V30 4050 H 396.545 3.15764 3.3629 0
M  V30 4051 H 394.788 3.01961 3.11451 0
M  V30 4052 H 395.459 2.83296 4.73759 0
M  V30 4053 H 397.935 1.04125 4.02861 0
M  V30 4054 H 396.811 0.939076 5.40807 0
M  V30 4055 H 397.072 -0.472457 4.39568 0
M  V30 4056 N 396.131 -1.37776 0.765217 0
M  V30 4057 C 397.377 -2.00145 0.327072 0
M  V30 4058 C 397.71 -1.60607 -1.09175 0
M  V30 4059 O 396.985 -0.849127 -1.74986 0
M  V30 4060 C 397.268 -3.57109 0.46319 0
M  V30 4061 C 397.121 -4.06576 1.92395 0
M  V30 4062 C 398.44 -4.39888 -0.136473 0
M  V30 4063 H 395.559 -0.727113 0.120316 0
M  V30 4064 H 398.201 -1.63549 0.967039 0
M  V30 4065 H 396.351 -3.88414 -0.0816358 0
M  V30 4066 H 398.023 -3.85864 2.52798 0
M  V30 4067 H 396.266 -3.59011 2.43503 0
M  V30 4068 H 396.937 -5.15639 1.97028 0
M  V30 4069 H 399.413 -4.14803 0.328317 0
M  V30 4070 H 398.289 -5.48899 -0.0110582 0
M  V30 4071 H 398.55 -4.24758 -1.22608 0
M  V30 4072 N 397.609 -0.515225 -1.4894 0
M  V30 4073 C 398.855 0.0242508 -2.02785 0
M  V30 4074 C 399.188 1.35323 -1.39289 0
M  V30 4075 O 398.463 1.87041 -0.533469 0
M  V30 4076 C 398.746 0.16184 -3.59736 0
M  V30 4077 C 398.599 -1.19127 -4.33738 0
M  V30 4078 C 399.918 0.895719 -4.30888 0
M  V30 4079 H 397.037 0.00733914 -0.736963 0
M  V30 4080 H 399.679 -0.669395 -1.77818 0
M  V30 4081 H 397.829 0.752624 -3.8114 0
M  V30 4082 H 399.501 -1.82202 -4.23792 0
M  V30 4083 H 397.744 -1.77695 -3.95736 0
M  V30 4084 H 398.415 -1.04815 -5.41957 0
M  V30 4085 H 400.891 0.394528 -4.14225 0
M  V30 4086 H 399.767 0.960859 -5.40425 0
M  V30 4087 H 400.028 1.9427 -3.97129 0
M  V30 4088 N 399.087 1.5561 -0.249682 0
M  V30 4089 C 400.498 1.84979 0.252949 0
M  V30 4090 C 400.849 1.17153 1.57384 0
M  V30 4091 O 399.974 0.450884 2.11651 0
M  V30 4092 C 400.569 3.35584 0.465732 0
M  V30 4093 C 399.128 3.65169 0.912624 0
M  V30 4094 C 398.275 2.77299 -0.00859085 0
M  V30 4095 H 401.226 1.51513 -0.47217 0
M  V30 4096 H 401.247 3.57313 1.30795 0
M  V30 4097 H 400.759 3.8492 -0.49579 0
M  V30 4098 H 398.86 3.21312 1.88652 0
M  V30 4099 H 398.973 4.72912 0.767559 0
M  V30 4100 H 397.337 2.49678 0.50327 0
M  V30 4101 H 398.12 3.29442 -0.965537 0
M  V30 4102 N 400.565 -0.0233959 1.57583 0
M  V30 4103 C 401.528 -1.00693 2.05897 0
M  V30 4104 C 402.528 -1.28693 0.964092 0
M  V30 4105 O 403.718 -1.23602 1.22753 0
M  V30 4106 C 400.85 -2.33825 2.4807 0
M  V30 4107 H 402.043 -0.589476 2.9405 0
M  V30 4108 H 399.596 -0.270354 1.53944 0
M  V30 4109 H 400.331 -2.80307 1.6309 0
M  V30 4110 H 400.116 -2.1483 3.2801 0
M  V30 4111 H 401.606 -3.04426 2.85857 0
M  V30 4112 N 402.043 -1.548 -0.295768 0
M  V30 4113 C 403.006 -1.85363 -1.34808 0
M  V30 4114 C 404.006 -0.726817 -1.43436 0
M  V30 4115 O 405.196 -0.995088 -1.42981 0
M  V30 4116 C 402.328 -2.03859 -2.73229 0
M  V30 4117 H 403.521 -2.7941 -1.08949 0
M  V30 4118 H 401.074 -1.46942 -0.532702 0
M  V30 4119 H 401.809 -1.12117 -3.04303 0
M  V30 4120 H 401.594 -2.8588 -2.68356 0
M  V30 4121 H 403.084 -2.28857 -3.49305 0
M  V30 4122 N 403.521 0.559213 -1.47345 0
M  V30 4123 C 404.77 1.31281 -1.53128 0
M  V30 4124 C 405.083 1.94602 -0.197344 0
M  V30 4125 O 406.289 2.71173 -0.133154 0
M  V30 4126 C 404.745 2.38051 -2.69925 0
M  V30 4127 C 404.353 1.8093 -4.0984 0
M  V30 4128 C 406.097 3.14604 -2.84999 0
M  V30 4129 C 404.004 2.85468 -5.1794 0
M  V30 4130 H 402.934 0.493614 -0.569966 0
M  V30 4131 H 405.585 0.594155 -1.73615 0
M  V30 4132 H 403.967 3.12822 -2.42814 0
M  V30 4133 H 405.141 1.12544 -4.46845 0
M  V30 4134 H 403.456 1.16967 -3.99634 0
M  V30 4135 H 406.053 3.92666 -3.62929 0
M  V30 4136 H 406.396 3.68665 -1.93369 0
M  V30 4137 H 406.929 2.46945 -3.1187 0
M  V30 4138 H 403.668 2.36264 -6.1144 0
M  V30 4139 H 403.188 3.52269 -4.85455 0
M  V30 4140 H 404.867 3.48996 -5.44803 0
M  V30 4141 N 404.999 1.35443 0.805782 0
M  V30 4142 C 405.962 1.28301 1.89925 0
M  V30 4143 C 406.962 0.194285 1.59622 0
M  V30 4144 O 408.152 0.448036 1.6834 0
M  V30 4145 C 405.284 0.984997 3.2636 0
M  V30 4146 H 406.477 2.2553 1.97677 0
M  V30 4147 H 404.03 1.19979 1.00173 0
M  V30 4148 H 404.765 0.016603 3.24296 0
M  V30 4149 H 404.55 1.77269 3.4974 0
M  V30 4150 H 406.04 0.960651 4.064 0
M  V30 4151 N 406.477 -1.02803 1.19454 0
M  V30 4152 C 407.888 -1.57667 0.999899 0
M  V30 4153 C 408.239 -1.91041 -0.446956 0
M  V30 4154 O 407.364 -1.70978 -1.32648 0
M  V30 4155 C 407.959 -2.86477 1.80877 0
M  V30 4156 C 406.518 -3.37911 1.65811 0
M  V30 4157 C 405.665 -2.11343 1.79526 0
M  V30 4158 H 408.616 -0.853214 1.33813 0
M  V30 4159 H 408.637 -3.57408 1.30536 0
M  V30 4160 H 408.149 -2.62155 2.86175 0
M  V30 4161 H 406.25 -3.67218 0.63102 0
M  V30 4162 H 406.363 -4.10885 2.46395 0
M  V30 4163 H 404.727 -2.23254 1.22596 0
M  V30 4164 H 405.51 -1.89461 2.86285 0
M  V30 4165 N 407.956 -0.998596 -1.21925 0
M  V30 4166 C 408.866 -0.562736 -2.27751 0
M  V30 4167 C 409.882 0.391203 -1.69545 0
M  V30 4168 O 411.058 0.256625 -1.99758 0
M  V30 4169 C 408.123 0.11012 -3.46525 0
M  V30 4170 C 407.184 -0.887495 -4.20026 0
M  V30 4171 C 406.417 -0.246654 -5.3313 0
M  V30 4172 O 406.64 0.958088 -5.62296 0
M  V30 4173 O 405.574 -0.954374 -5.94286 0
M  V30 4174 H 409.4 -1.44329 -2.67213 0
M  V30 4175 H 406.985 -0.767135 -1.28201 0
M  V30 4176 H 408.867 0.486756 -4.18579 0
M  V30 4177 H 407.542 0.965154 -3.08976 0
M  V30 4178 H 406.449 -1.31517 -3.5022 0
M  V30 4179 H 407.782 -1.71191 -4.6147 0
M  V30 4180 N 409.434 1.37368 -0.772513 0
M  V30 4181 C 410.683 1.98918 -0.333861 0
M  V30 4182 C 410.996 1.62017 1.09589 0
M  V30 4183 O 412.202 2.16676 1.63596 0
M  V30 4184 C 410.658 3.55735 -0.545971 0
M  V30 4185 C 410.266 4.01573 -1.98603 0
M  V30 4186 C 412.01 4.24156 -0.170979 0
M  V30 4187 C 409.917 5.51102 -2.1457 0
M  V30 4188 H 408.847 0.744214 -0.121085 0
M  V30 4189 H 411.498 1.56888 -0.95175 0
M  V30 4190 H 409.88 3.95748 0.141387 0
M  V30 4191 H 411.054 3.72803 -2.7084 0
M  V30 4192 H 409.369 3.45937 -2.31769 0
M  V30 4193 H 411.966 5.34024 -0.26878 0
M  V30 4194 H 412.309 4.06917 0.878855 0
M  V30 4195 H 412.842 3.89447 -0.810914 0
M  V30 4196 H 409.581 5.73268 -3.17875 0
M  V30 4197 H 409.101 5.81554 -1.46817 0
M  V30 4198 H 410.78 6.17083 -1.94468 0
M  V30 4199 N 410.912 0.523116 1.48665 0
M  V30 4200 C 411.86 -0.256859 2.31177 0
M  V30 4201 C 412.854 -0.94199 1.40794 0
M  V30 4202 O 414.06 -0.867157 1.57735 0
M  V30 4203 H 410.435 -0.1017 0.745091 0
M  V30 4204 H 412.406 0.458739 2.94853 0
M  V30 4205 C 411.155 -1.29503 3.22683 0
M  V30 4206 H 410.478 -0.777248 3.92172 0
M  V30 4207 H 411.918 -1.81233 3.83315 0
M  V30 4208 C 410.377 -2.32501 2.43813 0
M  V30 4209 O 410.907 -3.3881 2.15803 0
M  V30 4210 N 409.113 -2.05538 2.05432 0
M  V30 4211 H 408.66 -1.19104 2.28412 0
M  V30 4212 H 408.618 -2.74676 1.52973 0
M  V30 4213 N 412.39 -1.55475 0.257931 0
M  V30 4214 C 413.667 -1.91155 -0.414629 0
M  V30 4215 C 414.047 -1.18008 -1.75035 0
M  V30 4216 O 413.395 -0.301193 -2.26506 0
M  V30 4217 C 413.605 -3.44283 -0.571859 0
M  V30 4218 C 414.953 -4.15744 -0.862678 0
M  V30 4219 O 415.977 -3.50083 -0.657314 0
M  V30 4220 O 414.836 -5.31909 -1.2544 0
M  V30 4221 H 411.93 -0.796016 -0.22425 0
M  V30 4222 H 414.476 -1.66976 0.302814 0
M  V30 4223 H 413.248 -3.89558 0.368844 0
M  V30 4224 H 412.871 -3.7436 -1.33943 0
M  V30 4225 N 413.868 0.0150385 -1.57593 0
M  V30 4226 C 414.815 1.01126 -2.07466 0
M  V30 4227 C 415.785 1.35064 -0.966794 0
M  V30 4228 O 416.97 1.4516 -1.23827 0
M  V30 4229 C 414.11 2.30276 -2.57035 0
M  V30 4230 C 413.223 2.02373 -3.81666 0
M  V30 4231 C 412.358 3.25496 -4.19793 0
M  V30 4232 C 411.397 2.93211 -5.37303 0
M  V30 4233 N 410.534 4.08826 -5.70794 0
M  V30 4234 H 415.374 0.57901 -2.92321 0
M  V30 4235 H 412.911 0.27426 -1.44521 0
M  V30 4236 H 414.869 3.05757 -2.83846 0
M  V30 4237 H 413.499 2.71197 -1.75077 0
M  V30 4238 H 412.551 1.17327 -3.61854 0
M  V30 4239 H 413.863 1.74567 -4.67256 0
M  V30 4240 H 413.017 4.09333 -4.47807 0
M  V30 4241 H 411.756 3.56428 -3.32882 0
M  V30 4242 H 410.761 2.07777 -5.09027 0
M  V30 4243 H 411.986 2.63542 -6.25877 0
M  V30 4244 H 409.932 4.39682 -4.86842 0
M  V30 4245 H 409.849 3.84491 -6.50924 0
M  V30 4246 H 411.117 4.93496 -6.03392 0
M  V30 4247 N 415.346 1.54954 0.287554 0
M  V30 4248 C 416.595 1.74081 1.01877 0
M  V30 4249 C 416.908 0.541135 1.87966 0
M  V30 4250 O 418.114 0.614491 2.64455 0
M  V30 4251 C 416.57 3.08042 1.86113 0
M  V30 4252 C 416.178 4.35531 1.04961 0
M  V30 4253 C 417.922 3.36523 2.58752 0
M  V30 4254 C 415.829 5.60538 1.88551 0
M  V30 4255 H 414.759 0.64884 0.384087 0
M  V30 4256 H 417.41 1.81426 0.275101 0
M  V30 4257 H 415.792 2.94696 2.64519 0
M  V30 4258 H 416.966 4.59751 0.31074 0
M  V30 4259 H 415.281 4.14085 0.43843 0
M  V30 4260 H 417.878 4.27122 3.21668 0
M  V30 4261 H 418.221 2.56 3.28283 0
M  V30 4262 H 418.754 3.50901 1.87386 0
M  V30 4263 H 415.493 6.43767 1.23466 0
M  V30 4264 H 415.013 5.40483 2.60074 0
M  V30 4265 H 416.692 5.98297 2.46273 0
M  V30 4266 N 416.824 -0.551391 1.4764 0
M  V30 4267 C 418.24 -0.877887 1.33287 0
M  V30 4268 C 418.44 -1.98817 0.327721 0
M  V30 4269 O 417.496 -2.51171 -0.258695 0
M  V30 4270 C 418.809 -1.26563 2.72768 0
M  V30 4271 C 420.357 -1.37673 2.81097 0
M  V30 4272 C 420.832 -1.79799 4.21232 0
M  V30 4273 N 422.323 -1.8694 4.23802 0
M  V30 4274 C 423.058 -2.20876 5.29151 0
M  V30 4275 N 422.554 -2.53386 6.448 0
M  V30 4276 N 424.347 -2.217 5.16532 0
M  V30 4277 H 416.498 0.18153 2.11623 0
M  V30 4278 H 418.761 0.0185514 0.947818 0
M  V30 4279 H 418.467 -0.523591 3.47781 0
M  V30 4280 H 418.341 -2.22052 3.04915 0
M  V30 4281 H 420.728 -2.10956 2.06353 0
M  V30 4282 H 420.809 -0.40357 2.52596 0
M  V30 4283 H 420.453 -1.07083 4.96483 0
M  V30 4284 H 420.383 -2.78128 4.4716 0
M  V30 4285 H 422.874 -1.64179 3.40373 0
M  V30 4286 H 423.187 -2.78325 7.20941 0
M  V30 4287 H 421.532 -2.50953 6.48111 0
M  V30 4288 H 424.723 -1.95745 4.25207 0
M  V30 4289 H 424.896 -2.47818 5.98741 0
M  V30 4290 N 418.302 -1.35869 -0.798587 0
M  V30 4291 C 419.265 -1.29307 -1.89242 0
M  V30 4292 C 420.265 -0.202747 -1.59517 0
M  V30 4293 O 421.455 -0.456957 -1.681 0
M  V30 4294 C 418.587 -1.00229 -3.25833 0
M  V30 4295 H 419.78 -2.26576 -1.96478 0
M  V30 4296 H 417.333 -1.20509 -0.995358 0
M  V30 4297 H 418.068 -0.033801 -3.24282 0
M  V30 4298 H 417.853 -1.79121 -3.48795 0
M  V30 4299 H 419.343 -0.98219 -4.05885 0
M  V30 4300 N 419.78 1.02168 -1.19998 0
M  V30 4301 C 421.029 1.75091 -1.0013 0
M  V30 4302 C 421.342 1.89923 0.467835 0
M  V30 4303 O 422.548 2.59888 0.785515 0
M  V30 4304 C 421.004 3.14892 -1.74273 0
M  V30 4305 C 420.612 3.0809 -3.25245 0
M  V30 4306 C 422.356 3.9206 -1.62755 0
M  V30 4307 C 420.263 4.42867 -3.91948 0
M  V30 4308 H 419.193 0.656394 -0.37103 0
M  V30 4309 H 421.844 1.14284 -1.43567 0
M  V30 4310 H 420.226 3.7621 -1.2362 0
M  V30 4311 H 421.4 2.5611 -3.83072 0
M  V30 4312 H 419.715 2.44416 -3.3712 0
M  V30 4313 H 422.312 4.91764 -2.09934 0
M  V30 4314 H 422.655 4.12199 -0.582894 0
M  V30 4315 H 423.188 3.37359 -2.10793 0
M  V30 4316 H 419.927 4.27931 -4.96543 0
M  V30 4317 H 419.447 4.94874 -3.3891 0
M  V30 4318 H 421.126 5.11728 -3.95909 0
M  V30 4319 N 421.258 1.00505 1.21394 0
M  V30 4320 C 422.221 0.570459 2.21987 0
M  V30 4321 C 423.221 -0.353211 1.56873 0
M  V30 4322 O 424.411 -0.14349 1.73608 0
M  V30 4323 C 421.543 -0.168555 3.40483 0
M  V30 4324 H 422.736 1.46021 2.6195 0
M  V30 4325 H 420.289 0.793565 1.34656 0
M  V30 4326 H 421.024 -1.07374 3.06009 0
M  V30 4327 H 420.809 0.494823 3.88965 0
M  V30 4328 H 422.299 -0.460362 4.15055 0
M  V30 4329 N 422.737 -1.36956 0.779787 0
M  V30 4330 C 423.983 -1.99787 0.348281 0
M  V30 4331 C 424.316 -1.61756 -1.07465 0
M  V30 4332 O 423.591 -0.867639 -1.74075 0
M  V30 4333 C 423.874 -3.56597 0.50104 0
M  V30 4334 C 423.727 -4.04513 1.96697 0
M  V30 4335 C 425.046 -4.40008 -0.0898097 0
M  V30 4336 H 422.165 -0.725796 0.128022 0
M  V30 4337 H 424.807 -1.62514 0.984331 0
M  V30 4338 H 422.957 -3.88479 -0.0404347 0
M  V30 4339 H 424.629 -3.83161 2.56876 0
M  V30 4340 H 422.872 -3.56408 2.47297 0
M  V30 4341 H 423.543 -5.1352 2.02486 0
M  V30 4342 H 426.019 -4.14431 0.372293 0
M  V30 4343 H 424.895 -5.4888 0.0471605 0
M  V30 4344 H 425.156 -4.26035 -1.18096 0
M  V30 4345 N 424.215 -0.530993 -1.48385 0
M  V30 4346 C 425.147 0.268353 -2.27624 0
M  V30 4347 C 426.16 0.903525 -1.35426 0
M  V30 4348 O 427.349 0.781796 -1.60469 0
M  V30 4349 C 424.449 1.39535 -3.08842 0
M  V30 4350 C 423.622 0.861913 -4.28824 0
M  V30 4351 C 422.681 1.87016 -4.91845 0
M  V30 4352 O 421.707 1.4267 -5.5103 0
M  V30 4353 N 422.909 3.20238 -4.84178 0
M  V30 4354 H 425.674 -0.41123 -2.96865 0
M  V30 4355 H 423.235 -0.365387 -1.57723 0
M  V30 4356 H 425.227 2.06803 -3.47871 0
M  V30 4357 H 423.797 1.97859 -2.42014 0
M  V30 4358 H 423.017 0.0132126 -3.94198 0
M  V30 4359 H 424.305 0.484415 -5.06489 0
M  V30 4360 H 423.703 3.58932 -4.37246 0
M  V30 4361 H 422.26 3.83136 -5.27305 0
M  V30 4362 N 425.693 1.55336 -0.266172 0
M  V30 4363 C 426.656 2.20878 0.612001 0
M  V30 4364 C 427.656 1.18388 1.08816 0
M  V30 4365 O 428.846 1.4335 0.989774 0
M  V30 4366 C 425.978 2.86765 1.84332 0
M  V30 4367 H 427.171 2.99873 0.0398718 0
M  V30 4368 H 424.724 1.56291 -0.0167309 0
M  V30 4369 H 425.459 2.11759 2.45619 0
M  V30 4370 H 425.244 3.61862 1.5099 0
M  V30 4371 H 426.734 3.36867 2.46801 0
M  V30 4372 N 427.171 -0.0066808 1.57599 0
M  V30 4373 C 428.401 -0.703066 1.94269 0
M  V30 4374 C 428.809 -1.68206 0.866222 0
M  V30 4375 O 428.152 -1.82966 -0.164087 0
M  V30 4376 C 428.214 -1.49616 3.26887 0
M  V30 4377 C 427.878 -0.679494 4.5192 0
M  V30 4378 C 428.875 0.0299508 5.19891 0
M  V30 4379 C 426.56 -0.627433 4.98366 0
M  V30 4380 C 428.554 0.780514 6.32603 0
M  V30 4381 C 426.241 0.126861 6.10968 0
M  V30 4382 C 427.239 0.829574 6.77943 0
M  V30 4383 O 426.927 1.57157 7.88389 0
M  V30 4384 H 426.659 -0.201217 0.645359 0
M  V30 4385 H 429.213 0.0385326 2.05364 0
M  V30 4386 H 427.443 -2.28209 3.12182 0
M  V30 4387 H 429.132 -2.07726 3.48719 0
M  V30 4388 H 429.898 -0.00115963 4.85 0
M  V30 4389 H 425.777 -1.16392 4.46065 0
M  V30 4390 H 429.321 1.32954 6.84813 0
M  V30 4391 H 425.218 0.159815 6.45302 0
M  V30 4392 H 425.986 1.48758 8.04868 0
M  V30 4393 N 428.649 -1.55105 -0.279332 0
M  V30 4394 C 429.581 -1.83952 -1.36727 0
M  V30 4395 C 430.594 -0.723642 -1.45833 0
M  V30 4396 O 431.783 -1.00141 -1.47763 0
M  V30 4397 C 428.883 -1.98183 -2.74912 0
M  V30 4398 C 428.056 -3.28787 -2.88475 0
M  V30 4399 C 427.115 -3.33162 -4.07295 0
M  V30 4400 O 426.141 -4.06576 -3.98353 0
M  V30 4401 N 427.343 -2.60109 -5.18964 0
M  V30 4402 H 430.108 -2.77853 -1.12328 0
M  V30 4403 H 427.669 -1.54945 -0.469442 0
M  V30 4404 H 429.661 -1.98488 -3.52682 0
M  V30 4405 H 428.231 -1.11177 -2.92162 0
M  V30 4406 H 427.451 -3.41075 -1.97641 0
M  V30 4407 H 428.739 -4.14933 -2.94463 0
M  V30 4408 H 428.137 -2.00136 -5.29115 0
M  V30 4409 H 426.694 -2.66143 -5.94988 0
M  V30 4410 N 430.127 0.543554 -1.4793 0
M  V30 4411 C 431.355 1.32516 -1.58894 0
M  V30 4412 C 431.77 1.87215 -0.244131 0
M  V30 4413 O 431.127 1.65709 0.764652 0
M  V30 4414 C 431.178 2.48554 -2.62494 0
M  V30 4415 O 430.899 1.96112 -3.91755 0
M  V30 4416 C 432.4 3.40572 -2.8377 0
M  V30 4417 H 429.62 0.403472 -0.536145 0
M  V30 4418 H 432.164 0.657106 -1.93655 0
M  V30 4419 H 430.319 3.1127 -2.30629 0
M  V30 4420 H 430.733 2.71967 -4.4848 0
M  V30 4421 H 432.207 4.18375 -3.60093 0
M  V30 4422 H 432.684 3.94965 -1.92092 0
M  V30 4423 H 433.29 2.8366 -3.16887 0
M  V30 4424 N 431.605 1.3629 0.791371 0
M  V30 4425 C 432.535 1.33137 1.91825 0
M  V30 4426 C 433.516 0.203168 1.68882 0
M  V30 4427 O 434.701 0.400509 1.90025 0
M  V30 4428 C 431.831 1.11793 3.28816 0
M  V30 4429 C 430.785 2.21417 3.66277 0
M  V30 4430 C 430.111 1.85218 5.01596 0
M  V30 4431 C 431.411 3.63489 3.75064 0
M  V30 4432 H 433.105 2.2743 1.9472 0
M  V30 4433 H 430.651 1.09479 0.935437 0
M  V30 4434 H 432.604 1.08222 4.07266 0
M  V30 4435 H 431.328 0.139501 3.26302 0
M  V30 4436 H 429.987 2.2411 2.90121 0
M  V30 4437 H 429.635 0.859544 4.95602 0
M  V30 4438 H 429.335 2.58611 5.27631 0
M  V30 4439 H 430.859 1.832 5.82469 0
M  V30 4440 H 432.273 3.63034 4.43711 0
M  V30 4441 H 430.67 4.35771 4.12582 0
M  V30 4442 H 431.74 3.98536 2.76219 0
M  V30 4443 N 433.083 -1.0153 1.20538 0
M  V30 4444 C 434.331 -1.74803 1.01432 0
M  V30 4445 C 434.652 -1.8963 -0.454456 0
M  V30 4446 O 433.922 -1.43975 -1.32846 0
M  V30 4447 H 432.502 -0.647598 0.372324 0
M  V30 4448 H 435.164 -1.22402 1.5167 0
M  V30 4449 H 434.26 -2.75114 1.47373 0
M  V30 4450 N 434.561 -1.01147 -1.20859 0
M  V30 4451 C 435.801 -0.706331 -1.91808 0
M  V30 4452 C 436.165 0.749736 -1.76757 0
M  V30 4453 O 437.366 1.16716 -2.42138 0
M  V30 4454 C 435.637 -1.12371 -3.39275 0
M  V30 4455 S 437.196 -0.939764 -4.28619 0
M  V30 4456 H 434.014 -0.257665 -0.662669 0
M  V30 4457 H 436.616 -1.29766 -1.46223 0
M  V30 4458 H 435.32 -2.17943 -3.47749 0
M  V30 4459 H 434.851 -0.524952 -3.89882 0
M  V30 4460 H 436.866 0.159556 -4.95943 0
M  V30 4461 N 436.039 1.36541 -0.78704 0
M  V30 4462 C 437.002 2.28413 -0.189778 0
M  V30 4463 C 438.002 1.48719 0.611499 0
M  V30 4464 O 439.192 1.68737 0.432842 0
M  V30 4465 C 436.324 3.32824 0.737638 0
M  V30 4466 H 437.517 2.82743 -0.999831 0
M  V30 4467 H 435.07 1.46065 -0.556298 0
M  V30 4468 H 435.805 2.83646 1.57212 0
M  V30 4469 H 435.59 3.91752 0.165044 0
M  V30 4470 H 437.08 4.0144 1.15047 0
M  V30 4471 N 437.518 0.538854 1.48102 0
M  V30 4472 C 438.766 0.00798599 2.02098 0
M  V30 4473 C 439.087 -1.33922 1.41739 0
M  V30 4474 O 438.357 -1.86932 0.585934 0
M  V30 4475 H 436.937 -3.62179e-05 0.747 0
M  V30 4476 H 439.599 0.7047 1.81714 0
M  V30 4477 H 438.695 -0.0937672 3.11959 0
M  V30 4478 N 438.996 -1.55193 0.274407 0
M  V30 4479 C 439.929 -2.18606 -0.654712 0
M  V30 4480 C 440.907 -1.14677 -1.15273 0
M  V30 4481 O 442.091 -1.43198 -1.22583 0
M  V30 4482 C 439.218 -2.80875 -1.89281 0
M  V30 4483 C 438.264 -3.981 -1.53032 0
M  V30 4484 S 439.097 -5.32025 -0.609107 0
M  V30 4485 C 440.253 -5.97761 -1.85559 0
M  V30 4486 H 440.486 -2.97074 -0.115894 0
M  V30 4487 H 438.019 -1.54288 0.05867 0
M  V30 4488 H 439.977 -3.17381 -2.60345 0
M  V30 4489 H 438.638 -2.02302 -2.40277 0
M  V30 4490 H 437.831 -4.40356 -2.45158 0
M  V30 4491 H 437.433 -3.63013 -0.899874 0
M  V30 4492 H 439.725 -6.16951 -2.7996 0
M  V30 4493 H 440.668 -6.92545 -1.47605 0
M  V30 4494 H 441.076 -5.27113 -2.02021 0
M  V30 4495 N 440.474 -0.00167713 -1.576 0
M  V30 4496 C 441.437 0.974046 -2.07473 0
M  V30 4497 C 442.437 1.27143 -0.984444 0
M  V30 4498 O 443.627 1.21633 -1.24703 0
M  V30 4499 C 440.759 2.29849 -2.51759 0
M  V30 4500 H 441.952 0.54262 -2.9495 0
M  V30 4501 H 439.505 0.245829 -1.54355 0
M  V30 4502 H 440.24 2.77677 -1.67529 0
M  V30 4503 H 440.025 2.09584 -3.31386 0
M  V30 4504 H 441.515 2.9984 -2.90664 0
M  V30 4505 N 441.952 1.55251 0.271103 0
M  V30 4506 C 443.368 1.47133 0.618393 0
M  V30 4507 C 443.568 0.686994 1.89427 0
M  V30 4508 O 442.624 0.206609 2.51653 0
M  V30 4509 C 443.937 2.91361 0.743593 0
M  V30 4510 C 445.485 3.01587 0.837522 0
M  V30 4511 C 445.96 4.47073 0.994483 0
M  V30 4512 N 447.451 4.50909 1.05996 0
M  V30 4513 C 448.186 5.60698 1.20024 0
M  V30 4514 N 447.682 6.80348 1.30759 0
M  V30 4515 N 449.475 5.48444 1.23149 0
M  V30 4516 H 441.626 2.04698 -0.566784 0
M  V30 4517 H 443.889 0.928319 -0.192165 0
M  V30 4518 H 443.595 3.51483 -0.123493 0
M  V30 4519 H 443.469 3.40484 1.62328 0
M  V30 4520 H 445.856 2.4156 1.69507 0
M  V30 4521 H 445.937 2.55713 -0.0668086 0
M  V30 4522 H 445.581 5.07703 0.141582 0
M  V30 4523 H 445.511 4.90605 1.91349 0
M  V30 4524 H 448.002 3.6472 0.989316 0
M  V30 4525 H 448.315 7.59772 1.41303 0
M  V30 4526 H 446.66 6.83156 1.27761 0
M  V30 4527 H 449.851 4.53907 1.14394 0
M  V30 4528 H 450.024 6.34049 1.33738 0
M  V30 4529 N 443.43 -0.535701 1.48216 0
M  V30 4530 C 444.676 -1.29375 1.56173 0
M  V30 4531 C 445.009 -1.92804 0.232429 0
M  V30 4532 O 444.284 -1.78992 -0.761048 0
M  V30 4533 C 444.567 -2.38747 2.69577 0
M  V30 4534 C 444.42 -1.80046 4.12193 0
M  V30 4535 C 445.739 -3.40551 2.78771 0
M  V30 4536 H 442.858 -0.469027 0.568491 0
M  V30 4537 H 445.5 -0.597358 1.80365 0
M  V30 4538 H 443.65 -2.98147 2.4908 0
M  V30 4539 H 445.322 -1.24742 4.44114 0
M  V30 4540 H 443.565 -1.10609 4.19462 0
M  V30 4541 H 444.236 -2.59212 4.87353 0
M  V30 4542 H 446.712 -2.91099 2.97322 0
M  V30 4543 H 445.588 -4.1448 3.59857 0
M  V30 4544 H 445.849 -4.00746 1.86696 0
M  V30 4545 N 444.908 -1.36708 -0.784132 0
M  V30 4546 C 446.185 -1.21776 -1.53069 0
M  V30 4547 C 446.565 0.193876 -2.10208 0
M  V30 4548 O 445.913 1.20012 -1.94446 0
M  V30 4549 C 446.123 -2.30395 -2.62143 0
M  V30 4550 C 447.471 -2.67325 -3.29882 0
M  V30 4551 O 448.495 -2.29478 -2.7243 0
M  V30 4552 O 447.354 -3.32485 -4.33724 0
M  V30 4553 H 444.448 -0.474459 -0.677361 0
M  V30 4554 H 446.994 -1.48454 -0.82216 0
M  V30 4555 H 445.766 -3.2498 -2.17953 0
M  V30 4556 H 445.389 -2.05112 -3.40609 0
M  V30 4557 N 446.386 1.0089 -1.21074 0
M  V30 4558 C 447.632 1.74866 -1.02712 0
M  V30 4559 C 447.965 1.89178 0.438787 0
M  V30 4560 O 447.24 1.42325 1.32567 0
M  V30 4561 C 447.523 3.16347 -1.72036 0
M  V30 4562 C 447.376 3.09782 -3.26121 0
M  V30 4563 C 448.695 4.15187 -1.45973 0
M  V30 4564 H 445.814 0.634736 -0.374539 0
M  V30 4565 H 448.456 1.17646 -1.49196 0
M  V30 4566 H 446.606 3.65201 -1.32517 0
M  V30 4567 H 448.278 2.68673 -3.74983 0
M  V30 4568 H 446.521 2.46982 -3.56626 0
M  V30 4569 H 447.192 4.09829 -3.6979 0
M  V30 4570 H 449.668 3.75022 -1.80272 0
M  V30 4571 H 448.544 5.12331 -1.96999 0
M  V30 4572 H 448.805 4.40386 -0.388924 0
M  V30 4573 N 447.864 1.01787 1.20321 0
M  V30 4574 C 449.111 0.707936 1.89722 0
M  V30 4575 C 449.439 -0.762535 1.78929 0
M  V30 4576 O 448.694 -1.56977 1.16861 0
M  V30 4577 C 448.993 1.09076 3.40349 0
M  V30 4578 C 448.659 2.55765 3.71342 0
M  V30 4579 C 447.321 2.95845 3.79511 0
M  V30 4580 C 449.673 3.50723 3.85542 0
M  V30 4581 C 447.001 4.2982 3.99339 0
M  V30 4582 C 449.353 4.84387 4.06881 0
M  V30 4583 C 448.017 5.24172 4.1328 0
M  V30 4584 H 447.287 0.259052 0.694243 0
M  V30 4585 H 449.934 1.27868 1.42555 0
M  V30 4586 H 448.239 0.438453 3.89339 0
M  V30 4587 H 449.936 0.828636 3.92345 0
M  V30 4588 H 446.526 2.2371 3.65584 0
M  V30 4589 H 450.71 3.20916 3.78585 0
M  V30 4590 H 445.966 4.60196 4.02529 0
M  V30 4591 H 450.14 5.57891 4.1681 0
M  V30 4592 H 447.767 6.27997 4.28396 0
M  V30 4593 N 449.342 -1.36122 0.79427 0
M  V30 4594 C 450.272 -2.32551 0.210328 0
M  V30 4595 C 451.253 -1.56884 -0.657386 0
M  V30 4596 O 452.438 -1.85014 -0.590207 0
M  V30 4597 C 449.568 -3.41128 -0.651819 0
M  V30 4598 C 448.522 -4.27842 0.116395 0
M  V30 4599 C 447.848 -5.2763 -0.86666 0
M  V30 4600 C 449.148 -5.05647 1.30837 0
M  V30 4601 H 450.842 -2.81636 1.01594 0
M  V30 4602 H 448.388 -1.35407 0.489981 0
M  V30 4603 H 450.341 -4.07581 -1.07031 0
M  V30 4604 H 449.065 -2.90622 -1.49019 0
M  V30 4605 H 447.724 -3.62952 0.515915 0
M  V30 4606 H 447.372 -4.73395 -1.70019 0
M  V30 4607 H 447.072 -5.86514 -0.35705 0
M  V30 4608 H 448.596 -5.96955 -1.28361 0
M  V30 4609 H 450.01 -5.65113 0.965393 0
M  V30 4610 H 448.407 -5.73967 1.75161 0
M  V30 4611 H 449.477 -4.37006 2.10128 0
M  V30 4612 N 450.82 -0.546701 -1.47814 0
M  V30 4613 C 452.048 -0.0232857 -2.06887 0
M  V30 4614 C 452.463 1.26571 -1.4009 0
M  V30 4615 O 451.82 1.7569 -0.493906 0
M  V30 4616 C 451.871 0.186975 -3.61016 0
M  V30 4617 O 451.592 -1.05097 -4.25307 0
M  V30 4618 C 453.093 0.748872 -4.36929 0
M  V30 4619 H 450.313 -0.0410763 -0.669742 0
M  V30 4620 H 452.857 -0.757117 -1.89968 0
M  V30 4621 H 451.012 0.870903 -3.77484 0
M  V30 4622 H 451.426 -0.842121 -5.17695 0
M  V30 4623 H 452.9 0.845334 -5.45489 0
M  V30 4624 H 453.377 1.75772 -4.02493 0
M  V30 4625 H 453.983 0.100979 -4.2518 0
M  V30 4626 N 452.299 1.55045 -0.282633 0
M  V30 4627 C 453.71 1.85473 0.213655 0
M  V30 4628 C 454.061 1.20465 1.54863 0
M  V30 4629 O 453.186 0.495676 2.10647 0
M  V30 4630 C 453.781 3.36496 0.394445 0
M  V30 4631 C 452.34 3.67022 0.834961 0
M  V30 4632 C 451.487 2.77218 -0.0674081 0
M  V30 4633 H 454.438 1.50478 -0.504202 0
M  V30 4634 H 454.459 3.60007 1.23186 0
M  V30 4635 H 453.971 3.83782 -0.577326 0
M  V30 4636 H 452.072 3.25241 1.81794 0
M  V30 4637 H 452.185 4.74433 0.667075 0
M  V30 4638 H 450.549 2.5069 0.450196 0
M  V30 4639 H 451.332 3.2732 -1.0352 0
M  V30 4640 N 453.777 0.010035 1.57597 0
M  V30 4641 C 454.687 -0.994226 2.12491 0
M  V30 4642 C 455.703 -1.37013 1.07254 0
M  V30 4643 O 456.879 -1.45542 1.3921 0
M  V30 4644 C 453.944 -2.2642 2.62555 0
M  V30 4645 C 453.005 -1.95049 3.82432 0
M  V30 4646 C 452.238 -3.15991 4.30099 0
M  V30 4647 O 452.461 -4.28015 3.7704 0
M  V30 4648 O 451.395 -2.99403 5.22151 0
M  V30 4649 H 455.221 -0.557549 2.98538 0
M  V30 4650 H 452.806 -0.209413 1.47925 0
M  V30 4651 H 454.688 -3.01009 2.9491 0
M  V30 4652 H 453.363 -2.69306 1.796 0
M  V30 4653 H 452.27 -1.17904 3.55034 0
M  V30 4654 H 453.603 -1.56992 4.66491 0
M  V30 4655 N 455.255 -1.55392 -0.262866 0
M  V30 4656 C 456.203 -1.8977 -1.345 0
M  V30 4657 C 457.197 -0.775063 -1.50629 0
M  V30 4658 O 458.403 -0.959519 -1.52293 0
M  V30 4659 H 454.778 -0.602467 -0.450041 0
M  V30 4660 H 456.749 -2.80147 -1.02762 0
M  V30 4661 C 455.498 -2.19501 -2.69657 0
M  V30 4662 H 454.821 -3.05378 -2.5804 0
M  V30 4663 H 456.261 -2.47469 -3.44289 0
M  V30 4664 C 454.72 -1.00597 -3.21531 0
M  V30 4665 O 455.25 -0.245768 -4.00947 0
M  V30 4666 N 453.456 -0.800911 -2.79345 0
M  V30 4667 H 453.003 -1.42079 -2.14875 0
M  V30 4668 H 452.961 -0.00697996 -3.14399 0
M  V30 4669 N 456.733 0.527833 -1.48498 0
M  V30 4670 C 457.643 1.65907 -1.65867 0
M  V30 4671 C 458.659 1.6537 -0.541192 0
M  V30 4672 O 459.835 1.84282 -0.812534 0
M  V30 4673 C 456.9 3.02364 -1.69637 0
M  V30 4674 C 455.961 3.1374 -2.93028 0
M  V30 4675 C 455.194 4.43688 -2.96609 0
M  V30 4676 O 455.417 5.30913 -2.08538 0
M  V30 4677 O 454.351 4.59475 -3.88802 0
M  V30 4678 H 458.177 1.5419 -2.61647 0
M  V30 4679 H 455.762 0.701163 -1.31924 0
M  V30 4680 H 457.644 3.83515 -1.74625 0
M  V30 4681 H 456.319 3.14401 -0.770312 0
M  V30 4682 H 455.226 2.31877 -2.93571 0
M  V30 4683 H 456.559 3.06621 -3.85026 0
M  V30 4684 N 458.211 1.37122 0.776871 0
M  V30 4685 C 459.457 1.32243 1.53752 0
M  V30 4686 C 459.79 -0.0944745 1.9397 0
M  V30 4687 O 459.065 -1.05068 1.6368 0
M  V30 4688 C 459.348 2.25681 2.80607 0
M  V30 4689 C 459.201 3.76127 2.46676 0
M  V30 4690 C 460.52 2.17657 3.82509 0
M  V30 4691 H 457.639 0.481704 0.557791 0
M  V30 4692 H 460.281 1.6778 0.891612 0
M  V30 4693 H 458.431 1.95505 3.35723 0
M  V30 4694 H 460.103 4.16877 1.97513 0
M  V30 4695 H 458.346 3.94946 1.79443 0
M  V30 4696 H 459.017 4.36933 3.37333 0
M  V30 4697 H 461.493 2.44245 3.36873 0
M  V30 4698 H 460.369 2.85185 4.69 0
M  V30 4699 H 460.63 1.16785 4.26396 0
M  V30 4700 N 459.689 -1.00246 1.21608 0
M  V30 4701 C 460.935 -1.74319 1.03638 0
M  V30 4702 C 461.268 -1.89408 -0.428749 0
M  V30 4703 O 460.543 -1.43026 -1.3181 0
M  V30 4704 C 460.826 -3.15431 1.73711 0
M  V30 4705 C 460.679 -3.08049 3.27759 0
M  V30 4706 C 461.998 -4.14407 1.48173 0
M  V30 4707 H 459.117 -0.632741 0.377899 0
M  V30 4708 H 461.759 -1.16853 1.49818 0
M  V30 4709 H 459.909 -3.64493 1.34452 0
M  V30 4710 H 461.581 -2.66681 3.76403 0
M  V30 4711 H 459.824 -2.45088 3.57931 0
M  V30 4712 H 460.495 -4.07862 3.71958 0
M  V30 4713 H 462.971 -3.74061 1.82258 0
M  V30 4714 H 461.847 -5.11279 1.99713 0
M  V30 4715 H 462.108 -4.40174 0.412273 0
M  V30 4716 N 461.167 -1.02423 -1.1978 0
M  V30 4717 C 462.416 -0.713265 -1.88667 0
M  V30 4718 C 462.729 0.7609 -1.80193 0
M  V30 4719 O 463.935 1.18473 -2.44288 0
M  V30 4720 C 462.391 -1.22545 -3.38394 0
M  V30 4721 C 461.999 -2.72706 -3.55437 0
M  V30 4722 C 463.743 -0.990257 -4.12788 0
M  V30 4723 C 461.65 -3.17367 -4.99031 0
M  V30 4724 H 460.58 -0.263105 -0.706606 0
M  V30 4725 H 463.231 -1.23792 -1.35454 0
M  V30 4726 H 461.613 -0.628732 -3.90977 0
M  V30 4727 H 462.787 -3.37993 -3.13205 0
M  V30 4728 H 461.102 -2.94453 -2.94425 0
M  V30 4729 H 463.699 -1.29926 -5.18675 0
M  V30 4730 H 464.042 0.0730761 -4.16236 0
M  V30 4731 H 464.575 -1.55074 -3.66329 0
M  V30 4732 H 461.314 -4.23009 -5.00743 0
M  V30 4733 H 460.834 -2.56805 -5.42044 0
M  V30 4734 H 462.513 -3.10441 -5.67658 0
M  V30 4735 N 462.645 1.35699 -0.801477 0
M  V30 4736 C 463.593 2.3177 -0.196317 0
M  V30 4737 C 464.587 1.56388 0.651081 0
M  V30 4738 O 465.793 1.71557 0.544815 0
M  V30 4739 H 462.168 0.750669 -0.0447189 0
M  V30 4740 H 464.139 2.8036 -1.02181 0
M  V30 4741 C 462.888 3.41671 0.644702 0
M  V30 4742 H 462.211 3.998 0.0019921 0
M  V30 4743 H 463.651 4.11184 1.0346 0
M  V30 4744 C 462.11 2.84271 1.80808 0
M  V30 4745 O 462.64 2.77408 2.9053 0
M  V30 4746 N 460.846 2.41391 1.61799 0
M  V30 4747 H 460.393 2.47173 0.725493 0
M  V30 4748 H 460.351 2.03334 2.39797 0
M  V30 4749 N 464.123 0.554532 1.47522 0
M  V30 4750 C 465.033 -0.197865 2.33764 0
M  V30 4751 C 466.049 -0.914576 1.48025 0
M  V30 4752 O 467.225 -0.884067 1.80959 0
M  V30 4753 C 464.29 -1.21628 3.24665 0
M  V30 4754 C 463.351 -0.507283 4.26292 0
M  V30 4755 C 462.584 -1.47718 5.1285 0
M  V30 4756 O 462.807 -2.7118 5.01814 0
M  V30 4757 O 461.741 -1.00313 5.93482 0
M  V30 4758 H 465.567 0.50949 2.99396 0
M  V30 4759 H 463.152 0.315176 1.46038 0
M  V30 4760 H 465.034 -1.80421 3.80823 0
M  V30 4761 H 463.709 -1.9056 2.61665 0
M  V30 4762 H 462.616 0.121778 3.73902 0
M  V30 4763 H 463.949 0.140544 4.91999 0
M  V30 4764 N 465.601 -1.54893 0.290851 0
M  V30 4765 C 466.85 -1.99111 -0.322113 0
M  V30 4766 C 467.163 -1.18283 -1.55784 0
M  V30 4767 O 468.369 -1.5272 -2.24475 0
M  V30 4768 C 466.825 -3.54442 -0.624438 0
M  V30 4769 C 466.433 -4.44066 0.592373 0
M  V30 4770 C 468.177 -4.07211 -1.19916 0
M  V30 4771 C 466.084 -5.90812 0.263762 0
M  V30 4772 H 465.014 -0.743712 -0.124133 0
M  V30 4773 H 467.665 -1.79132 0.39797 0
M  V30 4774 H 466.047 -3.70281 -1.40384 0
M  V30 4775 H 467.221 -4.39999 1.36886 0
M  V30 4776 H 465.536 -4.02015 1.08502 0
M  V30 4777 H 468.133 -5.14407 -1.45909 0
M  V30 4778 H 468.476 -3.57196 -2.13815 0
M  V30 4779 H 469.009 -3.94873 -0.481687 0
M  V30 4780 H 465.748 -6.44955 1.17105 0
M  V30 4781 H 465.268 -5.97911 -0.475655 0
M  V30 4782 H 466.947 -6.46852 -0.138354 0
M  V30 4783 N 467.08 -0.0183926 -1.57589 0
M  V30 4784 C 468.028 0.985111 -2.10709 0
M  V30 4785 C 469.022 1.34397 -1.0312 0
M  V30 4786 O 470.228 1.32746 -1.21567 0
M  V30 4787 H 466.603 0.335418 -0.673052 0
M  V30 4788 H 468.574 0.511689 -2.9398 0
M  V30 4789 C 467.323 2.26202 -2.64061 0
M  V30 4790 H 466.646 1.9946 -3.4649 0
M  V30 4791 H 468.086 2.94652 -3.04887 0
M  V30 4792 C 466.545 2.98444 -1.5631 0
M  V30 4793 O 467.075 3.90142 -0.956674 0
M  V30 4794 N 465.281 2.6059 -1.28612 0
M  V30 4795 H 464.828 1.86101 -1.78112 0
M  V30 4796 H 464.786 3.09238 -0.567406 0
M  V30 4797 N 468.558 1.5553 0.254621 0
M  V30 4798 C 469.786 1.81046 1.00149 0
M  V30 4799 C 470.201 0.593047 1.79244 0
M  V30 4800 O 469.558 -0.438196 1.77161 0
M  V30 4801 C 469.609 3.04684 1.94551 0
M  V30 4802 O 469.33 4.21725 1.18658 0
M  V30 4803 C 470.831 3.42943 2.80901 0
M  V30 4804 H 468.051 0.602653 0.295044 0
M  V30 4805 H 470.595 2.02576 0.279842 0
M  V30 4806 H 468.75 2.85226 2.62154 0
M  V30 4807 H 469.164 4.91746 1.82445 0
M  V30 4808 H 470.638 4.32576 3.42902 0
M  V30 4809 H 471.115 2.63176 3.51617 0
M  V30 4810 H 471.721 3.64724 2.18762 0
M  V30 4811 N 470.036 -0.519951 1.48776 0
M  V30 4812 C 470.966 -1.63253 1.66945 0
M  V30 4813 C 471.947 -1.62014 0.518224 0
M  V30 4814 O 473.132 -1.79053 0.751919 0
M  V30 4815 C 470.262 -3.0181 1.71836 0
M  V30 4816 C 469.216 -3.17911 2.8656 0
M  V30 4817 C 468.542 -4.5763 2.76548 0
M  V30 4818 C 469.842 -2.99729 4.27738 0
M  V30 4819 H 471.536 -1.48302 2.6009 0
M  V30 4820 H 469.082 -0.712026 1.25165 0
M  V30 4821 H 471.035 -3.79525 1.83135 0
M  V30 4822 H 469.759 -3.17806 0.752775 0
M  V30 4823 H 468.418 -2.42616 2.74833 0
M  V30 4824 H 468.066 -4.70476 1.77937 0
M  V30 4825 H 467.766 -4.69346 3.53536 0
M  V30 4826 H 469.29 -5.37431 2.89828 0
M  V30 4827 H 470.704 -3.67228 4.40246 0
M  V30 4828 H 469.101 -3.22932 5.05801 0
M  V30 4829 H 470.171 -1.96047 4.43502 0
M  V30 4830 N 471.514 -1.37532 -0.769588 0
M  V30 4831 C 472.925 -1.29382 -1.346 0
M  V30 4832 C 473.276 0.0576039 -1.96115 0
M  V30 4833 O 472.401 0.95947 -1.93967 0
M  V30 4834 C 472.996 -2.34298 -2.44724 0
M  V30 4835 C 471.555 -2.29776 -2.98128 0
M  V30 4836 C 470.702 -2.18013 -1.71364 0
M  V30 4837 H 473.653 -1.48123 -0.56968 0
M  V30 4838 H 473.674 -1.99089 -3.24259 0
M  V30 4839 H 473.186 -3.32645 -1.99922 0
M  V30 4840 H 471.287 -1.34959 -3.47299 0
M  V30 4841 H 471.4 -3.23276 -3.53595 0
M  V30 4842 H 469.764 -1.64595 -1.94372 0
M  V30 4843 H 470.547 -3.18278 -1.28662 0
M  V30 4844 N 472.992 0.995999 -1.22138 0
M  V30 4845 C 474.24 1.73167 -1.042 0
M  V30 4846 C 474.561 1.90329 0.42423 0
M  V30 4847 O 473.831 1.4607 1.30539 0
M  V30 4848 H 472.411 0.641593 -0.38258 0
M  V30 4849 H 475.073 1.19974 -1.53598 0
M  V30 4850 H 474.169 2.72734 -1.51731 0
M  V30 4851 N 474.47 1.03057 1.19235 0
M  V30 4852 C 475.717 0.728019 1.88961 0
M  V30 4853 C 476.045 -0.743515 1.79728 0
M  V30 4854 O 475.3 -1.55729 1.1852 0
M  V30 4855 C 475.599 1.1268 3.39172 0
M  V30 4856 C 475.265 2.5969 3.68608 0
M  V30 4857 C 473.927 2.99854 3.76352 0
M  V30 4858 C 476.279 3.54793 3.81801 0
M  V30 4859 C 473.607 4.34031 3.94758 0
M  V30 4860 C 475.959 4.88675 4.0172 0
M  V30 4861 C 474.623 5.28526 4.07697 0
M  V30 4862 H 473.893 0.266401 0.691456 0
M  V30 4863 H 476.54 1.29373 1.41191 0
M  V30 4864 H 474.845 0.479722 3.88852 0
M  V30 4865 H 476.542 0.870203 3.91444 0
M  V30 4866 H 473.132 2.27575 3.63191 0
M  V30 4867 H 477.316 3.24914 3.7516 0
M  V30 4868 H 472.572 4.6444 3.97625 0
M  V30 4869 H 476.746 5.6228 4.1087 0
M  V30 4870 H 474.373 6.32506 4.21712 0
M  V30 4871 N 475.948 -1.35272 0.808662 0
M  V30 4872 C 477.176 -2.02946 0.402537 0
M  V30 4873 C 477.591 -1.60937 -0.987147 0
M  V30 4874 O 476.948 -0.807917 -1.63643 0
M  V30 4875 C 476.999 -3.58317 0.47868 0
M  V30 4876 O 476.72 -3.98799 1.81358 0
M  V30 4877 C 478.221 -4.43251 0.0656281 0
M  V30 4878 H 475.441 -0.650831 0.163279 0
M  V30 4879 H 477.985 -1.72849 1.09286 0
M  V30 4880 H 476.14 -3.87055 -0.163415 0
M  V30 4881 H 476.554 -4.93451 1.77781 0
M  V30 4882 H 478.028 -5.51738 0.170017 0
M  V30 4883 H 478.505 -4.27913 -0.989278 0
M  V30 4884 H 479.111 -4.19813 0.68096 0
M  V30 4885 N 477.426 -0.562348 -1.47226 0
M  V30 4886 C 478.374 0.195476 -2.31777 0
M  V30 4887 C 479.368 0.90433 -1.43242 0
M  V30 4888 O 480.574 0.825031 -1.59979 0
M  V30 4889 H 476.949 0.0819095 -0.747526 0
M  V30 4890 H 478.92 -0.536753 -2.93533 0
M  V30 4891 C 477.669 1.20902 -3.26003 0
M  V30 4892 H 476.992 0.672997 -3.94095 0
M  V30 4893 H 478.432 1.71006 -3.87986 0
M  V30 4894 C 476.891 2.25955 -2.49891 0
M  V30 4895 O 477.421 3.32969 -2.2471 0
M  V30 4896 N 475.627 2.00019 -2.1081 0
M  V30 4897 H 475.174 1.13006 -2.31489 0
M  V30 4898 H 475.132 2.70523 -1.60201 0
M  V30 4899 N 478.904 1.54736 -0.299062 0
M  V30 4900 C 480.153 1.99279 0.311549 0
M  V30 4901 C 480.466 1.19107 1.55154 0
M  V30 4902 O 481.672 1.53908 2.23662 0
M  V30 4903 C 480.128 3.54768 0.605632 0
M  V30 4904 C 479.736 4.43746 -0.615914 0
M  V30 4905 C 481.48 4.07841 1.17754 0
M  V30 4906 C 479.387 5.90663 -0.29509 0
M  V30 4907 H 478.317 0.744359 0.120187 0
M  V30 4908 H 480.968 1.78919 -0.407464 0
M  V30 4909 H 479.35 3.71021 1.38419 0
M  V30 4910 H 480.524 4.39267 -1.39218 0
M  V30 4911 H 478.839 4.01434 -1.10633 0
M  V30 4912 H 481.436 5.15174 1.43179 0
M  V30 4913 H 481.779 3.58324 2.11918 0
M  V30 4914 H 482.312 3.95123 0.460739 0
M  V30 4915 H 479.051 6.44325 -1.20524 0
M  V30 4916 H 478.571 5.98155 0.44394 0
M  V30 4917 H 480.25 6.46916 0.104048 0
M  V30 4918 N 480.382 0.0267497 1.57577 0
M  V30 4919 C 481.607 -0.666227 1.96408 0
M  V30 4920 C 482.032 -1.65004 0.903071 0
M  V30 4921 O 481.39 -1.80787 -0.136263 0
M  V30 4922 C 481.438 -1.35101 3.34335 0
M  V30 4923 O 480.542 -2.46623 3.30531 0
M  V30 4924 H 479.883 -0.175206 0.640468 0
M  V30 4925 H 482.413 0.0878977 2.04411 0
M  V30 4926 H 482.423 -1.70834 3.70513 0
M  V30 4927 H 481.098 -0.629844 4.11103 0
M  V30 4928 H 479.675 -2.13019 3.06068 0
M  V30 4929 N 481.861 -1.55662 -0.24637 0
M  V30 4930 C 482.794 -1.85332 -1.33143 0
M  V30 4931 C 483.772 -0.708464 -1.46354 0
M  V30 4932 O 484.956 -0.954274 -1.6256 0
M  V30 4933 C 482.083 -2.0385 -2.70487 0
M  V30 4934 C 481.129 -3.26488 -2.74423 0
M  V30 4935 S 481.962 -4.83124 -2.30979 0
M  V30 4936 C 483.118 -5.04647 -3.70246 0
M  V30 4937 H 483.351 -2.77077 -1.07777 0
M  V30 4938 H 480.884 -1.47776 -0.44738 0
M  V30 4939 H 482.842 -2.15202 -3.49569 0
M  V30 4940 H 481.503 -1.12947 -2.9309 0
M  V30 4941 H 480.696 -3.36413 -3.7529 0
M  V30 4942 H 480.298 -3.13864 -2.03385 0
M  V30 4943 H 482.59 -4.92023 -4.65746 0
M  V30 4944 H 483.533 -6.06625 -3.65255 0
M  V30 4945 H 483.941 -4.32491 -3.62784 0
M  V30 4946 N 483.339 0.512053 -1.4905 0
M  V30 4947 C 484.569 1.28928 -1.61434 0
M  V30 4948 C 484.977 1.87107 -0.280647 0
M  V30 4949 O 484.32 1.68024 0.742537 0
M  V30 4950 C 484.382 2.466 -2.61588 0
M  V30 4951 C 484.046 2.09375 -4.06216 0
M  V30 4952 C 485.043 1.63994 -4.93358 0
M  V30 4953 C 482.728 2.19348 -4.51876 0
M  V30 4954 C 484.722 1.29076 -6.24194 0
M  V30 4955 C 482.409 1.84041 -5.82728 0
M  V30 4956 C 483.407 1.38978 -6.68711 0
M  V30 4957 O 483.095 1.04144 -7.97126 0
M  V30 4958 H 482.827 0.397668 -0.546659 0
M  V30 4959 H 485.381 0.622507 -1.9574 0
M  V30 4960 H 483.611 3.16318 -2.22441 0
M  V30 4961 H 485.3 3.08642 -2.63619 0
M  V30 4962 H 486.066 1.55744 -4.59313 0
M  V30 4963 H 481.945 2.53376 -3.85125 0
M  V30 4964 H 485.489 0.938303 -6.91261 0
M  V30 4965 H 481.386 1.91938 -6.16304 0
M  V30 4966 H 482.154 1.17387 -8.10039 0
M  V30 4967 N 484.817 1.37938 0.762283 0
M  V30 4968 C 486.228 1.30094 1.33912 0
M  V30 4969 C 486.579 -0.0472026 1.96143 0
M  V30 4970 O 485.704 -0.94917 1.94473 0
M  V30 4971 C 486.299 2.35592 2.43478 0
M  V30 4972 C 484.858 2.31353 2.96905 0
M  V30 4973 C 484.005 2.18919 1.70205 0
M  V30 4974 H 486.956 1.48423 0.561816 0
M  V30 4975 H 486.977 2.00806 3.23199 0
M  V30 4976 H 486.489 3.33701 1.98155 0
M  V30 4977 H 484.59 1.36799 3.46579 0
M  V30 4978 H 484.703 3.25147 3.51875 0
M  V30 4979 H 483.067 1.65624 1.93496 0
M  V30 4980 H 483.85 3.18956 1.26973 0
M  V30 4981 N 486.295 -0.989507 1.22664 0
M  V30 4982 C 487.242 -2.08024 0.999733 0
M  V30 4983 C 488.212 -1.65909 -0.0797047 0
M  V30 4984 O 489.397 -1.90669 0.0705715 0
M  V30 4985 C 486.537 -3.40067 0.587234 0
M  V30 4986 C 485.65 -3.95505 1.73781 0
M  V30 4987 C 484.785 -5.15722 1.27297 0
M  V30 4988 C 483.824 -5.63305 2.39488 0
M  V30 4989 N 482.961 -6.74758 1.94026 0
M  V30 4990 H 487.801 -2.26768 1.9334 0
M  V30 4991 H 485.338 -1.11171 0.963297 0
M  V30 4992 H 487.296 -4.15899 0.329227 0
M  V30 4993 H 485.926 -3.21314 -0.309426 0
M  V30 4994 H 484.978 -3.16513 2.11006 0
M  V30 4995 H 486.29 -4.26797 2.58158 0
M  V30 4996 H 485.444 -5.98854 0.972546 0
M  V30 4997 H 484.183 -4.86061 0.399445 0
M  V30 4998 H 483.188 -4.78759 2.70315 0
M  V30 4999 H 484.413 -5.94988 3.27362 0
M  V30 5000 H 482.359 -6.46874 1.09041 0
M  V30 5001 H 482.276 -7.05386 2.71968 0
M  V30 5002 H 483.544 -7.61387 1.67062 0
M  V30 5003 N 487.773 -1.03688 -1.18687 0
M  V30 5004 C 488.703 -0.645407 -2.24403 0
M  V30 5005 C 489.684 0.349511 -1.66471 0
M  V30 5006 O 490.869 0.230453 -1.92828 0
M  V30 5007 C 487.999 -0.00365337 -3.473 0
M  V30 5008 C 486.953 -0.921705 -4.17958 0
M  V30 5009 C 486.279 -0.144629 -5.34504 0
M  V30 5010 C 487.579 -2.23909 -4.71871 0
M  V30 5011 H 489.273 -1.52917 -2.57404 0
M  V30 5012 H 486.819 -0.736711 -1.23728 0
M  V30 5013 H 488.772 0.281908 -4.20456 0
M  V30 5014 H 487.496 0.914963 -3.13522 0
M  V30 5015 H 486.155 -1.19159 -3.46694 0
M  V30 5016 H 485.803 0.776274 -4.96974 0
M  V30 5017 H 485.503 -0.756206 -5.82714 0
M  V30 5018 H 487.027 0.134004 -6.10453 0
M  V30 5019 H 488.441 -2.0145 -5.36741 0
M  V30 5020 H 486.838 -2.8033 -5.30599 0
M  V30 5021 H 487.908 -2.88822 -3.895 0
M  V30 5022 N 489.251 1.34841 -0.815825 0
M  V30 5023 C 490.497 1.99219 -0.410288 0
M  V30 5024 C 490.852 1.63532 1.01366 0
M  V30 5025 O 490.145 0.893093 1.69512 0
M  V30 5026 C 490.339 3.53273 -0.541541 0
M  V30 5027 C 490.168 4.03927 -1.9767 0
M  V30 5028 C 488.938 4.32852 -2.60706 0
M  V30 5029 C 491.136 4.21808 -2.9425 0
M  V30 5030 N 489.118 4.69494 -3.95536 0
M  V30 5031 C 490.489 4.6155 -4.13971 0
M  V30 5032 C 492.544 4.04038 -2.9096 0
M  V30 5033 C 491.247 4.85381 -5.30847 0
M  V30 5034 C 493.273 4.29031 -4.07046 0
M  V30 5035 C 492.635 4.69054 -5.25517 0
M  V30 5036 H 488.734 0.756494 -0.198094 0
M  V30 5037 H 491.318 1.63379 -1.05902 0
M  V30 5038 H 489.489 3.88323 0.0772544 0
M  V30 5039 H 491.221 4.04551 -0.109694 0
M  V30 5040 H 487.976 4.23503 -2.11995 0
M  V30 5041 H 488.4 4.92061 -4.64979 0
M  V30 5042 H 493.042 3.7223 -2.00512 0
M  V30 5043 H 490.76 5.16059 -6.21859 0
M  V30 5044 H 494.346 4.16826 -4.05891 0
M  V30 5045 H 493.226 4.88014 -6.1385 0
M  V30 5046 N 490.729 0.570148 1.46925 0
M  V30 5047 C 491.661 -0.207909 2.28255 0
M  V30 5048 C 492.674 -0.867301 1.37774 0
M  V30 5049 O 493.863 -0.738976 1.62485 0
M  V30 5050 C 490.963 -1.31298 3.12433 0
M  V30 5051 C 490.136 -0.747915 4.30958 0
M  V30 5052 C 489.195 -1.7391 4.9663 0
M  V30 5053 O 488.221 -1.2801 5.54619 0
M  V30 5054 N 489.423 -3.07288 4.92498 0
M  V30 5055 H 492.188 0.489794 2.95671 0
M  V30 5056 H 489.749 0.407076 1.56699 0
M  V30 5057 H 491.741 -1.97507 3.53232 0
M  V30 5058 H 490.311 -1.91373 2.47175 0
M  V30 5059 H 489.531 0.0913066 3.94094 0
M  V30 5060 H 490.819 -0.349958 5.07595 0
M  V30 5061 H 490.217 -3.47213 4.46609 0
M  V30 5062 H 488.774 -3.69021 5.37277 0
M  V30 5063 N 492.207 -1.54576 0.307264 0
M  V30 5064 C 493.17 -2.22423 -0.553224 0
M  V30 5065 C 494.17 -1.21231 -1.05639 0
M  V30 5066 O 495.36 -1.45923 -0.951419 0
M  V30 5067 C 492.492 -2.91552 -1.76664 0
M  V30 5068 H 493.685 -2.99874 0.0396484 0
M  V30 5069 H 491.238 -1.56192 0.0581629 0
M  V30 5070 H 491.973 -2.18196 -2.39918 0
M  V30 5071 H 491.758 -3.65738 -1.41343 0
M  V30 5072 H 493.248 -3.43292 -2.37783 0
M  V30 5073 N 493.685 -0.035106 -1.57561 0
M  V30 5074 C 494.91 0.655802 -1.96759 0
M  V30 5075 C 495.335 1.64523 -0.911809 0
M  V30 5076 O 494.693 1.80857 0.126673 0
M  V30 5077 C 494.741 1.33326 -3.35047 0
M  V30 5078 O 493.845 2.44866 -3.31835 0
M  V30 5079 H 493.186 0.171807 -0.641388 0
M  V30 5080 H 495.716 -0.0987369 -2.04362 0
M  V30 5081 H 495.726 1.68867 -3.71413 0
M  V30 5082 H 494.401 0.608033 -4.11431 0
M  V30 5083 H 492.978 2.11392 -3.07193 0
M  V30 5084 N 495.163 1.55791 0.238111 0
M  V30 5085 C 496.411 1.77681 0.963001 0
M  V30 5086 C 496.732 0.600674 1.85518 0
M  V30 5087 O 496.002 -0.383182 1.92116 0
M  V30 5088 H 494.582 0.655315 0.358568 0
M  V30 5089 H 497.244 1.93239 0.253945 0
M  V30 5090 H 496.34 2.69177 1.57956 0
M  V30 5091 N 496.642 -0.504142 1.49319 0
M  V30 5092 C 497.572 -1.61473 1.68667 0
M  V30 5093 C 498.553 -1.61455 0.535378 0
M  V30 5094 O 499.738 -1.78245 0.770868 0
M  V30 5095 C 496.868 -2.99971 1.75028 0
M  V30 5096 C 495.822 -3.14854 2.89916 0
M  V30 5097 C 495.148 -4.54671 2.81387 0
M  V30 5098 C 496.448 -2.95176 4.30893 0
M  V30 5099 H 498.142 -1.45535 2.61648 0
M  V30 5100 H 495.688 -0.698711 1.25913 0
M  V30 5101 H 497.641 -3.77562 1.8715 0
M  V30 5102 H 496.365 -3.1699 0.786441 0
M  V30 5103 H 495.024 -2.39687 2.77391 0
M  V30 5104 H 494.672 -4.68562 1.82917 0
M  V30 5105 H 494.372 -4.6557 3.58494 0
M  V30 5106 H 495.896 -5.34327 2.95512 0
M  V30 5107 H 497.31 -3.62538 4.44116 0
M  V30 5108 H 495.707 -3.17549 5.09198 0
M  V30 5109 H 496.777 -1.91332 4.45556 0
M  V30 5110 N 498.12 -1.38341 -0.754957 0
M  V30 5111 C 499.368 -1.34208 -1.51105 0
M  V30 5112 C 499.689 0.0677634 -1.94882 0
M  V30 5113 O 498.959 1.01517 -1.67544 0
M  V30 5114 H 497.539 -0.493819 -0.560493 0
M  V30 5115 H 500.201 -1.73005 -0.897507 0
M  V30 5116 H 499.297 -1.99203 -2.4026 0
M  V30 5117 N 499.598 0.982988 -1.23187 0
M  V30 5118 C 500.828 1.75666 -1.08743 0
M  V30 5119 C 501.236 1.85662 0.364195 0
M  V30 5120 O 500.579 1.33317 1.26382 0
M  V30 5121 C 500.641 3.20144 -1.63549 0
M  V30 5122 C 500.305 3.33665 -3.12277 0
M  V30 5123 C 501.302 3.20194 -4.096 0
M  V30 5124 C 498.987 3.58397 -3.51933 0
M  V30 5125 C 500.981 3.31256 -5.44563 0
M  V30 5126 C 498.668 3.69098 -4.87042 0
M  V30 5127 C 499.666 3.55537 -5.83166 0
M  V30 5128 O 499.354 3.65864 -7.1582 0
M  V30 5129 H 499.086 0.558194 -0.381307 0
M  V30 5130 H 501.64 1.24387 -1.63454 0
M  V30 5131 H 499.87 3.72659 -1.03256 0
M  V30 5132 H 501.559 3.79262 -1.4462 0
M  V30 5133 H 502.325 3.00987 -3.80305 0
M  V30 5134 H 498.204 3.68025 -2.77631 0
M  V30 5135 H 501.748 3.20588 -6.19572 0
M  V30 5136 H 497.645 3.87814 -5.16014 0
M  V30 5137 H 498.413 3.82675 -7.23534 0
M  V30 5138 N 501.076 1.04316 1.18135 0
M  V30 5139 C 502.304 0.768117 1.92113 0
M  V30 5140 C 502.719 -0.675057 1.76319 0
M  V30 5141 O 502.076 -1.46038 1.09449 0
M  V30 5142 C 502.127 1.12808 3.43448 0
M  V30 5143 O 501.848 2.5146 3.58747 0
M  V30 5144 C 503.349 0.8779 4.3452 0
M  V30 5145 H 500.569 0.279937 0.609817 0
M  V30 5146 H 503.113 1.39149 1.49859 0
M  V30 5147 H 501.268 0.549623 3.83481 0
M  V30 5148 H 501.682 2.65313 4.52448 0
M  V30 5149 H 503.156 1.17959 5.39249 0
M  V30 5150 H 503.633 -0.187239 4.38801 0
M  V30 5151 H 504.239 1.43977 4.00188 0
M  V30 5152 N 502.554 -1.34406 0.822964 0
M  V30 5153 C 503.831 -1.92733 0.333641 0
M  V30 5154 C 504.211 -1.75107 -1.17901 0
M  V30 5155 O 503.559 -1.12983 -1.98613 0
M  V30 5156 C 503.769 -3.40557 0.763023 0
M  V30 5157 C 505.117 -4.17709 0.761879 0
M  V30 5158 O 506.141 -3.49141 0.705606 0
M  V30 5159 O 505 -5.40082 0.835109 0
M  V30 5160 H 502.094 -0.821964 0.0911249 0
M  V30 5161 H 504.64 -1.4338 0.907757 0
M  V30 5162 H 503.412 -3.47187 1.8049 0
M  V30 5163 H 503.035 -3.97259 0.164605 0
M  V30 5164 N 504.032 -0.577932 -1.46621 0
M  V30 5165 C 504.962 0.145917 -2.33044 0
M  V30 5166 C 505.943 0.888412 -1.45056 0
M  V30 5167 O 507.128 0.864812 -1.73881 0
M  V30 5168 C 504.258 1.16322 -3.27241 0
M  V30 5169 C 503.212 0.535868 -4.24632 0
M  V30 5170 C 502.538 1.65929 -5.08303 0
M  V30 5171 C 503.838 -0.523861 -5.19666 0
M  V30 5172 H 505.532 -0.575636 -2.93814 0
M  V30 5173 H 503.078 -0.278272 -1.41286 0
M  V30 5174 H 505.031 1.67793 -3.86553 0
M  V30 5175 H 503.755 1.91498 -2.64567 0
M  V30 5176 H 502.414 0.0422759 -3.66576 0
M  V30 5177 H 502.062 2.40061 -4.42018 0
M  V30 5178 H 501.762 1.2452 -5.74255 0
M  V30 5179 H 503.286 2.17686 -5.70478 0
M  V30 5180 H 504.7 -0.0944059 -5.73222 0
M  V30 5181 H 503.097 -0.858 -5.93935 0
M  V30 5182 H 504.167 -1.41197 -4.63887 0
M  V30 5183 N 505.51 1.54411 -0.315457 0
M  V30 5184 C 506.759 1.99599 0.290395 0
M  V30 5185 C 507.072 1.20746 1.53882 0
M  V30 5186 O 508.278 1.56272 2.22017 0
M  V30 5187 C 506.734 3.5539 0.56797 0
M  V30 5188 C 506.342 4.43068 -0.662945 0
M  V30 5189 C 508.086 4.09067 1.13422 0
M  V30 5190 C 505.993 5.90317 -0.357722 0
M  V30 5191 H 504.923 0.745592 0.112286 0
M  V30 5192 H 507.574 1.78477 -0.426418 0
M  V30 5193 H 505.956 3.72468 1.34476 0
M  V30 5194 H 507.13 4.37765 -1.43869 0
M  V30 5195 H 505.445 4.00238 -1.14884 0
M  V30 5196 H 508.042 5.16663 1.37707 0
M  V30 5197 H 508.385 3.60552 2.08106 0
M  V30 5198 H 508.918 3.95589 0.418805 0
M  V30 5199 H 505.657 6.4301 -1.27351 0
M  V30 5200 H 505.177 5.98592 0.380472 0
M  V30 5201 H 506.856 6.4699 0.0354284 0
M  V30 5202 N 506.988 0.0434614 1.5754 0
M  V30 5203 C 508.216 -0.641835 1.96693 0
M  V30 5204 C 508.631 -1.64832 0.920652 0
M  V30 5205 O 507.988 -1.82247 -0.095993 0
M  V30 5206 C 508.039 -1.33557 3.35924 0
M  V30 5207 O 507.76 -0.369403 4.3654 0
M  V30 5208 C 509.261 -2.11135 3.89791 0
M  V30 5209 H 506.481 -0.176013 0.647503 0
M  V30 5210 H 509.025 0.107478 2.04217 0
M  V30 5211 H 507.18 -2.03617 3.29574 0
M  V30 5212 H 507.594 -0.863674 5.1734 0
M  V30 5213 H 509.068 -2.55107 4.89514 0
M  V30 5214 H 509.545 -2.95634 3.24803 0
M  V30 5215 H 510.151 -1.46002 3.99454 0
M  V30 5216 N 508.466 -1.55915 -0.229846 0
M  V30 5217 C 509.882 -1.48721 -0.579166 0
M  V30 5218 C 510.082 -0.736976 -1.87539 0
M  V30 5219 O 509.138 -0.273258 -2.51017 0
M  V30 5220 C 510.451 -2.9323 -0.666082 0
M  V30 5221 C 511.999 -3.03701 -0.757267 0
M  V30 5222 C 512.474 -4.49552 -0.8756 0
M  V30 5223 N 513.965 -4.53561 -0.940035 0
M  V30 5224 C 514.7 -5.63683 -1.05116 0
M  V30 5225 N 514.196 -6.83576 -1.12675 0
M  V30 5226 N 515.989 -5.51516 -1.08565 0
M  V30 5227 H 508.14 -2.03123 0.620857 0
M  V30 5228 H 510.403 -0.922898 0.21671 0
M  V30 5229 H 510.109 -3.51032 0.21664 0
M  V30 5230 H 509.983 -3.44668 -1.53243 0
M  V30 5231 H 512.37 -2.45969 -1.63043 0
M  V30 5232 H 512.451 -2.55446 0.134583 0
M  V30 5233 H 512.095 -5.079 -0.00692351 0
M  V30 5234 H 512.025 -4.95506 -1.78274 0
M  V30 5235 H 514.516 -3.67215 -0.892269 0
M  V30 5236 H 514.829 -7.63251 -1.21109 0
M  V30 5237 H 513.174 -6.86303 -1.09603 0
M  V30 5238 H 516.365 -4.5678 -1.02319 0
M  V30 5239 H 516.538 -6.37372 -1.1688 0
M  V30 5240 N 509.944 0.496216 -1.49584 0
M  V30 5241 C 510.874 1.60576 -1.69521 0
M  V30 5242 C 511.855 1.61169 -0.543933 0
M  V30 5243 O 513.04 1.77834 -0.78031 0
M  V30 5244 C 510.17 2.99038 -1.76616 0
M  V30 5245 C 509.124 3.13312 -2.91581 0
M  V30 5246 C 508.45 4.53172 -2.83794 0
M  V30 5247 C 509.75 2.92886 -4.32452 0
M  V30 5248 H 511.444 1.44146 -2.62416 0
M  V30 5249 H 508.99 0.692024 -1.26282 0
M  V30 5250 H 510.943 3.76564 -1.8915 0
M  V30 5251 H 509.667 3.16568 -0.80324 0
M  V30 5252 H 508.326 2.38213 -2.78658 0
M  V30 5253 H 507.974 4.67585 -1.854 0
M  V30 5254 H 507.674 4.63662 -3.60958 0
M  V30 5255 H 509.198 5.32752 -2.98342 0
M  V30 5256 H 510.612 3.60178 -4.46032 0
M  V30 5257 H 509.009 3.14844 -5.10875 0
M  V30 5258 H 510.079 1.88966 -4.46565 0
M  V30 5259 N 511.423 1.38739 0.74761 0
M  V30 5260 C 512.672 1.3459 1.50228 0
M  V30 5261 C 512.985 -0.0595592 1.95509 0
M  V30 5262 O 514.191 -0.22361 2.70578 0
M  V30 5263 C 512.647 2.36377 2.71393 0
M  V30 5264 C 512.255 3.82573 2.33113 0
M  V30 5265 C 513.999 2.41281 3.49262 0
M  V30 5266 C 511.906 4.76032 3.50924 0
M  V30 5267 H 510.836 0.500312 0.564096 0
M  V30 5268 H 513.487 1.64324 0.8167 0
M  V30 5269 H 511.869 1.99694 3.41962 0
M  V30 5270 H 513.043 4.28227 1.70171 0
M  V30 5271 H 511.358 3.80844 1.68365 0
M  V30 5272 H 513.955 3.08301 4.36869 0
M  V30 5273 H 514.298 1.43353 3.9084 0
M  V30 5274 H 514.831 2.76793 2.85711 0
M  V30 5275 H 511.57 5.75177 3.14408 0
M  V30 5276 H 511.09 4.35066 4.12889 0
M  V30 5277 H 512.769 4.94331 4.17427 0
M  V30 5278 N 512.901 -0.976442 1.23707 0
M  V30 5279 C 513.811 -2.10359 1.03856 0
M  V30 5280 C 514.827 -1.73991 -0.0180919 0
M  V30 5281 O 516.003 -2.0061 0.178211 0
M  V30 5282 C 513.068 -3.40809 0.636387 0
M  V30 5283 C 512.129 -3.91179 1.76854 0
M  V30 5284 C 511.362 -5.15404 1.38546 0
M  V30 5285 O 511.585 -5.69754 0.27142 0
M  V30 5286 O 510.519 -5.5994 2.20797 0
M  V30 5287 H 514.345 -2.29997 1.98331 0
M  V30 5288 H 511.93 -1.08742 1.02448 0
M  V30 5289 H 513.812 -4.19269 0.423223 0
M  V30 5290 H 512.487 -3.22493 -0.279322 0
M  V30 5291 H 511.394 -3.13819 2.03638 0
M  V30 5292 H 512.727 -4.13958 2.6627 0
M  V30 5293 N 514.379 -1.04941 -1.1758 0
M  V30 5294 C 515.309 -0.669172 -2.23706 0
M  V30 5295 C 516.29 0.331835 -1.66832 0
M  V30 5296 O 517.475 0.209988 -1.93061 0
M  V30 5297 C 514.605 -0.0404889 -3.47276 0
M  V30 5298 C 513.559 -0.965983 -4.16957 0
M  V30 5299 C 512.885 -0.201312 -5.34321 0
M  V30 5300 C 514.185 -2.28902 -4.69469 0
M  V30 5301 H 515.879 -1.55639 -2.55767 0
M  V30 5302 H 513.425 -0.749793 -1.22939 0
M  V30 5303 H 515.378 0.237298 -4.20731 0
M  V30 5304 H 514.102 0.881658 -3.14475 0
M  V30 5305 H 512.761 -1.22829 -3.45411 0
M  V30 5306 H 512.409 0.723519 -4.97769 0
M  V30 5307 H 512.109 -0.817968 -5.81879 0
M  V30 5308 H 513.633 0.0692499 -6.10561 0
M  V30 5309 H 515.047 -2.07132 -5.34574 0
M  V30 5310 H 513.444 -2.85942 -5.27596 0
M  V30 5311 H 514.514 -2.92937 -3.86414 0
M  V30 5312 N 515.857 1.33968 -0.830081 0
M  V30 5313 C 516.82 2.27694 -0.26235 0
M  V30 5314 C 517.82 1.50589 0.563876 0
M  V30 5315 O 519.01 1.70028 0.378941 0
M  V30 5316 C 516.142 3.35002 0.63138 0
M  V30 5317 H 517.335 2.79419 -1.08928 0
M  V30 5318 H 514.888 1.44221 -0.602486 0
M  V30 5319 H 515.623 2.88504 1.48109 0
M  V30 5320 H 515.408 3.92079 0.0403276 0
M  V30 5321 H 516.898 4.04897 1.02217 0
M  V30 5322 N 517.335 0.585699 1.46312 0
M  V30 5323 C 518.265 -0.133556 2.33118 0
M  V30 5324 C 519.246 -0.880707 1.45525 0
M  V30 5325 O 520.431 -0.855579 1.74337 0
M  V30 5326 C 517.561 -1.14585 3.27853 0
M  V30 5327 C 516.515 -0.513341 4.2491 0
M  V30 5328 C 515.841 -1.63231 5.09175 0
M  V30 5329 C 517.141 0.551413 5.19381 0
M  V30 5330 H 518.835 0.59121 2.93505 0
M  V30 5331 H 516.381 0.285761 1.41136 0
M  V30 5332 H 518.334 -1.65741 3.87438 0
M  V30 5333 H 517.058 -1.90093 2.65579 0
M  V30 5334 H 515.717 -0.0228349 3.66593 0
M  V30 5335 H 515.365 -2.37713 4.43285 0
M  V30 5336 H 515.065 -1.21473 5.74907 0
M  V30 5337 H 516.589 -2.14658 5.71624 0
M  V30 5338 H 518.003 0.124804 5.73164 0
M  V30 5339 H 516.4 0.889486 5.93471 0
M  V30 5340 H 517.47 1.43655 4.63132 0
M  V30 5341 N 518.813 -1.54241 0.323641 0
M  V30 5342 C 519.723 -2.28033 -0.551205 0
M  V30 5343 C 520.739 -1.32388 -1.12913 0
M  V30 5344 O 521.915 -1.65403 -1.14908 0
M  V30 5345 C 518.98 -3.02382 -1.69606 0
M  V30 5346 C 518.041 -4.13612 -1.14993 0
M  V30 5347 C 517.274 -4.84407 -2.24022 0
M  V30 5348 O 517.497 -4.54716 -3.44368 0
M  V30 5349 O 516.431 -5.71312 -1.89436 0
M  V30 5350 H 520.257 -3.03662 0.048066 0
M  V30 5351 H 517.842 -1.49133 0.0893289 0
M  V30 5352 H 519.724 -3.48941 -2.36259 0
M  V30 5353 H 518.399 -2.29628 -2.28151 0
M  V30 5354 H 517.306 -3.71402 -0.448484 0
M  V30 5355 H 518.639 -4.8841 -0.609608 0
M  V30 5356 N 520.291 -0.0518155 -1.57515 0
M  V30 5357 C 521.707 0.304735 -1.56664 0
M  V30 5358 C 521.907 1.71395 -1.05953 0
M  V30 5359 O 520.963 2.42123 -0.716414 0
M  V30 5360 C 522.276 0.132614 -3.00407 0
M  V30 5361 C 523.824 0.20367 -3.12337 0
M  V30 5362 C 524.299 0.0600706 -4.57961 0
M  V30 5363 N 525.79 0.116326 -4.63054 0
M  V30 5364 C 526.525 0.0293363 -5.73392 0
M  V30 5365 N 526.021 -0.110038 -6.92713 0
M  V30 5366 N 527.814 0.0849651 -5.62036 0
M  V30 5367 H 519.965 -0.973056 -1.888 0
M  V30 5368 H 522.228 -0.377781 -0.869474 0
M  V30 5369 H 521.934 -0.839019 -3.41546 0
M  V30 5370 H 521.808 0.893376 -3.66468 0
M  V30 5371 H 524.195 1.16578 -2.71097 0
M  V30 5372 H 524.276 -0.587857 -2.48954 0
M  V30 5373 H 523.92 -0.898715 -4.99886 0
M  V30 5374 H 523.85 0.87075 -5.19351 0
M  V30 5375 H 526.341 0.22327 -3.7724 0
M  V30 5376 H 526.654 -0.169104 -7.72615 0
M  V30 5377 H 524.999 -0.145132 -6.94848 0
M  V30 5378 H 528.19 0.192411 -4.67704 0
M  V30 5379 H 528.363 0.0137131 -6.47999 0
M  V30 5380 N 521.769 1.56035 0.221574 0
M  V30 5381 C 522.719 1.8881 1.27807 0
M  V30 5382 C 523.703 0.751177 1.42289 0
M  V30 5383 O 524.895 1.01359 1.45104 0
M  V30 5384 C 522.024 2.20828 2.6285 0
M  V30 5385 C 521.11 3.40912 2.52269 0
M  V30 5386 N 521.501 4.59531 2.1134 0
M  V30 5387 C 519.799 3.44526 2.83228 0
M  V30 5388 C 520.5 5.41689 2.1201 0
M  V30 5389 N 519.476 4.814 2.52497 0
M  V30 5390 H 523.278 2.78036 0.952529 0
M  V30 5391 H 520.792 1.566 0.430134 0
M  V30 5392 H 522.789 2.42483 3.39127 0
M  V30 5393 H 521.449 1.32914 2.9625 0
M  V30 5394 H 522.46 4.8469 1.82472 0
M  V30 5395 H 519.137 2.66956 3.21 0
M  V30 5396 H 520.527 6.46643 1.82491 0
M  V30 5397 N 523.247 -0.488276 1.49845 0
M  V30 5398 C 524.21 -1.57069 1.66919 0
M  V30 5399 C 525.21 -1.51445 0.540479 0
M  V30 5400 O 526.4 -1.5437 0.807188 0
M  V30 5401 C 523.532 -2.96718 1.67844 0
M  V30 5402 H 524.725 -1.43254 2.63474 0
M  V30 5403 H 522.278 -0.713435 1.39068 0
M  V30 5404 H 523.013 -3.15996 0.7292 0
M  V30 5405 H 522.798 -3.02208 2.49826 0
M  V30 5406 H 524.288 -3.75335 1.83066 0
M  V30 5407 N 524.725 -1.39134 -0.740242 0
M  V30 5408 C 525.688 -1.37217 -1.83587 0
M  V30 5409 C 526.688 -0.270221 -1.58513 0
M  V30 5410 O 527.878 -0.527843 -1.6601 0
M  V30 5411 C 525.01 -1.13959 -3.21288 0
M  V30 5412 H 526.203 -2.34705 -1.86691 0
M  V30 5413 H 523.756 -1.24622 -0.94335 0
M  V30 5414 H 524.491 -0.17131 -3.23847 0
M  V30 5415 H 524.276 -1.93754 -3.40884 0
M  V30 5416 H 525.766 -1.15346 -4.01354 0
M  V30 5417 N 526.204 0.969867 -1.24223 0
M  V30 5418 C 527.481 1.68774 -0.988664 0
M  V30 5419 C 527.861 2.05342 0.489673 0
M  V30 5420 O 527.209 1.75486 1.46345 0
M  V30 5421 C 527.419 2.92135 -1.90941 0
M  V30 5422 C 528.767 3.64422 -2.17903 0
M  V30 5423 O 529.791 3.02188 -1.88576 0
M  V30 5424 O 528.65 4.76446 -2.67697 0
M  V30 5425 H 525.744 0.737736 -0.37373 0
M  V30 5426 H 528.29 1.02415 -1.35312 0
M  V30 5427 H 527.062 2.61788 -2.90831 0
M  V30 5428 H 526.685 3.66228 -1.54798 0
M  V30 5429 N 527.682 1.05563 1.17022 0
M  V30 5430 C 528.63 0.653887 2.2322 0
M  V30 5431 C 529.624 -0.326642 1.66221 0
M  V30 5432 O 530.83 -0.192301 1.7897 0
M  V30 5433 H 527.205 0.193297 0.726733 0
M  V30 5434 H 529.176 1.5596 2.54399 0
M  V30 5435 C 527.925 0.0485434 3.47666 0
M  V30 5436 H 527.248 0.79413 3.91834 0
M  V30 5437 H 528.688 -0.195133 4.23551 0
M  V30 5438 C 527.147 -1.20583 3.14581 0
M  V30 5439 O 527.677 -2.29475 3.29703 0
M  V30 5440 N 525.883 -1.10493 2.68774 0
M  V30 5441 H 525.43 -0.218795 2.56669 0
M  V30 5442 H 525.388 -1.94507 2.47011 0
M  V30 5443 N 529.16 -1.33526 0.837174 0
M  V30 5444 C 530.123 -2.27551 0.274421 0
M  V30 5445 C 531.123 -1.50886 -0.555881 0
M  V30 5446 O 532.313 -1.70227 -0.369918 0
M  V30 5447 C 529.445 -3.35332 -0.613605 0
M  V30 5448 H 530.638 -2.78837 1.10408 0
M  V30 5449 H 528.191 -1.439 0.610126 0
M  V30 5450 H 528.926 -2.89285 -1.46577 0
M  V30 5451 H 528.711 -3.92095 -0.0195341 0
M  V30 5452 H 530.201 -4.05433 -1.00068 0
M  V30 5453 N 530.638 -0.59345 -1.46 0
M  V30 5454 C 531.568 0.121192 -2.33185 0
M  V30 5455 C 532.549 0.872977 -1.4599 0
M  V30 5456 O 533.734 0.846321 -1.74789 0
M  V30 5457 C 530.864 1.12844 -3.28456 0
M  V30 5458 C 529.818 0.4908 -4.25177 0
M  V30 5459 C 529.144 1.60529 -5.10034 0
M  V30 5460 C 530.444 -0.578949 -5.19081 0
M  V30 5461 H 532.138 -0.606767 -2.93187 0
M  V30 5462 H 529.684 -0.293242 -1.40983 0
M  V30 5463 H 531.637 1.63684 -3.88311 0
M  V30 5464 H 530.361 1.88681 -2.66584 0
M  V30 5465 H 529.02 0.00339328 -3.666 0
M  V30 5466 H 528.668 2.35359 -4.44539 0
M  V30 5467 H 528.368 1.18422 -5.75543 0
M  V30 5468 H 529.892 2.11623 -5.72755 0
M  V30 5469 H 531.306 -0.155199 -5.7309 0
M  V30 5470 H 529.703 -0.920947 -5.92991 0
M  V30 5471 H 530.773 -1.46109 -4.62364 0
M  V30 5472 N 532.116 1.54067 -0.331816 0
M  V30 5473 C 533.063 2.24623 0.530372 0
M  V30 5474 C 534.033 1.24009 1.10503 0
M  V30 5475 O 535.218 1.52712 1.14384 0
M  V30 5476 C 532.358 3.01374 1.68129 0
M  V30 5477 C 531.471 4.16821 1.13507 0
M  V30 5478 C 530.606 4.81085 2.25234 0
M  V30 5479 C 529.645 5.88621 1.67903 0
M  V30 5480 N 528.782 6.46713 2.73326 0
M  V30 5481 H 533.622 2.97898 -0.0778607 0
M  V30 5482 H 531.159 1.47014 -0.0501965 0
M  V30 5483 H 533.117 3.44125 2.35868 0
M  V30 5484 H 531.747 2.30419 2.26069 0
M  V30 5485 H 530.799 3.78796 0.348979 0
M  V30 5486 H 532.111 4.94203 0.675633 0
M  V30 5487 H 531.265 5.26846 3.00862 0
M  V30 5488 H 530.004 4.03102 2.74518 0
M  V30 5489 H 529.009 5.42254 0.907773 0
M  V30 5490 H 530.234 6.68506 1.19487 0
M  V30 5491 H 528.18 5.71599 3.21886 0
M  V30 5492 H 528.097 7.19532 2.3197 0
M  V30 5493 H 529.365 6.97129 3.48758 0
M  V30 5494 N 533.594 0.0601682 1.57485 0
M  V30 5495 C 534.822 -0.620937 1.97363 0
M  V30 5496 C 535.237 -1.63846 0.938082 0
M  V30 5497 O 534.594 -1.82339 -0.0766578 0
M  V30 5498 C 534.645 -1.29987 3.37321 0
M  V30 5499 O 534.366 -0.323081 4.36907 0
M  V30 5500 C 535.867 -2.06989 3.92008 0
M  V30 5501 H 533.087 -0.169135 0.649334 0
M  V30 5502 H 535.631 0.129132 2.04092 0
M  V30 5503 H 533.786 -2.0011 3.31715 0
M  V30 5504 H 534.2 -0.808754 5.18227 0
M  V30 5505 H 535.674 -2.49901 4.92192 0
M  V30 5506 H 536.151 -2.92173 3.2792 0
M  V30 5507 H 536.757 -1.41757 4.0098 0
M  V30 5508 N 535.072 -1.5615 -0.213296 0
M  V30 5509 C 536.3 -1.83638 -0.953139 0
M  V30 5510 C 536.715 -0.640362 -1.77609 0
M  V30 5511 O 536.072 0.391071 -1.78261 0
M  V30 5512 C 536.123 -3.09735 -1.86405 0
M  V30 5513 O 535.844 -4.24723 -1.07435 0
M  V30 5514 C 537.345 -3.5027 -2.71709 0
M  V30 5515 H 534.565 -0.610263 -0.278962 0
M  V30 5516 H 537.109 -2.03247 -0.226035 0
M  V30 5517 H 535.264 -2.92077 -2.545 0
M  V30 5518 H 535.678 -4.9641 -1.69343 0
M  V30 5519 H 537.152 -4.41515 -3.31313 0
M  V30 5520 H 537.629 -2.72406 -3.44516 0
M  V30 5521 H 538.235 -3.70396 -2.09015 0
M  V30 5522 N 536.55 0.480323 -1.50102 0
M  V30 5523 C 537.483 1.59789 -1.62919 0
M  V30 5524 C 538.461 1.55429 -0.477557 0
M  V30 5525 O 539.645 1.75186 -0.695851 0
M  V30 5526 C 536.772 2.98351 -1.60325 0
M  V30 5527 C 535.818 3.20899 -2.80938 0
M  V30 5528 S 536.651 3.01791 -4.4236 0
M  V30 5529 C 537.807 4.42712 -4.42444 0
M  V30 5530 H 538.04 1.48676 -2.57454 0
M  V30 5531 H 535.573 0.666996 -1.3925 0
M  V30 5532 H 537.531 3.7824 -1.59514 0
M  V30 5533 H 536.192 3.06862 -0.670419 0
M  V30 5534 H 535.385 4.22102 -2.75401 0
M  V30 5535 H 534.987 2.48768 -2.79268 0
M  V30 5536 H 537.279 5.3518 -4.15438 0
M  V30 5537 H 538.222 4.53294 -5.43995 0
M  V30 5538 H 538.63 4.24359 -3.72263 0
M  V30 5539 O 538.067 1.48883 0.625791 0
M  V30 5540 H 538.758 1.45381 1.28 0
M  V30 END ATOM
M  V30 BEGIN BOND
M  V30 END BOND
M  V30 END CTAB
M  END
$$$$
