drugbank_target|P06202 Periplasmic oligopeptide-binding protein (DB07365)
 OpenBabel12092120423D

  0  0  0     0  0            999 V3000
M  V30 BEGIN CTAB
M  V30 COUNTS 8613 8724 0 0 0
M  V30 BEGIN ATOM
M  V30 1 H -0.908 1.98254 -0.117106 0
M  V30 2 N 0 1.576 0 0
M  V30 3 C 0.933 2.03868 1.02534 0
M  V30 4 C 1.911 0.928543 1.3348 0
M  V30 5 O 3.095 1.19667 1.45644 0
M  V30 6 C 0.222 2.43627 2.35294 0
M  V30 7 C -0.732 3.65373 2.2001 0
M  V30 8 S 0.101 5.13292 1.52614 0
M  V30 9 C 1.257 5.56322 2.86805 0
M  V30 10 H 1.49 2.90518 0.631377 0
M  V30 11 H -0.977 1.52953 0.210867 0
M  V30 12 H 0.981 2.67203 3.11629 0
M  V30 13 H -0.358 1.57376 2.7183 0
M  V30 14 H -1.165 3.90944 3.18086 0
M  V30 15 H -1.563 3.418 1.51819 0
M  V30 16 H 0.729 5.58782 3.83104 0
M  V30 17 H 1.672 6.56266 2.65933 0
M  V30 18 H 2.08 4.83886 2.90714 0
M  V30 19 N 1.4781 -0.272755 1.55222 0
M  V30 20 C 2.7031 -1.02683 1.80197 0
M  V30 21 C 3.1281 -1.79142 0.573551 0
M  V30 22 O 2.4861 -1.74917 -0.476849 0
M  V30 23 C 2.5341 -1.9609 3.02624 0
M  V30 24 O 1.6381 -3.04863 2.77727 0
M  V30 25 H 0.9791 -0.293557 0.595584 0
M  V30 26 H 3.5091 -0.30159 2.02365 0
M  V30 27 H 3.5191 -2.38039 3.31363 0
M  V30 28 H 2.1941 -1.39851 3.91682 0
M  V30 29 H 0.7711 -2.67228 2.60084 0
M  V30 30 N 2.9562 -1.48159 -0.537278 0
M  V30 31 C 3.9042 -1.62573 -1.66352 0
M  V30 32 C 4.8982 -0.492366 -1.62087 0
M  V30 33 O 6.1042 -0.670847 -1.67032 0
M  V30 34 H 2.4792 -0.511992 -0.550789 0
M  V30 35 H 4.4502 -2.57176 -1.51337 0
M  V30 36 C 3.1992 -1.67583 -3.04649 0
M  V30 37 H 2.5222 -2.54151 -3.08622 0
M  V30 38 H 3.9622 -1.81713 -3.83088 0
M  V30 39 C 2.4212 -0.413039 -3.34358 0
M  V30 40 O 2.9512 0.477259 -3.98855 0
M  V30 41 N 1.1572 -0.286961 -2.8918 0
M  V30 42 H 0.7042 -1.01241 -2.36871 0
M  V30 43 H 0.6622 0.556963 -3.09427 0
M  V30 44 N 4.4343 0.785586 -1.36625 0
M  V30 45 C 5.6833 1.53883 -1.30396 0
M  V30 46 C 5.9963 1.95271 0.113452 0
M  V30 47 O 7.2023 2.69858 0.298142 0
M  V30 48 C 5.6583 2.77808 -2.28802 0
M  V30 49 C 5.2663 2.43574 -3.75999 0
M  V30 50 C 7.0103 3.55783 -2.31558 0
M  V30 51 C 4.9173 3.63919 -4.66173 0
M  V30 52 H 3.8473 0.577678 -0.484566 0
M  V30 53 H 6.4983 0.861705 -1.62009 0
M  V30 54 H 4.8803 3.47339 -1.90188 0
M  V30 55 H 6.0543 1.81916 -4.23371 0
M  V30 56 H 4.3693 1.78803 -3.76056 0
M  V30 57 H 6.9663 4.45205 -2.96137 0
M  V30 58 H 7.3093 3.94644 -1.3252 0
M  V30 59 H 7.8423 2.93235 -2.68809 0
M  V30 60 H 4.5813 3.3015 -5.66287 0
M  V30 61 H 4.1013 4.2473 -4.23515 0
M  V30 62 H 5.7803 4.30901 -4.82632 0
M  V30 63 N 5.9124 1.20967 1.01018 0
M  V30 64 C 7.1404 1.04956 1.78303 0
M  V30 65 C 7.5554 -0.400915 1.84494 0
M  V30 66 O 6.9124 -1.27826 1.30257 0
M  V30 67 C 6.9634 1.63403 3.22462 0
M  V30 68 O 6.6844 3.02775 3.16637 0
M  V30 69 C 8.1854 1.52432 4.16268 0
M  V30 70 H 5.4054 0.368858 0.560522 0
M  V30 71 H 7.9494 1.60193 1.27116 0
M  V30 72 H 6.1044 1.1227 3.70775 0
M  V30 73 H 6.5184 3.30626 4.07169 0
M  V30 74 H 7.9924 1.98078 5.15237 0
M  V30 75 H 8.4694 0.477875 4.36592 0
M  V30 76 H 9.0754 2.02787 3.73841 0
M  V30 77 N 7.3905 -1.2043 1.01659 0
M  V30 78 C 8.3375 -2.23215 0.586822 0
M  V30 79 C 9.3075 -1.61382 -0.393085 0
M  V30 80 O 10.4925 -1.88544 -0.292525 0
M  V30 81 C 7.6325 -3.45032 -0.0687464 0
M  V30 82 C 6.7455 -4.21296 0.955724 0
M  V30 83 C 5.8805 -5.30507 0.271208 0
M  V30 84 C 4.9195 -5.98515 1.28244 0
M  V30 85 N 4.0565 -6.99316 0.62459 0
M  V30 86 H 8.8965 -2.59336 1.46796 0
M  V30 87 H 6.4335 -1.27431 0.734836 0
M  V30 88 H 8.3915 -4.1459 -0.465965 0
M  V30 89 H 7.0215 -3.09604 -0.913529 0
M  V30 90 H 6.0735 -3.50803 1.4711 0
M  V30 91 H 7.3855 -4.6803 1.72479 0
M  V30 92 H 6.5395 -6.06428 -0.18151 0
M  V30 93 H 5.2785 -4.8481 -0.530163 0
M  V30 94 H 4.2835 -5.21355 1.74554 0
M  V30 95 H 5.5085 -6.46298 2.08509 0
M  V30 96 H 3.4545 -6.55812 -0.156914 0
M  V30 97 H 3.3715 -7.44178 1.33172 0
M  V30 98 H 4.6395 -7.79255 0.195462 0
M  V30 99 N 8.8686 -0.792821 -1.36206 0
M  V30 100 C 9.8156 -0.191653 -2.30003 0
M  V30 101 C 10.7856 0.666453 -1.52143 0
M  V30 102 O 11.9706 0.61442 -1.80636 0
M  V30 103 C 9.1106 0.664848 -3.38635 0
M  V30 104 C 8.2236 -0.212175 -4.31479 0
M  V30 105 C 7.3586 0.651022 -5.27196 0
M  V30 106 C 6.3976 -0.227247 -6.11678 0
M  V30 107 N 5.5346 0.595127 -6.99573 0
M  V30 108 H 10.3746 -0.996978 -2.80828 0
M  V30 109 H 7.9116 -0.503206 -1.38225 0
M  V30 110 H 9.8696 1.17645 -4.00269 0
M  V30 111 H 8.4996 1.43557 -2.89122 0
M  V30 112 H 7.5516 -0.841777 -3.70969 0
M  V30 113 H 8.8636 -0.888751 -4.90818 0
M  V30 114 H 8.0176 1.2283 -5.94136 0
M  V30 115 H 6.7566 1.36121 -4.68319 0
M  V30 116 H 5.7616 -0.816904 -5.43697 0
M  V30 117 H 6.9866 -0.93509 -6.72631 0
M  V30 118 H 4.9326 1.28955 -6.432 0
M  V30 119 H 4.8496 -0.0236952 -7.55996 0
M  V30 120 H 6.1176 1.15613 -7.70879 0
M  V30 121 N 10.3467 1.47872 -0.545128 0
M  V30 122 C 11.5717 2.07391 -0.0190611 0
M  V30 123 C 11.9967 1.39688 1.25971 0
M  V30 124 O 11.3547 0.467816 1.7516 0
M  V30 125 C 11.4027 3.60188 0.172335 0
M  V30 126 O 10.5067 3.9339 1.23766 0
M  V30 127 H 9.8477 0.662411 -0.0459059 0
M  V30 128 H 12.3777 1.90066 -0.757365 0
M  V30 129 H 12.3877 4.06129 0.390305 0
M  V30 130 H 11.0627 4.08865 -0.761725 0
M  V30 131 H 9.6397 3.5921 1.00114 0
M  V30 132 N 11.8248 0.280983 1.55075 0
M  V30 133 C 12.7548 -0.597469 2.25727 0
M  V30 134 C 13.7358 -1.15417 1.24952 0
M  V30 135 O 14.9208 -1.18722 1.53684 0
M  V30 136 C 12.0508 -1.7789 2.98283 0
M  V30 137 C 11.0048 -1.35347 4.06036 0
M  V30 138 C 10.3308 -2.61846 4.66198 0
M  V30 139 C 11.6308 -0.499354 5.19907 0
M  V30 140 H 13.3248 -0.00824265 2.99399 0
M  V30 141 H 10.8708 -0.0025244 1.44 0
M  V30 142 H 12.8238 -2.39937 3.46422 0
M  V30 143 H 11.5478 -2.39405 2.22155 0
M  V30 144 H 10.2068 -0.756156 3.58717 0
M  V30 145 H 9.8548 -3.21632 3.86732 0
M  V30 146 H 9.5548 -2.3409 5.38958 0
M  V30 147 H 11.0788 -3.24732 5.1709 0
M  V30 148 H 12.4928 -1.02498 5.64063 0
M  V30 149 H 10.8898 -0.316424 5.99265 0
M  V30 150 H 11.9598 0.480459 4.82514 0
M  V30 151 N 13.3029 -1.57598 0.00835791 0
M  V30 152 C 14.5519 -1.90107 -0.673968 0
M  V30 153 C 14.8649 -0.884275 -1.7447 0
M  V30 154 O 16.0709 -1.09987 -2.48224 0
M  V30 155 C 14.5269 -3.37497 -1.24995 0
M  V30 156 C 14.1349 -4.47491 -0.2136 0
M  V30 157 C 15.8789 -3.79104 -1.90999 0
M  V30 158 C 13.7859 -5.85963 -0.80005 0
M  V30 159 H 12.7159 -0.709393 -0.255495 0
M  V30 160 H 15.3669 -1.83365 0.0702693 0
M  V30 161 H 13.7489 -3.39102 -2.04513 0
M  V30 162 H 14.9229 -4.57414 0.557596 0
M  V30 163 H 13.2379 -4.14956 0.346474 0
M  V30 164 H 15.8349 -4.79901 -2.35795 0
M  V30 165 H 16.1779 -3.1306 -2.74407 0
M  V30 166 H 16.7109 -3.79833 -1.18203 0
M  V30 167 H 13.4499 -6.555 -0.00456708 0
M  V30 168 H 12.9699 -5.79687 -1.54021 0
M  V30 169 H 14.6489 -6.33884 -1.29615 0
M  V30 170 N 14.781 0.264519 -1.55364 0
M  V30 171 C 15.744 1.31046 -1.88042 0
M  V30 172 C 16.744 1.41943 -0.755569 0
M  V30 173 O 17.934 1.40947 -1.02369 0
M  V30 174 C 15.066 2.69067 -2.09323 0
M  V30 175 H 16.259 1.03297 -2.81549 0
M  V30 176 H 13.812 0.502989 -1.47986 0
M  V30 177 H 14.547 3.01982 -1.18226 0
M  V30 178 H 14.332 2.62542 -2.91229 0
M  V30 179 H 15.822 3.44623 -2.35848 0
M  V30 180 N 16.2591 1.48442 0.529413 0
M  V30 181 C 17.2221 1.62524 1.61612 0
M  V30 182 C 18.2221 0.498509 1.52877 0
M  V30 183 O 19.4121 0.76431 1.56537 0
M  V30 184 C 16.5441 1.59597 3.01233 0
M  V30 185 H 17.7371 2.59423 1.50465 0
M  V30 186 H 15.2901 1.37047 0.751514 0
M  V30 187 H 16.0251 0.641781 3.17886 0
M  V30 188 H 15.8101 2.41397 3.08982 0
M  V30 189 H 17.3001 1.72646 3.80241 0
M  V30 190 N 17.7372 -0.778329 1.37039 0
M  V30 191 C 18.9852 -1.53361 1.31623 0
M  V30 192 C 19.3062 -1.94739 -0.100831 0
M  V30 193 O 18.5762 -1.65797 -1.04347 0
M  V30 194 H 17.1562 -0.568794 0.484234 0
M  V30 195 H 19.8182 -0.926742 1.71457 0
M  V30 196 H 18.9142 -2.43606 1.95096 0
M  V30 197 N 19.2153 -1.21501 -1.00376 0
M  V30 198 C 20.4643 -1.02718 -1.73586 0
M  V30 199 C 20.7773 0.439589 -1.90596 0
M  V30 200 O 21.9833 0.746848 -2.61026 0
M  V30 201 C 20.4393 -1.78929 -3.1227 0
M  V30 202 C 20.0473 -3.29783 -3.03228 0
M  V30 203 C 21.7913 -1.68557 -3.89601 0
M  V30 204 C 19.6983 -3.98479 -4.36999 0
M  V30 205 H 18.6283 -0.380733 -0.650814 0
M  V30 206 H 21.2793 -1.45248 -1.1214 0
M  V30 207 H 19.6613 -1.29192 -3.74333 0
M  V30 208 H 20.8353 -3.86832 -2.50395 0
M  V30 209 H 19.1503 -3.40711 -2.39385 0
M  V30 210 H 21.7473 -2.17211 -4.88593 0
M  V30 211 H 22.0903 -0.644021 -4.11288 0
M  V30 212 H 22.6233 -2.15778 -3.34193 0
M  V30 213 H 19.3623 -5.02841 -4.20513 0
M  V30 214 H 18.8823 -3.46219 -4.89788 0
M  V30 215 H 20.5613 -4.03462 -5.05794 0
M  V30 216 N 20.6934 1.19889 -1.02296 0
M  V30 217 C 21.6234 2.25141 -0.619174 0
M  V30 218 C 22.6044 1.66051 0.368915 0
M  V30 219 O 23.7894 1.92546 0.252941 0
M  V30 220 C 20.9194 3.4728 0.0368783 0
M  V30 221 C 19.8734 4.19005 -0.872865 0
M  V30 222 C 19.1994 5.34637 -0.0822402 0
M  V30 223 C 20.4994 4.74452 -2.18387 0
M  V30 224 H 22.1934 2.59171 -1.49903 0
M  V30 225 H 19.7394 1.24579 -0.722222 0
M  V30 226 H 21.6924 4.20098 0.330958 0
M  V30 227 H 20.4164 3.12433 0.95149 0
M  V30 228 H 19.0754 3.48061 -1.15105 0
M  V30 229 H 18.7234 4.96034 0.83422 0
M  V30 230 H 18.4234 5.83557 -0.688149 0
M  V30 231 H 19.9474 6.10255 0.205238 0
M  V30 232 H 21.3614 5.39055 -1.95172 0
M  V30 233 H 19.7584 5.33834 -2.74119 0
M  V30 234 H 20.8284 3.92844 -2.84257 0
M  V30 235 N 22.1715 0.800033 1.35784 0
M  V30 236 C 23.3995 0.389606 2.03199 0
M  V30 237 C 23.8145 -0.997375 1.60306 0
M  V30 238 O 23.1715 -1.64154 0.797481 0
M  V30 239 C 23.2225 0.455855 3.58614 0
M  V30 240 O 22.9435 1.78815 3.99946 0
M  V30 241 C 24.4445 0.0374032 4.43284 0
M  V30 242 H 21.6645 0.159132 0.651857 0
M  V30 243 H 24.2085 1.08183 1.73541 0
M  V30 244 H 22.3635 -0.188057 3.86943 0
M  V30 245 H 22.7775 1.74636 4.94573 0
M  V30 246 H 24.2515 0.134882 5.51835 0
M  V30 247 H 24.7285 -1.01651 4.27275 0
M  V30 248 H 25.3345 0.654215 4.20238 0
M  V30 249 N 23.6496 -1.47581 0.552962 0
M  V30 250 C 24.6126 -2.28439 -0.186605 0
M  V30 251 C 25.6126 -1.36706 -0.84665 0
M  V30 252 O 26.8026 -1.59378 -0.703164 0
M  V30 253 C 23.9346 -3.16264 -1.2724 0
M  V30 254 H 25.1276 -2.95294 0.523609 0
M  V30 255 H 22.6806 -1.532 0.309745 0
M  V30 256 H 23.4156 -2.54091 -2.01514 0
M  V30 257 H 23.2006 -3.83769 -0.803968 0
M  V30 258 H 24.6906 -3.77198 -1.79196 0
M  V30 259 N 25.1277 -0.289203 -1.54924 0
M  V30 260 C 26.0577 0.58549 -2.2604 0
M  V30 261 C 27.0387 1.14753 -1.25562 0
M  V30 262 O 28.2237 1.17906 -1.54311 0
M  V30 263 C 25.3537 1.76305 -2.99222 0
M  V30 264 C 24.3077 1.33191 -4.06748 0
M  V30 265 C 23.6337 2.5937 -4.6758 0
M  V30 266 C 24.9337 0.471775 -5.20165 0
M  V30 267 H 26.6277 -0.00763532 -2.99399 0
M  V30 268 H 24.1737 -0.00511229 -1.43999 0
M  V30 269 H 26.1267 2.38097 -3.47689 0
M  V30 270 H 24.8507 2.38223 -2.23422 0
M  V30 271 H 23.5097 0.737121 -3.59113 0
M  V30 272 H 23.1577 3.19576 -3.88433 0
M  V30 273 H 22.8577 2.31228 -5.40192 0
M  V30 274 H 24.3817 3.21985 -5.18804 0
M  V30 275 H 25.7957 0.995056 -5.64599 0
M  V30 276 H 24.1927 0.284639 -5.99425 0
M  V30 277 H 25.2627 -0.506041 -4.82252 0
M  V30 278 N 26.6058 1.57591 -0.0167156 0
M  V30 279 C 27.8548 1.90461 0.663877 0
M  V30 280 C 28.1678 0.893515 1.73999 0
M  V30 281 O 29.3738 1.11302 2.47637 0
M  V30 282 C 27.8298 3.38155 1.23204 0
M  V30 283 C 27.4378 4.47597 0.189866 0
M  V30 284 C 29.1818 3.80111 1.88986 0
M  V30 285 C 27.0888 5.86379 0.768964 0
M  V30 286 H 26.0188 0.710738 0.251729 0
M  V30 287 H 28.6698 1.83326 -0.0799926 0
M  V30 288 H 27.0518 3.40182 2.02712 0
M  V30 289 H 28.2258 4.57112 -0.581846 0
M  V30 290 H 26.5408 4.14766 -0.368475 0
M  V30 291 H 29.1378 4.81145 2.33247 0
M  V30 292 H 29.4808 3.14511 2.72743 0
M  V30 293 H 30.0138 3.80454 1.16187 0
M  V30 294 H 26.7528 6.55493 -0.0301957 0
M  V30 295 H 26.2728 5.80496 1.50945 0
M  V30 296 H 27.9518 6.34563 1.26251 0
M  V30 297 N 28.0839 -0.256276 1.55502 0
M  V30 298 C 29.0469 -1.30047 1.88734 0
M  V30 299 C 30.0469 -1.4154 0.763086 0
M  V30 300 O 31.2369 -1.40403 1.03115 0
M  V30 301 C 28.3689 -2.67953 2.10747 0
M  V30 302 H 29.5619 -1.01802 2.82093 0
M  V30 303 H 27.1149 -0.495134 1.4825 0
M  V30 304 H 27.8499 -3.01351 1.19825 0
M  V30 305 H 27.6349 -2.60993 2.92617 0
M  V30 306 H 29.1249 -3.43368 2.37673 0
M  V30 307 N 29.562 -1.4872 -0.521534 0
M  V30 308 C 30.525 -1.63379 -1.60748 0
M  V30 309 C 31.525 -0.50661 -1.52611 0
M  V30 310 O 32.715 -0.772601 -1.5613 0
M  V30 311 C 29.847 -1.61192 -3.00383 0
M  V30 312 H 31.04 -2.60217 -1.49087 0
M  V30 313 H 28.593 -1.37444 -0.744235 0
M  V30 314 H 29.328 -0.65863 -3.17541 0
M  V30 315 H 29.113 -2.43032 -3.07698 0
M  V30 316 H 30.603 -1.7466 -3.7932 0
M  V30 317 N 31.0401 0.771051 -1.3745 0
M  V30 318 C 32.2651 1.56529 -1.36065 0
M  V30 319 C 32.6901 1.88029 0.0515859 0
M  V30 320 O 32.0481 1.49282 1.02882 0
M  V30 321 C 32.0961 2.85187 -2.20683 0
M  V30 322 O 31.2001 3.79593 -1.61193 0
M  V30 323 H 30.5411 0.47411 -0.464883 0
M  V30 324 H 33.0711 0.954269 -1.80983 0
M  V30 325 H 33.0811 3.34283 -2.33921 0
M  V30 326 H 31.7561 2.61588 -3.23334 0
M  V30 327 H 30.3331 3.38239 -1.56999 0
M  V30 328 N 32.5182 1.22032 0.997298 0
M  V30 329 C 33.4812 0.987909 2.06816 0
M  V30 330 C 34.4812 -0.0440084 1.6074 0
M  V30 331 O 35.6712 0.194053 1.73116 0
M  V30 332 C 32.8032 0.49132 3.37341 0
M  V30 333 H 33.9962 1.93803 2.28868 0
M  V30 334 H 31.5492 1.03838 1.16822 0
M  V30 335 H 32.2842 -0.463364 3.20973 0
M  V30 336 H 32.0692 1.23575 3.72118 0
M  V30 337 H 33.5592 0.348824 4.16141 0
M  V30 338 N 33.9963 -1.19345 1.0293 0
M  V30 339 C 34.9593 -2.20793 0.615069 0
M  V30 340 C 35.9593 -1.57553 -0.321533 0
M  V30 341 O 37.1493 -1.73862 -0.108483 0
M  V30 342 C 34.2813 -3.40754 -0.0999222 0
M  V30 343 H 35.4743 -2.58955 1.51269 0
M  V30 344 H 33.0273 -1.3303 0.820534 0
M  V30 345 H 33.7623 -3.0811 -1.01187 0
M  V30 346 H 33.5473 -3.87889 0.57309 0
M  V30 347 H 35.0373 -4.15898 -0.376645 0
M  V30 348 N 35.4744 -0.807222 -1.35358 0
M  V30 349 C 36.7024 -0.400377 -2.02989 0
M  V30 350 C 37.1174 0.988859 -1.60832 0
M  V30 351 O 36.4744 1.63729 -0.806175 0
M  V30 352 C 36.5254 -0.474867 -3.58368 0
M  V30 353 O 36.2464 -1.80933 -3.98992 0
M  V30 354 C 37.7474 -0.0609112 -4.43258 0
M  V30 355 H 34.9674 -0.162587 -0.651004 0
M  V30 356 H 37.5114 -1.09102 -1.72965 0
M  V30 357 H 35.6664 0.167534 -3.87038 0
M  V30 358 H 36.0804 -1.77256 -4.9364 0
M  V30 359 H 37.5544 -0.164145 -5.51756 0
M  V30 360 H 38.0314 0.993831 -4.27808 0
M  V30 361 H 38.6374 -0.676492 -4.19885 0
M  V30 362 N 36.9525 1.47285 -0.560781 0
M  V30 363 C 37.9155 2.28535 0.174488 0
M  V30 364 C 38.9155 1.37153 0.839388 0
M  V30 365 O 40.1055 1.59748 0.694702 0
M  V30 366 C 37.2375 3.16934 1.25561 0
M  V30 367 H 38.4305 2.95012 -0.539262 0
M  V30 368 H 35.9835 1.53034 -0.317865 0
M  V30 369 H 36.7185 2.55157 2.00164 0
M  V30 370 H 36.5035 3.8419 0.783604 0
M  V30 371 H 37.9935 3.78143 1.77193 0
M  V30 372 N 38.4306 0.297415 1.54768 0
M  V30 373 C 39.3936 -0.567375 2.22066 0
M  V30 374 C 40.3936 -1.06409 1.20556 0
M  V30 375 O 41.5836 -0.960691 1.45315 0
M  V30 376 C 38.7156 -1.78517 2.90421 0
M  V30 377 H 39.9086 0.0205534 2.99893 0
M  V30 378 H 37.4616 0.0482163 1.56226 0
M  V30 379 H 38.1966 -2.41303 2.16664 0
M  V30 380 H 37.9816 -1.43669 3.64831 0
M  V30 381 H 39.4716 -2.39964 3.41771 0
M  V30 382 N 39.9087 -1.5758 0.0250728 0
M  V30 383 C 41.1857 -1.82917 -0.692873 0
M  V30 384 C 41.5657 -0.908137 -1.90568 0
M  V30 385 O 40.9137 0.0372298 -2.2847 0
M  V30 386 C 41.1237 -3.32034 -1.07492 0
M  V30 387 C 42.4717 -3.98406 -1.46826 0
M  V30 388 O 43.4957 -3.36505 -1.16801 0
M  V30 389 O 42.3547 -5.07497 -2.02754 0
M  V30 390 H 39.4487 -0.754079 -0.33955 0
M  V30 391 H 41.9947 -1.69619 0.0524456 0
M  V30 392 H 40.7667 -3.90728 -0.211552 0
M  V30 393 H 40.3897 -3.50424 -1.87854 0
M  V30 394 N 41.3868 0.248026 -1.55636 0
M  V30 395 C 42.6328 0.97767 -1.77678 0
M  V30 396 C 42.9658 1.85016 -0.590135 0
M  V30 397 O 42.2408 1.90095 0.411611 0
M  V30 398 C 42.5238 1.83914 -3.09593 0
M  V30 399 C 42.3768 0.99491 -4.38659 0
M  V30 400 C 43.6958 2.82183 -3.37729 0
M  V30 401 H 40.8148 0.354005 -0.646413 0
M  V30 402 H 43.4568 0.248253 -1.88371 0
M  V30 403 H 41.6068 2.46104 -3.00608 0
M  V30 404 H 43.2788 0.391789 -4.59633 0
M  V30 405 H 41.5218 0.299231 -4.32767 0
M  V30 406 H 42.1928 1.63145 -5.2734 0
M  V30 407 H 44.6688 2.30129 -3.4667 0
M  V30 408 H 43.5448 3.39582 -4.31249 0
M  V30 409 H 43.8058 3.58588 -2.58586 0
M  V30 410 N 42.8649 1.48995 0.513639 0
M  V30 411 C 44.2759 1.5119 1.09537 0
M  V30 412 C 44.6269 0.290906 1.94031 0
M  V30 413 O 43.7519 -0.60049 2.07902 0
M  V30 414 C 44.3469 2.73964 1.99322 0
M  V30 415 C 42.9059 2.78978 2.52682 0
M  V30 416 C 42.0529 2.44934 1.30009 0
M  V30 417 H 45.0039 1.55875 0.298125 0
M  V30 418 H 45.0249 2.53409 2.83838 0
M  V30 419 H 44.5369 3.62813 1.37799 0
M  V30 420 H 42.6379 1.94378 3.1788 0
M  V30 421 H 42.7509 3.8083 2.90698 0
M  V30 422 H 41.1149 1.9644 1.62122 0
M  V30 423 H 41.8979 3.36043 0.702131 0
M  V30 424 N 44.343 -0.763751 1.37857 0
M  V30 425 C 45.306 -1.85889 1.34081 0
M  V30 426 C 46.306 -1.58949 0.243277 0
M  V30 427 O 47.496 -1.66882 0.499589 0
M  V30 428 C 44.628 -3.23176 1.08489 0
M  V30 429 H 45.821 -1.90648 2.31502 0
M  V30 430 H 43.374 -0.964367 1.23003 0
M  V30 431 H 44.109 -3.24091 0.116318 0
M  V30 432 H 43.894 -3.44124 1.8794 0
M  V30 433 H 45.384 -4.03254 1.08517 0
M  V30 434 N 45.8211 -1.22559 -0.990812 0
M  V30 435 C 47.0691 -1.04933 -1.72724 0
M  V30 436 C 47.3901 0.416158 -1.90508 0
M  V30 437 O 46.6601 1.29918 -1.46622 0
M  V30 438 H 45.2401 -0.385296 -0.639965 0
M  V30 439 H 47.9021 -1.54105 -1.19322 0
M  V30 440 H 46.9981 -1.52886 -2.72089 0
M  V30 441 N 47.2992 1.18797 -1.03562 0
M  V30 442 C 48.5452 1.8893 -0.737113 0
M  V30 443 C 48.8782 1.79837 0.732956 0
M  V30 444 O 48.1532 1.19525 1.5344 0
M  V30 445 C 48.4362 3.39607 -1.19745 0
M  V30 446 C 48.2892 3.57537 -2.72924 0
M  V30 447 C 49.6082 4.33069 -0.783526 0
M  V30 448 H 46.7272 0.686057 -0.269249 0
M  V30 449 H 49.3692 1.39797 -1.28673 0
M  V30 450 H 47.5192 3.81583 -0.729855 0
M  V30 451 H 49.1912 3.24688 -3.27682 0
M  V30 452 H 47.4342 3.00363 -3.12993 0
M  V30 453 H 48.1052 4.63238 -3.00191 0
M  V30 454 H 50.5812 3.98846 -1.18581 0
M  V30 455 H 49.4572 5.3707 -1.13343 0
M  V30 456 H 49.7182 4.40986 0.313681 0
M  V30 457 N 48.7773 0.814389 1.34928 0
M  V30 458 C 49.7093 0.187834 2.28429 0
M  V30 459 C 50.7223 -0.617374 1.5064 0
M  V30 460 O 51.9113 -0.448454 1.72775 0
M  V30 461 C 49.0113 -0.755962 3.30361 0
M  V30 462 C 48.1843 0.00456686 4.374 0
M  V30 463 C 47.2433 -0.858876 5.19143 0
M  V30 464 O 46.2693 -0.306968 5.68372 0
M  V30 465 N 47.4713 -2.17988 5.38016 0
M  V30 466 H 50.2363 0.991105 2.82838 0
M  V30 467 H 47.7973 0.670561 1.4736 0
M  V30 468 H 49.7893 -1.338 3.81942 0
M  V30 469 H 48.3593 -1.46001 2.7641 0
M  V30 470 H 47.5793 0.767865 3.86649 0
M  V30 471 H 48.8673 0.528422 5.06049 0
M  V30 472 H 48.2653 -2.65212 4.99679 0
M  V30 473 H 46.8223 -2.71098 5.92747 0
M  V30 474 N 50.2554 -1.46986 0.568584 0
M  V30 475 C 51.1854 -2.32946 -0.160753 0
M  V30 476 C 52.1664 -1.44487 -0.897631 0
M  V30 477 O 53.3514 -1.73327 -0.875867 0
M  V30 478 C 50.4814 -3.26494 -1.18403 0
M  V30 479 C 49.4354 -4.24282 -0.562895 0
M  V30 480 C 48.7614 -5.07236 -1.69163 0
M  V30 481 C 50.0614 -5.19989 0.490761 0
M  V30 482 H 51.7554 -2.94175 0.556916 0
M  V30 483 H 49.3014 -1.4146 0.26927 0
M  V30 484 H 51.2544 -3.85477 -1.70251 0
M  V30 485 H 49.9784 -2.63343 -1.93179 0
M  V30 486 H 48.6374 -3.66541 -0.0656164 0
M  V30 487 H 48.2854 -4.4048 -2.42871 0
M  V30 488 H 47.9854 -5.7345 -1.28174 0
M  V30 489 H 49.5094 -5.6908 -2.21314 0
M  V30 490 H 50.9234 -5.73271 0.0579047 0
M  V30 491 H 49.3204 -5.94469 0.820165 0
M  V30 492 H 50.3904 -4.64777 1.3824 0
M  V30 493 N 51.7335 -0.305618 -1.54608 0
M  V30 494 C 52.6965 0.555591 -2.22364 0
M  V30 495 C 53.6965 1.05768 -1.21119 0
M  V30 496 O 54.8865 0.952972 -1.45822 0
M  V30 497 C 52.0185 1.76974 -2.91364 0
M  V30 498 H 53.2115 -0.0364572 -2.99878 0
M  V30 499 H 50.7645 -0.0565007 -1.56198 0
M  V30 500 H 51.4995 2.40151 -2.17941 0
M  V30 501 H 51.2845 1.41732 -3.65588 0
M  V30 502 H 52.7745 2.38148 -3.43038 0
M  V30 503 N 53.2116 1.57565 -0.0334293 0
M  V30 504 C 54.4886 1.83282 0.683163 0
M  V30 505 C 54.8686 0.91823 1.90084 0
M  V30 506 O 54.2166 -0.025113 2.28486 0
M  V30 507 C 54.4266 3.32599 1.0573 0
M  V30 508 C 55.7746 3.99179 1.44711 0
M  V30 509 O 56.7986 3.3712 1.15015 0
M  V30 510 O 55.6576 5.08565 2.0006 0
M  V30 511 H 52.7516 0.755869 0.335546 0
M  V30 512 H 55.2976 1.69589 -0.0614402 0
M  V30 513 H 54.0696 3.90834 0.190828 0
M  V30 514 H 53.6926 3.51415 1.85993 0
M  V30 515 N 54.6897 -0.239769 1.55765 0
M  V30 516 C 55.6367 -1.29696 1.90913 0
M  V30 517 C 56.6067 -1.47478 0.764164 0
M  V30 518 O 57.7917 -1.61345 1.01845 0
M  V30 519 C 54.9317 -2.64598 2.21544 0
M  V30 520 C 54.0447 -2.54765 3.48882 0
M  V30 521 C 53.1797 -3.82069 3.69049 0
M  V30 522 C 52.2187 -3.66883 4.89963 0
M  V30 523 N 51.3557 -4.86094 5.06614 0
M  V30 524 H 56.1957 -0.990224 2.81067 0
M  V30 525 H 53.7327 -0.477684 1.39128 0
M  V30 526 H 55.6907 -3.43132 2.3731 0
M  V30 527 H 54.3207 -2.93405 1.34585 0
M  V30 528 H 53.3727 -1.67763 3.41409 0
M  V30 529 H 54.6847 -2.39457 4.37563 0
M  V30 530 H 53.8387 -4.69046 3.84812 0
M  V30 531 H 52.5777 -4.00282 2.78614 0
M  V30 532 H 51.5827 -2.78289 4.74168 0
M  V30 533 H 52.8077 -3.50157 5.81865 0
M  V30 534 H 50.7537 -5.04655 4.19117 0
M  V30 535 H 50.6707 -4.73443 5.89396 0
M  V30 536 H 51.9387 -5.74549 5.26795 0
M  V30 537 N 56.1678 -1.49265 -0.50573 0
M  V30 538 C 57.0998 -1.617 -1.62437 0
M  V30 539 C 58.1128 -0.499924 -1.54934 0
M  V30 540 O 59.3018 -0.771785 -1.60953 0
M  V30 541 C 56.4018 -1.5533 -3.01207 0
M  V30 542 C 55.5748 -2.8249 -3.33943 0
M  V30 543 C 54.6338 -2.69238 -4.52103 0
M  V30 544 O 53.6598 -3.43167 -4.5412 0
M  V30 545 N 54.8618 -1.80468 -5.51735 0
M  V30 546 H 57.6268 -2.58177 -1.52199 0
M  V30 547 H 55.1878 -1.46294 -0.693511 0
M  V30 548 H 57.1798 -1.44125 -3.78167 0
M  V30 549 H 55.7498 -0.667297 -3.05395 0
M  V30 550 H 54.9698 -3.08081 -2.45926 0
M  V30 551 H 56.2578 -3.66802 -3.5261 0
M  V30 552 H 55.6558 -1.19653 -5.52901 0
M  V30 553 H 54.2128 -1.75188 -6.27816 0
M  V30 554 N 57.6459 0.756429 -1.3826 0
M  V30 555 C 58.8739 1.54565 -1.3754 0
M  V30 556 C 59.2889 1.88767 0.0355331 0
M  V30 557 O 58.6459 1.52572 1.0014 0
M  V30 558 C 58.6969 2.84654 -2.22833 0
M  V30 559 O 58.4179 2.51912 -3.5843 0
M  V30 560 C 59.9189 3.78807 -2.30261 0
M  V30 561 H 57.1389 0.478353 -0.470553 0
M  V30 562 H 59.6829 0.936381 -1.81803 0
M  V30 563 H 57.8379 3.41965 -1.8204 0
M  V30 564 H 58.2519 3.35325 -4.03308 0
M  V30 565 H 59.7259 4.67045 -2.94233 0
M  V30 566 H 60.2029 4.19038 -1.31545 0
M  V30 567 H 60.8089 3.2742 -2.71433 0
M  V30 568 N 59.124 1.23083 0.984299 0
M  V30 569 C 60.054 1.03292 2.09411 0
M  V30 570 C 61.035 -0.048923 1.7003 0
M  V30 571 O 62.22 0.114967 1.93859 0
M  V30 572 C 59.35 0.619155 3.41736 0
M  V30 573 C 58.304 1.64791 3.95004 0
M  V30 574 C 57.63 1.0897 5.23478 0
M  V30 575 C 58.93 3.03999 4.24714 0
M  V30 576 H 60.624 1.96119 2.26225 0
M  V30 577 H 58.17 0.944344 1.08711 0
M  V30 578 H 60.123 0.467777 4.18796 0
M  V30 579 H 58.847 -0.344786 3.24775 0
M  V30 580 H 57.506 1.78721 3.20085 0
M  V30 581 H 57.154 0.11686 5.02864 0
M  V30 582 H 56.854 1.77704 5.60085 0
M  V30 583 H 58.378 0.950093 6.03163 0
M  V30 584 H 59.792 2.93393 4.92538 0
M  V30 585 H 58.189 3.69936 4.72512 0
M  V30 586 H 59.259 3.53285 3.32142 0
M  V30 587 N 60.6021 -1.18246 1.0419 0
M  V30 588 C 61.8481 -1.88536 0.747122 0
M  V30 589 C 62.1811 -1.80223 -0.723409 0
M  V30 590 O 61.4561 -1.20337 -1.52804 0
M  V30 591 C 61.7391 -3.38968 1.21544 0
M  V30 592 C 61.5921 -3.56084 2.74816 0
M  V30 593 C 62.9111 -4.32648 0.806482 0
M  V30 594 H 60.0301 -0.684619 0.272883 0
M  V30 595 H 62.6721 -1.39113 1.29413 0
M  V30 596 H 60.8221 -3.8119 0.750081 0
M  V30 597 H 62.4941 -3.22946 3.29399 0
M  V30 598 H 60.7371 -2.98699 3.14582 0
M  V30 599 H 61.4081 -4.61639 3.02644 0
M  V30 600 H 63.8841 -3.98211 1.20695 0
M  V30 601 H 62.7601 -5.36462 1.1619 0
M  V30 602 H 63.0211 -4.41146 -0.29029 0
M  V30 603 N 62.0802 -0.821533 -1.34494 0
M  V30 604 C 63.4962 -0.507117 -1.51329 0
M  V30 605 C 63.6962 0.968964 -1.76673 0
M  V30 606 O 62.7522 1.75348 -1.81685 0
M  V30 607 C 64.0652 -1.36544 -2.67911 0
M  V30 608 C 65.6132 -1.36242 -2.81793 0
M  V30 609 C 66.0882 -2.2052 -4.01416 0
M  V30 610 N 67.5792 -2.18136 -4.08621 0
M  V30 611 C 68.3142 -2.80095 -5.00334 0
M  V30 612 N 67.8102 -3.51039 -5.9728 0
M  V30 613 N 69.6032 -2.69656 -4.93196 0
M  V30 614 H 61.7542 -1.77729 -1.16302 0
M  V30 615 H 64.0172 -0.757291 -0.570276 0
M  V30 616 H 63.7232 -2.41361 -2.55808 0
M  V30 617 H 63.5972 -1.02917 -3.62888 0
M  V30 618 H 65.9842 -0.322041 -2.93338 0
M  V30 619 H 66.0652 -1.73866 -1.87628 0
M  V30 620 H 65.7092 -3.24607 -3.90631 0
M  V30 621 H 65.6392 -1.80247 -4.94791 0
M  V30 622 H 68.1302 -1.6653 -3.39229 0
M  V30 623 H 68.4432 -3.95565 -6.63889 0
M  V30 624 H 66.7882 -3.55145 -5.97409 0
M  V30 625 H 69.9792 -2.13808 -4.16418 0
M  V30 626 H 70.1522 -3.1823 -5.64476 0
M  V30 627 N 63.5583 1.46682 -0.576371 0
M  V30 628 C 64.5063 2.31953 0.17335 0
M  V30 629 C 65.5003 1.44098 0.89062 0
M  V30 630 O 66.7063 1.60759 0.809728 0
M  V30 631 H 63.0813 0.748273 0.0747727 0
M  V30 632 H 65.0523 2.93007 -0.564738 0
M  V30 633 C 63.8013 3.27142 1.17786 0
M  V30 634 H 63.1243 3.94719 0.635361 0
M  V30 635 H 64.5643 3.896 1.67296 0
M  V30 636 C 63.0233 2.52036 2.23561 0
M  V30 637 O 63.5533 2.27877 3.3081 0
M  V30 638 N 61.7593 2.12709 1.97998 0
M  V30 639 H 61.3063 2.32557 1.10792 0
M  V30 640 H 61.2643 1.62776 2.68982 0
M  V30 641 N 65.0364 0.313813 1.54444 0
M  V30 642 C 65.9844 -0.572171 2.25453 0
M  V30 643 C 66.9784 -1.12657 1.2651 0
M  V30 644 O 68.1844 -1.07573 1.44319 0
M  V30 645 H 64.5594 -0.203146 0.724041 0
M  V30 646 H 66.5304 0.0491145 2.9836 0
M  V30 647 C 65.2794 -1.72626 3.0182 0
M  V30 648 H 64.6024 -1.30891 3.77767 0
M  V30 649 H 66.0424 -2.32199 3.54767 0
M  V30 650 C 64.5014 -2.63806 2.09542 0
M  V30 651 O 65.0314 -3.65256 1.67185 0
M  V30 652 N 63.2374 -2.31824 1.75232 0
M  V30 653 H 62.7844 -1.49368 2.09873 0
M  V30 654 H 62.7424 -2.93095 1.13767 0
M  V30 655 N 66.5145 -1.57545 0.0417849 0
M  V30 656 C 67.7625 -1.91937 -0.632829 0
M  V30 657 C 68.0835 -0.919978 -1.71934 0
M  V30 658 O 67.3535 0.0366064 -1.95866 0
M  V30 659 H 65.9335 -0.708493 -0.236742 0
M  V30 660 H 68.5955 -1.9468 0.0925745 0
M  V30 661 H 67.6915 -2.92912 -1.07746 0
M  V30 662 N 67.9926 0.231505 -1.5589 0
M  V30 663 C 69.2176 0.978689 -1.82856 0
M  V30 664 C 69.6426 1.77559 -0.620846 0
M  V30 665 O 69.0006 1.76119 0.430305 0
M  V30 666 C 69.0486 1.87997 -3.07716 0
M  V30 667 O 68.1526 2.97393 -2.85712 0
M  V30 668 H 67.4936 0.277663 -0.603158 0
M  V30 669 H 70.0236 0.24783 -2.03093 0
M  V30 670 H 70.0336 2.2917 -3.37558 0
M  V30 671 H 68.7086 1.29417 -3.95252 0
M  V30 672 H 67.2856 2.60238 -2.67078 0
M  V30 673 N 69.4707 1.49531 0.497807 0
M  V30 674 C 70.3807 1.69176 1.62532 0
M  V30 675 C 71.3967 0.5744 1.64246 0
M  V30 676 O 72.5727 0.849497 1.82608 0
M  V30 677 C 69.6377 1.75695 2.98885 0
M  V30 678 C 68.6987 2.9929 3.07773 0
M  V30 679 C 67.9317 3.05488 4.37622 0
M  V30 680 O 68.1547 2.19192 5.26603 0
M  V30 681 O 67.0887 3.9798 4.51548 0
M  V30 682 H 70.9147 2.647 1.48887 0
M  V30 683 H 68.4997 1.3331 0.674441 0
M  V30 684 H 70.3817 1.82317 3.79919 0
M  V30 685 H 69.0567 0.8335 3.12785 0
M  V30 686 H 67.9637 2.98183 2.25915 0
M  V30 687 H 69.2967 3.91125 2.98801 0
M  V30 688 N 70.9488 -0.749086 1.3866 0
M  V30 689 C 72.1948 -1.51056 1.35314 0
M  V30 690 C 72.5278 -1.94121 -0.0553751 0
M  V30 691 O 71.8028 -1.65763 -1.01749 0
M  V30 692 C 72.0858 -2.76003 2.31288 0
M  V30 693 C 71.9388 -2.39047 3.8102 0
M  V30 694 C 73.2578 -3.78046 2.2532 0
M  V30 695 H 70.3768 -0.547972 0.492844 0
M  V30 696 H 73.0188 -0.857628 1.69543 0
M  V30 697 H 71.1688 -3.31716 2.02229 0
M  V30 698 H 72.8408 -1.89074 4.20771 0
M  V30 699 H 71.0838 -1.71449 3.98482 0
M  V30 700 H 71.7548 -3.28462 4.4364 0
M  V30 701 H 74.2308 -3.31884 2.50983 0
M  V30 702 H 73.1068 -4.63159 2.94576 0
M  V30 703 H 73.3678 -4.23957 1.25352 0
M  V30 704 N 72.4269 -1.23603 -0.977757 0
M  V30 705 C 73.3589 -0.977369 -2.07317 0
M  V30 706 C 74.3719 0.0495845 -1.62724 0
M  V30 707 O 75.5609 -0.186261 -1.77526 0
M  V30 708 C 72.6609 -0.451216 -3.35883 0
M  V30 709 C 71.8339 -1.53896 -4.09432 0
M  V30 710 C 70.8929 -1.01721 -5.16274 0
M  V30 711 O 69.9189 -1.70676 -5.43009 0
M  V30 712 N 71.1209 0.153594 -5.80297 0
M  V30 713 H 73.8859 -1.92047 -2.30082 0
M  V30 714 H 71.4469 -1.14497 -1.14465 0
M  V30 715 H 73.4389 -0.0871574 -4.04606 0
M  V30 716 H 72.0089 0.397368 -3.10064 0
M  V30 717 H 71.2289 -2.07566 -3.35127 0
M  V30 718 H 72.5169 -2.27037 -4.55337 0
M  V30 719 H 71.9149 0.730323 -5.60966 0
M  V30 720 H 70.4719 0.458892 -6.50183 0
M  V30 721 N 73.905 1.17692 -1.04816 0
M  V30 722 C 75.13 1.92327 -0.776207 0
M  V30 723 C 75.555 1.76082 0.661581 0
M  V30 724 O 74.913 1.076 1.45917 0
M  V30 725 C 74.961 3.41539 -1.15687 0
M  V30 726 O 74.065 4.11402 -0.286775 0
M  V30 727 H 73.406 0.599735 -0.284981 0
M  V30 728 H 75.936 1.49201 -1.4 0
M  V30 729 H 75.946 3.92269 -1.12202 0
M  V30 730 H 74.621 3.52684 -2.20425 0
M  V30 731 H 73.198 3.70939 -0.381903 0
M  V30 732 N 75.3831 0.828654 1.34056 0
M  V30 733 C 76.3131 0.269443 2.3194 0
M  V30 734 C 77.2941 -0.617247 1.58506 0
M  V30 735 O 78.4791 -0.542931 1.86456 0
M  V30 736 C 75.6091 -0.564793 3.42677 0
M  V30 737 C 74.5631 0.225241 4.27407 0
M  V30 738 C 73.8891 -0.7321 5.29664 0
M  V30 739 C 75.1891 1.43663 5.02154 0
M  V30 740 H 76.8831 1.08728 2.7896 0
M  V30 741 H 74.4291 0.524283 1.34117 0
M  V30 742 H 76.3821 -0.966233 4.10173 0
M  V30 743 H 75.1061 -1.41574 2.9432 0
M  V30 744 H 73.7651 0.608117 3.61521 0
M  V30 745 H 73.4131 -1.57916 4.77568 0
M  V30 746 H 73.1131 -0.20767 5.87233 0
M  V30 747 H 74.6371 -1.13128 6.00029 0
M  V30 748 H 76.0511 1.1089 5.62473 0
M  V30 749 H 74.4481 1.89711 5.69324 0
M  V30 750 H 75.5181 2.21181 4.31517 0
M  V30 751 N 76.8612 -1.46375 0.584142 0
M  V30 752 C 78.1382 -1.956 0.0033388 0
M  V30 753 C 78.5182 -1.52679 -1.45782 0
M  V30 754 O 77.8662 -0.77816 -2.14842 0
M  V30 755 C 78.0762 -3.48551 0.176891 0
M  V30 756 C 79.4242 -4.24576 0.0454609 0
M  V30 757 O 80.4482 -3.56043 0.105801 0
M  V30 758 O 79.3072 -5.46427 -0.0890376 0
M  V30 759 H 76.4012 -0.825547 -0.0490066 0
M  V30 760 H 78.9472 -1.56652 0.65256 0
M  V30 761 H 77.7192 -3.72683 1.1926 0
M  V30 762 H 77.3422 -3.94332 -0.508695 0
M  V30 763 N 78.3393 -0.321999 -1.54275 0
M  V30 764 C 79.7503 0.166384 -1.85957 0
M  V30 765 C 80.1013 1.51747 -1.24367 0
M  V30 766 O 79.2263 2.09317 -0.549124 0
M  V30 767 C 79.8213 0.308681 -3.37391 0
M  V30 768 C 78.3803 0.741286 -3.69028 0
M  V30 769 C 77.5273 -0.137937 -2.76957 0
M  V30 770 H 80.4783 -0.542335 -1.49146 0
M  V30 771 H 80.4993 1.13984 -3.63026 0
M  V30 772 H 80.0113 -0.674809 -3.82188 0
M  V30 773 H 78.1123 1.73458 -3.29762 0
M  V30 774 H 78.2253 0.546118 -4.75977 0
M  V30 775 H 76.5893 0.386251 -2.51754 0
M  V30 776 H 77.3723 -1.11816 -3.2458 0
M  V30 777 N 79.8174 1.5752 -0.0501392 0
M  V30 778 C 80.7674 2.07981 0.934231 0
M  V30 779 C 81.7514 0.984745 1.27246 0
M  V30 780 O 82.9434 1.24809 1.25506 0
M  V30 781 C 80.0724 2.62751 2.20945 0
M  V30 782 C 79.1584 3.79225 1.89865 0
M  V30 783 N 79.5494 4.89036 1.29142 0
M  V30 784 C 77.8474 3.88111 2.19741 0
M  V30 785 C 78.5484 5.70084 1.15669 0
M  V30 786 N 77.5244 5.17659 1.65923 0
M  V30 787 H 81.3264 2.90277 0.460053 0
M  V30 788 H 78.8404 1.61665 0.15434 0
M  V30 789 H 80.8374 2.97205 2.9236 0
M  V30 790 H 79.4974 1.81894 2.6897 0
M  V30 791 H 80.5084 5.08854 0.963756 0
M  V30 792 H 77.1854 3.18194 2.70293 0
M  V30 793 H 78.5754 6.68395 0.685356 0
M  V30 794 N 81.2955 -0.223234 1.56011 0
M  V30 795 C 82.2425 -1.27664 1.92277 0
M  V30 796 C 83.2125 -1.46659 0.779763 0
M  V30 797 O 84.3975 -1.60256 1.03551 0
M  V30 798 C 81.5375 -2.62234 2.24338 0
M  V30 799 C 80.6505 -2.51051 3.51564 0
M  V30 800 C 79.7855 -3.78133 3.7308 0
M  V30 801 C 78.8245 -3.61665 4.93827 0
M  V30 802 N 77.9615 -4.80693 5.11741 0
M  V30 803 H 82.8015 -0.960358 2.82101 0
M  V30 804 H 80.3385 -0.462901 1.39627 0
M  V30 805 H 82.2965 -3.40596 2.40936 0
M  V30 806 H 80.9265 -2.91961 1.3769 0
M  V30 807 H 79.9785 -1.64132 3.43169 0
M  V30 808 H 81.2905 -2.34803 4.40079 0
M  V30 809 H 80.4445 -4.64938 3.89766 0
M  V30 810 H 79.1835 -3.97304 2.82844 0
M  V30 811 H 78.1885 -2.73244 4.77093 0
M  V30 812 H 79.4135 -3.43966 5.85546 0
M  V30 813 H 77.3595 -5.00181 4.24446 0
M  V30 814 H 77.2765 -4.67165 5.94384 0
M  V30 815 H 78.5445 -5.6893 5.3286 0
M  V30 816 N 82.7736 -1.49793 -0.48987 0
M  V30 817 C 84.0226 -1.59085 -1.23995 0
M  V30 818 C 84.3356 -0.287907 -1.9347 0
M  V30 819 O 85.5416 -0.259506 -2.70257 0
M  V30 820 C 83.9976 -2.80736 -2.252 0
M  V30 821 C 83.6056 -4.17833 -1.61614 0
M  V30 822 C 85.3496 -2.99364 -3.00967 0
M  V30 823 C 83.2566 -5.30693 -2.60996 0
M  V30 824 H 82.1866 -0.592372 -0.466488 0
M  V30 825 H 84.8376 -1.76197 -0.51252 0
M  V30 826 H 83.2196 -2.57142 -3.01154 0
M  V30 827 H 84.3936 -4.51608 -0.915774 0
M  V30 828 H 82.7086 -4.04656 -0.981977 0
M  V30 829 H 85.3056 -3.80851 -3.75308 0
M  V30 830 H 85.6486 -2.10356 -3.59244 0
M  V30 831 H 86.1816 -3.2305 -2.32128 0
M  V30 832 H 82.9206 -6.21796 -2.07485 0
M  V30 833 H 82.4406 -5.01359 -3.2924 0
M  V30 834 H 84.1196 -5.6049 -3.23202 0
M  V30 835 N 84.2517 0.741722 -1.39055 0
M  V30 836 C 85.1617 1.88621 -1.39496 0
M  V30 837 C 86.1777 1.71557 -0.290578 0
M  V30 838 O 87.3537 1.94275 -0.530954 0
M  V30 839 C 84.4187 3.24134 -1.23037 0
M  V30 840 C 83.4797 3.5364 -2.43387 0
M  V30 841 C 82.7127 4.82687 -2.27703 0
M  V30 842 O 82.9357 5.55922 -1.27696 0
M  V30 843 O 81.8697 5.1194 -3.16545 0
M  V30 844 H 85.6957 1.91203 -2.35956 0
M  V30 845 H 83.2807 0.888625 -1.20099 0
M  V30 846 H 85.1627 4.0513 -1.15964 0
M  V30 847 H 83.8377 3.22337 -0.296691 0
M  V30 848 H 82.7447 2.72758 -2.56035 0
M  V30 849 H 84.0777 3.60209 -3.35425 0
M  V30 850 N 85.7298 1.2412 0.971189 0
M  V30 851 C 86.9778 1.07668 1.71032 0
M  V30 852 C 87.2988 -0.385797 1.91146 0
M  V30 853 O 86.5688 -1.27569 1.4867 0
M  V30 854 H 85.1488 0.395429 0.633755 0
M  V30 855 H 87.8108 1.55984 1.16855 0
M  V30 856 H 86.9068 1.57195 2.69622 0
M  V30 857 N 87.2079 -1.17134 1.05439 0
M  V30 858 C 88.4539 -1.87733 0.767077 0
M  V30 859 C 88.7869 -1.8098 -0.704253 0
M  V30 860 O 88.0619 -1.21951 -1.5152 0
M  V30 861 C 88.3449 -3.37659 1.25133 0
M  V30 862 C 88.1979 -3.53149 2.78578 0
M  V30 863 C 89.5169 -4.31768 0.852324 0
M  V30 864 H 86.6359 -0.681687 0.280129 0
M  V30 865 H 89.2779 -1.37732 1.30881 0
M  V30 866 H 87.4279 -3.80373 0.790469 0
M  V30 867 H 89.0999 -3.19434 3.32806 0
M  V30 868 H 87.3429 -2.95345 3.17732 0
M  V30 869 H 88.0139 -4.58403 3.07523 0
M  V30 870 H 90.4899 -3.96909 1.24911 0
M  V30 871 H 89.3659 -5.35199 1.21873 0
M  V30 872 H 89.6269 -4.41429 -0.243485 0
M  V30 873 N 88.686 -0.835752 -1.33615 0
M  V30 874 C 90.097 -0.487099 -1.80234 0
M  V30 875 C 90.448 0.993627 -1.69179 0
M  V30 876 O 89.573 1.77403 -1.23924 0
M  V30 877 C 90.168 -0.877385 -3.27242 0
M  V30 878 C 88.727 -0.580915 -3.7189 0
M  V30 879 C 87.874 -1.0874 -2.5509 0
M  V30 880 H 90.825 -1.02474 -1.2118 0
M  V30 881 H 90.846 -0.186195 -3.80044 0
M  V30 882 H 90.358 -1.95512 -3.35256 0
M  V30 883 H 88.459 0.486881 -3.69405 0
M  V30 884 H 88.572 -1.13396 -4.65487 0
M  V30 885 H 86.936 -0.508392 -2.49575 0
M  V30 886 H 87.719 -2.17184 -2.65868 0
M  V30 887 N 90.1641 1.46063 -0.591896 0
M  V30 888 C 91.0741 2.34192 0.13831 0
M  V30 889 C 92.0901 1.50305 0.876608 0
M  V30 890 O 93.2661 1.8315 0.837728 0
M  V30 891 C 90.3311 3.27656 1.13326 0
M  V30 892 C 89.3921 4.27445 0.39863 0
M  V30 893 C 88.6251 5.16443 1.34618 0
M  V30 894 O 88.8481 5.08553 2.58321 0
M  V30 895 O 87.7821 5.95843 0.851768 0
M  V30 896 H 91.6081 2.98002 -0.58552 0
M  V30 897 H 89.1931 1.45188 -0.352239 0
M  V30 898 H 91.0751 3.85291 1.70671 0
M  V30 899 H 89.7501 2.6643 1.83839 0
M  V30 900 H 88.6571 3.73471 -0.216895 0
M  V30 901 H 89.9901 4.91482 -0.265709 0
M  V30 902 N 91.6422 0.330177 1.54103 0
M  V30 903 C 92.8672 -0.274893 2.0557 0
M  V30 904 C 93.2922 -1.44487 1.20437 0
M  V30 905 O 92.6502 -1.80021 0.214991 0
M  V30 906 C 92.6982 -0.68079 3.54115 0
M  V30 907 O 91.8022 -1.7824 3.71893 0
M  V30 908 H 91.1432 -0.0483849 0.662235 0
M  V30 909 H 93.6732 0.480508 1.98878 0
M  V30 910 H 93.6832 -0.961635 3.96505 0
M  V30 911 H 92.3582 0.174903 4.15532 0
M  V30 912 H 90.9352 -1.49985 3.41407 0
M  V30 913 N 93.1203 -1.57491 0.0584922 0
M  V30 914 C 94.0683 -2.13148 -0.931168 0
M  V30 915 C 95.0623 -1.06507 -1.31729 0
M  V30 916 O 96.2683 -1.24906 -1.29609 0
M  V30 917 H 92.6433 -0.68137 -0.31818 0
M  V30 918 H 94.6143 -2.95187 -0.436707 0
M  V30 919 C 93.3633 -2.69732 -2.19408 0
M  V30 920 H 92.6863 -3.51454 -1.90578 0
M  V30 921 H 94.1263 -3.12287 -2.86798 0
M  V30 922 C 92.5853 -1.63855 -2.94369 0
M  V30 923 O 93.1153 -1.05565 -3.87581 0
M  V30 924 N 91.3213 -1.35202 -2.57233 0
M  V30 925 H 90.8683 -1.82791 -1.81508 0
M  V30 926 H 90.8263 -0.645922 -3.07693 0
M  V30 927 N 94.5984 0.214957 -1.56127 0
M  V30 928 C 95.8444 0.939762 -1.79712 0
M  V30 929 C 96.1774 1.83723 -0.629247 0
M  V30 930 O 95.4524 1.90925 0.371197 0
M  V30 931 C 95.7354 1.77306 -3.13424 0
M  V30 932 C 95.5884 0.90164 -4.40671 0
M  V30 933 C 96.9074 2.74956 -3.43638 0
M  V30 934 H 94.0264 0.340214 -0.653776 0
M  V30 935 H 96.6684 0.20824 -1.88855 0
M  V30 936 H 94.8184 2.39673 -3.0576 0
M  V30 937 H 96.4904 0.294206 -4.60361 0
M  V30 938 H 94.7334 0.207368 -4.33304 0
M  V30 939 H 95.4044 1.51923 -5.30682 0
M  V30 940 H 97.8804 2.22724 -3.51473 0
M  V30 941 H 96.7564 3.30358 -4.38355 0
M  V30 942 H 97.0174 3.53023 -2.66134 0
M  V30 943 N 96.0765 1.50051 0.48192 0
M  V30 944 C 97.3015 1.64508 1.26301 0
M  V30 945 C 97.7265 0.323851 1.85291 0
M  V30 946 O 97.0845 -0.710969 1.66778 0
M  V30 947 C 97.1325 2.7305 2.35533 0
M  V30 948 O 96.2365 2.3355 3.39895 0
M  V30 949 H 95.5775 0.549978 0.372048 0
M  V30 950 H 98.1075 1.9636 0.574786 0
M  V30 951 H 98.1175 2.95799 2.8101 0
M  V30 952 H 96.7925 3.68946 1.91967 0
M  V30 953 H 95.3695 2.21205 3.00204 0
M  V30 954 N 97.5546 -0.734337 1.39446 0
M  V30 955 C 98.9706 -1.03997 1.21065 0
M  V30 956 C 99.1706 -2.01369 0.0727019 0
M  V30 957 O 98.2266 -2.45856 -0.575426 0
M  V30 958 C 99.5396 -1.60163 2.54496 0
M  V30 959 C 101.088 -1.7224 2.61347 0
M  V30 960 C 101.563 -2.31814 3.95002 0
M  V30 961 N 103.054 -2.39223 3.96644 0
M  V30 962 C 103.789 -2.86258 4.96834 0
M  V30 963 N 103.285 -3.33184 6.07421 0
M  V30 964 N 105.078 -2.85473 4.84213 0
M  V30 965 H 97.2286 -0.0885624 2.12215 0
M  V30 966 H 99.4916 -0.10191 0.942506 0
M  V30 967 H 99.1976 -0.960811 3.38321 0
M  V30 968 H 99.0716 -2.5896 2.74262 0
M  V30 969 H 101.459 -2.35443 1.77906 0
M  V30 970 H 101.54 -0.720939 2.4543 0
M  V30 971 H 101.184 -1.69238 4.78875 0
M  V30 972 H 101.114 -3.32638 4.08239 0
M  V30 973 H 103.605 -2.06057 3.16779 0
M  V30 974 H 103.918 -3.67586 6.7978 0
M  V30 975 H 102.263 -3.31191 6.11013 0
M  V30 976 H 105.454 -2.48136 3.96921 0
M  V30 977 H 105.627 -3.21814 5.62441 0
M  V30 978 N 99.0327 -1.24633 -0.964593 0
M  V30 979 C 100.31 -0.995809 -1.68354 0
M  V30 980 C 100.69 0.480964 -2.05548 0
M  V30 981 O 100.038 1.45599 -1.76105 0
M  V30 982 C 100.248 -1.92177 -2.91323 0
M  V30 983 C 101.596 -2.19446 -3.63495 0
M  V30 984 O 102.62 -1.89855 -3.01386 0
M  V30 985 O 101.479 -2.69714 -4.75307 0
M  V30 986 H 98.5727 -0.376854 -0.736146 0
M  V30 987 H 101.119 -1.35745 -1.0184 0
M  V30 988 H 99.8907 -2.91938 -2.60553 0
M  V30 989 H 99.5137 -1.56349 -3.65569 0
M  V30 990 N 100.511 1.16574 -1.06058 0
M  V30 991 C 101.441 2.23057 -0.690488 0
M  V30 992 C 102.422 1.67141 0.315901 0
M  V30 993 O 103.607 1.93253 0.191556 0
M  V30 994 C 100.737 3.47222 -0.073625 0
M  V30 995 C 99.6908 4.16016 -1.00573 0
M  V30 996 C 99.0168 5.34104 -0.252289 0
M  V30 997 C 100.317 4.67264 -2.33371 0
M  V30 998 H 102.011 2.54271 -1.58072 0
M  V30 999 H 99.5568 1.22218 -0.76149 0
M  V30 1000 H 101.51 4.20939 0.19714 0
M  V30 1001 H 100.234 3.15302 0.85161 0
M  V30 1002 H 98.8928 3.44223 -1.2612 0
M  V30 1003 H 98.5408 4.98437 0.675988 0
M  V30 1004 H 98.2408 5.81072 -0.873455 0
M  V30 1005 H 99.7648 6.10599 0.0109857 0
M  V30 1006 H 101.179 5.32573 -2.12223 0
M  V30 1007 H 99.5758 5.24843 -2.90963 0
M  V30 1008 H 100.646 3.83602 -2.96611 0
M  V30 1009 N 101.989 0.842826 1.3317 0
M  V30 1010 C 103.236 0.440447 1.97652 0
M  V30 1011 C 103.564 -1.00123 1.6675 0
M  V30 1012 O 102.819 -1.7155 0.941761 0
M  V30 1013 C 103.118 0.612607 3.52111 0
M  V30 1014 C 102.784 2.02297 4.02972 0
M  V30 1015 C 101.446 2.40874 4.16573 0
M  V30 1016 C 103.798 2.94402 4.30089 0
M  V30 1017 C 101.126 3.70852 4.54627 0
M  V30 1018 C 103.478 4.23865 4.69597 0
M  V30 1019 C 102.142 4.62392 4.81404 0
M  V30 1020 H 101.412 0.161171 0.72326 0
M  V30 1021 H 104.059 1.07061 1.58777 0
M  V30 1022 H 102.364 -0.100849 3.9167 0
M  V30 1023 H 104.061 0.2815 4.00011 0
M  V30 1024 H 100.651 1.71338 3.92863 0
M  V30 1025 H 104.835 2.65835 4.19101 0
M  V30 1026 H 100.091 4.00501 4.61962 0
M  V30 1027 H 104.265 4.95306 4.89536 0
M  V30 1028 H 101.892 5.63154 5.10648 0
M  V30 1029 N 103.467 -1.45747 0.599634 0
M  V30 1030 C 104.377 -2.34262 -0.125888 0
M  V30 1031 C 105.393 -1.50768 -0.868625 0
M  V30 1032 O 106.569 -1.83592 -0.828003 0
M  V30 1033 C 103.634 -3.28252 -1.11587 0
M  V30 1034 C 102.695 -4.27651 -0.375956 0
M  V30 1035 C 101.928 -5.1715 -1.31877 0
M  V30 1036 O 102.151 -5.09916 -2.55621 0
M  V30 1037 O 101.085 -5.96286 -0.820157 0
M  V30 1038 H 104.911 -2.97688 0.601315 0
M  V30 1039 H 102.496 -1.44999 0.359934 0
M  V30 1040 H 104.378 -3.86191 -1.68626 0
M  V30 1041 H 103.053 -2.67401 -1.82424 0
M  V30 1042 H 101.96 -3.7335 0.236698 0
M  V30 1043 H 103.293 -4.91334 0.29177 0
M  V30 1044 N 104.945 -0.338344 -1.53925 0
M  V30 1045 C 106.193 0.259245 -2.0043 0
M  V30 1046 C 106.514 1.51484 -1.22791 0
M  V30 1047 O 105.784 1.93037 -0.33368 0
M  V30 1048 H 104.364 0.0987845 -0.740439 0
M  V30 1049 H 107.026 -0.458302 -1.89435 0
M  V30 1050 H 106.122 0.505334 -3.07982 0
M  V30 1051 N 106.423 1.57458 -0.0668435 0
M  V30 1052 C 107.353 2.15468 0.899764 0
M  V30 1053 C 108.334 1.08042 1.31381 0
M  V30 1054 O 109.519 1.36054 1.38574 0
M  V30 1055 C 106.649 2.71232 2.16911 0
M  V30 1056 C 105.603 3.83781 1.89463 0
M  V30 1057 C 104.929 4.26127 3.22986 0
M  V30 1058 C 106.229 5.08238 1.20381 0
M  V30 1059 H 107.923 2.96488 0.416529 0
M  V30 1060 H 105.469 1.4262 0.198908 0
M  V30 1061 H 107.422 3.10458 2.84945 0
M  V30 1062 H 106.146 1.87426 2.67468 0
M  V30 1063 H 104.805 3.45051 1.23836 0
M  V30 1064 H 104.453 3.39249 3.71374 0
M  V30 1065 H 104.153 5.01993 3.05413 0
M  V30 1066 H 105.677 4.67966 3.92225 0
M  V30 1067 H 107.091 5.44811 1.78475 0
M  V30 1068 H 105.488 5.89349 1.13083 0
M  V30 1069 H 106.558 4.84558 0.182153 0
M  V30 1070 N 107.901 -0.206675 1.56239 0
M  V30 1071 C 108.831 -1.25909 1.96645 0
M  V30 1072 C 109.812 -1.48097 0.836734 0
M  V30 1073 O 110.997 -1.6003 1.10019 0
M  V30 1074 C 108.127 -2.6058 2.29599 0
M  V30 1075 C 107.081 -2.53024 3.452 0
M  V30 1076 C 106.407 -3.91861 3.63798 0
M  V30 1077 C 107.707 -2.06524 4.79734 0
M  V30 1078 H 109.401 -0.923369 2.84806 0
M  V30 1079 H 106.947 -0.442735 1.37025 0
M  V30 1080 H 108.9 -3.34375 2.56459 0
M  V30 1081 H 107.624 -2.95869 1.38307 0
M  V30 1082 H 106.283 -1.81684 3.18412 0
M  V30 1083 H 105.931 -4.24483 2.69857 0
M  V30 1084 H 105.631 -3.87683 4.4156 0
M  V30 1085 H 107.155 -4.67296 3.93022 0
M  V30 1086 H 108.569 -2.70072 5.05702 0
M  V30 1087 H 106.966 -2.13374 5.60885 0
M  V30 1088 H 108.036 -1.01802 4.74093 0
M  V30 1089 N 109.379 -1.50304 -0.473955 0
M  V30 1090 C 110.628 -1.60392 -1.22301 0
M  V30 1091 C 110.941 -0.308411 -1.93153 0
M  V30 1092 O 112.147 -0.288156 -2.69966 0
M  V30 1093 C 110.603 -2.83109 -2.2221 0
M  V30 1094 C 110.211 -4.19524 -1.57173 0
M  V30 1095 C 111.955 -3.0254 -2.97775 0
M  V30 1096 C 109.862 -5.33431 -2.55353 0
M  V30 1097 H 108.792 -0.597286 -0.460179 0
M  V30 1098 H 111.443 -1.76731 -0.493803 0
M  V30 1099 H 109.825 -2.60322 -2.9841 0
M  V30 1100 H 110.999 -4.52554 -0.867824 0
M  V30 1101 H 109.314 -4.05674 -0.939002 0
M  V30 1102 H 111.911 -3.84811 -3.71248 0
M  V30 1103 H 112.254 -2.14154 -3.56992 0
M  V30 1104 H 112.787 -3.25494 -2.28688 0
M  V30 1105 H 109.526 -6.23962 -2.00878 0
M  V30 1106 H 109.046 -5.04823 -3.23904 0
M  V30 1107 H 110.725 -5.63887 -3.17239 0
M  V30 1108 N 110.857 0.726932 -1.39834 0
M  V30 1109 C 112.082 1.52121 -1.40976 0
M  V30 1110 C 112.507 1.88098 -0.00826029 0
M  V30 1111 O 111.865 1.52479 0.980807 0
M  V30 1112 C 111.913 2.78021 -2.29644 0
M  V30 1113 O 111.017 3.74272 -1.73188 0
M  V30 1114 H 110.358 0.45908 -0.479731 0
M  V30 1115 H 112.888 0.896207 -1.83927 0
M  V30 1116 H 112.898 3.26671 -2.44438 0
M  V30 1117 H 111.573 2.51169 -3.31492 0
M  V30 1118 H 110.15 3.33073 -1.6768 0
M  V30 1119 N 112.336 1.25143 0.95797 0
M  V30 1120 C 113.613 1.00472 1.67823 0
M  V30 1121 C 113.993 -0.470056 2.058 0
M  V30 1122 O 113.341 -1.44663 1.76875 0
M  V30 1123 C 113.551 1.9372 2.90299 0
M  V30 1124 C 114.899 2.21371 3.62326 0
M  V30 1125 O 115.923 1.91451 3.00375 0
M  V30 1126 O 114.782 2.72231 4.7387 0
M  V30 1127 H 111.876 0.380752 0.734137 0
M  V30 1128 H 114.422 1.36283 1.01119 0
M  V30 1129 H 113.194 2.93316 2.59001 0
M  V30 1130 H 112.817 1.58286 3.64735 0
M  V30 1131 N 113.814 -1.1601 1.06675 0
M  V30 1132 C 115.06 -1.86909 0.786945 0
M  V30 1133 C 115.393 -1.81717 -0.685018 0
M  V30 1134 O 114.668 -1.23551 -1.50218 0
M  V30 1135 C 114.951 -3.36313 1.28707 0
M  V30 1136 C 114.804 -3.50175 2.82308 0
M  V30 1137 C 116.123 -4.3084 0.898071 0
M  V30 1138 H 113.242 -0.678677 0.287343 0
M  V30 1139 H 115.884 -1.36336 1.32334 0
M  V30 1140 H 114.034 -3.79513 0.830768 0
M  V30 1141 H 115.706 -3.15886 3.36175 0
M  V30 1142 H 113.949 -2.91959 3.20847 0
M  V30 1143 H 114.62 -4.55116 3.12368 0
M  V30 1144 H 117.096 -3.95561 1.29114 0
M  V30 1145 H 115.972 -5.33876 1.27543 0
M  V30 1146 H 116.233 -4.41662 -0.196651 0
M  V30 1147 N 115.292 -0.849877 -1.32721 0
M  V30 1148 C 116.202 -0.293791 -2.32753 0
M  V30 1149 C 117.218 0.585906 -1.63839 0
M  V30 1150 O 118.394 0.487413 -1.95413 0
M  V30 1151 C 115.459 0.512752 -3.42887 0
M  V30 1152 C 114.52 -0.39252 -4.27502 0
M  V30 1153 C 113.753 0.375625 -5.32377 0
M  V30 1154 O 113.976 1.60613 -5.4732 0
M  V30 1155 O 112.91 -0.256094 -6.01355 0
M  V30 1156 H 116.736 -1.12242 -2.82197 0
M  V30 1157 H 114.321 -0.612685 -1.36259 0
M  V30 1158 H 116.203 0.970704 -4.10067 0
M  V30 1159 H 114.878 1.31826 -2.95641 0
M  V30 1160 H 113.785 -0.898547 -3.63149 0
M  V30 1161 H 115.118 -1.16309 -4.7826 0
M  V30 1162 N 116.77 1.45427 -0.607355 0
M  V30 1163 C 118.018 2.01841 -0.102253 0
M  V30 1164 C 118.339 1.47832 1.27164 0
M  V30 1165 O 117.609 0.672497 1.83995 0
M  V30 1166 H 116.189 0.746188 -0.0348101 0
M  V30 1167 H 118.851 1.78229 -0.7887 0
M  V30 1168 H 117.947 3.12057 -0.0518585 0
M  V30 1169 N 118.248 0.346503 1.53744 0
M  V30 1170 C 119.198 -0.524953 2.21874 0
M  V30 1171 C 120.182 -1.06376 1.20718 0
M  V30 1172 O 121.374 -0.996972 1.46251 0
M  V30 1173 C 118.503 -1.6739 2.99726 0
M  V30 1174 C 117.589 -1.14888 4.08242 0
M  V30 1175 N 117.98 -0.345329 5.0462 0
M  V30 1176 C 116.278 -1.4255 4.22606 0
M  V30 1177 C 116.979 -0.0600706 5.81669 0
M  V30 1178 N 115.955 -0.65252 5.39669 0
M  V30 1179 H 119.757 0.0960091 2.93743 0
M  V30 1180 H 117.271 0.15352 1.61673 0
M  V30 1181 H 119.268 -2.3102 3.47038 0
M  V30 1182 H 117.928 -2.29811 2.29384 0
M  V30 1183 H 118.939 0.0138439 5.17898 0
M  V30 1184 H 115.616 -2.05389 3.63486 0
M  V30 1185 H 117.006 0.588321 6.69319 0
M  V30 1186 N 119.726 -1.57421 0.075193 0
M  V30 1187 C 121.137 -1.81021 -0.456964 0
M  V30 1188 C 121.488 -0.98936 -1.69429 0
M  V30 1189 O 120.613 -0.212865 -2.15351 0
M  V30 1190 C 121.208 -3.28329 -0.83581 0
M  V30 1191 C 119.767 -3.52764 -1.31281 0
M  V30 1192 C 118.914 -2.75676 -0.299648 0
M  V30 1193 H 121.865 -1.55822 0.300856 0
M  V30 1194 H 121.886 -3.40564 -1.69696 0
M  V30 1195 H 121.398 -3.88046 0.0649238 0
M  V30 1196 H 119.499 -2.98355 -2.23193 0
M  V30 1197 H 119.612 -4.61451 -1.28839 0
M  V30 1198 H 117.976 -2.42538 -0.777641 0
M  V30 1199 H 118.759 -3.38132 0.593417 0
M  V30 1200 N 121.204 0.198386 -1.56346 0
M  V30 1201 C 122.429 0.939682 -1.84891 0
M  V30 1202 C 122.854 1.76202 -0.658369 0
M  V30 1203 O 122.212 1.76993 0.392851 0
M  V30 1204 C 122.26 1.81428 -3.11635 0
M  V30 1205 O 121.364 2.91265 -2.91956 0
M  V30 1206 H 120.705 0.264807 -0.608912 0
M  V30 1207 H 123.235 0.204695 -2.03573 0
M  V30 1208 H 123.245 2.21958 -3.42343 0
M  V30 1209 H 121.92 1.21004 -3.97908 0
M  V30 1210 H 120.497 2.54514 -2.72538 0
M  V30 1211 N 122.682 1.50554 0.465978 0
M  V30 1212 C 124.093 1.54599 1.04671 0
M  V30 1213 C 124.444 0.352488 1.93008 0
M  V30 1214 O 123.569 -0.534044 2.09707 0
M  V30 1215 C 124.164 2.80166 1.90505 0
M  V30 1216 C 122.723 2.86876 2.43678 0
M  V30 1217 C 121.87 2.48947 1.22151 0
M  V30 1218 H 124.821 1.56744 0.248384 0
M  V30 1219 H 124.842 2.62311 2.75633 0
M  V30 1220 H 124.354 3.67013 1.26186 0
M  V30 1221 H 122.455 2.04393 3.11536 0
M  V30 1222 H 122.568 3.89885 2.78436 0
M  V30 1223 H 120.932 2.01498 1.5579 0
M  V30 1224 H 121.715 3.38107 0.594866 0
M  V30 1225 N 124.16 -0.719506 1.40217 0
M  V30 1226 C 125.408 -1.47641 1.3801 0
M  V30 1227 C 125.729 -1.94992 -0.018145 0
M  V30 1228 O 124.999 -1.70073 -0.972207 0
M  V30 1229 H 123.579 -0.547744 0.507923 0
M  V30 1230 H 126.241 -0.853187 1.75233 0
M  V30 1231 H 125.337 -2.35112 2.05253 0
M  V30 1232 N 125.638 -1.25649 -0.95132 0
M  V30 1233 C 126.884 -1.10757 -1.69884 0
M  V30 1234 C 127.217 0.350061 -1.91019 0
M  V30 1235 O 126.492 1.25783 -1.48354 0
M  V30 1236 C 126.775 -1.86606 -3.07978 0
M  V30 1237 C 126.628 -3.40217 -2.94232 0
M  V30 1238 C 127.947 -1.65182 -4.07925 0
M  V30 1239 H 125.066 -0.40374 -0.616574 0
M  V30 1240 H 127.708 -1.54521 -1.10558 0
M  V30 1241 H 125.858 -1.49409 -3.58621 0
M  V30 1242 H 127.53 -3.87108 -2.50889 0
M  V30 1243 H 125.773 -3.67759 -2.30078 0
M  V30 1244 H 126.444 -3.88505 -3.92133 0
M  V30 1245 H 128.92 -1.9757 -3.66204 0
M  V30 1246 H 127.796 -2.20683 -5.02583 0
M  V30 1247 H 128.057 -0.593933 -4.38092 0
M  V30 1248 N 127.117 1.15442 -1.07289 0
M  V30 1249 C 128.08 2.18358 -0.696591 0
M  V30 1250 C 129.08 1.58637 0.262837 0
M  V30 1251 O 130.27 1.74145 0.0438809 0
M  V30 1252 C 127.402 3.4089 -0.0266151 0
M  V30 1253 H 128.595 2.53162 -1.60776 0
M  V30 1254 H 126.148 1.29893 -0.869342 0
M  V30 1255 H 126.883 3.11653 0.896822 0
M  V30 1256 H 126.668 3.85495 -0.716657 0
M  V30 1257 H 128.158 4.17009 0.222028 0
M  V30 1258 N 128.595 0.856903 1.32268 0
M  V30 1259 C 129.505 0.306131 2.32594 0
M  V30 1260 C 130.521 -0.577209 1.64147 0
M  V30 1261 O 131.697 -0.477043 1.95669 0
M  V30 1262 C 128.762 -0.494561 3.43154 0
M  V30 1263 C 127.823 0.415186 4.27288 0
M  V30 1264 C 127.056 -0.347387 5.32568 0
M  V30 1265 O 127.279 -1.57708 5.48165 0
M  V30 1266 O 126.213 0.287982 6.01211 0
M  V30 1267 H 130.039 1.13737 2.81598 0
M  V30 1268 H 127.624 0.619902 1.35932 0
M  V30 1269 H 129.506 -0.948944 4.10576 0
M  V30 1270 H 128.181 -1.30257 2.96336 0
M  V30 1271 H 127.088 0.917793 3.62667 0
M  V30 1272 H 128.421 1.18844 4.77637 0
M  V30 1273 N 130.073 -1.45103 0.615059 0
M  V30 1274 C 131.02 -2.30586 -0.0993978 0
M  V30 1275 C 131.99 -1.42544 -0.852669 0
M  V30 1276 O 133.175 -1.71465 -0.836917 0
M  V30 1277 C 130.315 -3.27572 -1.08583 0
M  V30 1278 C 129.428 -4.30717 -0.332656 0
M  V30 1279 C 128.563 -5.14807 -1.30947 0
M  V30 1280 C 127.602 -6.09673 -0.544538 0
M  V30 1281 N 126.739 -6.86517 -1.47101 0
M  V30 1282 H 131.579 -2.91144 0.635542 0
M  V30 1283 H 129.116 -1.4346 0.325206 0
M  V30 1284 H 131.074 -3.82276 -1.67095 0
M  V30 1285 H 129.704 -2.68751 -1.78809 0
M  V30 1286 H 128.756 -3.78615 0.368107 0
M  V30 1287 H 130.068 -4.98102 0.263842 0
M  V30 1288 H 129.222 -5.73948 -1.96643 0
M  V30 1289 H 127.961 -4.47458 -1.9399 0
M  V30 1290 H 126.966 -5.49656 0.126003 0
M  V30 1291 H 128.191 -6.79052 0.080947 0
M  V30 1292 H 126.137 -6.21851 -2.08895 0
M  V30 1293 H 126.054 -7.50281 -0.928137 0
M  V30 1294 H 127.322 -7.50194 -2.11731 0
M  V30 1295 N 131.551 -0.354651 -1.53558 0
M  V30 1296 C 132.797 0.231422 -2.02079 0
M  V30 1297 C 133.152 1.47308 -1.23767 0
M  V30 1298 O 132.445 1.8891 -0.319947 0
M  V30 1299 C 132.639 0.587121 -3.52545 0
M  V30 1300 C 132.468 -0.618513 -4.45426 0
M  V30 1301 C 131.238 -1.12724 -4.92566 0
M  V30 1302 C 133.436 -1.48039 -4.92533 0
M  V30 1303 N 131.418 -2.29404 -5.69427 0
M  V30 1304 C 132.789 -2.49397 -5.67628 0
M  V30 1305 C 134.844 -1.50454 -4.74624 0
M  V30 1306 C 133.547 -3.53013 -6.26717 0
M  V30 1307 C 135.573 -2.52958 -5.34571 0
M  V30 1308 C 134.935 -3.5304 -6.09543 0
M  V30 1309 H 131.034 0.0476909 -0.780544 0
M  V30 1310 H 133.618 -0.496727 -1.88257 0
M  V30 1311 H 131.789 1.28436 -3.6655 0
M  V30 1312 H 133.521 1.15734 -3.87799 0
M  V30 1313 H 130.276 -0.693577 -4.68494 0
M  V30 1314 H 130.7 -2.88347 -6.12524 0
M  V30 1315 H 135.342 -0.744356 -4.16196 0
M  V30 1316 H 133.06 -4.2992 -6.84247 0
M  V30 1317 H 136.646 -2.55667 -5.22614 0
M  V30 1318 H 135.526 -4.31056 -6.55103 0
M  V30 1319 N 133.029 1.57378 -0.0835403 0
M  V30 1320 C 133.939 2.16897 0.894021 0
M  V30 1321 C 134.955 1.13528 1.31861 0
M  V30 1322 O 136.131 1.45848 1.3889 0
M  V30 1323 C 133.196 2.72831 2.13925 0
M  V30 1324 C 132.257 3.91115 1.76997 0
M  V30 1325 C 131.49 4.44371 2.95584 0
M  V30 1326 O 131.713 3.96596 4.09961 0
M  V30 1327 O 130.647 5.35549 2.74719 0
M  V30 1328 H 134.473 3.00814 0.417679 0
M  V30 1329 H 132.058 1.48741 0.140181 0
M  V30 1330 H 133.94 3.0863 2.86924 0
M  V30 1331 H 132.615 1.91967 2.60635 0
M  V30 1332 H 131.522 3.60148 1.01214 0
M  V30 1333 H 132.855 4.73307 1.3506 0
M  V30 1334 N 134.507 -0.190092 1.56449 0
M  V30 1335 C 135.455 -1.25501 1.95837 0
M  V30 1336 C 136.449 -1.4685 0.844485 0
M  V30 1337 O 137.655 -1.47651 1.02952 0
M  V30 1338 H 134.03 -0.421447 0.622805 0
M  V30 1339 H 136.001 -0.895821 2.84636 0
M  V30 1340 C 134.75 -2.59124 2.31841 0
M  V30 1341 H 134.073 -2.43514 3.17082 0
M  V30 1342 H 135.513 -3.32371 2.6326 0
M  V30 1343 C 133.972 -3.16488 1.15486 0
M  V30 1344 O 134.502 -3.99365 0.432535 0
M  V30 1345 N 132.708 -2.75305 0.930349 0
M  V30 1346 H 132.255 -2.08013 1.51948 0
M  V30 1347 H 132.213 -3.14024 0.153634 0
M  V30 1348 N 135.985 -1.50799 -0.457987 0
M  V30 1349 C 136.932 -1.70617 -1.5543 0
M  V30 1350 C 137.902 -0.547562 -1.56815 0
M  V30 1351 O 139.087 -0.779647 -1.74144 0
M  V30 1352 C 136.227 -1.81831 -2.93311 0
M  V30 1353 C 135.34 -3.09278 -3.01615 0
M  V30 1354 C 134.475 -3.11209 -4.30491 0
M  V30 1355 C 133.514 -4.33055 -4.32585 0
M  V30 1356 N 132.651 -4.32652 -5.52952 0
M  V30 1357 H 137.491 -2.64207 -1.37836 0
M  V30 1358 H 135.028 -1.30959 -0.669937 0
M  V30 1359 H 136.986 -1.86314 -3.73287 0
M  V30 1360 H 135.616 -0.916685 -3.0951 0
M  V30 1361 H 134.668 -3.14203 -2.1443 0
M  V30 1362 H 135.98 -3.99233 -2.99022 0
M  V30 1363 H 135.134 -3.14494 -5.18824 0
M  V30 1364 H 133.873 -2.19106 -4.35711 0
M  V30 1365 H 132.878 -4.29969 -3.42647 0
M  V30 1366 H 134.103 -5.264 -4.29046 0
M  V30 1367 H 132.049 -3.43409 -5.58933 0
M  V30 1368 H 131.966 -5.16392 -5.52155 0
M  V30 1369 H 133.234 -4.40101 -6.43375 0
M  V30 1370 N 137.463 0.71206 -1.40597 0
M  V30 1371 C 138.74 1.46536 -1.29563 0
M  V30 1372 C 139.12 2.10931 0.0844217 0
M  V30 1373 O 138.468 2.00418 1.0975 0
M  V30 1374 C 138.678 2.49821 -2.43701 0
M  V30 1375 C 140.026 3.15551 -2.841 0
M  V30 1376 O 141.05 2.60142 -2.4332 0
M  V30 1377 O 139.909 4.15867 -3.54566 0
M  V30 1378 H 137.003 0.651801 -0.509004 0
M  V30 1379 H 139.549 0.743935 -1.52524 0
M  V30 1380 H 138.321 2.00778 -3.35863 0
M  V30 1381 H 137.944 3.29495 -2.22528 0
M  V30 1382 N 138.941 1.26152 0.944643 0
M  V30 1383 C 140.188 1.11492 1.69044 0
M  V30 1384 C 140.516 -0.342366 1.91463 0
M  V30 1385 O 139.771 -1.26812 1.49054 0
M  V30 1386 C 140.07 1.82541 3.07268 0
M  V30 1387 C 139.736 3.32445 3.04616 0
M  V30 1388 C 138.398 3.73337 3.036 0
M  V30 1389 C 140.75 4.28171 2.97185 0
M  V30 1390 C 138.078 5.08348 2.92915 0
M  V30 1391 C 140.43 5.63218 2.88041 0
M  V30 1392 C 139.094 6.03426 2.85366 0
M  V30 1393 H 138.364 0.407977 0.618576 0
M  V30 1394 H 141.011 1.56551 1.10291 0
M  V30 1395 H 139.316 1.29941 3.69625 0
M  V30 1396 H 141.013 1.68642 3.63815 0
M  V30 1397 H 137.603 2.99915 3.06185 0
M  V30 1398 H 141.787 3.97563 2.97081 0
M  V30 1399 H 137.043 5.38667 2.89219 0
M  V30 1400 H 141.217 6.37078 2.81254 0
M  V30 1401 H 138.844 7.07999 2.76842 0
M  V30 1402 N 140.419 -1.14872 1.07899 0
M  V30 1403 C 141.366 -2.19791 0.704319 0
M  V30 1404 C 142.336 -1.63238 -0.306987 0
M  V30 1405 O 143.521 -1.8983 -0.192171 0
M  V30 1406 C 140.661 -3.44911 0.114244 0
M  V30 1407 C 139.774 -4.15637 1.1777 0
M  V30 1408 C 138.909 -5.28324 0.552037 0
M  V30 1409 C 137.948 -5.90875 1.59789 0
M  V30 1410 N 137.085 -6.95022 0.994404 0
M  V30 1411 H 141.925 -2.5119 1.60336 0
M  V30 1412 H 139.462 -1.23356 0.801352 0
M  V30 1413 H 141.42 -4.16477 -0.245544 0
M  V30 1414 H 140.05 -3.14011 -0.74813 0
M  V30 1415 H 139.102 -3.42512 1.65499 0
M  V30 1416 H 140.414 -4.5823 1.97046 0
M  V30 1417 H 139.568 -6.06538 0.1402 0
M  V30 1418 H 138.307 -4.86939 -0.272431 0
M  V30 1419 H 137.312 -5.11369 2.01945 0
M  V30 1420 H 138.537 -6.34337 2.42474 0
M  V30 1421 H 136.483 -6.55722 0.190939 0
M  V30 1422 H 136.4 -7.36073 1.72432 0
M  V30 1423 H 137.668 -7.77123 0.608253 0
M  V30 1424 N 141.898 -0.863906 -1.31812 0
M  V30 1425 C 143.144 -0.472535 -1.97218 0
M  V30 1426 C 143.477 0.971394 -1.68159 0
M  V30 1427 O 142.752 1.68309 -0.974798 0
M  V30 1428 C 143.035 -0.723054 -3.52766 0
M  V30 1429 C 142.888 -2.21608 -3.91421 0
M  V30 1430 C 144.207 -0.185522 -4.39709 0
M  V30 1431 H 141.326 -0.173158 -0.71637 0
M  V30 1432 H 143.968 -1.08403 -1.56041 0
M  V30 1433 H 142.118 -0.202577 -3.87971 0
M  V30 1434 H 143.79 -2.80334 -3.66347 0
M  V30 1435 H 142.033 -2.691 -3.40246 0
M  V30 1436 H 142.704 -2.34203 -4.99853 0
M  V30 1437 H 145.18 -0.630726 -4.11292 0
M  V30 1438 H 144.056 -0.390306 -5.47511 0
M  V30 1439 H 144.317 0.912229 -4.32586 0
M  V30 1440 N 143.376 1.44774 -0.622745 0
M  V30 1441 C 144.622 2.02968 -0.13257 0
M  V30 1442 C 144.977 1.48047 1.22881 0
M  V30 1443 O 144.27 0.651625 1.80179 0
M  V30 1444 C 144.464 3.57364 -0.0508323 0
M  V30 1445 C 144.293 4.27262 -1.40275 0
M  V30 1446 C 143.063 4.64577 -1.98737 0
M  V30 1447 C 145.261 4.58248 -2.3348 0
M  V30 1448 N 143.243 5.19404 -3.27251 0
M  V30 1449 C 144.614 5.14069 -3.46603 0
M  V30 1450 C 146.669 4.40195 -2.32664 0
M  V30 1451 C 145.372 5.53738 -4.59093 0
M  V30 1452 C 147.398 4.80907 -3.44213 0
M  V30 1453 C 146.76 5.36834 -4.56058 0
M  V30 1454 H 142.859 0.776541 -0.0922354 0
M  V30 1455 H 145.443 1.76385 -0.82441 0
M  V30 1456 H 143.614 3.83576 0.610265 0
M  V30 1457 H 145.346 4.02219 0.447397 0
M  V30 1458 H 142.101 4.48622 -1.51774 0
M  V30 1459 H 142.525 5.51301 -3.92933 0
M  V30 1460 H 147.167 3.96257 -1.47446 0
M  V30 1461 H 144.885 5.96635 -5.45025 0
M  V30 1462 H 148.471 4.68659 -3.44747 0
M  V30 1463 H 147.351 5.67755 -5.40947 0
M  V30 1464 N 144.854 0.36279 1.53368 0
M  V30 1465 C 146.082 -0.228613 2.05633 0
M  V30 1466 C 146.497 -1.42676 1.23649 0
M  V30 1467 O 145.854 -1.80394 0.27647 0
M  V30 1468 C 145.905 -0.624845 3.56059 0
M  V30 1469 O 145.626 0.525675 4.34935 0
M  V30 1470 C 147.127 -1.27493 4.24571 0
M  V30 1471 H 144.347 -0.0407183 0.669763 0
M  V30 1472 H 146.891 0.520352 1.97769 0
M  V30 1473 H 145.046 -1.32373 3.64083 0
M  V30 1474 H 145.46 0.205969 5.24095 0
M  V30 1475 H 146.934 -1.50277 5.31151 0
M  V30 1476 H 147.411 -2.23439 3.78116 0
M  V30 1477 H 148.017 -0.617558 4.20792 0
M  V30 1478 N 146.332 -1.57332 0.0918853 0
M  V30 1479 C 147.579 -1.94236 -0.572577 0
M  V30 1480 C 147.907 -0.973398 -1.6839 0
M  V30 1481 O 147.162 0.00756912 -1.95699 0
M  V30 1482 C 147.461 -3.37689 -1.17051 0
M  V30 1483 C 147.127 -4.50527 -0.183304 0
M  V30 1484 C 145.789 -4.81119 0.0882276 0
M  V30 1485 C 148.141 -5.18883 0.49095 0
M  V30 1486 C 145.469 -5.77395 1.04076 0
M  V30 1487 C 147.821 -6.1618 1.43193 0
M  V30 1488 C 146.485 -6.45179 1.71173 0
M  V30 1489 H 145.755 -0.710762 -0.209521 0
M  V30 1490 H 148.402 -1.9077 0.167036 0
M  V30 1491 H 146.707 -3.37718 -1.9863 0
M  V30 1492 H 148.404 -3.63543 -1.69227 0
M  V30 1493 H 144.994 -4.26681 -0.405124 0
M  V30 1494 H 149.178 -4.95427 0.294312 0
M  V30 1495 H 144.434 -5.98179 1.26457 0
M  V30 1496 H 148.608 -6.68243 1.96023 0
M  V30 1497 H 146.235 -7.1959 2.4514 0
M  V30 1498 N 147.81 0.181792 -1.56548 0
M  V30 1499 C 148.76 1.22961 -1.92002 0
M  V30 1500 C 149.744 1.40331 -0.787146 0
M  V30 1501 O 150.936 1.42478 -1.05019 0
M  V30 1502 C 148.065 2.57144 -2.27446 0
M  V30 1503 C 147.151 2.43512 -3.47222 0
M  V30 1504 N 147.542 1.99577 -4.64761 0
M  V30 1505 C 145.84 2.74368 -3.51622 0
M  V30 1506 C 146.541 1.98156 -5.46909 0
M  V30 1507 N 145.517 2.40164 -4.8767 0
M  V30 1508 H 149.319 0.881462 -2.8037 0
M  V30 1509 H 146.833 0.390141 -1.57644 0
M  V30 1510 H 148.83 3.32847 -2.51035 0
M  V30 1511 H 147.49 2.92771 -1.40411 0
M  V30 1512 H 148.501 1.70078 -4.89177 0
M  V30 1513 H 145.178 3.14102 -2.75038 0
M  V30 1514 H 146.568 1.65975 -6.51077 0
M  V30 1515 N 149.288 1.51039 0.449983 0
M  V30 1516 C 150.218 1.74379 1.55288 0
M  V30 1517 C 151.199 0.593236 1.5942 0
M  V30 1518 O 152.384 0.834625 1.7535 0
M  V30 1519 C 149.514 1.85728 2.93466 0
M  V30 1520 C 148.468 3.01078 3.04197 0
M  V30 1521 C 147.794 2.97595 4.44231 0
M  V30 1522 C 149.094 4.41254 2.7945 0
M  V30 1523 H 150.788 2.66725 1.36008 0
M  V30 1524 H 148.334 1.2835 0.652864 0
M  V30 1525 H 150.287 2.0064 3.70569 0
M  V30 1526 H 149.011 0.900207 3.13949 0
M  V30 1527 H 147.67 2.85851 2.29531 0
M  V30 1528 H 147.318 1.99691 4.61663 0
M  V30 1529 H 147.018 3.75046 4.52343 0
M  V30 1530 H 148.542 3.14583 5.23326 0
M  V30 1531 H 149.956 4.56897 3.46292 0
M  V30 1532 H 148.353 5.20315 2.98985 0
M  V30 1533 H 149.423 4.52164 1.75144 0
M  V30 1534 N 150.766 -0.704594 1.40972 0
M  V30 1535 C 152.182 -1.01406 1.23244 0
M  V30 1536 C 152.382 -2.01169 0.115399 0
M  V30 1537 O 151.438 -2.47021 -0.523147 0
M  V30 1538 C 152.751 -1.54728 2.57836 0
M  V30 1539 C 154.299 -1.66658 2.64942 0
M  V30 1540 C 154.774 -2.23383 3.9983 0
M  V30 1541 N 156.265 -2.30756 4.01629 0
M  V30 1542 C 157 -2.75655 5.02794 0
M  V30 1543 N 156.496 -3.20225 6.14352 0
M  V30 1544 N 158.289 -2.75138 4.90159 0
M  V30 1545 H 150.44 -0.0435285 2.12355 0
M  V30 1546 H 152.703 -0.0818951 0.944456 0
M  V30 1547 H 152.409 -0.888832 3.40283 0
M  V30 1548 H 152.283 -2.53084 2.79693 0
M  V30 1549 H 154.67 -2.31617 1.8286 0
M  V30 1550 H 154.751 -0.668717 2.46904 0
M  V30 1551 H 154.395 -1.59043 4.82357 0
M  V30 1552 H 154.325 -3.23904 4.15203 0
M  V30 1553 H 156.816 -1.99291 3.21079 0
M  V30 1554 H 157.129 -3.53084 6.87424 0
M  V30 1555 H 155.474 -3.18156 6.17901 0
M  V30 1556 H 158.665 -2.39661 4.02095 0
M  V30 1557 H 158.838 -3.09812 5.6914 0
M  V30 1558 N 152.244 -1.26651 -0.937939 0
M  V30 1559 C 153.154 -1.10276 -2.07066 0
M  V30 1560 C 154.17 -0.0354197 -1.73964 0
M  V30 1561 O 155.346 -0.239816 -1.99967 0
M  V30 1562 C 152.411 -0.740887 -3.38691 0
M  V30 1563 C 151.472 -1.88799 -3.85556 0
M  V30 1564 C 150.705 -1.54329 -5.10899 0
M  V30 1565 O 150.928 -0.446494 -5.6865 0
M  V30 1566 O 149.862 -2.37911 -5.52885 0
M  V30 1567 H 153.688 -2.05309 -2.23789 0
M  V30 1568 H 151.273 -1.05743 -1.0554 0
M  V30 1569 H 153.155 -0.55195 -4.1777 0
M  V30 1570 H 151.83 0.180022 -3.23199 0
M  V30 1571 H 150.737 -2.13191 -3.07409 0
M  V30 1572 H 152.07 -2.78874 -4.05574 0
M  V30 1573 N 153.722 1.14298 -1.08507 0
M  V30 1574 C 154.67 2.21483 -0.710483 0
M  V30 1575 C 155.664 1.66998 0.284234 0
M  V30 1576 O 156.87 1.79401 0.146692 0
M  V30 1577 H 153.245 0.721578 -0.211729 0
M  V30 1578 H 155.216 2.50348 -1.62384 0
M  V30 1579 C 153.965 3.4743 -0.137007 0
M  V30 1580 H 153.288 3.89686 -0.893592 0
M  V30 1581 H 154.728 4.2391 0.0872789 0
M  V30 1582 C 153.187 3.17548 1.12538 0
M  V30 1583 O 153.717 3.35437 2.21009 0
M  V30 1584 N 151.923 2.71499 1.03617 0
M  V30 1585 H 151.47 2.57143 0.153403 0
M  V30 1586 H 151.428 2.51881 1.88158 0
M  V30 1587 N 155.201 0.870884 1.31352 0
M  V30 1588 C 156.164 0.332243 2.26779 0
M  V30 1589 C 157.164 -0.517302 1.52252 0
M  V30 1590 O 158.354 -0.326477 1.71113 0
M  V30 1591 C 155.486 -0.528066 3.36785 0
M  V30 1592 H 156.679 1.17469 2.75937 0
M  V30 1593 H 154.232 0.64655 1.423 0
M  V30 1594 H 154.967 -1.39167 2.92922 0
M  V30 1595 H 154.752 0.0802582 3.92018 0
M  V30 1596 H 156.242 -0.897179 4.07849 0
M  V30 1597 N 156.679 -1.44442 0.630414 0
M  V30 1598 C 157.626 -2.30678 -0.0749355 0
M  V30 1599 C 158.596 -1.4344 -0.837502 0
M  V30 1600 O 159.781 -1.72343 -0.818684 0
M  V30 1601 C 156.921 -3.28706 -1.05103 0
M  V30 1602 C 156.034 -4.31046 -0.286954 0
M  V30 1603 C 155.169 -5.16167 -1.2548 0
M  V30 1604 C 154.208 -6.10216 -0.479843 0
M  V30 1605 N 153.345 -6.88039 -1.39811 0
M  V30 1606 H 158.185 -2.90454 0.666386 0
M  V30 1607 H 155.722 -1.43107 0.340404 0
M  V30 1608 H 157.68 -3.84027 -1.63031 0
M  V30 1609 H 156.31 -2.70632 -1.75949 0
M  V30 1610 H 155.362 -3.78203 0.408243 0
M  V30 1611 H 156.674 -4.97794 0.316657 0
M  V30 1612 H 155.828 -5.76002 -1.90544 0
M  V30 1613 H 154.567 -4.49491 -1.89233 0
M  V30 1614 H 153.572 -5.49491 0.184295 0
M  V30 1615 H 154.797 -6.78928 0.152965 0
M  V30 1616 H 152.743 -6.24032 -2.02287 0
M  V30 1617 H 152.66 -7.51223 -0.848508 0
M  V30 1618 H 153.928 -7.52397 -2.03762 0
M  V30 1619 N 158.157 -0.370918 -1.53173 0
M  V30 1620 C 159.403 0.209976 -2.02313 0
M  V30 1621 C 159.758 1.45987 -1.25322 0
M  V30 1622 O 159.051 1.8856 -0.339965 0
M  V30 1623 C 159.245 0.549696 -3.53147 0
M  V30 1624 C 159.074 -0.665721 -4.44745 0
M  V30 1625 C 157.844 -1.17942 -4.91343 0
M  V30 1626 C 160.042 -1.53255 -4.90935 0
M  V30 1627 N 158.024 -2.35431 -5.66962 0
M  V30 1628 C 159.395 -2.55403 -5.64951 0
M  V30 1629 C 161.45 -1.5548 -4.73002 0
M  V30 1630 C 160.153 -3.5964 -6.22938 0
M  V30 1631 C 162.179 -2.58613 -5.31858 0
M  V30 1632 C 161.541 -3.59485 -6.05764 0
M  V30 1633 H 157.64 0.0394095 -0.781006 0
M  V30 1634 H 160.224 -0.516666 -1.8772 0
M  V30 1635 H 158.395 1.24541 -3.67891 0
M  V30 1636 H 160.127 1.11614 -3.89004 0
M  V30 1637 H 156.882 -0.743228 -4.67732 0
M  V30 1638 H 157.306 -2.94827 -6.09431 0
M  V30 1639 H 161.948 -0.788457 -4.15383 0
M  V30 1640 H 159.666 -4.37153 -6.79649 0
M  V30 1641 H 163.252 -2.61195 -5.19873 0
M  V30 1642 H 162.132 -4.3798 -6.50495 0
M  V30 1643 N 159.635 1.57281 -0.100228 0
M  V30 1644 C 160.86 1.99302 0.573881 0
M  V30 1645 C 161.285 0.979059 1.60611 0
M  V30 1646 O 160.643 -0.0517803 1.81226 0
M  V30 1647 C 160.691 3.40274 1.19358 0
M  V30 1648 O 159.795 3.41676 2.30935 0
M  V30 1649 H 159.136 0.647944 0.145138 0
M  V30 1650 H 161.666 2.03779 -0.183156 0
M  V30 1651 H 161.676 3.78078 1.53365 0
M  V30 1652 H 160.351 4.13594 0.437385 0
M  V30 1653 H 158.928 3.15672 1.98509 0
M  V30 1654 N 161.113 -0.173488 1.56642 0
M  V30 1655 C 162.39 -0.917617 1.7274 0
M  V30 1656 C 162.77 -2.00484 0.661027 0
M  V30 1657 O 162.118 -2.26184 -0.32453 0
M  V30 1658 C 162.328 -1.48433 3.15862 0
M  V30 1659 C 163.676 -1.95809 3.76754 0
M  V30 1660 O 164.7 -1.58231 3.19126 0
M  V30 1661 O 163.559 -2.65024 4.77938 0
M  V30 1662 H 160.653 -0.431772 0.705338 0
M  V30 1663 H 163.199 -0.161487 1.6893 0
M  V30 1664 H 161.971 -0.701715 3.84957 0
M  V30 1665 H 161.594 -2.30471 3.23989 0
M  V30 1666 N 162.591 -1.51276 -0.441967 0
M  V30 1667 C 163.839 -1.63392 -1.18943 0
M  V30 1668 C 164.16 -0.350159 -1.9183 0
M  V30 1669 O 163.43 0.633784 -1.85364 0
M  V30 1670 H 162.01 -0.602164 -0.442049 0
M  V30 1671 H 164.672 -1.88186 -0.507165 0
M  V30 1672 H 163.768 -2.45934 -1.92154 0
M  V30 1673 N 164.069 0.697108 -1.41344 0
M  V30 1674 C 165.297 1.48593 -1.43972 0
M  V30 1675 C 165.712 1.88747 -0.0445612 0
M  V30 1676 O 165.069 1.56682 0.935785 0
M  V30 1677 C 165.12 2.74946 -2.34706 0
M  V30 1678 O 164.841 2.36484 -3.68791 0
M  V30 1679 C 166.342 3.687 -2.46121 0
M  V30 1680 H 163.562 0.457964 -0.490418 0
M  V30 1681 H 166.106 0.858429 -1.8561 0
M  V30 1682 H 164.261 3.33937 -1.9638 0
M  V30 1683 H 164.675 3.17918 -4.17167 0
M  V30 1684 H 166.149 4.54145 -3.13777 0
M  V30 1685 H 166.626 4.13081 -1.49199 0
M  V30 1686 H 167.232 3.15613 -2.85076 0
M  V30 1687 N 165.547 1.27147 0.931209 0
M  V30 1688 C 166.958 1.12044 1.49342 0
M  V30 1689 C 167.309 -0.295795 1.93957 0
M  V30 1690 O 166.434 -1.18835 1.80852 0
M  V30 1691 C 167.029 2.02781 2.71414 0
M  V30 1692 C 165.588 1.91794 3.2387 0
M  V30 1693 C 164.735 1.95543 1.96617 0
M  V30 1694 H 167.686 1.40091 0.745672 0
M  V30 1695 H 167.707 1.58156 3.46074 0
M  V30 1696 H 167.219 3.05848 2.38911 0
M  V30 1697 H 165.32 0.916992 3.6114 0
M  V30 1698 H 165.433 2.77852 3.90302 0
M  V30 1699 H 163.797 1.39722 2.12955 0
M  V30 1700 H 164.58 3.00259 1.66432 0
M  V30 1701 N 167.025 -1.13721 1.09112 0
M  V30 1702 C 168.271 -1.85198 0.826414 0
M  V30 1703 C 168.604 -1.83129 -0.646319 0
M  V30 1704 O 167.879 -1.2671 -1.47563 0
M  V30 1705 C 168.162 -3.33507 1.35812 0
M  V30 1706 C 168.015 -3.44108 2.89672 0
M  V30 1707 C 169.334 -4.28838 0.989256 0
M  V30 1708 H 166.453 -0.67243 0.301675 0
M  V30 1709 H 169.095 -1.33499 1.35197 0
M  V30 1710 H 167.245 -3.77666 0.911082 0
M  V30 1711 H 168.917 -3.08684 3.428 0
M  V30 1712 H 167.16 -2.85087 3.26967 0
M  V30 1713 H 167.831 -4.48388 3.21951 0
M  V30 1714 H 170.307 -3.92734 1.37475 0
M  V30 1715 H 169.183 -5.31051 1.38838 0
M  V30 1716 H 169.444 -4.4198 -0.102924 0
M  V30 1717 N 168.503 -0.877838 -1.30888 0
M  V30 1718 C 169.731 -0.507414 -2.00581 0
M  V30 1719 C 170.146 0.902216 -1.65848 0
M  V30 1720 O 169.503 1.59225 -0.891831 0
M  V30 1721 C 169.554 -0.664162 -3.55347 0
M  V30 1722 O 169.275 -2.01829 -3.8884 0
M  V30 1723 C 170.776 -0.295787 -4.42312 0
M  V30 1724 H 167.996 -0.196866 -0.641471 0
M  V30 1725 H 170.54 -1.18117 -1.66939 0
M  V30 1726 H 168.695 -0.0378619 -3.87381 0
M  V30 1727 H 169.109 -2.03174 -4.8355 0
M  V30 1728 H 170.583 -0.456388 -5.5011 0
M  V30 1729 H 171.06 0.765663 -4.32475 0
M  V30 1730 H 171.666 -0.898113 -4.15709 0
M  V30 1731 N 169.982 1.44106 -0.638065 0
M  V30 1732 C 170.945 2.29138 0.0531013 0
M  V30 1733 C 171.945 1.41409 0.765506 0
M  V30 1734 O 173.135 1.63206 0.609046 0
M  V30 1735 C 170.267 3.23144 1.08584 0
M  V30 1736 H 171.46 2.91739 -0.694883 0
M  V30 1737 H 169.013 1.51134 -0.398538 0
M  V30 1738 H 169.748 2.65408 1.86357 0
M  V30 1739 H 169.533 3.87804 0.578852 0
M  V30 1740 H 171.023 3.87004 1.56899 0
M  V30 1741 N 171.46 0.379036 1.52974 0
M  V30 1742 C 172.41 -0.477772 2.22938 0
M  V30 1743 C 173.394 -1.03792 1.22948 0
M  V30 1744 O 174.586 -0.965725 1.48333 0
M  V30 1745 C 171.715 -1.60994 3.03209 0
M  V30 1746 C 170.801 -1.06203 4.10587 0
M  V30 1747 N 171.192 -0.238214 5.05239 0
M  V30 1748 C 169.49 -1.33554 4.25534 0
M  V30 1749 C 170.191 0.0633235 5.81666 0
M  V30 1750 N 169.167 -0.537901 5.40932 0
M  V30 1751 H 172.969 0.158295 2.93473 0
M  V30 1752 H 170.483 0.187778 1.61311 0
M  V30 1753 H 172.48 -2.23607 3.5186 0
M  V30 1754 H 171.14 -2.24893 2.34207 0
M  V30 1755 H 172.151 0.123695 5.17752 0
M  V30 1756 H 168.828 -1.97632 3.6776 0
M  V30 1757 H 170.218 0.730161 6.67921 0
M  V30 1758 N 172.938 -1.57226 0.108567 0
M  V30 1759 C 174.215 -1.86333 -0.594939 0
M  V30 1760 C 174.595 -1.00788 -1.85486 0
M  V30 1761 O 173.943 -0.0839293 -2.28346 0
M  V30 1762 C 174.153 -3.37265 -0.897405 0
M  V30 1763 C 175.501 -4.05629 -1.25501 0
M  V30 1764 O 176.525 -3.42224 -0.987998 0
M  V30 1765 O 175.384 -5.17531 -1.75567 0
M  V30 1766 H 172.478 -0.771018 -0.2991 0
M  V30 1767 H 175.024 -1.69102 0.142283 0
M  V30 1768 H 173.796 -3.913 -0.00413806 0
M  V30 1769 H 173.419 -3.59889 -1.69014 0
M  V30 1770 N 174.416 0.165178 -1.56732 0
M  V30 1771 C 175.663 0.880807 -1.8234 0
M  V30 1772 C 175.991 1.81977 -0.686621 0
M  V30 1773 O 175.246 1.92971 0.325697 0
M  V30 1774 C 175.545 1.70405 -3.1416 0
M  V30 1775 C 175.211 0.913475 -4.4155 0
M  V30 1776 C 173.873 0.695303 -4.7615 0
M  V30 1777 C 176.225 0.359349 -5.1996 0
M  V30 1778 C 173.553 -0.0879947 -5.86634 0
M  V30 1779 C 175.905 -0.410893 -6.31264 0
M  V30 1780 C 174.569 -0.639808 -6.64427 0
M  V30 1781 H 173.839 0.32231 -0.667231 0
M  V30 1782 H 176.486 0.145402 -1.90947 0
M  V30 1783 H 174.791 2.50903 -3.00923 0
M  V30 1784 H 176.488 2.26091 -3.31186 0
M  V30 1785 H 173.078 1.09357 -4.14414 0
M  V30 1786 H 177.262 0.515228 -4.93618 0
M  V30 1787 H 172.518 -0.27503 -6.10781 0
M  V30 1788 H 176.692 -0.847494 -6.91224 0
M  V30 1789 H 174.319 -1.24864 -7.49875 0
M  V30 1790 N 175.894 1.51508 0.433938 0
M  V30 1791 C 177.14 1.64588 1.18484 0
M  V30 1792 C 177.473 0.362666 1.90784 0
M  V30 1793 O 176.748 -0.637892 1.83742 0
M  V30 1794 C 177.031 2.85149 2.19913 0
M  V30 1795 C 176.884 4.23456 1.51674 0
M  V30 1796 C 178.203 3.01227 3.20858 0
M  V30 1797 H 175.322 0.598994 0.429389 0
M  V30 1798 H 177.964 1.84002 0.473647 0
M  V30 1799 H 176.114 2.68729 2.80566 0
M  V30 1800 H 177.786 4.51552 0.943322 0
M  V30 1801 H 176.029 4.25998 0.819035 0
M  V30 1802 H 176.7 5.03812 2.2556 0
M  V30 1803 H 179.176 3.16382 2.70263 0
M  V30 1804 H 178.052 3.87141 3.89118 0
M  V30 1805 H 178.313 2.13447 3.8716 0
M  V30 1806 N 177.372 -0.689602 1.41712 0
M  V30 1807 C 178.602 -1.47613 1.44548 0
M  V30 1808 C 179.01 -1.89132 0.0509034 0
M  V30 1809 O 178.353 -1.57741 -0.94146 0
M  V30 1810 C 178.415 -2.76596 2.2964 0
M  V30 1811 C 178.079 -2.57245 3.77722 0
M  V30 1812 C 179.076 -2.22804 4.69739 0
M  V30 1813 C 176.761 -2.727 4.2183 0
M  V30 1814 C 178.755 -2.04064 6.03851 0
M  V30 1815 C 176.442 -2.53576 5.56006 0
M  V30 1816 C 177.44 -2.1931 6.46832 0
M  V30 1817 O 177.128 -2.00359 7.78532 0
M  V30 1818 H 176.86 -0.461227 0.494212 0
M  V30 1819 H 179.414 -0.856045 1.86711 0
M  V30 1820 H 177.644 -3.41033 1.82301 0
M  V30 1821 H 179.333 -3.38424 2.24107 0
M  V30 1822 H 180.099 -2.10473 4.36951 0
M  V30 1823 H 175.978 -2.98353 3.51435 0
M  V30 1824 H 179.522 -1.77241 6.74708 0
M  V30 1825 H 175.419 -2.65499 5.88371 0
M  V30 1826 H 176.187 -2.15075 7.89737 0
M  V30 1827 N 178.85 -1.27639 -0.924453 0
M  V30 1828 C 180.075 -1.17101 -1.71179 0
M  V30 1829 C 180.5 0.268134 -1.86179 0
M  V30 1830 O 179.858 1.19415 -1.36418 0
M  V30 1831 C 179.906 -1.86313 -3.08739 0
M  V30 1832 O 179.01 -1.16331 -3.95652 0
M  V30 1833 H 178.351 -0.407091 -0.524569 0
M  V30 1834 H 180.881 -1.68767 -1.15666 0
M  V30 1835 H 180.891 -1.938 -3.59034 0
M  V30 1836 H 179.566 -2.91001 -2.97138 0
M  V30 1837 H 178.143 -1.16935 -3.54091 0
M  V30 1838 N 180.328 1.1314 -1.09713 0
M  V30 1839 C 181.574 1.84967 -0.846104 0
M  V30 1840 C 181.929 1.82082 0.621601 0
M  V30 1841 O 181.222 1.2501 1.452 0
M  V30 1842 C 181.416 3.32167 -1.3191 0
M  V30 1843 C 181.245 3.49386 -2.83125 0
M  V30 1844 C 180.015 3.63456 -3.51038 0
M  V30 1845 C 182.213 3.45179 -3.81256 0
M  V30 1846 N 180.195 3.68966 -4.9065 0
M  V30 1847 C 181.566 3.57094 -5.06837 0
M  V30 1848 C 183.621 3.28598 -3.74069 0
M  V30 1849 C 182.324 3.5414 -6.26081 0
M  V30 1850 C 184.35 3.26953 -4.92804 0
M  V30 1851 C 183.712 3.39422 -6.17229 0
M  V30 1852 H 179.811 0.692899 -0.362512 0
M  V30 1853 H 182.395 1.35506 -1.39808 0
M  V30 1854 H 180.566 3.80186 -0.794535 0
M  V30 1855 H 182.298 3.91815 -1.01308 0
M  V30 1856 H 179.053 3.65256 -3.01471 0
M  V30 1857 H 179.477 3.75404 -5.63383 0
M  V30 1858 H 184.119 3.17858 -2.78794 0
M  V30 1859 H 181.837 3.63653 -7.21653 0
M  V30 1860 H 185.423 3.15316 -4.88945 0
M  V30 1861 H 184.303 3.38114 -7.07565 0
M  V30 1862 N 181.806 0.884767 1.30421 0
M  V30 1863 C 182.738 0.308655 2.27112 0
M  V30 1864 C 183.751 -0.536655 1.53701 0
M  V30 1865 O 184.94 -0.35624 1.74909 0
M  V30 1866 C 182.04 -0.579782 3.33904 0
M  V30 1867 C 181.213 0.236417 4.36761 0
M  V30 1868 C 180.272 -0.582482 5.22966 0
M  V30 1869 O 179.298 -0.00525502 5.692 0
M  V30 1870 N 180.5 -1.89163 5.48815 0
M  V30 1871 H 183.265 1.13964 2.77186 0
M  V30 1872 H 180.826 0.747731 1.43599 0
M  V30 1873 H 182.818 -1.13366 3.88497 0
M  V30 1874 H 181.388 -1.31144 2.83761 0
M  V30 1875 H 180.608 0.97174 3.82035 0
M  V30 1876 H 181.896 0.795924 5.02536 0
M  V30 1877 H 181.294 -2.38352 5.13035 0
M  V30 1878 H 179.851 -2.39296 6.06284 0
M  V30 1879 N 183.284 -1.43765 0.645699 0
M  V30 1880 C 184.7 -1.56509 0.312591 0
M  V30 1881 C 184.9 -1.6307 -1.18365 0
M  V30 1882 O 183.956 -1.58167 -1.96824 0
M  V30 1883 C 185.269 -2.82968 1.01733 0
M  V30 1884 C 186.817 -2.96701 0.996865 0
M  V30 1885 C 187.292 -4.25982 1.68236 0
M  V30 1886 N 188.783 -4.32829 1.64964 0
M  V30 1887 C 189.518 -5.31613 2.14885 0
M  V30 1888 N 189.014 -6.36718 2.73061 0
M  V30 1889 N 190.807 -5.23217 2.05428 0
M  V30 1890 H 182.958 -1.3775 1.61675 0
M  V30 1891 H 185.221 -0.661067 0.679481 0
M  V30 1892 H 184.927 -2.84156 2.0724 0
M  V30 1893 H 184.801 -3.72957 0.564177 0
M  V30 1894 H 187.188 -2.95058 -0.0497719 0
M  V30 1895 H 187.269 -2.08022 1.48865 0
M  V30 1896 H 186.913 -4.28386 2.72852 0
M  V30 1897 H 186.843 -5.13545 1.16529 0
M  V30 1898 H 189.334 -3.57493 1.22503 0
M  V30 1899 H 189.647 -7.08401 3.08848 0
M  V30 1900 H 187.992 -6.37362 2.77118 0
M  V30 1901 H 191.183 -4.40019 1.59689 0
M  V30 1902 H 191.356 -6.00045 2.44643 0
M  V30 1903 N 184.763 -0.387143 -1.52771 0
M  V30 1904 C 185.693 0.440551 -2.29306 0
M  V30 1905 C 186.674 1.06535 -1.32606 0
M  V30 1906 O 187.859 1.07853 -1.61497 0
M  V30 1907 C 184.989 1.56919 -3.09829 0
M  V30 1908 C 183.943 1.07054 -4.14395 0
M  V30 1909 C 183.269 2.29109 -4.83129 0
M  V30 1910 C 184.569 0.140015 -5.22112 0
M  V30 1911 H 186.263 -0.198026 -2.98744 0
M  V30 1912 H 183.809 -0.09668 -1.43675 0
M  V30 1913 H 185.762 2.15503 -3.62128 0
M  V30 1914 H 184.486 2.23532 -2.3812 0
M  V30 1915 H 183.145 0.507247 -3.63074 0
M  V30 1916 H 182.793 2.94227 -4.0797 0
M  V30 1917 H 182.493 1.96406 -5.53804 0
M  V30 1918 H 184.017 2.88339 -5.38231 0
M  V30 1919 H 185.431 0.633978 -5.69784 0
M  V30 1920 H 183.828 -0.0971485 -6.00021 0
M  V30 1921 H 184.898 -0.811711 -4.78058 0
M  V30 1922 N 186.241 1.57166 -0.116904 0
M  V30 1923 C 187.204 2.14039 0.819742 0
M  V30 1924 C 188.204 1.07477 1.19605 0
M  V30 1925 O 189.394 1.33263 1.1219 0
M  V30 1926 C 186.526 2.67891 2.10826 0
M  V30 1927 H 187.719 2.98128 0.325511 0
M  V30 1928 H 185.272 1.55739 0.132312 0
M  V30 1929 H 186.007 1.87384 2.64685 0
M  V30 1930 H 185.792 3.45823 1.84793 0
M  V30 1931 H 187.282 3.11809 2.77785 0
M  V30 1932 N 187.719 -0.156864 1.56817 0
M  V30 1933 C 188.996 -0.899244 1.73704 0
M  V30 1934 C 189.376 -1.99771 0.682254 0
M  V30 1935 O 188.724 -2.26515 -0.300522 0
M  V30 1936 C 188.934 -1.45075 3.17418 0
M  V30 1937 C 190.282 -1.91802 3.7881 0
M  V30 1938 O 191.306 -1.54838 3.20786 0
M  V30 1939 O 190.165 -2.5994 4.80722 0
M  V30 1940 H 187.259 -0.424267 0.709878 0
M  V30 1941 H 189.805 -0.143561 1.69092 0
M  V30 1942 H 188.577 -0.660846 3.85679 0
M  V30 1943 H 188.2 -2.27021 3.26416 0
M  V30 1944 N 189.197 -1.51736 -0.425897 0
M  V30 1945 C 190.608 -1.5732 -1.00536 0
M  V30 1946 C 190.959 -0.403537 -1.92005 0
M  V30 1947 O 190.084 0.478256 -2.11049 0
M  V30 1948 C 190.679 -2.85119 -1.8301 0
M  V30 1949 C 189.238 -2.93236 -2.35987 0
M  V30 1950 C 188.385 -2.52098 -1.15508 0
M  V30 1951 H 191.336 -1.57348 -0.206739 0
M  V30 1952 H 191.357 -2.69526 -2.68581 0
M  V30 1953 H 190.869 -3.7023 -1.16411 0
M  V30 1954 H 188.97 -2.12581 -3.06007 0
M  V30 1955 H 189.083 -3.9713 -2.68001 0
M  V30 1956 H 187.447 -2.05558 -1.50393 0
M  V30 1957 H 188.23 -3.39565 -0.505014 0
M  V30 1958 N 190.675 0.682077 -1.42076 0
M  V30 1959 C 191.623 1.81707 -1.45208 0
M  V30 1960 C 192.617 1.66183 -0.328591 0
M  V30 1961 O 193.823 1.7288 -0.501264 0
M  V30 1962 H 190.198 0.599014 -0.454628 0
M  V30 1963 H 192.169 1.76183 -2.40836 0
M  V30 1964 C 190.918 3.19816 -1.36428 0
M  V30 1965 H 190.241 3.32385 -2.22171 0
M  V30 1966 H 191.681 3.99272 -1.42681 0
M  V30 1967 C 190.14 3.36809 -0.078191 0
M  V30 1968 O 190.67 3.92124 0.87188 0
M  V30 1969 N 188.876 2.906 0.00229266 0
M  V30 1970 H 188.423 2.45772 -0.771616 0
M  V30 1971 H 188.381 3.02347 0.862179 0
M  V30 1972 N 192.153 1.28127 0.917671 0
M  V30 1973 C 193.381 1.17892 1.70026 0
M  V30 1974 C 193.796 -0.262958 1.8696 0
M  V30 1975 O 193.153 -1.17811 1.3938 0
M  V30 1976 C 193.204 1.86872 3.09453 0
M  V30 1977 O 192.925 3.25428 2.93306 0
M  V30 1978 C 194.426 1.8289 4.03815 0
M  V30 1979 H 191.646 0.40942 0.531617 0
M  V30 1980 H 194.19 1.69181 1.14883 0
M  V30 1981 H 192.345 1.39464 3.61426 0
M  V30 1982 H 192.759 3.59918 3.81523 0
M  V30 1983 H 194.233 2.35751 4.99125 0
M  V30 1984 H 194.71 0.800412 4.31845 0
M  V30 1985 H 195.316 2.29959 3.57769 0
M  V30 1986 N 193.631 -1.12557 1.10312 0
M  V30 1987 C 194.594 -2.16434 0.75424 0
M  V30 1988 C 195.594 -1.59278 -0.220685 0
M  V30 1989 O 196.784 -1.742 0.00230591 0
M  V30 1990 C 193.916 -3.40699 0.116987 0
M  V30 1991 H 195.109 -2.48811 1.67431 0
M  V30 1992 H 192.662 -1.27542 0.903475 0
M  V30 1993 H 193.397 -3.13921 -0.813877 0
M  V30 1994 H 193.182 -3.83459 0.818613 0
M  V30 1995 H 194.672 -4.17451 -0.111387 0
M  V30 1996 N 195.109 -0.891671 -1.2995 0
M  V30 1997 C 196.334 -0.527932 -2.00568 0
M  V30 1998 C 196.759 0.877969 -1.66353 0
M  V30 1999 O 196.117 1.58301 -0.883762 0
M  V30 2000 C 196.165 -0.717745 -3.53385 0
M  V30 2001 O 195.269 0.233376 -4.11739 0
M  V30 2002 H 194.61 -0.20722 -0.630837 0
M  V30 2003 H 197.14 -1.20105 -1.65638 0
M  V30 2004 H 197.15 -0.619307 -4.03272 0
M  V30 2005 H 195.825 -1.74276 -3.77625 0
M  V30 2006 H 194.402 0.0880706 -3.72796 0
M  V30 2007 N 196.587 1.43421 -0.653314 0
M  V30 2008 C 197.998 1.85065 -0.246537 0
M  V30 2009 C 198.349 1.54688 1.2069 0
M  V30 2010 O 197.474 0.995896 1.92122 0
M  V30 2011 C 198.069 3.35922 -0.440666 0
M  V30 2012 C 196.628 3.76297 -0.0882064 0
M  V30 2013 C 195.775 2.67147 -0.743484 0
M  V30 2014 H 198.726 1.33572 -0.856979 0
M  V30 2015 H 198.747 3.79204 0.313798 0
M  V30 2016 H 198.259 3.58 -1.49858 0
M  V30 2017 H 196.36 3.5983 0.96711 0
M  V30 2018 H 196.473 4.76338 -0.513738 0
M  V30 2019 H 194.837 2.54086 -0.176712 0
M  V30 2020 H 195.62 2.92053 -1.80443 0
M  V30 2021 N 198.065 0.39524 1.52563 0
M  V30 2022 C 199.295 -0.184675 2.05773 0
M  V30 2023 C 199.703 -1.40571 1.26635 0
M  V30 2024 O 199.046 -1.81105 0.30769 0
M  V30 2025 C 199.108 -0.613551 3.54226 0
M  V30 2026 C 198.772 0.49484 4.54313 0
M  V30 2027 C 199.769 1.3541 5.01956 0
M  V30 2028 C 197.454 0.663565 4.97898 0
M  V30 2029 C 199.448 2.36716 5.91814 0
M  V30 2030 C 197.135 1.67996 5.87555 0
M  V30 2031 C 198.133 2.53017 6.34406 0
M  V30 2032 O 197.821 3.52917 7.22291 0
M  V30 2033 H 197.553 -0.030077 0.675331 0
M  V30 2034 H 200.107 0.560708 1.97599 0
M  V30 2035 H 198.337 -1.411 3.60038 0
M  V30 2036 H 200.026 -1.11981 3.90148 0
M  V30 2037 H 200.792 1.23509 4.6901 0
M  V30 2038 H 196.671 0.0114913 4.60999 0
M  V30 2039 H 200.215 3.03113 6.28306 0
M  V30 2040 H 196.112 1.79933 6.19915 0
M  V30 2041 H 196.88 3.48996 7.40367 0
M  V30 2042 N 199.544 -1.57102 0.125237 0
M  V30 2043 C 200.507 -2.14471 -0.80838 0
M  V30 2044 C 201.507 -1.0811 -1.19033 0
M  V30 2045 O 202.697 -1.33856 -1.11482 0
M  V30 2046 C 199.829 -2.69005 -2.09402 0
M  V30 2047 H 201.022 -2.98297 -0.309696 0
M  V30 2048 H 198.575 -1.55807 -0.124051 0
M  V30 2049 H 199.31 -1.88785 -2.63687 0
M  V30 2050 H 199.095 -3.46799 -1.82957 0
M  V30 2051 H 200.585 -3.13278 -2.76128 0
M  V30 2052 N 201.022 0.148545 -1.56898 0
M  V30 2053 C 202.247 0.880385 -1.87787 0
M  V30 2054 C 202.672 1.74018 -0.714093 0
M  V30 2055 O 202.03 1.78153 0.336343 0
M  V30 2056 C 202.078 1.71422 -3.17249 0
M  V30 2057 O 201.182 2.8183 -3.01074 0
M  V30 2058 H 200.523 0.245301 -0.617028 0
M  V30 2059 H 203.053 0.139826 -2.04122 0
M  V30 2060 H 203.063 2.10954 -3.49231 0
M  V30 2061 H 201.738 1.08284 -4.01556 0
M  V30 2062 H 200.315 2.45715 -2.80497 0
M  V30 2063 N 202.5 1.5196 0.417844 0
M  V30 2064 C 203.73 1.69181 1.18581 0
M  V30 2065 C 204.138 0.397104 1.84986 0
M  V30 2066 O 203.481 -0.636011 1.72339 0
M  V30 2067 C 203.543 2.76497 2.29759 0
M  V30 2068 C 203.207 4.18514 1.83563 0
M  V30 2069 C 204.204 5.02648 1.32821 0
M  V30 2070 C 201.889 4.64708 1.90661 0
M  V30 2071 C 203.883 6.31044 0.897894 0
M  V30 2072 C 201.57 5.93096 1.47241 0
M  V30 2073 C 202.568 6.76093 0.968891 0
M  V30 2074 O 202.256 8.02078 0.540924 0
M  V30 2075 H 201.988 0.570457 0.362705 0
M  V30 2076 H 204.542 1.99249 0.498885 0
M  V30 2077 H 202.772 2.41786 3.01789 0
M  V30 2078 H 204.461 2.82403 2.91553 0
M  V30 2079 H 205.227 4.68154 1.26716 0
M  V30 2080 H 201.106 4.00216 2.28797 0
M  V30 2081 H 204.65 6.95776 0.504192 0
M  V30 2082 H 200.547 6.271 1.53022 0
M  V30 2083 H 201.315 8.15794 0.66502 0
M  V30 2084 N 203.978 -0.674533 1.42435 0
M  V30 2085 C 204.908 -1.80009 1.48724 0
M  V30 2086 C 205.889 -1.6659 0.343793 0
M  V30 2087 O 207.074 -1.86007 0.558137 0
M  V30 2088 C 204.204 -3.18306 1.38919 0
M  V30 2089 C 203.158 -3.46461 2.51294 0
M  V30 2090 C 202.484 -4.84335 2.26547 0
M  V30 2091 C 203.784 -3.43328 3.93603 0
M  V30 2092 H 205.478 -1.75004 2.42928 0
M  V30 2093 H 203.024 -0.840533 1.16923 0
M  V30 2094 H 204.977 -3.9678 1.41927 0
M  V30 2095 H 203.701 -3.2399 0.412094 0
M  V30 2096 H 202.36 -2.70348 2.47604 0
M  V30 2097 H 202.008 -4.86669 1.2713 0
M  V30 2098 H 201.708 -5.04136 3.01861 0
M  V30 2099 H 203.232 -5.65094 2.31304 0
M  V30 2100 H 204.646 -4.11772 3.98894 0
M  V30 2101 H 203.043 -3.74664 4.68771 0
M  V30 2102 H 204.113 -2.41897 4.20255 0
M  V30 2103 N 205.456 -1.28612 -0.910864 0
M  V30 2104 C 206.388 -1.08589 -2.01844 0
M  V30 2105 C 207.401 -0.0367419 -1.62759 0
M  V30 2106 O 208.59 -0.280101 -1.76289 0
M  V30 2107 C 205.69 -0.628626 -3.33019 0
M  V30 2108 C 204.863 -1.75382 -4.00699 0
M  V30 2109 C 203.922 -1.28945 -5.10156 0
M  V30 2110 O 202.948 -1.9922 -5.33198 0
M  V30 2111 N 204.15 -0.154224 -5.80295 0
M  V30 2112 H 206.915 -2.03973 -2.19579 0
M  V30 2113 H 204.476 -1.20403 -1.08234 0
M  V30 2114 H 206.468 -0.301508 -4.03575 0
M  V30 2115 H 205.038 0.232451 -3.11735 0
M  V30 2116 H 204.258 -2.25039 -3.23653 0
M  V30 2117 H 205.546 -2.50854 -4.42662 0
M  V30 2118 H 204.944 0.43194 -5.64049 0
M  V30 2119 H 203.501 0.113599 -6.51701 0
M  V30 2120 N 206.934 1.1197 -1.10907 0
M  V30 2121 C 208.164 1.8713 -0.875553 0
M  V30 2122 C 208.572 1.8016 0.577843 0
M  V30 2123 O 207.915 1.17699 1.41042 0
M  V30 2124 C 207.977 3.37005 -1.2517 0
M  V30 2125 C 207.641 3.67748 -2.71313 0
M  V30 2126 C 208.638 3.65698 -3.69542 0
M  V30 2127 C 206.323 3.96928 -3.07821 0
M  V30 2128 C 208.317 3.92395 -5.023 0
M  V30 2129 C 206.004 4.23284 -4.40765 0
M  V30 2130 C 207.002 4.21005 -5.37814 0
M  V30 2131 O 206.69 4.46704 -6.68364 0
M  V30 2132 H 206.422 0.598786 -0.313737 0
M  V30 2133 H 208.976 1.42568 -1.47863 0
M  V30 2134 H 207.206 3.82146 -0.591741 0
M  V30 2135 H 208.895 3.93519 -0.994877 0
M  V30 2136 H 209.661 3.43211 -3.42682 0
M  V30 2137 H 205.54 3.97841 -2.32902 0
M  V30 2138 H 209.084 3.90531 -5.78041 0
M  V30 2139 H 204.981 4.45246 -4.67361 0
M  V30 2140 H 205.749 4.64299 -6.74069 0
M  V30 2141 N 208.412 0.89855 1.29475 0
M  V30 2142 C 209.66 0.522847 1.9522 0
M  V30 2143 C 209.981 -0.93371 1.71192 0
M  V30 2144 O 209.251 -1.65823 1.04305 0
M  V30 2145 H 207.831 0.190366 0.722336 0
M  V30 2146 H 210.493 1.14459 1.5775 0
M  V30 2147 H 209.589 0.704476 3.04045 0
M  V30 2148 N 209.89 -1.43072 0.660911 0
M  V30 2149 C 210.84 -2.27948 -0.04847 0
M  V30 2150 C 211.824 -1.40325 -0.787246 0
M  V30 2151 O 213.016 -1.63893 -0.668446 0
M  V30 2152 C 210.145 -3.28143 -1.00881 0
M  V30 2153 C 209.231 -4.23252 -0.268108 0
M  V30 2154 N 209.622 -5.00656 0.719528 0
M  V30 2155 C 207.92 -4.43092 -0.508493 0
M  V30 2156 C 208.621 -5.70019 1.15988 0
M  V30 2157 N 207.597 -5.41364 0.492584 0
M  V30 2158 H 211.399 -2.85213 0.709279 0
M  V30 2159 H 208.913 -1.54869 0.488822 0
M  V30 2160 H 210.91 -3.87736 -1.53188 0
M  V30 2161 H 209.57 -2.7244 -1.76654 0
M  V30 2162 H 210.581 -5.06115 1.09855 0
M  V30 2163 H 207.258 -3.98449 -1.24679 0
M  V30 2164 H 208.648 -6.4214 1.97751 0
M  V30 2165 N 211.368 -0.403325 -1.52352 0
M  V30 2166 C 212.617 0.175668 -2.00934 0
M  V30 2167 C 212.93 1.46718 -1.29356 0
M  V30 2168 O 214.136 2.12708 -1.68724 0
M  V30 2169 C 212.592 0.363612 -3.58058 0
M  V30 2170 C 212.2 -0.915472 -4.38547 0
M  V30 2171 C 213.944 0.89821 -4.14888 0
M  V30 2172 C 211.851 -0.695035 -5.87302 0
M  V30 2173 H 210.781 0.0694234 -0.750797 0
M  V30 2174 H 213.432 -0.527879 -1.75743 0
M  V30 2175 H 211.814 1.12935 -3.79555 0
M  V30 2176 H 212.988 -1.68691 -4.28812 0
M  V30 2177 H 211.303 -1.37606 -3.93006 0
M  V30 2178 H 213.9 1.07907 -5.23699 0
M  V30 2179 H 214.243 1.87126 -3.71873 0
M  V30 2180 H 214.776 0.191681 -3.97338 0
M  V30 2181 H 211.515 -1.63948 -6.34666 0
M  V30 2182 H 211.035 0.0372116 -5.99788 0
M  V30 2183 H 212.714 -0.33497 -6.46132 0
M  V30 2184 N 212.846 1.57033 -0.133567 0
M  V30 2185 C 213.809 2.14897 0.796995 0
M  V30 2186 C 214.809 1.0874 1.18458 0
M  V30 2187 O 215.999 1.34446 1.1077 0
M  V30 2188 C 213.131 2.70112 2.07973 0
M  V30 2189 H 214.324 2.98457 0.293873 0
M  V30 2190 H 211.877 1.55871 0.115787 0
M  V30 2191 H 212.612 1.9018 2.62682 0
M  V30 2192 H 212.397 3.47764 1.81115 0
M  V30 2193 H 213.887 3.14738 2.74462 0
M  V30 2194 N 214.325 -0.140222 1.56975 0
M  V30 2195 C 215.273 -1.19207 1.99731 0
M  V30 2196 C 216.267 -1.44089 0.890777 0
M  V30 2197 O 217.473 -1.44301 1.07597 0
M  V30 2198 H 213.848 -0.40142 0.635898 0
M  V30 2199 H 215.819 -0.804813 2.87342 0
M  V30 2200 C 214.568 -2.51617 2.39967 0
M  V30 2201 H 213.891 -2.33303 3.24669 0
M  V30 2202 H 215.331 -3.23827 2.73701 0
M  V30 2203 C 213.79 -3.12654 1.25496 0
M  V30 2204 O 214.32 -3.97786 0.559371 0
M  V30 2205 N 212.526 -2.72206 1.01746 0
M  V30 2206 H 212.073 -2.03074 1.58489 0
M  V30 2207 H 212.031 -3.13377 0.253461 0
M  V30 2208 N 215.803 -1.52179 -0.40978 0
M  V30 2209 C 217.052 -1.65434 -1.15388 0
M  V30 2210 C 217.365 -0.390056 -1.91671 0
M  V30 2211 O 218.571 -0.402399 -2.68501 0
M  V30 2212 C 217.027 -2.92279 -2.10003 0
M  V30 2213 C 216.635 -4.25813 -1.39239 0
M  V30 2214 C 218.379 -3.14897 -2.84675 0
M  V30 2215 C 216.286 -5.43782 -2.32498 0
M  V30 2216 H 215.216 -0.616267 -0.434432 0
M  V30 2217 H 217.867 -1.78666 -0.418401 0
M  V30 2218 H 216.249 -2.72744 -2.871 0
M  V30 2219 H 217.423 -4.55828 -0.675099 0
M  V30 2220 H 215.738 -4.09292 -0.766097 0
M  V30 2221 H 218.335 -4.0021 -3.54593 0
M  V30 2222 H 218.678 -2.29103 -3.47588 0
M  V30 2223 H 219.211 -3.34901 -2.14677 0
M  V30 2224 H 215.95 -6.3192 -1.74233 0
M  V30 2225 H 215.47 -5.18106 -3.02201 0
M  V30 2226 H 217.149 -5.76834 -2.93038 0
M  V30 2227 N 217.281 0.66697 -1.42791 0
M  V30 2228 C 218.558 1.4234 -1.34159 0
M  V30 2229 C 218.938 2.11093 0.0172729 0
M  V30 2230 O 218.286 2.03808 1.03318 0
M  V30 2231 C 218.496 2.41942 -2.51526 0
M  V30 2232 C 219.844 3.06353 -2.93995 0
M  V30 2233 O 220.868 2.52269 -2.51473 0
M  V30 2234 O 219.727 4.04376 -3.67617 0
M  V30 2235 H 216.821 0.635277 -0.529483 0
M  V30 2236 H 219.367 0.695034 -1.54814 0
M  V30 2237 H 218.139 1.89991 -3.42081 0
M  V30 2238 H 217.762 3.22249 -2.32898 0
M  V30 2239 N 218.759 1.29093 0.90403 0
M  V30 2240 C 220.036 1.075 1.63411 0
M  V30 2241 C 220.416 -0.382346 2.07609 0
M  V30 2242 O 219.764 -1.37031 1.82851 0
M  V30 2243 C 219.974 2.05858 2.81822 0
M  V30 2244 C 221.322 2.36539 3.52611 0
M  V30 2245 O 222.346 2.04019 2.91984 0
M  V30 2246 O 221.205 2.92085 4.61897 0
M  V30 2247 H 218.299 0.411547 0.717327 0
M  V30 2248 H 220.845 1.40449 0.952479 0
M  V30 2249 H 219.617 3.04037 2.46327 0
M  V30 2250 H 219.24 1.73613 3.57693 0
M  V30 2251 N 220.237 -1.11381 1.11499 0
M  V30 2252 C 221.486 -1.82494 0.858993 0
M  V30 2253 C 221.799 -1.85605 -0.617278 0
M  V30 2254 O 223.005 -2.52824 -0.989552 0
M  V30 2255 C 221.461 -3.27745 1.48699 0
M  V30 2256 C 221.069 -3.32961 2.99735 0
M  V30 2257 C 222.813 -4.03754 1.31085 0
M  V30 2258 C 220.72 -4.72612 3.55516 0
M  V30 2259 H 219.65 -0.683802 0.317696 0
M  V30 2260 H 222.301 -1.25331 1.34031 0
M  V30 2261 H 220.683 -3.84844 0.933339 0
M  V30 2262 H 221.857 -2.85741 3.61509 0
M  V30 2263 H 220.172 -2.70433 3.16631 0
M  V30 2264 H 222.769 -5.06891 1.70192 0
M  V30 2265 H 223.112 -4.15527 0.253496 0
M  V30 2266 H 223.645 -3.53043 1.83318 0
M  V30 2267 H 220.384 -4.66036 4.60967 0
M  V30 2268 H 219.904 -5.2024 2.98513 0
M  V30 2269 H 221.583 -5.4157 3.53992 0
M  V30 2270 N 221.715 -0.905404 -1.28997 0
M  V30 2271 C 222.964 -0.530191 -1.94607 0
M  V30 2272 C 223.277 0.929185 -1.72121 0
M  V30 2273 O 224.483 1.41218 -2.31883 0
M  V30 2274 C 222.939 -0.897333 -3.48534 0
M  V30 2275 C 222.547 -2.37587 -3.79811 0
M  V30 2276 C 224.291 -0.592304 -4.20347 0
M  V30 2277 C 222.198 -2.68357 -5.27009 0
M  V30 2278 H 221.128 -0.194558 -0.728466 0
M  V30 2279 H 223.779 -1.10318 -1.46636 0
M  V30 2280 H 222.161 -0.253214 -3.9519 0
M  V30 2281 H 223.335 -3.06602 -3.43994 0
M  V30 2282 H 221.65 -2.6505 -3.2115 0
M  V30 2283 H 224.247 -0.798975 -5.28697 0
M  V30 2284 H 224.59 0.469474 -4.13644 0
M  V30 2285 H 225.123 -1.19452 -3.79442 0
M  V30 2286 H 221.862 -3.73355 -5.38782 0
M  V30 2287 H 221.382 -2.03971 -5.64053 0
M  V30 2288 H 223.061 -2.54922 -5.94663 0
M  V30 2289 N 223.193 1.4272 -0.668489 0
M  V30 2290 C 224.156 2.292 0.00448567 0
M  V30 2291 C 225.156 1.43001 0.735339 0
M  V30 2292 O 226.346 1.64461 0.57429 0
M  V30 2293 C 223.478 3.25375 1.01705 0
M  V30 2294 H 224.671 2.90199 -0.756608 0
M  V30 2295 H 222.224 1.50254 -0.430506 0
M  V30 2296 H 222.959 2.69301 1.80686 0
M  V30 2297 H 222.744 3.88944 0.496463 0
M  V30 2298 H 224.234 3.90245 1.48655 0
M  V30 2299 N 224.671 0.411399 1.52136 0
M  V30 2300 C 225.919 -0.163322 2.01439 0
M  V30 2301 C 226.24 -1.45453 1.29879 0
M  V30 2302 O 225.51 -1.91225 0.4254 0
M  V30 2303 H 224.09 -0.0633447 0.744309 0
M  V30 2304 H 226.752 0.548161 1.87033 0
M  V30 2305 H 225.848 -0.357817 3.10042 0
M  V30 2306 N 226.149 -1.5696 0.141893 0
M  V30 2307 C 227.096 -2.16501 -0.799737 0
M  V30 2308 C 228.066 -1.09643 -1.24771 0
M  V30 2309 O 229.251 -1.3766 -1.32115 0
M  V30 2310 C 226.391 -2.78679 -2.03549 0
M  V30 2311 C 225.504 -3.99914 -1.6338 0
M  V30 2312 C 224.639 -4.50106 -2.82096 0
M  V30 2313 C 223.678 -5.63819 -2.38275 0
M  V30 2314 N 222.815 -6.08651 -3.49983 0
M  V30 2315 H 227.655 -2.96632 -0.285179 0
M  V30 2316 H 225.192 -1.46533 -0.129053 0
M  V30 2317 H 227.15 -3.1287 -2.75986 0
M  V30 2318 H 225.78 -2.012 -2.52425 0
M  V30 2319 H 224.832 -3.71735 -0.807279 0
M  V30 2320 H 226.144 -4.82311 -1.27192 0
M  V30 2321 H 225.298 -4.86325 -3.62729 0
M  V30 2322 H 224.037 -3.66706 -3.21525 0
M  V30 2323 H 223.042 -5.2718 -1.56081 0
M  V30 2324 H 224.267 -6.49 -1.99938 0
M  V30 2325 H 222.213 -5.28188 -3.89042 0
M  V30 2326 H 222.13 -6.85961 -3.17794 0
M  V30 2327 H 223.398 -6.49515 -4.30988 0
M  V30 2328 N 227.627 0.131896 -1.57047 0
M  V30 2329 C 228.574 1.16236 -1.99393 0
M  V30 2330 C 229.544 1.41863 -0.863943 0
M  V30 2331 O 230.729 1.53946 -1.12718 0
M  V30 2332 C 227.869 2.48708 -2.39245 0
M  V30 2333 C 226.982 2.30127 -3.65603 0
M  V30 2334 C 226.117 3.55738 -3.94492 0
M  V30 2335 C 225.156 3.32259 -5.14073 0
M  V30 2336 N 224.293 4.50039 -5.38896 0
M  V30 2337 H 229.133 0.794251 -2.87221 0
M  V30 2338 H 226.67 0.380707 -1.42088 0
M  V30 2339 H 228.628 3.25969 -2.60384 0
M  V30 2340 H 227.258 2.83437 -1.54478 0
M  V30 2341 H 226.31 1.43845 -3.52154 0
M  V30 2342 H 227.622 2.08746 -4.5302 0
M  V30 2343 H 226.776 4.41423 -4.1621 0
M  V30 2344 H 225.515 3.80138 -3.05526 0
M  V30 2345 H 224.52 2.44963 -4.92212 0
M  V30 2346 H 225.745 3.09242 -6.04604 0
M  V30 2347 H 223.691 4.74584 -4.52886 0
M  V30 2348 H 223.608 4.31716 -6.2061 0
M  V30 2349 H 224.876 5.36895 -5.65123 0
M  V30 2350 N 229.106 1.52395 0.401703 0
M  V30 2351 C 230.517 1.58899 0.980202 0
M  V30 2352 C 230.868 0.434032 1.91339 0
M  V30 2353 O 229.993 -0.444619 2.11783 0
M  V30 2354 C 230.588 2.87994 1.78451 0
M  V30 2355 C 229.147 2.96953 2.31292 0
M  V30 2356 C 228.294 2.53903 1.11483 0
M  V30 2357 H 231.245 1.57657 0.18168 0
M  V30 2358 H 231.266 2.73765 2.64259 0
M  V30 2359 H 230.778 3.72035 1.10506 0
M  V30 2360 H 228.879 2.17422 3.02586 0
M  V30 2361 H 228.992 4.01344 2.61649 0
M  V30 2362 H 227.356 2.07925 1.47104 0
M  V30 2363 H 228.139 3.40326 0.450928 0
M  V30 2364 N 230.584 -0.659388 1.43143 0
M  V30 2365 C 231.547 -1.75432 1.47501 0
M  V30 2366 C 232.547 -1.56707 0.360512 0
M  V30 2367 O 233.737 -1.62717 0.622002 0
M  V30 2368 C 230.869 -3.14239 1.32162 0
M  V30 2369 H 232.062 -1.7295 2.45006 0
M  V30 2370 H 229.615 -0.870469 1.29817 0
M  V30 2371 H 230.35 -3.22336 0.356401 0
M  V30 2372 H 230.135 -3.29235 2.12948 0
M  V30 2373 H 231.625 -3.94094 1.3813 0
M  V30 2374 N 232.062 -1.29571 -0.897171 0
M  V30 2375 C 233.29 -1.20583 -1.68129 0
M  V30 2376 C 233.705 0.233181 -1.87354 0
M  V30 2377 O 233.062 1.15579 -1.41236 0
M  V30 2378 C 233.113 -1.91772 -3.06441 0
M  V30 2379 O 232.834 -3.30053 -2.88091 0
M  V30 2380 C 234.335 -1.89291 -4.00854 0
M  V30 2381 H 231.555 -0.417826 -0.525036 0
M  V30 2382 H 234.099 -1.70987 -1.12177 0
M  V30 2383 H 232.254 -1.45196 -3.59161 0
M  V30 2384 H 232.668 -3.65942 -3.75748 0
M  V30 2385 H 234.142 -2.43662 -4.95311 0
M  V30 2386 H 234.619 -0.869014 -4.30517 0
M  V30 2387 H 235.225 -2.35622 -3.54066 0
M  V30 2388 N 233.54 1.10788 -1.12088 0
M  V30 2389 C 234.817 1.79136 -0.785476 0
M  V30 2390 C 235.197 1.98246 0.725377 0
M  V30 2391 O 234.545 1.57258 1.65778 0
M  V30 2392 C 234.755 3.12375 -1.55636 0
M  V30 2393 C 236.103 3.8731 -1.74001 0
M  V30 2394 O 237.127 3.22085 -1.52117 0
M  V30 2395 O 235.986 5.04369 -2.10415 0
M  V30 2396 H 233.08 0.776226 -0.285311 0
M  V30 2397 H 235.626 1.1747 -1.2247 0
M  V30 2398 H 234.398 2.93863 -2.5838 0
M  V30 2399 H 234.021 3.81758 -1.11114 0
M  V30 2400 N 235.018 0.912232 1.28515 0
M  V30 2401 C 235.948 0.416403 2.29757 0
M  V30 2402 C 236.929 -0.515194 1.6211 0
M  V30 2403 O 238.114 -0.423253 1.89532 0
M  V30 2404 C 235.244 -0.34572 3.45575 0
M  V30 2405 C 234.198 0.496599 4.25109 0
M  V30 2406 C 233.524 -0.393771 5.33248 0
M  V30 2407 C 234.824 1.75307 4.92001 0
M  V30 2408 H 236.518 1.26249 2.7148 0
M  V30 2409 H 234.064 0.608515 1.30511 0
M  V30 2410 H 236.017 -0.703422 4.15488 0
M  V30 2411 H 234.741 -1.2257 3.02728 0
M  V30 2412 H 233.4 0.8368 3.56922 0
M  V30 2413 H 233.048 -1.27225 4.86644 0
M  V30 2414 H 232.748 0.166209 5.87365 0
M  V30 2415 H 234.272 -0.747389 6.06009 0
M  V30 2416 H 235.686 1.46437 5.54283 0
M  V30 2417 H 234.083 2.25534 5.56106 0
M  V30 2418 H 235.153 2.48176 4.16577 0
M  V30 2419 N 236.496 -1.42363 0.676048 0
M  V30 2420 C 237.744 -2.01123 0.198437 0
M  V30 2421 C 238.065 -1.53731 -1.19966 0
M  V30 2422 O 237.335 -0.759518 -1.80577 0
M  V30 2423 H 235.915 -0.743678 0.0703721 0
M  V30 2424 H 238.577 -1.74263 0.872837 0
M  V30 2425 H 237.673 -3.11454 0.200686 0
M  V30 2426 N 237.974 -0.419461 -1.51915 0
M  V30 2427 C 239.22 0.153166 -2.02221 0
M  V30 2428 C 239.553 1.43907 -1.30401 0
M  V30 2429 O 238.828 1.90055 -0.413438 0
M  V30 2430 C 239.111 0.390291 -3.57979 0
M  V30 2431 C 238.964 -0.913014 -4.40436 0
M  V30 2432 C 240.283 1.16794 -4.2432 0
M  V30 2433 H 237.402 0.0541924 -0.735005 0
M  V30 2434 H 240.044 -0.554955 -1.81715 0
M  V30 2435 H 238.194 0.993491 -3.75582 0
M  V30 2436 H 239.866 -1.54882 -4.34522 0
M  V30 2437 H 238.109 -1.52168 -4.06236 0
M  V30 2438 H 238.78 -0.701361 -5.47526 0
M  V30 2439 H 241.256 0.657161 -4.10878 0
M  V30 2440 H 240.132 1.3026 -5.3322 0
M  V30 2441 H 240.393 2.19132 -3.83971 0
M  V30 2442 N 239.452 1.56882 -0.150215 0
M  V30 2443 C 240.399 2.16922 0.788244 0
M  V30 2444 C 241.369 1.10303 1.24187 0
M  V30 2445 O 242.554 1.38359 1.31383 0
M  V30 2446 C 239.694 2.79754 2.02068 0
M  V30 2447 C 238.807 4.00775 1.61257 0
M  V30 2448 C 237.942 4.51595 2.79705 0
M  V30 2449 C 236.981 5.65074 2.35282 0
M  V30 2450 N 236.118 6.10499 3.4675 0
M  V30 2451 H 240.958 2.96779 0.269444 0
M  V30 2452 H 238.495 1.46599 0.12128 0
M  V30 2453 H 240.453 3.14329 2.74323 0
M  V30 2454 H 239.083 2.02536 2.51354 0
M  V30 2455 H 238.135 3.72158 0.787553 0
M  V30 2456 H 239.447 4.82978 1.24633 0
M  V30 2457 H 238.601 4.88242 3.60145 0
M  V30 2458 H 237.34 3.68406 3.19576 0
M  V30 2459 H 236.345 5.28 1.53283 0
M  V30 2460 H 237.57 6.50052 1.96493 0
M  V30 2461 H 235.516 5.30243 3.86236 0
M  V30 2462 H 235.433 6.87637 3.14152 0
M  V30 2463 H 236.701 6.51791 4.27537 0
M  V30 2464 N 240.93 -0.123565 1.57115 0
M  V30 2465 C 241.893 -1.13583 1.99076 0
M  V30 2466 C 242.893 -1.34564 0.880296 0
M  V30 2467 O 244.083 -1.31158 1.14644 0
M  V30 2468 C 241.215 -2.49128 2.32698 0
M  V30 2469 H 242.408 -0.775287 2.89706 0
M  V30 2470 H 239.961 -0.36771 1.51913 0
M  V30 2471 H 240.696 -2.90111 1.44934 0
M  V30 2472 H 240.481 -2.35255 3.13684 0
M  V30 2473 H 241.971 -3.2199 2.65918 0
M  V30 2474 N 242.408 -1.52605 -0.393616 0
M  V30 2475 C 243.338 -1.80022 -1.48709 0
M  V30 2476 C 244.319 -0.651995 -1.57108 0
M  V30 2477 O 245.504 -0.89913 -1.72132 0
M  V30 2478 C 242.634 -1.96492 -2.86371 0
M  V30 2479 C 241.588 -3.12161 -2.92813 0
M  V30 2480 C 240.914 -3.13877 -4.3288 0
M  V30 2481 C 242.214 -4.51322 -2.6288 0
M  V30 2482 H 243.908 -2.71589 -1.26015 0
M  V30 2483 H 241.454 -1.30684 -0.604778 0
M  V30 2484 H 243.407 -2.14255 -3.62867 0
M  V30 2485 H 242.131 -1.01611 -3.10391 0
M  V30 2486 H 240.79 -2.94173 -2.18764 0
M  V30 2487 H 240.438 -2.16687 -4.53933 0
M  V30 2488 H 240.138 -3.91576 -4.38112 0
M  V30 2489 H 241.662 -3.33789 -5.1129 0
M  V30 2490 H 243.076 -4.69435 -3.29096 0
M  V30 2491 H 241.473 -5.31053 -2.79468 0
M  V30 2492 H 242.543 -4.58353 -1.58242 0
M  V30 2493 N 243.887 0.651787 -1.4349 0
M  V30 2494 C 245.164 1.40909 -1.35661 0
M  V30 2495 C 245.544 2.11099 -0.00511733 0
M  V30 2496 O 244.892 2.04892 1.0115 0
M  V30 2497 C 245.102 2.3926 -2.54078 0
M  V30 2498 C 246.45 3.03217 -2.97228 0
M  V30 2499 O 247.474 2.49588 -2.54135 0
M  V30 2500 O 246.333 4.00455 -3.71885 0
M  V30 2501 H 243.427 0.629625 -0.536191 0
M  V30 2502 H 245.973 0.678575 -1.55542 0
M  V30 2503 H 244.745 1.86352 -3.44076 0
M  V30 2504 H 244.368 3.1976 -2.36303 0
M  V30 2505 N 245.365 1.30045 0.890287 0
M  V30 2506 C 246.642 1.09227 1.62262 0
M  V30 2507 C 247.022 -0.360305 2.08002 0
M  V30 2508 O 246.37 -1.35084 1.84295 0
M  V30 2509 C 246.58 2.08835 2.79623 0
M  V30 2510 C 247.928 2.40266 3.50082 0
M  V30 2511 O 248.952 2.07104 2.89804 0
M  V30 2512 O 247.811 2.96967 4.58773 0
M  V30 2513 H 244.905 0.419132 0.712922 0
M  V30 2514 H 247.451 1.41451 0.937529 0
M  V30 2515 H 246.223 3.06633 2.43089 0
M  V30 2516 H 245.846 1.77397 3.55832 0
M  V30 2517 N 246.843 -1.10192 1.12674 0
M  V30 2518 C 247.793 -2.14754 0.765801 0
M  V30 2519 C 248.777 -1.59154 -0.236409 0
M  V30 2520 O 249.969 -1.76951 -0.0415261 0
M  V30 2521 C 247.098 -3.42563 0.224827 0
M  V30 2522 C 246.184 -4.05091 1.25548 0
M  V30 2523 N 246.575 -4.42287 2.4539 0
M  V30 2524 C 244.873 -4.32186 1.10142 0
M  V30 2525 C 245.574 -4.91441 3.11224 0
M  V30 2526 N 244.55 -4.88405 2.38666 0
M  V30 2527 H 248.352 -2.41309 1.67772 0
M  V30 2528 H 245.866 -1.27339 1.00789 0
M  V30 2529 H 247.863 -4.16868 -0.0519578 0
M  V30 2530 H 246.523 -3.17467 -0.681515 0
M  V30 2531 H 247.534 -4.33902 2.82754 0
M  V30 2532 H 244.211 -4.16735 0.252587 0
M  V30 2533 H 245.601 -5.29749 4.13298 0
M  V30 2534 N 248.321 -0.919034 -1.28029 0
M  V30 2535 C 249.549 -0.570971 -1.98866 0
M  V30 2536 C 249.964 0.848996 -1.68634 0
M  V30 2537 O 249.321 1.56307 -0.942036 0
M  V30 2538 C 249.372 -0.776876 -3.53054 0
M  V30 2539 O 249.093 -2.14097 -3.82222 0
M  V30 2540 C 250.594 -0.436356 -4.41147 0
M  V30 2541 H 247.814 -0.217175 -0.634883 0
M  V30 2542 H 250.358 -1.23368 -1.63097 0
M  V30 2543 H 248.513 -0.161085 -3.87065 0
M  V30 2544 H 248.927 -2.18455 -4.76841 0
M  V30 2545 H 250.401 -0.63117 -5.4838 0
M  V30 2546 H 250.878 0.627686 -4.34692 0
M  V30 2547 H 251.484 -1.02991 -4.12641 0
M  V30 2548 N 249.799 1.42003 -0.683588 0
M  V30 2549 C 251.046 2.01413 -0.209514 0
M  V30 2550 C 251.374 1.54088 1.1869 0
M  V30 2551 O 250.629 0.737591 1.81268 0
M  V30 2552 C 250.928 3.56827 -0.202357 0
M  V30 2553 C 250.594 4.23617 -1.54464 0
M  V30 2554 C 249.256 4.41577 -1.91215 0
M  V30 2555 C 251.608 4.61178 -2.42826 0
M  V30 2556 C 248.936 4.9437 -3.15935 0
M  V30 2557 C 251.288 5.15355 -3.66867 0
M  V30 2558 C 249.952 5.31528 -4.03776 0
M  V30 2559 H 249.222 0.737023 -0.0766668 0
M  V30 2560 H 251.869 1.70067 -0.880312 0
M  V30 2561 H 250.174 3.87892 0.551969 0
M  V30 2562 H 251.871 4.00588 0.181793 0
M  V30 2563 H 248.461 4.10004 -1.24877 0
M  V30 2564 H 252.645 4.46968 -2.15717 0
M  V30 2565 H 247.901 5.05076 -3.44541 0
M  V30 2566 H 252.075 5.43402 -4.35531 0
M  V30 2567 H 249.702 5.72199 -5.00492 0
M  V30 2568 N 251.277 0.427512 1.51691 0
M  V30 2569 C 252.187 -0.39527 2.31246 0
M  V30 2570 C 253.203 -1.03674 1.39742 0
M  V30 2571 O 254.379 -1.03425 1.72816 0
M  V30 2572 C 251.444 -1.48706 3.13189 0
M  V30 2573 C 250.505 -0.866743 4.20459 0
M  V30 2574 C 249.738 -1.90651 4.98486 0
M  V30 2575 O 249.961 -3.12733 4.77026 0
M  V30 2576 O 248.895 -1.5025 5.82845 0
M  V30 2577 H 252.721 0.253918 3.02637 0
M  V30 2578 H 250.306 0.190274 1.48183 0
M  V30 2579 H 252.188 -2.12047 3.64162 0
M  V30 2580 H 250.863 -2.12051 2.44573 0
M  V30 2581 H 249.77 -0.195544 3.73589 0
M  V30 2582 H 251.103 -0.276934 4.9142 0
M  V30 2583 N 252.755 -1.56801 0.158532 0
M  V30 2584 C 254.001 -1.96781 -0.490405 0
M  V30 2585 C 254.334 -1.04397 -1.63753 0
M  V30 2586 O 253.609 -0.0885805 -1.94298 0
M  V30 2587 C 253.892 -3.4635 -0.985594 0
M  V30 2588 C 253.745 -4.49512 0.160824 0
M  V30 2589 C 255.064 -3.98697 -1.86355 0
M  V30 2590 H 252.183 -0.715482 -0.176788 0
M  V30 2591 H 254.825 -1.88451 0.242088 0
M  V30 2592 H 252.975 -3.53579 -1.60978 0
M  V30 2593 H 254.647 -4.54353 0.797537 0
M  V30 2594 H 252.89 -4.26013 0.818256 0
M  V30 2595 H 253.561 -5.51531 -0.227569 0
M  V30 2596 H 256.037 -3.94019 -1.33746 0
M  V30 2597 H 254.913 -5.03792 -2.17909 0
M  V30 2598 H 255.174 -3.41744 -2.8047 0
M  V30 2599 N 254.233 0.115231 -1.57178 0
M  V30 2600 C 255.461 0.836437 -1.89239 0
M  V30 2601 C 255.876 1.73256 -0.750175 0
M  V30 2602 O 255.233 1.80357 0.278832 0
M  V30 2603 C 255.284 1.66671 -3.20785 0
M  V30 2604 O 255.005 0.806652 -4.3061 0
M  V30 2605 C 256.506 2.49274 -3.66575 0
M  V30 2606 H 253.726 0.240253 -0.626514 0
M  V30 2607 H 256.27 0.0984932 -2.04263 0
M  V30 2608 H 254.425 2.35737 -3.0742 0
M  V30 2609 H 254.839 1.37969 -5.06028 0
M  V30 2610 H 256.313 3.03055 -4.6137 0
M  V30 2611 H 256.79 3.26807 -2.93417 0
M  V30 2612 H 257.396 1.85443 -3.82741 0
M  V30 2613 N 255.711 1.52812 0.385517 0
M  V30 2614 C 256.641 1.80808 1.47752 0
M  V30 2615 C 257.622 0.660318 1.5676 0
M  V30 2616 O 258.807 0.908246 1.71652 0
M  V30 2617 C 255.937 1.98008 2.85324 0
M  V30 2618 C 254.891 3.13709 2.91154 0
M  V30 2619 C 254.217 3.16169 4.31209 0
M  V30 2620 C 255.517 4.52709 2.60483 0
M  V30 2621 H 257.211 2.72253 1.24573 0
M  V30 2622 H 254.757 1.31003 0.597839 0
M  V30 2623 H 256.71 2.16176 3.61726 0
M  V30 2624 H 255.434 1.03255 3.09848 0
M  V30 2625 H 254.093 2.95329 2.17201 0
M  V30 2626 H 253.741 2.19092 4.52778 0
M  V30 2627 H 253.441 3.93894 4.36029 0
M  V30 2628 H 254.965 3.36496 5.09512 0
M  V30 2629 H 256.379 4.71173 3.26602 0
M  V30 2630 H 254.776 5.32528 2.76648 0
M  V30 2631 H 255.846 4.59186 1.55809 0
M  V30 2632 N 257.189 -0.644168 1.43834 0
M  V30 2633 C 258.414 -1.43642 1.49605 0
M  V30 2634 C 258.839 -1.8773 0.117913 0
M  V30 2635 O 258.197 -1.57938 -0.890239 0
M  V30 2636 C 258.245 -2.6416 2.45463 0
M  V30 2637 O 257.349 -3.63538 1.94714 0
M  V30 2638 H 256.69 -0.430329 0.50568 0
M  V30 2639 H 259.22 -0.787448 1.8884 0
M  V30 2640 H 259.23 -3.11864 2.63068 0
M  V30 2641 H 257.905 -2.31414 3.45572 0
M  V30 2642 H 256.482 -3.2273 1.86814 0
M  V30 2643 N 258.668 -1.30515 -0.883378 0
M  V30 2644 C 259.578 -1.18959 -2.02203 0
M  V30 2645 C 260.594 -0.109172 -1.73657 0
M  V30 2646 O 261.77 -0.324413 -1.9877 0
M  V30 2647 C 258.835 -0.883871 -3.35244 0
M  V30 2648 C 257.896 -2.04982 -3.77201 0
M  V30 2649 C 257.129 -1.75859 -5.03894 0
M  V30 2650 O 257.352 -0.687276 -5.66244 0
M  V30 2651 O 256.286 -2.61146 -5.42297 0
M  V30 2652 H 260.112 -2.14616 -2.1488 0
M  V30 2653 H 257.697 -1.10124 -1.0096 0
M  V30 2654 H 259.579 -0.728644 -4.15053 0
M  V30 2655 H 258.254 0.0427798 -3.23672 0
M  V30 2656 H 257.161 -2.26038 -2.9809 0
M  V30 2657 H 258.494 -2.95825 -3.93381 0
M  V30 2658 N 260.146 1.09593 -1.13257 0
M  V30 2659 C 261.557 1.63229 -0.906274 0
M  V30 2660 C 261.908 1.8811 0.557578 0
M  V30 2661 O 261.033 1.62953 1.42391 0
M  V30 2662 C 261.628 2.96535 -1.63867 0
M  V30 2663 C 260.187 3.47003 -1.45828 0
M  V30 2664 C 259.334 2.2145 -1.66898 0
M  V30 2665 H 262.285 0.92978 -1.28611 0
M  V30 2666 H 262.306 3.64411 -1.09476 0
M  V30 2667 H 261.818 2.78394 -2.70404 0
M  V30 2668 H 259.919 3.70272 -0.415848 0
M  V30 2669 H 260.032 4.24551 -2.2202 0
M  V30 2670 H 258.396 2.30022 -1.09371 0
M  V30 2671 H 259.179 2.0583 -2.74752 0
M  V30 2672 N 261.624 0.925811 1.2754 0
M  V30 2673 C 262.87 0.566092 1.94739 0
M  V30 2674 C 263.203 -0.890057 1.72603 0
M  V30 2675 O 262.478 -1.63467 1.05399 0
M  V30 2676 C 262.761 0.89054 3.48915 0
M  V30 2677 C 262.614 2.4003 3.80402 0
M  V30 2678 C 263.933 0.395101 4.38323 0
M  V30 2679 H 261.052 0.20714 0.707292 0
M  V30 2680 H 263.694 1.15725 1.50691 0
M  V30 2681 H 261.844 0.387452 3.86563 0
M  V30 2682 H 263.516 2.97494 3.52555 0
M  V30 2683 H 261.759 2.85028 3.2702 0
M  V30 2684 H 262.43 2.57785 4.8811 0
M  V30 2685 H 264.906 0.826241 4.07814 0
M  V30 2686 H 263.782 0.651086 5.45025 0
M  V30 2687 H 264.043 -0.704798 4.36446 0
M  V30 2688 N 263.102 -1.41638 0.69111 0
M  V30 2689 C 264.513 -1.84346 0.295517 0
M  V30 2690 C 264.864 -1.57833 -1.16547 0
M  V30 2691 O 263.989 -1.04648 -1.89414 0
M  V30 2692 C 264.584 -3.34636 0.529575 0
M  V30 2693 C 263.143 -3.7593 0.187944 0
M  V30 2694 C 262.29 -2.65082 0.814052 0
M  V30 2695 H 265.241 -1.31253 0.892092 0
M  V30 2696 H 265.262 -3.79903 -0.213148 0
M  V30 2697 H 264.774 -3.53901 1.59297 0
M  V30 2698 H 262.875 -3.62268 -0.871367 0
M  V30 2699 H 262.988 -4.74808 0.63985 0
M  V30 2700 H 261.352 -2.53528 0.244017 0
M  V30 2701 H 262.135 -2.87167 1.88123 0
M  V30 2702 N 264.58 -0.43555 -1.51462 0
M  V30 2703 C 265.81 0.130053 -2.0619 0
M  V30 2704 C 266.218 1.37164 -1.30317 0
M  V30 2705 O 265.561 1.80225 -0.355598 0
M  V30 2706 C 265.623 0.519418 -3.55728 0
M  V30 2707 C 265.287 -0.615119 -4.52841 0
M  V30 2708 C 266.284 -1.48671 -4.9819 0
M  V30 2709 C 263.969 -0.795341 -4.95963 0
M  V30 2710 C 265.963 -2.52324 -5.8533 0
M  V30 2711 C 263.65 -1.83514 -5.82894 0
M  V30 2712 C 264.648 -2.69748 -6.27475 0
M  V30 2713 O 264.336 -3.71944 -7.1268 0
M  V30 2714 H 264.068 0.0121612 -0.675891 0
M  V30 2715 H 266.622 -0.6129 -1.96043 0
M  V30 2716 H 264.852 1.31505 -3.63653 0
M  V30 2717 H 266.541 1.01597 -3.92979 0
M  V30 2718 H 267.307 -1.359 -4.65571 0
M  V30 2719 H 263.186 -0.133713 -4.60806 0
M  V30 2720 H 266.73 -3.19665 -6.20048 0
M  V30 2721 H 262.627 -1.96306 -6.14926 0
M  V30 2722 H 263.395 -3.68503 -7.30854 0
M  V30 2723 N 266.058 1.56714 -0.166846 0
M  V30 2724 C 267.305 1.96747 0.479252 0
M  V30 2725 C 267.633 1.05263 1.63554 0
M  V30 2726 O 266.888 0.0858098 1.95512 0
M  V30 2727 C 267.187 3.42889 1.00806 0
M  V30 2728 C 266.853 4.50889 -0.0318574 0
M  V30 2729 C 265.515 4.8015 -0.317675 0
M  V30 2730 C 267.867 5.15949 -0.737956 0
M  V30 2731 C 265.195 5.71772 -1.31506 0
M  V30 2732 C 267.547 6.08647 -1.72429 0
M  V30 2733 C 266.211 6.36277 -2.0176 0
M  V30 2734 H 265.481 0.719949 0.175371 0
M  V30 2735 H 268.128 1.89756 -0.257864 0
M  V30 2736 H 266.433 3.4681 1.82291 0
M  V30 2737 H 268.13 3.71203 1.51689 0
M  V30 2738 H 264.72 4.28128 0.201088 0
M  V30 2739 H 268.904 4.93458 -0.530351 0
M  V30 2740 H 264.16 5.91465 -1.54853 0
M  V30 2741 H 268.334 6.58129 -2.27682 0
M  V30 2742 H 265.961 7.07075 -2.79194 0
M  V30 2743 N 267.536 -0.106894 1.57237 0
M  V30 2744 C 268.766 -0.825191 1.89405 0
M  V30 2745 C 269.174 -1.73374 0.757496 0
M  V30 2746 O 268.517 -1.81552 -0.280115 0
M  V30 2747 C 268.579 -1.70102 3.1671 0
M  V30 2748 C 268.243 -0.965523 4.46684 0
M  V30 2749 C 269.24 -0.300741 5.19029 0
M  V30 2750 C 266.925 -0.943105 4.93367 0
M  V30 2751 C 268.919 0.376622 6.36286 0
M  V30 2752 C 266.606 -0.261949 6.10538 0
M  V30 2753 C 267.604 0.396748 6.81847 0
M  V30 2754 O 267.292 1.06701 7.96787 0
M  V30 2755 H 267.024 -0.241852 0.631255 0
M  V30 2756 H 269.578 -0.0921491 2.05193 0
M  V30 2757 H 267.808 -2.47601 2.97036 0
M  V30 2758 H 269.497 -2.29483 3.34802 0
M  V30 2759 H 270.263 -0.309599 4.84011 0
M  V30 2760 H 266.142 -1.44524 4.3776 0
M  V30 2761 H 269.686 0.891334 6.91882 0
M  V30 2762 H 265.583 -0.250896 6.45012 0
M  V30 2763 H 266.351 0.972707 8.127 0
M  V30 2764 N 269.014 -1.53014 -0.377408 0
M  V30 2765 C 269.961 -1.78616 -1.46168 0
M  V30 2766 C 270.931 -0.629917 -1.53692 0
M  V30 2767 O 272.116 -0.870861 -1.69766 0
M  V30 2768 C 269.256 -1.97123 -2.8326 0
M  V30 2769 C 268.369 -3.24831 -2.84796 0
M  V30 2770 C 267.504 -3.33591 -4.13389 0
M  V30 2771 C 266.543 -4.55377 -4.09021 0
M  V30 2772 N 265.68 -4.61355 -5.29241 0
M  V30 2773 H 270.52 -2.71142 -1.23637 0
M  V30 2774 H 268.057 -1.34326 -0.599577 0
M  V30 2775 H 270.015 -2.05839 -3.62886 0
M  V30 2776 H 268.645 -1.07946 -3.04216 0
M  V30 2777 H 267.697 -3.25128 -1.97474 0
M  V30 2778 H 269.009 -4.14523 -2.77439 0
M  V30 2779 H 268.163 -3.41554 -5.01424 0
M  V30 2780 H 266.902 -2.41894 -4.23484 0
M  V30 2781 H 265.907 -4.47527 -3.19373 0
M  V30 2782 H 267.132 -5.48402 -4.00539 0
M  V30 2783 H 265.078 -3.72554 -5.39944 0
M  V30 2784 H 264.995 -5.44935 -5.24006 0
M  V30 2785 H 266.263 -4.73586 -6.19141 0
M  V30 2786 N 270.492 0.636531 -1.44174 0
M  V30 2787 C 271.422 1.76003 -1.53444 0
M  V30 2788 C 272.403 1.65619 -0.387841 0
M  V30 2789 O 273.588 1.84461 -0.607257 0
M  V30 2790 C 270.718 3.14511 -1.4731 0
M  V30 2791 C 269.672 3.39677 -2.60391 0
M  V30 2792 C 268.998 4.78159 -2.39308 0
M  V30 2793 C 270.298 3.32772 -4.02567 0
M  V30 2794 H 271.992 1.68501 -2.47483 0
M  V30 2795 H 269.538 0.809237 -1.19111 0
M  V30 2796 H 271.491 3.92878 -1.52397 0
M  V30 2797 H 270.215 3.22783 -0.49785 0
M  V30 2798 H 268.874 2.63688 -2.54684 0
M  V30 2799 H 268.522 4.83128 -1.39988 0
M  V30 2800 H 268.222 4.95956 -3.15122 0
M  V30 2801 H 269.746 5.58762 -2.46205 0
M  V30 2802 H 271.16 4.01051 -4.09672 0
M  V30 2803 H 269.557 3.62104 -4.7854 0
M  V30 2804 H 270.627 2.30669 -4.2652 0
M  V30 2805 N 271.97 1.30982 0.876444 0
M  V30 2806 C 272.9 1.20668 1.99903 0
M  V30 2807 C 273.881 0.095354 1.69833 0
M  V30 2808 O 275.066 0.27885 1.92188 0
M  V30 2809 C 272.196 0.90655 3.3526 0
M  V30 2810 C 271.15 1.97675 3.79617 0
M  V30 2811 C 270.476 1.52943 5.1236 0
M  V30 2812 C 271.776 3.389 3.97422 0
M  V30 2813 H 273.47 2.14586 2.0879 0
M  V30 2814 H 271.016 1.03308 1.00317 0
M  V30 2815 H 272.969 0.821025 4.13324 0
M  V30 2816 H 271.693 -0.0682969 3.26529 0
M  V30 2817 H 270.352 2.05205 3.03787 0
M  V30 2818 H 270 0.54262 5.00065 0
M  V30 2819 H 269.7 2.24532 5.43009 0
M  V30 2820 H 271.224 1.45786 5.92941 0
M  V30 2821 H 272.638 3.34081 4.659 0
M  V30 2822 H 271.035 4.0865 4.3946 0
M  V30 2823 H 272.105 3.80163 3.01006 0
M  V30 2824 N 273.449 -1.08991 1.13837 0
M  V30 2825 C 274.695 -1.81526 0.90422 0
M  V30 2826 C 275.028 -1.85706 -0.568066 0
M  V30 2827 O 274.303 -1.32855 -1.42056 0
M  V30 2828 C 274.586 -3.27447 1.49835 0
M  V30 2829 C 274.439 -3.31512 3.04006 0
M  V30 2830 C 275.758 -4.24256 1.17025 0
M  V30 2831 H 272.877 -0.659029 0.329923 0
M  V30 2832 H 275.519 -1.27644 1.40737 0
M  V30 2833 H 273.669 -3.73462 1.07044 0
M  V30 2834 H 275.341 -2.93867 3.55584 0
M  V30 2835 H 273.584 -2.70963 3.38765 0
M  V30 2836 H 274.255 -4.34329 3.40679 0
M  V30 2837 H 276.731 -3.86549 1.54009 0
M  V30 2838 H 275.607 -5.24684 1.61237 0
M  V30 2839 H 275.868 -4.42019 0.0846274 0
M  V30 2840 N 274.927 -0.932562 -1.27047 0
M  V30 2841 C 275.877 -0.406392 -2.24349 0
M  V30 2842 C 276.861 0.492066 -1.53191 0
M  V30 2843 O 278.053 0.328717 -1.73921 0
M  V30 2844 C 275.182 0.335214 -3.41659 0
M  V30 2845 C 274.268 -0.58004 -4.20115 0
M  V30 2846 N 274.659 -1.70203 -4.76303 0
M  V30 2847 C 272.957 -0.383974 -4.44344 0
M  V30 2848 C 273.658 -2.27167 -5.35509 0
M  V30 2849 N 272.634 -1.56068 -5.20715 0
M  V30 2850 H 276.436 -1.26299 -2.65378 0
M  V30 2851 H 273.95 -0.787408 -1.42034 0
M  V30 2852 H 275.947 0.729142 -4.10474 0
M  V30 2853 H 274.607 1.18868 -3.0216 0
M  V30 2854 H 275.618 -2.08433 -4.74106 0
M  V30 2855 H 272.295 0.428436 -4.15296 0
M  V30 2856 H 273.685 -3.21654 -5.89905 0
M  V30 2857 N 276.405 1.4127 -0.698611 0
M  V30 2858 C 277.816 1.84187 -0.305289 0
M  V30 2859 C 278.167 1.58449 1.15708 0
M  V30 2860 O 277.292 1.05651 1.88856 0
M  V30 2861 C 277.887 3.3435 -0.547314 0
M  V30 2862 C 276.446 3.75826 -0.207878 0
M  V30 2863 C 275.593 2.64647 -0.828099 0
M  V30 2864 H 278.544 1.30778 -0.89904 0
M  V30 2865 H 278.565 3.8001 0.192998 0
M  V30 2866 H 278.077 3.53051 -1.61172 0
M  V30 2867 H 276.178 3.62725 0.852143 0
M  V30 2868 H 276.291 4.74462 -0.665021 0
M  V30 2869 H 274.655 2.53395 -0.257458 0
M  V30 2870 H 275.438 2.86165 -1.89643 0
M  V30 2871 N 277.883 0.443576 1.51229 0
M  V30 2872 C 279.108 -0.121648 2.07043 0
M  V30 2873 C 279.533 -1.35156 1.30823 0
M  V30 2874 O 278.891 -1.7793 0.347934 0
M  V30 2875 C 278.939 -0.41624 3.5819 0
M  V30 2876 O 278.043 -1.50163 3.8409 0
M  V30 2877 H 277.384 0.000871367 0.663999 0
M  V30 2878 H 279.914 0.626706 1.94765 0
M  V30 2879 H 279.924 -0.664867 4.02546 0
M  V30 2880 H 278.599 0.482653 4.1309 0
M  V30 2881 H 277.176 -1.24248 3.51592 0
M  V30 2882 N 279.361 -1.56624 0.175154 0
M  V30 2883 C 280.607 -1.9729 -0.469506 0
M  V30 2884 C 280.94 -1.06128 -1.62636 0
M  V30 2885 O 280.215 -0.109183 -1.94193 0
M  V30 2886 C 280.498 -3.47375 -0.948804 0
M  V30 2887 C 280.351 -4.49317 0.208491 0
M  V30 2888 C 281.67 -4.00652 -1.82116 0
M  V30 2889 H 278.789 -0.717317 -0.16919 0
M  V30 2890 H 281.431 -1.88184 0.262062 0
M  V30 2891 H 279.581 -3.55267 -1.57219 0
M  V30 2892 H 281.253 -4.53482 0.845682 0
M  V30 2893 H 279.496 -4.25121 0.863395 0
M  V30 2894 H 280.167 -5.51741 -0.169059 0
M  V30 2895 H 282.643 -3.95416 -1.2956 0
M  V30 2896 H 281.519 -5.06075 -2.12554 0
M  V30 2897 H 281.78 -3.44699 -2.7683 0
M  V30 2898 N 280.839 0.0985539 -1.57292 0
M  V30 2899 C 282.064 0.820196 -1.90493 0
M  V30 2900 C 282.489 1.71658 -0.769094 0
M  V30 2901 O 281.847 1.79133 0.279495 0
M  V30 2902 C 281.895 1.61242 -3.22542 0
M  V30 2903 O 280.999 2.72108 -3.09888 0
M  V30 2904 H 280.34 0.225547 -0.62452 0
M  V30 2905 H 282.87 0.0748159 -2.04463 0
M  V30 2906 H 282.88 1.99737 -3.55766 0
M  V30 2907 H 281.555 0.954535 -4.04798 0
M  V30 2908 H 280.132 2.36667 -2.88172 0
M  V30 2909 N 282.317 1.53212 0.369288 0
M  V30 2910 C 283.728 1.60943 0.946276 0
M  V30 2911 C 284.079 0.47452 1.90375 0
M  V30 2912 O 283.204 -0.399597 2.12679 0
M  V30 2913 C 283.799 2.91715 1.72302 0
M  V30 2914 C 282.358 3.01792 2.24941 0
M  V30 2915 C 281.505 2.56211 1.06072 0
M  V30 2916 H 284.456 1.58007 0.148198 0
M  V30 2917 H 284.477 2.79309 2.58393 0
M  V30 2918 H 283.989 3.74295 1.0259 0
M  V30 2919 H 282.09 2.23791 2.97906 0
M  V30 2920 H 282.203 4.06803 2.53077 0
M  V30 2921 H 280.567 2.10998 1.4266 0
M  V30 2922 H 281.35 3.41206 0.378639 0
M  V30 2923 N 283.795 -0.628877 1.44509 0
M  V30 2924 C 285.041 -1.39045 1.47629 0
M  V30 2925 C 285.374 -1.93892 0.109343 0
M  V30 2926 O 284.649 -1.7379 -0.87334 0
M  V30 2927 C 284.932 -2.55408 2.53848 0
M  V30 2928 C 284.785 -2.05896 3.99909 0
M  V30 2929 C 286.104 -3.5759 2.56549 0
M  V30 2930 H 283.223 -0.504232 0.537512 0
M  V30 2931 H 285.865 -0.710854 1.76201 0
M  V30 2932 H 284.015 -3.13384 2.29615 0
M  V30 2933 H 285.687 -1.52734 4.35282 0
M  V30 2934 H 283.93 -1.37061 4.11578 0
M  V30 2935 H 284.601 -2.89681 4.69882 0
M  V30 2936 H 287.077 -3.09419 2.78207 0
M  V30 2937 H 285.953 -4.36527 3.32769 0
M  V30 2938 H 286.214 -4.11808 1.60832 0
M  V30 2939 N 285.273 -1.31445 -0.869486 0
M  V30 2940 C 286.684 -1.19042 -1.43826 0
M  V30 2941 C 287.035 0.202919 -1.95148 0
M  V30 2942 O 286.16 1.10071 -1.86315 0
M  V30 2943 C 286.755 -2.15499 -2.6143 0
M  V30 2944 C 285.314 -2.07028 -3.14351 0
M  V30 2945 C 284.461 -2.04701 -1.87063 0
M  V30 2946 H 287.412 -1.43489 -0.677984 0
M  V30 2947 H 287.433 -1.74488 -3.38134 0
M  V30 2948 H 286.945 -3.16899 -2.24046 0
M  V30 2949 H 285.046 -1.08825 -3.56354 0
M  V30 2950 H 285.159 -2.96157 -3.766 0
M  V30 2951 H 283.523 -1.49724 -2.06046 0
M  V30 2952 H 284.306 -3.07857 -1.51917 0
M  V30 2953 N 286.751 1.08385 -1.14413 0
M  V30 2954 C 287.698 2.15311 -0.831265 0
M  V30 2955 C 288.668 1.64751 0.211292 0
M  V30 2956 O 289.853 1.90627 0.0811674 0
M  V30 2957 C 286.993 3.43658 -0.315143 0
M  V30 2958 C 286.106 4.08064 -1.41802 0
M  V30 2959 C 285.241 5.24207 -0.859126 0
M  V30 2960 C 284.28 5.80554 -1.93967 0
M  V30 2961 N 283.417 6.88042 -1.39793 0
M  V30 2962 H 288.257 2.41415 -1.74708 0
M  V30 2963 H 285.794 1.18474 -0.871909 0
M  V30 2964 H 287.752 4.172 0.00230884 0
M  V30 2965 H 286.382 3.17839 0.56378 0
M  V30 2966 H 285.434 3.3228 -1.85187 0
M  V30 2967 H 286.746 4.45962 -2.23427 0
M  V30 2968 H 285.9 6.04689 -0.49359 0
M  V30 2969 H 284.639 4.87699 -0.011932 0
M  V30 2970 H 283.644 4.98725 -2.31415 0
M  V30 2971 H 284.869 6.19121 -2.79046 0
M  V30 2972 H 282.815 6.53493 -0.572919 0
M  V30 2973 H 282.732 7.24767 -2.15054 0
M  V30 2974 H 284 7.72255 -1.0603 0
M  V30 2975 N 288.23 0.939286 1.26551 0
M  V30 2976 C 289.455 0.602008 1.98471 0
M  V30 2977 C 289.88 -0.815624 1.69497 0
M  V30 2978 O 289.238 -1.54912 0.941905 0
M  V30 2979 C 289.286 0.848407 3.50477 0
M  V30 2980 O 288.39 -0.0804009 4.12322 0
M  V30 2981 H 287.731 0.23049 0.622712 0
M  V30 2982 H 290.261 1.2617 1.61066 0
M  V30 2983 H 290.271 0.768553 4.00696 0
M  V30 2984 H 288.946 1.88171 3.70897 0
M  V30 2985 H 287.523 0.0503508 3.72866 0
M  V30 2986 N 289.708 -1.40897 0.706093 0
M  V30 2987 C 290.671 -2.29131 0.0562841 0
M  V30 2988 C 291.671 -1.44901 -0.697166 0
M  V30 2989 O 292.861 -1.65926 -0.530484 0
M  V30 2990 C 289.993 -3.27957 -0.93043 0
M  V30 2991 H 291.186 -2.88091 0.833284 0
M  V30 2992 H 288.739 -1.4906 0.470192 0
M  V30 2993 H 289.474 -2.73997 -1.73482 0
M  V30 2994 H 289.259 -3.90124 -0.393166 0
M  V30 2995 H 290.749 -3.94049 -1.38256 0
M  V30 2996 N 291.186 -0.45159 -1.50991 0
M  V30 2997 C 292.432 0.110237 -2.025 0
M  V30 2998 C 292.765 1.41109 -1.33424 0
M  V30 2999 O 292.04 1.89135 -0.453659 0
M  V30 3000 C 292.323 0.314271 -3.58726 0
M  V30 3001 C 292.176 -1.00623 -4.38401 0
M  V30 3002 C 293.495 1.07767 -4.26702 0
M  V30 3003 H 290.614 0.0385897 -0.735989 0
M  V30 3004 H 293.256 -0.593374 -1.80497 0
M  V30 3005 H 291.406 0.913601 -3.77605 0
M  V30 3006 H 293.078 -1.64064 -4.31139 0
M  V30 3007 H 291.321 -1.6075 -4.02917 0
M  V30 3008 H 291.992 -0.817341 -5.45915 0
M  V30 3009 H 294.468 0.56986 -4.12179 0
M  V30 3010 H 293.344 1.18921 -5.35863 0
M  V30 3011 H 293.605 2.10939 -3.88532 0
M  V30 3012 N 292.664 1.56529 -0.183458 0
M  V30 3013 C 293.574 2.22144 0.754272 0
M  V30 3014 C 294.59 1.21684 1.24374 0
M  V30 3015 O 295.766 1.54385 1.29333 0
M  V30 3016 C 292.831 2.85884 1.96141 0
M  V30 3017 C 291.892 4.01579 1.51765 0
M  V30 3018 C 291.125 4.6227 2.66725 0
M  V30 3019 O 291.348 4.21865 3.83909 0
M  V30 3020 O 290.282 5.51936 2.40104 0
M  V30 3021 H 294.108 3.02861 0.225527 0
M  V30 3022 H 291.693 1.49331 0.0453032 0
M  V30 3023 H 293.575 3.26253 2.66715 0
M  V30 3024 H 292.25 2.08154 2.47899 0
M  V30 3025 H 291.157 3.65856 0.781049 0
M  V30 3026 H 292.49 4.80938 1.04686 0
M  V30 3027 N 294.142 -0.090211 1.57342 0
M  V30 3028 C 295.089 -1.10909 2.02405 0
M  V30 3029 C 296.059 -1.39523 0.901252 0
M  V30 3030 O 297.244 -1.50903 1.1676 0
M  V30 3031 C 294.384 -2.42277 2.45755 0
M  V30 3032 C 293.497 -2.20352 3.71576 0
M  V30 3033 C 292.632 -3.45154 4.03785 0
M  V30 3034 C 291.671 -3.18512 5.22701 0
M  V30 3035 N 290.808 -4.35593 5.50639 0
M  V30 3036 H 295.648 -0.71782 2.89225 0
M  V30 3037 H 293.185 -0.342901 1.43048 0
M  V30 3038 H 295.143 -3.18951 2.68935 0
M  V30 3039 H 293.773 -2.79242 1.61938 0
M  V30 3040 H 292.825 -1.34458 3.55844 0
M  V30 3041 H 294.137 -1.96661 4.58395 0
M  V30 3042 H 293.291 -4.30233 4.27767 0
M  V30 3043 H 292.03 -3.71904 3.15498 0
M  V30 3044 H 291.035 -2.31827 4.98534 0
M  V30 3045 H 292.26 -2.93103 6.12591 0
M  V30 3046 H 290.206 -4.6241 4.6531 0
M  V30 3047 H 290.123 -4.1511 6.31838 0
M  V30 3048 H 291.391 -5.21723 5.7916 0
M  V30 3049 N 295.62 -1.53406 -0.361157 0
M  V30 3050 C 296.867 -1.69802 -1.10333 0
M  V30 3051 C 297.195 -0.452087 -1.89173 0
M  V30 3052 O 296.45 0.566017 -1.87336 0
M  V30 3053 C 296.749 -2.90211 -2.08596 0
M  V30 3054 C 296.415 -4.26539 -1.46203 0
M  V30 3055 C 295.077 -4.6361 -1.28915 0
M  V30 3056 C 297.429 -5.113 -1.01101 0
M  V30 3057 C 294.757 -5.83075 -0.651157 0
M  V30 3058 C 297.109 -6.31415 -0.387007 0
M  V30 3059 C 295.773 -6.67195 -0.201657 0
M  V30 3060 H 295.043 -0.621351 -0.403737 0
M  V30 3061 H 297.69 -1.87598 -0.384609 0
M  V30 3062 H 295.995 -2.66946 -2.86788 0
M  V30 3063 H 297.692 -3.00091 -2.65982 0
M  V30 3064 H 294.282 -3.97352 -1.60653 0
M  V30 3065 H 298.466 -4.83206 -1.13249 0
M  V30 3066 H 293.722 -6.09385 -0.496006 0
M  V30 3067 H 297.896 -6.96394 -0.0293563 0
M  V30 3068 H 295.523 -7.59628 0.294766 0
M  V30 3069 N 297.098 0.621204 -1.44841 0
M  V30 3070 C 298.346 1.37783 -1.47852 0
M  V30 3071 C 298.667 1.94653 -0.116224 0
M  V30 3072 O 297.937 1.76367 0.852737 0
M  V30 3073 H 296.517 0.511453 -0.544449 0
M  V30 3074 H 299.179 0.730446 -1.80694 0
M  V30 3075 H 298.275 2.20414 -2.20961 0
M  V30 3076 N 298.576 1.31904 0.862503 0
M  V30 3077 C 299.853 1.12644 1.59908 0
M  V30 3078 C 300.233 -0.316104 2.0872 0
M  V30 3079 O 299.581 -1.31145 1.87118 0
M  V30 3080 C 299.791 2.1472 2.7513 0
M  V30 3081 C 301.139 2.47637 3.44907 0
M  V30 3082 O 302.163 2.13205 2.85346 0
M  V30 3083 O 301.022 3.06632 4.52371 0
M  V30 3084 H 298.116 0.43416 0.703871 0
M  V30 3085 H 300.662 1.43408 0.907314 0
M  V30 3086 H 299.434 3.1172 2.3653 0
M  V30 3087 H 299.057 1.84905 3.51989 0
M  V30 3088 N 300.054 -1.07777 1.14986 0
M  V30 3089 C 301.001 -2.14867 0.842672 0
M  V30 3090 C 301.971 -1.6486 -0.202552 0
M  V30 3091 O 303.156 -1.90668 -0.0710568 0
M  V30 3092 C 300.296 -3.43486 0.333363 0
M  V30 3093 C 299.409 -4.07306 1.43965 0
M  V30 3094 C 298.544 -5.23744 0.886914 0
M  V30 3095 C 297.583 -5.79517 1.97043 0
M  V30 3096 N 296.72 -6.87291 1.4344 0
M  V30 3097 H 301.56 -2.40485 1.75986 0
M  V30 3098 H 299.097 -1.1801 0.878179 0
M  V30 3099 H 301.055 -4.17195 0.0198163 0
M  V30 3100 H 299.685 -3.18133 -0.546916 0
M  V30 3101 H 298.737 -3.31293 1.86946 0
M  V30 3102 H 300.049 -4.44771 2.25788 0
M  V30 3103 H 299.203 -6.04419 0.525651 0
M  V30 3104 H 297.942 -4.87685 0.0377957 0
M  V30 3105 H 296.947 -4.97491 2.34057 0
M  V30 3106 H 298.172 -6.17632 2.82325 0
M  V30 3107 H 296.118 -6.5318 0.607567 0
M  V30 3108 H 296.035 -7.23617 2.18895 0
M  V30 3109 H 297.303 -7.71682 1.10124 0
M  V30 3110 N 301.532 -0.945985 -1.26051 0
M  V30 3111 C 302.778 -0.606539 -1.94146 0
M  V30 3112 C 303.133 0.84586 -1.72809 0
M  V30 3113 O 302.426 1.59781 -1.05738 0
M  V30 3114 C 302.62 -0.890475 -3.46129 0
M  V30 3115 C 302.449 -2.36892 -3.82246 0
M  V30 3116 C 301.219 -3.02494 -4.04753 0
M  V30 3117 C 303.417 -3.34772 -3.90425 0
M  V30 3118 N 301.399 -4.40302 -4.27794 0
M  V30 3119 C 302.77 -4.57855 -4.18054 0
M  V30 3120 C 304.825 -3.2973 -3.73072 0
M  V30 3121 C 303.528 -5.76522 -4.30134 0
M  V30 3122 C 305.554 -4.47727 -3.86386 0
M  V30 3123 C 304.916 -5.69593 -4.14419 0
M  V30 3124 H 301.015 -0.272407 -0.73302 0
M  V30 3125 H 303.599 -1.21638 -1.52027 0
M  V30 3126 H 301.77 -0.309638 -3.87164 0
M  V30 3127 H 303.502 -0.51181 -4.01451 0
M  V30 3128 H 300.257 -2.53095 -4.003 0
M  V30 3129 H 300.681 -5.11646 -4.43337 0
M  V30 3130 H 305.323 -2.36565 -3.50424 0
M  V30 3131 H 303.041 -6.70136 -4.51601 0
M  V30 3132 H 306.627 -4.45363 -3.74356 0
M  V30 3133 H 305.507 -6.59375 -4.24493 0
M  V30 3134 N 303.011 1.40521 -0.713556 0
M  V30 3135 C 304.239 2.05237 -0.261775 0
M  V30 3136 C 304.654 1.53755 1.09567 0
M  V30 3137 O 304.011 0.693268 1.6882 0
M  V30 3138 C 304.062 3.60763 -0.230706 0
M  V30 3139 O 303.783 4.10345 -1.53455 0
M  V30 3140 C 305.284 4.42651 0.239874 0
M  V30 3141 H 302.504 0.660533 -0.118057 0
M  V30 3142 H 305.048 1.79967 -0.971192 0
M  V30 3143 H 303.203 3.8501 0.429661 0
M  V30 3144 H 303.617 5.04526 -1.43366 0
M  V30 3145 H 305.091 5.51599 0.210468 0
M  V30 3146 H 305.568 4.20082 1.28171 0
M  V30 3147 H 306.174 4.23507 -0.390142 0
M  V30 3148 N 304.489 0.459591 1.5075 0
M  V30 3149 C 305.421 -0.37665 2.26084 0
M  V30 3150 C 306.434 -0.967109 1.30961 0
M  V30 3151 O 307.623 -0.857468 1.56556 0
M  V30 3152 C 304.723 -1.54112 3.01832 0
M  V30 3153 C 303.896 -1.06553 4.24223 0
M  V30 3154 C 302.955 -2.1027 4.82362 0
M  V30 3155 O 301.981 -1.68798 5.43595 0
M  V30 3156 N 303.183 -3.42974 4.68347 0
M  V30 3157 H 305.948 0.269124 2.98489 0
M  V30 3158 H 303.509 0.28972 1.59287 0
M  V30 3159 H 305.501 -2.23165 3.37608 0
M  V30 3160 H 304.071 -2.0918 2.32298 0
M  V30 3161 H 303.291 -0.201274 3.93686 0
M  V30 3162 H 304.579 -0.725516 5.03601 0
M  V30 3163 H 303.977 -3.79385 4.19623 0
M  V30 3164 H 302.534 -4.07858 5.08424 0
M  V30 3165 N 305.967 -1.56429 0.191757 0
M  V30 3166 C 307.378 -1.83912 -0.321428 0
M  V30 3167 C 307.729 -1.11231 -1.61623 0
M  V30 3168 O 306.854 -0.37202 -2.13178 0
M  V30 3169 C 307.449 -3.33624 -0.589961 0
M  V30 3170 C 306.008 -3.6153 -1.04753 0
M  V30 3171 C 305.155 -2.7714 -0.0943327 0
M  V30 3172 H 308.106 -1.53161 0.415612 0
M  V30 3173 H 308.127 -3.52213 -1.43966 0
M  V30 3174 H 307.639 -3.86495 0.352588 0
M  V30 3175 H 305.74 -3.14089 -2.00447 0
M  V30 3176 H 305.853 -4.69737 -0.942549 0
M  V30 3177 H 304.217 -2.47638 -0.595589 0
M  V30 3178 H 305 -3.32799 0.842601 0
M  V30 3179 N 307.445 0.0818655 -1.57387 0
M  V30 3180 C 308.408 1.08265 -2.02018 0
M  V30 3181 C 309.408 1.32183 -0.915664 0
M  V30 3182 O 310.598 1.28073 -1.18081 0
M  V30 3183 C 307.73 2.42871 -2.39221 0
M  V30 3184 H 308.923 0.698204 -2.91659 0
M  V30 3185 H 306.476 0.327303 -1.52835 0
M  V30 3186 H 307.211 2.86167 -1.52575 0
M  V30 3187 H 306.996 2.26855 -3.19811 0
M  V30 3188 H 308.486 3.14826 -2.74362 0
M  V30 3189 N 308.923 1.53595 0.353017 0
M  V30 3190 C 309.871 1.81605 1.45335 0
M  V30 3191 C 310.865 0.685923 1.54892 0
M  V30 3192 O 312.071 0.869095 1.57628 0
M  V30 3193 H 308.446 0.575204 0.484401 0
M  V30 3194 H 310.417 2.73679 1.18921 0
M  V30 3195 C 309.166 2.03406 2.81995 0
M  V30 3196 H 308.489 2.89814 2.75405 0
M  V30 3197 H 309.929 2.26975 3.58132 0
M  V30 3198 C 308.388 0.816794 3.26849 0
M  V30 3199 O 308.918 0.0115856 4.01698 0
M  V30 3200 N 307.124 0.636682 2.8354 0
M  V30 3201 H 306.671 1.2931 2.22793 0
M  V30 3202 H 306.629 -0.176336 3.13905 0
M  V30 3203 N 310.401 -0.613514 1.45168 0
M  V30 3204 C 311.65 -1.36874 1.4815 0
M  V30 3205 C 311.963 -1.952 0.124982 0
M  V30 3206 O 313.169 -2.71481 0.0324176 0
M  V30 3207 C 311.625 -2.47905 2.60904 0
M  V30 3208 C 311.233 -1.96016 4.02842 0
M  V30 3209 C 312.977 -3.24965 2.73126 0
M  V30 3210 C 310.884 -3.04494 5.06988 0
M  V30 3211 H 309.814 -0.514428 0.551253 0
M  V30 3212 H 312.465 -0.658182 1.7129 0
M  V30 3213 H 310.847 -3.21618 2.31037 0
M  V30 3214 H 312.021 -1.29051 4.4236 0
M  V30 3215 H 310.336 -1.31719 3.95018 0
M  V30 3216 H 312.933 -4.05865 3.48106 0
M  V30 3217 H 313.276 -3.75588 1.79553 0
M  V30 3218 H 313.809 -2.5835 3.0249 0
M  V30 3219 H 310.548 -2.58795 6.0225 0
M  V30 3220 H 310.068 -3.70044 4.72046 0
M  V30 3221 H 311.747 -3.68976 5.31475 0
M  V30 3222 N 311.879 -1.3236 -0.855495 0
M  V30 3223 C 313.125 -1.23054 -1.612 0
M  V30 3224 C 313.458 0.207404 -1.93089 0
M  V30 3225 O 312.733 1.14432 -1.57275 0
M  V30 3226 C 313.016 -2.08937 -2.93287 0
M  V30 3227 C 312.869 -3.61105 -2.68185 0
M  V30 3228 C 314.188 -1.94986 -3.94549 0
M  V30 3229 H 311.307 -0.448364 -0.584926 0
M  V30 3230 H 313.949 -1.62297 -0.987917 0
M  V30 3231 H 312.099 -1.75599 -3.46551 0
M  V30 3232 H 313.771 -4.04652 -2.21483 0
M  V30 3233 H 312.014 -3.83813 -2.02164 0
M  V30 3234 H 312.685 -4.16522 -3.62234 0
M  V30 3235 H 315.161 -2.24189 -3.5054 0
M  V30 3236 H 314.037 -2.57356 -4.84829 0
M  V30 3237 H 314.298 -0.917263 -4.3248 0
M  V30 3238 N 313.357 1.07166 -1.15556 0
M  V30 3239 C 314.585 1.83514 -0.955519 0
M  V30 3240 C 315 1.82163 0.49621 0
M  V30 3241 O 314.357 1.23441 1.34419 0
M  V30 3242 C 314.408 3.30515 -1.46432 0
M  V30 3243 O 314.129 3.31937 -2.85918 0
M  V30 3244 C 315.63 4.23625 -1.30603 0
M  V30 3245 H 312.85 0.578926 -0.339244 0
M  V30 3246 H 315.394 1.35265 -1.53374 0
M  V30 3247 H 313.549 3.76106 -0.928584 0
M  V30 3248 H 313.963 4.23794 -3.09029 0
M  V30 3249 H 315.437 5.24831 -1.71047 0
M  V30 3250 H 315.914 4.38485 -0.250441 0
M  V30 3251 H 316.52 3.83871 -1.83094 0
M  V30 3252 N 314.835 0.952656 1.25548 0
M  V30 3253 C 315.783 0.462354 2.27958 0
M  V30 3254 C 316.777 -0.46634 1.62855 0
M  V30 3255 O 317.983 -0.343287 1.76696 0
M  V30 3256 H 314.358 0.13101 0.7405 0
M  V30 3257 H 316.329 1.33839 2.66702 0
M  V30 3258 C 315.078 -0.24628 3.46827 0
M  V30 3259 H 314.401 0.459192 3.97154 0
M  V30 3260 H 315.841 -0.553393 4.20373 0
M  V30 3261 C 314.3 -1.4681 3.0323 0
M  V30 3262 O 314.83 -2.56591 3.09069 0
M  V30 3263 N 313.036 -1.32874 2.58443 0
M  V30 3264 H 312.583 -0.435536 2.53891 0
M  V30 3265 H 312.541 -2.14742 2.29637 0
M  V30 3266 N 316.313 -1.40141 0.720998 0
M  V30 3267 C 317.561 -2.0039 0.262323 0
M  V30 3268 C 317.882 -1.57469 -1.15015 0
M  V30 3269 O 317.152 -0.816582 -1.78069 0
M  V30 3270 H 315.732 -0.741063 0.093996 0
M  V30 3271 H 318.394 -1.71398 0.927835 0
M  V30 3272 H 317.49 -3.10658 0.299671 0
M  V30 3273 N 317.792 -0.46758 -1.50504 0
M  V30 3274 C 318.755 0.317059 -2.26996 0
M  V30 3275 C 319.755 0.923513 -1.31635 0
M  V30 3276 O 320.945 0.793239 -1.55091 0
M  V30 3277 C 318.077 1.45134 -3.08462 0
M  V30 3278 H 319.27 -0.353723 -2.97807 0
M  V30 3279 H 316.823 -0.221545 -1.54722 0
M  V30 3280 H 317.558 2.15728 -2.4214 0
M  V30 3281 H 317.343 1.02232 -3.78538 0
M  V30 3282 H 318.833 2.00493 -3.66323 0
M  V30 3283 N 319.27 1.56325 -0.20005 0
M  V30 3284 C 320.5 2.01811 0.442232 0
M  V30 3285 C 320.908 1.07932 1.55394 0
M  V30 3286 O 320.251 0.0772685 1.83537 0
M  V30 3287 C 320.313 3.43685 1.05457 0
M  V30 3288 C 319.977 4.56928 0.0809833 0
M  V30 3289 C 320.974 5.15009 -0.711471 0
M  V30 3290 C 318.659 5.0229 -0.0315364 0
M  V30 3291 C 320.653 6.16904 -1.60336 0
M  V30 3292 C 318.34 6.04028 -0.926981 0
M  V30 3293 C 319.338 6.6121 -1.71146 0
M  V30 3294 O 319.026 7.60971 -2.59189 0
M  V30 3295 H 318.758 0.666173 0.114848 0
M  V30 3296 H 321.312 2.03085 -0.307511 0
M  V30 3297 H 319.542 3.39413 1.85299 0
M  V30 3298 H 321.231 3.72948 1.60201 0
M  V30 3299 H 321.997 4.80827 -0.634873 0
M  V30 3300 H 317.876 4.57476 0.568902 0
M  V30 3301 H 321.42 6.61464 -2.21611 0
M  V30 3302 H 317.317 6.37634 -1.00468 0
M  V30 3303 H 318.085 7.7841 -2.53023 0
M  V30 3304 N 320.748 -0.0735177 1.57428 0
M  V30 3305 C 321.695 -1.08756 2.0357 0
M  V30 3306 C 322.665 -1.38559 0.916 0
M  V30 3307 O 323.85 -1.49656 1.18354 0
M  V30 3308 C 320.99 -2.39657 2.48311 0
M  V30 3309 C 320.103 -2.16399 3.73892 0
M  V30 3310 C 319.238 -3.40852 4.07423 0
M  V30 3311 C 318.277 -3.1295 5.2605 0
M  V30 3312 N 317.414 -4.29729 5.55228 0
M  V30 3313 H 322.254 -0.687104 2.8997 0
M  V30 3314 H 319.791 -0.327709 1.43403 0
M  V30 3315 H 321.749 -3.16081 2.72303 0
M  V30 3316 H 320.379 -2.77508 1.64891 0
M  V30 3317 H 319.431 -1.30676 3.57251 0
M  V30 3318 H 320.743 -1.91788 4.60455 0
M  V30 3319 H 319.897 -4.25671 4.32306 0
M  V30 3320 H 318.636 -3.68537 3.19425 0
M  V30 3321 H 317.641 -2.26526 5.00965 0
M  V30 3322 H 318.866 -2.86589 6.15665 0
M  V30 3323 H 316.812 -4.57448 4.70188 0
M  V30 3324 H 316.729 -4.08385 6.36206 0
M  V30 3325 H 317.997 -5.1555 5.84661 0
M  V30 3326 N 322.226 -1.5378 -0.344866 0
M  V30 3327 C 323.156 -1.84662 -1.42906 0
M  V30 3328 C 324.137 -0.701648 -1.54955 0
M  V30 3329 O 325.322 -0.953438 -1.69184 0
M  V30 3330 C 322.452 -2.05503 -2.79974 0
M  V30 3331 C 321.406 -3.21318 -2.82734 0
M  V30 3332 C 320.732 -3.2749 -4.22675 0
M  V30 3333 C 322.032 -4.59456 -2.48389 0
M  V30 3334 H 323.726 -2.75461 -1.17311 0
M  V30 3335 H 321.272 -1.32542 -0.562896 0
M  V30 3336 H 323.225 -2.25691 -3.55867 0
M  V30 3337 H 321.949 -1.11434 -3.07002 0
M  V30 3338 H 320.608 -3.00984 -2.09294 0
M  V30 3339 H 320.256 -2.31019 -4.4681 0
M  V30 3340 H 319.956 -4.05316 -4.25433 0
M  V30 3341 H 321.48 -3.49887 -5.00412 0
M  V30 3342 H 322.894 -4.79667 -3.13995 0
M  V30 3343 H 321.291 -5.39675 -2.62432 0
M  V30 3344 H 322.361 -4.63155 -1.4358 0
M  V30 3345 N 323.704 0.605807 -1.45491 0
M  V30 3346 C 324.651 1.7164 -1.54299 0
M  V30 3347 C 325.621 1.61486 -0.388761 0
M  V30 3348 O 326.806 1.81039 -0.602445 0
M  V30 3349 C 323.946 3.09953 -1.51734 0
M  V30 3350 C 323.059 3.309 -2.77721 0
M  V30 3351 C 322.194 4.59329 -2.66816 0
M  V30 3352 C 321.233 4.7354 -3.87848 0
M  V30 3353 N 320.37 5.9327 -3.75467 0
M  V30 3354 H 325.21 1.63449 -2.49176 0
M  V30 3355 H 322.747 0.796957 -1.23641 0
M  V30 3356 H 324.705 3.89977 -1.48235 0
M  V30 3357 H 323.335 3.17098 -0.604068 0
M  V30 3358 H 322.387 2.44639 -2.913 0
M  V30 3359 H 323.699 3.37274 -3.67488 0
M  V30 3360 H 322.853 5.4755 -2.61292 0
M  V30 3361 H 321.592 4.55355 -1.74651 0
M  V30 3362 H 320.597 3.83741 -3.93729 0
M  V30 3363 H 321.822 4.79309 -4.81082 0
M  V30 3364 H 319.768 5.90338 -2.86072 0
M  V30 3365 H 319.685 6.00811 -4.5887 0
M  V30 3366 H 320.953 6.83984 -3.73879 0
M  V30 3367 N 325.182 1.32811 0.848464 0
M  V30 3368 C 326.13 1.22231 1.97895 0
M  V30 3369 C 327.124 0.125749 1.68933 0
M  V30 3370 O 328.33 0.289083 1.77663 0
M  V30 3371 H 324.705 0.379058 0.649476 0
M  V30 3372 H 326.676 2.17828 2.03945 0
M  V30 3373 C 325.425 0.968572 3.33937 0
M  V30 3374 H 324.748 1.80458 3.56756 0
M  V30 3375 H 326.188 0.934808 4.13567 0
M  V30 3376 C 324.647 -0.328628 3.35293 0
M  V30 3377 O 325.177 -1.33848 3.78745 0
M  V30 3378 N 323.383 -0.352788 2.88451 0
M  V30 3379 H 322.93 0.469541 2.53285 0
M  V30 3380 H 322.888 -1.22057 2.89741 0
M  V30 3381 N 326.66 -1.06551 1.16123 0
M  V30 3382 C 327.906 -1.79719 0.952505 0
M  V30 3383 C 328.261 -1.85396 -0.514385 0
M  V30 3384 O 327.554 -1.33263 -1.37665 0
M  V30 3385 C 327.748 -3.23911 1.51052 0
M  V30 3386 C 327.577 -3.32284 3.03013 0
M  V30 3387 C 326.347 -3.42371 3.71632 0
M  V30 3388 C 328.545 -3.22363 4.00732 0
M  V30 3389 N 326.527 -3.39732 5.11327 0
M  V30 3390 C 327.898 -3.26937 5.26794 0
M  V30 3391 C 329.953 -3.0623 3.92591 0
M  V30 3392 C 328.656 -3.17035 6.45663 0
M  V30 3393 C 330.682 -2.97665 5.11028 0
M  V30 3394 C 330.044 -3.02858 6.35969 0
M  V30 3395 H 326.143 -0.670585 0.402293 0
M  V30 3396 H 328.727 -1.27125 1.4747 0
M  V30 3397 H 326.898 -3.74907 1.01484 0
M  V30 3398 H 328.63 -3.85242 1.2398 0
M  V30 3399 H 325.385 -3.47058 3.22254 0
M  V30 3400 H 325.809 -3.41919 5.84312 0
M  V30 3401 H 330.451 -3.01063 2.96852 0
M  V30 3402 H 328.169 -3.2096 7.41627 0
M  V30 3403 H 331.755 -2.86273 5.06497 0
M  V30 3404 H 330.635 -2.96286 7.26075 0
M  V30 3405 N 328.138 -0.959301 -1.25041 0
M  V30 3406 C 329.384 -0.617525 -1.9317 0
M  V30 3407 C 329.717 0.843981 -1.74902 0
M  V30 3408 O 328.992 1.60615 -1.09696 0
M  V30 3409 C 329.275 -0.982736 -3.46431 0
M  V30 3410 C 329.128 -2.50032 -3.73904 0
M  V30 3411 C 330.447 -0.511176 -4.37121 0
M  V30 3412 H 327.566 -0.22582 -0.701552 0
M  V30 3413 H 330.208 -1.19679 -1.4757 0
M  V30 3414 H 328.358 -0.489806 -3.854 0
M  V30 3415 H 330.03 -3.06737 -3.44544 0
M  V30 3416 H 328.273 -2.93598 -3.19348 0
M  V30 3417 H 328.944 -2.70635 -4.81103 0
M  V30 3418 H 331.42 -0.934075 -4.0548 0
M  V30 3419 H 330.296 -0.795361 -5.43107 0
M  V30 3420 H 330.557 0.588834 -4.38161 0
M  V30 3421 N 329.616 1.39756 -0.72842 0
M  V30 3422 C 330.862 2.00942 -0.273892 0
M  V30 3423 C 331.195 1.57656 1.13394 0
M  V30 3424 O 330.47 0.802434 1.77176 0
M  V30 3425 C 330.753 3.58211 -0.368346 0
M  V30 3426 C 330.606 4.11534 -1.81548 0
M  V30 3427 C 331.925 4.39372 0.253054 0
M  V30 3428 H 329.044 0.730047 -0.100996 0
M  V30 3429 H 331.686 1.66056 -0.923337 0
M  V30 3430 H 329.836 3.88061 0.184588 0
M  V30 3431 H 331.508 3.92431 -2.42478 0
M  V30 3432 H 329.751 3.65341 -2.33898 0
M  V30 3433 H 330.422 5.20682 -1.83288 0
M  V30 3434 H 332.898 4.15527 -0.218224 0
M  V30 3435 H 331.774 5.48677 0.156585 0
M  V30 3436 H 332.035 4.21358 1.33826 0
M  V30 3437 N 331.094 0.475555 1.50254 0
M  V30 3438 C 332.042 -0.330276 2.30243 0
M  V30 3439 C 333.036 -0.986306 1.37726 0
M  V30 3440 O 334.242 -0.9169 1.54897 0
M  V30 3441 H 330.617 -0.125353 0.741479 0
M  V30 3442 H 332.588 0.364702 2.96163 0
M  V30 3443 C 331.337 -1.39704 3.18399 0
M  V30 3444 H 330.66 -0.901621 3.89501 0
M  V30 3445 H 332.1 -1.93336 3.77355 0
M  V30 3446 C 330.559 -2.4014 2.36293 0
M  V30 3447 O 331.089 -3.45504 2.04914 0
M  V30 3448 N 329.295 -2.1197 1.98789 0
M  V30 3449 H 328.842 -1.2631 2.24507 0
M  V30 3450 H 328.8 -2.79403 1.44157 0
M  V30 3451 N 332.573 -1.56217 0.208337 0
M  V30 3452 C 333.483 -2.23316 -0.718836 0
M  V30 3453 C 334.499 -1.23648 -1.22422 0
M  V30 3454 O 335.675 -1.56423 -1.26861 0
M  V30 3455 C 332.74 -2.88968 -1.91568 0
M  V30 3456 C 331.801 -4.03943 -1.45357 0
M  V30 3457 C 331.034 -4.66455 -2.59337 0
M  V30 3458 O 331.257 -4.27919 -3.77149 0
M  V30 3459 O 330.191 -5.55686 -2.31293 0
M  V30 3460 H 334.017 -3.03182 -0.177315 0
M  V30 3461 H 331.602 -1.49384 -0.0215402 0
M  V30 3462 H 333.484 -3.30455 -2.61491 0
M  V30 3463 H 332.159 -2.12071 -2.44556 0
M  V30 3464 H 331.066 -3.67052 -0.722746 0
M  V30 3465 H 332.399 -4.82543 -0.970219 0
M  V30 3466 N 334.051 0.0651679 -1.57465 0
M  V30 3467 C 335.467 0.420105 -1.53972 0
M  V30 3468 C 335.667 1.78782 -0.929474 0
M  V30 3469 O 334.723 2.46771 -0.534839 0
M  V30 3470 C 336.036 0.355084 -2.98596 0
M  V30 3471 C 337.584 0.434792 -3.09965 0
M  V30 3472 C 338.059 0.399609 -4.56253 0
M  V30 3473 N 339.55 0.459488 -4.60915 0
M  V30 3474 C 340.285 0.454584 -5.71595 0
M  V30 3475 N 339.781 0.404102 -6.9162 0
M  V30 3476 N 341.574 0.501635 -5.59857 0
M  V30 3477 H 333.725 -0.830328 -1.95498 0
M  V30 3478 H 335.988 -0.312244 -0.895102 0
M  V30 3479 H 335.694 -0.583357 -3.46828 0
M  V30 3480 H 335.568 1.16275 -3.58831 0
M  V30 3481 H 337.955 1.36366 -2.61703 0
M  V30 3482 H 338.036 -0.40157 -2.52628 0
M  V30 3483 H 337.68 -0.525436 -5.05175 0
M  V30 3484 H 337.61 1.25359 -5.11461 0
M  V30 3485 H 340.101 0.502482 -3.74544 0
M  V30 3486 H 340.414 0.404468 -7.71741 0
M  V30 3487 H 338.759 0.37069 -6.94011 0
M  V30 3488 H 341.95 0.538812 -4.64989 0
M  V30 3489 H 342.123 0.494345 -6.46112 0
M  V30 3490 N 335.529 1.53961 0.336706 0
M  V30 3491 C 336.778 1.70751 1.07363 0
M  V30 3492 C 337.091 0.481061 1.89592 0
M  V30 3493 O 338.297 0.530046 2.66276 0
M  V30 3494 C 336.753 3.01965 1.95818 0
M  V30 3495 C 336.361 4.31971 1.18764 0
M  V30 3496 C 338.105 3.28121 2.69327 0
M  V30 3497 C 336.012 5.54255 2.06289 0
M  V30 3498 H 334.942 0.636292 0.404535 0
M  V30 3499 H 337.593 1.80459 0.332681 0
M  V30 3500 H 335.975 2.86132 2.7376 0
M  V30 3501 H 337.149 4.5853 0.456849 0
M  V30 3502 H 335.464 4.12481 0.569946 0
M  V30 3503 H 338.061 4.16673 3.35094 0
M  V30 3504 H 338.404 2.45426 3.36261 0
M  V30 3505 H 338.937 3.44762 1.98454 0
M  V30 3506 H 335.676 6.39513 1.43885 0
M  V30 3507 H 335.196 5.31935 2.77138 0
M  V30 3508 H 336.875 5.90159 2.65182 0
M  V30 3509 N 337.007 -0.598083 1.45811 0
M  V30 3510 C 338.253 -1.35882 1.50545 0
M  V30 3511 C 338.586 -1.93616 0.150445 0
M  V30 3512 O 337.861 -1.75604 -0.83628 0
M  V30 3513 C 338.144 -2.49966 2.59208 0
M  V30 3514 C 337.997 -1.97367 4.04186 0
M  V30 3515 C 339.316 -3.52068 2.64076 0
M  V30 3516 H 336.435 -0.492717 0.548087 0
M  V30 3517 H 339.077 -0.673319 1.77669 0
M  V30 3518 H 337.227 -3.08443 2.3621 0
M  V30 3519 H 338.899 -1.43466 4.38423 0
M  V30 3520 H 337.142 -1.283 4.14393 0
M  V30 3521 H 337.813 -2.79649 4.75921 0
M  V30 3522 H 340.289 -3.03448 2.84708 0
M  V30 3523 H 339.165 -4.2937 3.41954 0
M  V30 3524 H 339.426 -4.08304 1.69531 0
M  V30 3525 N 338.485 -1.33259 -0.841409 0
M  V30 3526 C 339.415 -1.25926 -1.96634 0
M  V30 3527 C 340.396 -0.140349 -1.6952 0
M  V30 3528 O 341.581 -0.329707 -1.91381 0
M  V30 3529 C 338.711 -0.99512 -3.32738 0
M  V30 3530 C 337.665 -2.0767 -3.74242 0
M  V30 3531 C 336.991 -1.66474 -5.08125 0
M  V30 3532 C 338.291 -3.49318 -3.88297 0
M  V30 3533 H 339.985 -2.20046 -2.03027 0
M  V30 3534 H 337.531 -1.05931 -0.975425 0
M  V30 3535 H 339.484 -0.930323 -4.11002 0
M  V30 3536 H 338.208 -0.0183004 -3.26595 0
M  V30 3537 H 336.867 -2.13187 -2.98239 0
M  V30 3538 H 336.515 -0.675012 -4.9845 0
M  V30 3539 H 336.215 -2.3885 -5.36865 0
M  V30 3540 H 337.739 -1.61455 -5.88867 0
M  V30 3541 H 339.153 -3.46316 -4.56879 0
M  V30 3542 H 337.55 -4.20158 -4.28471 0
M  V30 3543 H 338.62 -3.8801 -2.9082 0
M  V30 3544 N 339.963 1.05934 -1.16686 0
M  V30 3545 C 340.873 2.17014 -0.891183 0
M  V30 3546 C 341.889 1.73453 0.137907 0
M  V30 3547 O 343.065 2.01361 -0.039592 0
M  V30 3548 C 340.13 3.44384 -0.400099 0
M  V30 3549 C 339.191 4.02433 -1.49486 0
M  V30 3550 C 338.424 5.23723 -1.02711 0
M  V30 3551 O 338.647 5.7027 0.121716 0
M  V30 3552 O 337.581 5.7382 -1.81699 0
M  V30 3553 H 341.407 2.43113 -1.82015 0
M  V30 3554 H 338.992 1.15541 -0.947132 0
M  V30 3555 H 340.874 4.21189 -0.133392 0
M  V30 3556 H 339.549 3.19802 0.500817 0
M  V30 3557 H 338.456 3.27102 -1.81535 0
M  V30 3558 H 339.789 4.31317 -2.37121 0
M  V30 3559 N 341.441 0.965919 1.2453 0
M  V30 3560 C 342.857 0.67216 1.44756 0
M  V30 3561 C 343.057 -0.766609 1.86347 0
M  V30 3562 O 342.113 -1.5407 2.00047 0
M  V30 3563 C 343.426 1.65473 2.51076 0
M  V30 3564 C 344.974 1.66716 2.64905 0
M  V30 3565 C 345.449 2.63766 3.74421 0
M  V30 3566 N 346.94 2.62198 3.81846 0
M  V30 3567 C 347.675 3.33966 4.66106 0
M  V30 3568 N 347.171 4.15245 5.54566 0
M  V30 3569 N 348.964 3.22799 4.60171 0
M  V30 3570 H 341.115 1.89553 0.958293 0
M  V30 3571 H 343.378 0.815979 0.482579 0
M  V30 3572 H 343.084 2.68296 2.27399 0
M  V30 3573 H 342.958 1.4261 3.49202 0
M  V30 3574 H 345.345 0.646057 2.87941 0
M  V30 3575 H 345.426 1.93642 1.67142 0
M  V30 3576 H 345.07 3.6601 3.52135 0
M  V30 3577 H 345 2.34121 4.71694 0
M  V30 3578 H 347.491 2.032 3.18619 0
M  V30 3579 H 347.804 4.66898 6.15814 0
M  V30 3580 H 346.149 4.1934 5.54237 0
M  V30 3581 H 349.34 2.58764 3.90075 0
M  V30 3582 H 349.513 3.78994 5.25612 0
M  V30 3583 N 342.919 -1.39368 0.735821 0
M  V30 3584 C 343.867 -2.32443 0.0855131 0
M  V30 3585 C 344.861 -1.53104 -0.724954 0
M  V30 3586 O 346.067 -1.68762 -0.626047 0
M  V30 3587 H 342.442 -0.751948 0.00885257 0
M  V30 3588 H 344.413 -2.84916 0.886883 0
M  V30 3589 C 343.162 -3.38206 -0.806983 0
M  V30 3590 H 342.485 -3.99335 -0.19274 0
M  V30 3591 H 343.925 -4.05779 -1.2296 0
M  V30 3592 C 342.384 -2.75321 -1.94165 0
M  V30 3593 O 342.914 -2.63231 -3.03435 0
M  V30 3594 N 341.12 -2.33396 -1.73132 0
M  V30 3595 H 340.667 -2.4343 -0.842596 0
M  V30 3596 H 340.625 -1.91661 -2.49225 0
M  V30 3597 N 344.397 -0.483516 -1.5 0
M  V30 3598 C 345.808 -0.0314176 -1.86674 0
M  V30 3599 C 346.159 1.37728 -1.39733 0
M  V30 3600 O 345.284 2.02327 -0.767635 0
M  V30 3601 C 345.879 -0.0502376 -3.38763 0
M  V30 3602 C 344.438 0.346442 -3.74802 0
M  V30 3603 C 343.585 -0.430366 -2.7394 0
M  V30 3604 H 346.536 -0.697182 -1.42566 0
M  V30 3605 H 346.557 0.749116 -3.73053 0
M  V30 3606 H 346.069 -1.07563 -3.72897 0
M  V30 3607 H 344.17 1.37572 -3.46273 0
M  V30 3608 H 344.283 0.0391486 -4.79084 0
M  V30 3609 H 342.647 0.117557 -2.54429 0
M  V30 3610 H 343.43 -1.4555 -3.10918 0
M  V30 3611 N 345.875 1.56104 -0.216619 0
M  V30 3612 C 346.807 2.17339 0.72776 0
M  V30 3613 C 347.82 1.14109 1.16116 0
M  V30 3614 O 349.009 1.4111 1.09317 0
M  V30 3615 C 346.109 2.73818 1.99693 0
M  V30 3616 C 345.282 4.02168 1.71988 0
M  V30 3617 C 344.341 4.43259 2.83562 0
M  V30 3618 O 343.367 5.10257 2.52244 0
M  V30 3619 N 344.569 4.08535 4.12407 0
M  V30 3620 H 347.334 2.99005 0.203983 0
M  V30 3621 H 344.895 1.61861 -0.0354289 0
M  V30 3622 H 346.887 2.9828 2.73516 0
M  V30 3623 H 345.457 1.96483 2.43132 0
M  V30 3624 H 344.677 3.85612 0.818337 0
M  V30 3625 H 345.965 4.85907 1.50903 0
M  V30 3626 H 345.363 3.54687 4.40696 0
M  V30 3627 H 343.92 4.37901 4.8279 0
M  V30 3628 N 347.353 -0.0568162 1.57498 0
M  V30 3629 C 348.583 -0.764515 1.91934 0
M  V30 3630 C 348.991 -1.70877 0.81227 0
M  V30 3631 O 348.334 -1.82351 -0.222213 0
M  V30 3632 C 348.396 -1.5994 3.21962 0
M  V30 3633 C 348.06 -0.822925 4.4953 0
M  V30 3634 C 349.057 -0.135464 5.19723 0
M  V30 3635 C 346.742 -0.785666 4.96117 0
M  V30 3636 C 348.736 0.578861 6.34766 0
M  V30 3637 C 346.423 -0.0675784 6.11063 0
M  V30 3638 C 347.421 0.613471 6.80239 0
M  V30 3639 O 347.109 1.31996 7.92989 0
M  V30 3640 H 346.841 -0.221647 0.63863 0
M  V30 3641 H 349.395 -0.0268218 2.05382 0
M  V30 3642 H 347.625 -2.38026 3.04763 0
M  V30 3643 H 349.314 -2.18715 3.41934 0
M  V30 3644 H 350.08 -0.155458 4.84751 0
M  V30 3645 H 345.959 -1.30524 4.42136 0
M  V30 3646 H 349.503 1.111 6.88696 0
M  V30 3647 H 345.4 -0.0455636 6.45484 0
M  V30 3648 H 346.168 1.23077 8.09194 0
M  V30 3649 N 348.832 -1.54138 -0.328536 0
M  V30 3650 C 350.078 -1.73297 -1.06488 0
M  V30 3651 C 350.433 -0.497958 -1.85844 0
M  V30 3652 O 349.726 0.509591 -1.84699 0
M  V30 3653 C 349.92 -2.9457 -2.02393 0
M  V30 3654 C 349.749 -4.29747 -1.32467 0
M  V30 3655 C 348.519 -4.93987 -1.06324 0
M  V30 3656 C 350.717 -5.08903 -0.743137 0
M  V30 3657 N 348.699 -6.13005 -0.331359 0
M  V30 3658 C 350.07 -6.19836 -0.142602 0
M  V30 3659 C 352.125 -4.93699 -0.64546 0
M  V30 3660 C 350.828 -7.17224 0.546125 0
M  V30 3661 C 352.854 -5.91393 0.0295558 0
M  V30 3662 C 352.216 -7.01674 0.619056 0
M  V30 3663 H 348.315 -0.687017 -0.373539 0
M  V30 3664 H 350.899 -1.91589 -0.346659 0
M  V30 3665 H 349.07 -2.77752 -2.71493 0
M  V30 3666 H 350.802 -3.0238 -2.68977 0
M  V30 3667 H 347.557 -4.53824 -1.35428 0
M  V30 3668 H 347.981 -6.76997 0.0202939 0
M  V30 3669 H 352.623 -4.08589 -1.08695 0
M  V30 3670 H 350.341 -8.01896 0.999459 0
M  V30 3671 H 353.927 -5.81706 0.104705 0
M  V30 3672 H 352.807 -7.75971 1.13309 0
M  V30 3673 N 350.31 0.590341 -1.46126 0
M  V30 3674 C 351.587 1.35029 -1.41515 0
M  V30 3675 C 351.967 2.10888 -0.0946472 0
M  V30 3676 O 351.315 2.08998 0.923693 0
M  V30 3677 C 351.525 2.28269 -2.63997 0
M  V30 3678 C 352.873 2.90338 -3.09821 0
M  V30 3679 O 353.897 2.38585 -2.64492 0
M  V30 3680 O 352.756 3.84321 -3.88535 0
M  V30 3681 H 349.85 0.606317 -0.562413 0
M  V30 3682 H 352.396 0.611994 -1.58281 0
M  V30 3683 H 351.168 1.71591 -3.51671 0
M  V30 3684 H 350.791 3.0945 -2.49652 0
M  V30 3685 N 351.788 1.33704 0.83433 0
M  V30 3686 C 352.736 1.24323 1.96587 0
M  V30 3687 C 353.73 0.143659 1.6879 0
M  V30 3688 O 354.936 0.30791 1.77347 0
M  V30 3689 H 351.311 0.385925 0.645419 0
M  V30 3690 H 353.282 2.19978 2.01624 0
M  V30 3691 C 352.031 1.00394 3.32891 0
M  V30 3692 H 351.354 1.84231 3.54822 0
M  V30 3693 H 352.794 0.97862 4.12552 0
M  V30 3694 C 351.253 -0.293047 3.35623 0
M  V30 3695 O 351.783 -1.29823 3.80143 0
M  V30 3696 N 349.989 -0.322174 2.88809 0
M  V30 3697 H 349.536 0.496379 2.52772 0
M  V30 3698 H 349.494 -1.18977 2.91019 0
M  V30 3699 N 353.266 -1.05314 1.17247 0
M  V30 3700 C 354.229 -2.112 0.890357 0
M  V30 3701 C 355.229 -1.60359 -0.118943 0
M  V30 3702 O 356.419 -1.73833 0.113086 0
M  V30 3703 C 353.551 -3.39266 0.333422 0
M  V30 3704 H 354.744 -2.37659 1.82916 0
M  V30 3705 H 352.297 -1.21538 0.982758 0
M  V30 3706 H 353.032 -3.18462 -0.612587 0
M  V30 3707 H 352.817 -3.77477 1.06082 0
M  V30 3708 H 354.307 -4.17315 0.154322 0
M  V30 3709 N 354.744 -0.972509 -1.24016 0
M  V30 3710 C 355.691 -0.505969 -2.25186 0
M  V30 3711 C 356.661 0.451009 -1.5986 0
M  V30 3712 O 357.846 0.360307 -1.87367 0
M  V30 3713 C 354.986 0.193089 -3.44559 0
M  V30 3714 C 354.099 -0.803222 -4.24467 0
M  V30 3715 C 353.234 -0.0797793 -5.3114 0
M  V30 3716 C 352.273 -1.06583 -6.02749 0
M  V30 3717 N 351.41 -0.372074 -7.01113 0
M  V30 3718 H 356.25 -1.37351 -2.64459 0
M  V30 3719 H 353.787 -0.688419 -1.29997 0
M  V30 3720 H 355.745 0.615125 -4.1264 0
M  V30 3721 H 354.375 1.02455 -3.06109 0
M  V30 3722 H 353.427 -1.34368 -3.55878 0
M  V30 3723 H 354.739 -1.55494 -4.73944 0
M  V30 3724 H 353.893 0.400015 -6.0538 0
M  V30 3725 H 352.632 0.704597 -4.82583 0
M  V30 3726 H 351.637 -1.55645 -5.27309 0
M  V30 3727 H 352.862 -1.85074 -6.53395 0
M  V30 3728 H 350.808 0.393238 -6.5482 0
M  V30 3729 H 350.725 -1.06258 -7.48495 0
M  V30 3730 H 351.993 0.0855932 -7.79453 0
M  V30 3731 N 356.222 1.38976 -0.743202 0
M  V30 3732 C 357.45 2.04636 -0.30525 0
M  V30 3733 C 357.865 1.56044 1.06281 0
M  V30 3734 O 357.222 0.728921 1.67311 0
M  V30 3735 C 357.273 3.60193 -0.307177 0
M  V30 3736 O 356.994 4.06998 -1.62124 0
M  V30 3737 C 358.495 4.4306 0.145928 0
M  V30 3738 H 355.715 0.65788 -0.132041 0
M  V30 3739 H 358.259 1.77866 -1.00915 0
M  V30 3740 H 356.414 3.85835 0.347898 0
M  V30 3741 H 356.828 5.01371 -1.54036 0
M  V30 3742 H 358.302 5.51921 0.0934183 0
M  V30 3743 H 358.779 4.22706 1.19231 0
M  V30 3744 H 359.385 4.22584 -0.479886 0
M  V30 3745 N 357.7 0.491464 1.49741 0
M  V30 3746 C 358.946 -0.0565092 2.02721 0
M  V30 3747 C 359.279 -1.37522 1.37118 0
M  V30 3748 O 358.554 -1.87866 0.503645 0
M  V30 3749 C 358.837 -0.219051 3.59433 0
M  V30 3750 C 358.69 1.12211 4.35579 0
M  V30 3751 C 360.009 -0.964157 4.29409 0
M  V30 3752 H 357.128 -0.0190627 0.736753 0
M  V30 3753 H 359.77 0.641021 1.7886 0
M  V30 3754 H 357.92 -0.813165 3.79895 0
M  V30 3755 H 359.592 1.75437 4.26637 0
M  V30 3756 H 357.835 1.71377 3.98513 0
M  V30 3757 H 358.506 0.961794 5.43556 0
M  V30 3758 H 360.982 -0.460378 4.13545 0
M  V30 3759 H 359.858 -1.04671 5.38828 0
M  V30 3760 H 360.119 -2.00563 3.93988 0
M  V30 3761 N 359.178 -1.55987 0.224894 0
M  V30 3762 C 360.427 -1.97566 -0.406273 0
M  V30 3763 C 360.74 -1.11569 -1.6066 0
M  V30 3764 O 361.946 -1.43062 -2.3075 0
M  V30 3765 C 360.402 -3.51474 -0.774207 0
M  V30 3766 C 360.01 -4.46179 0.403496 0
M  V30 3767 C 361.754 -4.01758 -1.37079 0
M  V30 3768 C 359.661 -5.91399 0.0129412 0
M  V30 3769 H 358.591 -0.737777 -0.155565 0
M  V30 3770 H 361.242 -1.80659 0.321635 0
M  V30 3771 H 359.624 -3.63994 -1.55963 0
M  V30 3772 H 360.798 -4.45409 1.18101 0
M  V30 3773 H 359.113 -4.06255 0.913536 0
M  V30 3774 H 361.71 -5.07756 -1.67596 0
M  V30 3775 H 362.053 -3.47805 -2.28773 0
M  V30 3776 H 362.586 -3.92475 -0.648733 0
M  V30 3777 H 359.325 -6.49341 0.896451 0
M  V30 3778 H 358.845 -5.95356 -0.728821 0
M  V30 3779 H 360.524 -6.45683 -0.412582 0
M  V30 3780 N 360.656 0.0484629 -1.57525 0
M  V30 3781 C 361.604 1.07359 -2.06341 0
M  V30 3782 C 362.598 1.3865 -0.973269 0
M  V30 3783 O 363.804 1.37783 -1.15827 0
M  V30 3784 H 360.179 0.363662 -0.65822 0
M  V30 3785 H 362.15 0.635916 -2.91545 0
M  V30 3786 C 360.899 2.37198 -2.54229 0
M  V30 3787 H 360.222 2.13977 -3.37719 0
M  V30 3788 H 361.662 3.07319 -2.92115 0
M  V30 3789 C 360.121 3.04805 -1.43511 0
M  V30 3790 O 360.651 3.93848 -0.79034 0
M  V30 3791 N 358.857 2.65811 -1.17444 0
M  V30 3792 H 358.404 1.93488 -1.70059 0
M  V30 3793 H 358.362 3.11366 -0.435737 0
M  V30 3794 N 362.134 1.5431 0.320358 0
M  V30 3795 C 363.066 1.80262 1.41556 0
M  V30 3796 C 364.079 0.684723 1.477 0
M  V30 3797 O 365.268 0.961886 1.50366 0
M  V30 3798 C 362.368 1.90825 2.8007 0
M  V30 3799 C 361.541 3.21023 2.97091 0
M  V30 3800 C 360.6 3.22247 4.15985 0
M  V30 3801 O 359.626 3.95871 4.08992 0
M  V30 3802 N 360.828 2.46258 5.25678 0
M  V30 3803 H 363.593 2.74778 1.19655 0
M  V30 3804 H 361.154 1.53646 0.510358 0
M  V30 3805 H 363.146 1.89067 3.57821 0
M  V30 3806 H 361.716 1.03392 2.95006 0
M  V30 3807 H 360.936 3.35715 2.06614 0
M  V30 3808 H 362.224 4.0698 3.05361 0
M  V30 3809 H 361.622 1.86037 5.34235 0
M  V30 3810 H 360.179 2.50275 6.01835 0
M  V30 3811 N 363.613 -0.582584 1.46437 0
M  V30 3812 C 364.859 -1.34278 1.51978 0
M  V30 3813 C 365.192 -1.93446 0.170973 0
M  V30 3814 O 364.467 -1.76481 -0.817608 0
M  V30 3815 C 364.75 -2.47203 2.61845 0
M  V30 3816 C 364.603 -1.93069 4.06257 0
M  V30 3817 C 365.922 -3.49247 2.67795 0
M  V30 3818 H 363.041 -0.486876 0.553282 0
M  V30 3819 H 365.683 -0.654437 1.78374 0
M  V30 3820 H 363.833 -3.0592 2.39469 0
M  V30 3821 H 365.505 -1.38808 4.3992 0
M  V30 3822 H 363.748 -1.23898 4.1573 0
M  V30 3823 H 364.419 -2.74586 4.7886 0
M  V30 3824 H 366.895 -3.00411 2.8791 0
M  V30 3825 H 365.771 -4.25719 3.46489 0
M  V30 3826 H 366.032 -4.06482 1.73852 0
M  V30 3827 N 365.091 -1.34144 -0.827227 0
M  V30 3828 C 366.319 -1.29325 -1.61501 0
M  V30 3829 C 366.734 0.13354 -1.88327 0
M  V30 3830 O 366.091 1.0793 -1.47164 0
M  V30 3831 C 366.142 -2.07746 -2.95844 0
M  V30 3832 O 365.863 -3.4486 -2.70191 0
M  V30 3833 C 367.364 -2.10273 -3.90256 0
M  V30 3834 H 364.584 -0.445069 -0.50215 0
M  V30 3835 H 367.128 -1.76693 -1.02955 0
M  V30 3836 H 365.283 -1.6403 -3.5096 0
M  V30 3837 H 365.697 -3.85345 -3.55822 0
M  V30 3838 H 367.171 -2.69575 -4.81698 0
M  V30 3839 H 367.648 -1.096 -4.25305 0
M  V30 3840 H 368.254 -2.54059 -3.41078 0
M  V30 3841 N 366.569 1.04691 -1.17803 0
M  V30 3842 C 367.799 1.81183 -0.992788 0
M  V30 3843 C 368.207 1.8347 0.462098 0
M  V30 3844 O 367.55 1.2643 1.33271 0
M  V30 3845 C 367.612 3.28363 -1.46349 0
M  V30 3846 C 367.276 3.49749 -2.94151 0
M  V30 3847 C 368.273 3.41456 -3.92051 0
M  V30 3848 C 365.958 3.76548 -3.32441 0
M  V30 3849 C 367.952 3.59656 -5.26238 0
M  V30 3850 C 365.639 3.94396 -4.66792 0
M  V30 3851 C 366.637 3.8595 -5.635 0
M  V30 3852 O 366.325 4.03294 -6.9542 0
M  V30 3853 H 366.057 0.577622 -0.351182 0
M  V30 3854 H 368.611 1.32876 -1.5663 0
M  V30 3855 H 366.841 3.77609 -0.833574 0
M  V30 3856 H 368.53 3.86395 -1.24313 0
M  V30 3857 H 369.296 3.20723 -3.63815 0
M  V30 3858 H 365.175 3.82224 -2.57732 0
M  V30 3859 H 368.719 3.52979 -6.01707 0
M  V30 3860 H 364.616 4.14622 -4.94731 0
M  V30 3861 H 365.384 4.2049 -7.02232 0
M  V30 3862 N 368.047 0.979072 1.23499 0
M  V30 3863 C 368.977 0.537606 2.27227 0
M  V30 3864 C 369.958 -0.428539 1.64613 0
M  V30 3865 O 371.143 -0.322191 1.91509 0
M  V30 3866 C 368.273 -0.162052 3.46922 0
M  V30 3867 C 367.227 0.721242 4.21879 0
M  V30 3868 C 366.553 -0.110555 5.34586 0
M  V30 3869 C 367.853 2.01141 4.82016 0
M  V30 3870 H 369.547 1.40462 2.64406 0
M  V30 3871 H 367.093 0.67684 1.27102 0
M  V30 3872 H 369.046 -0.482192 4.18632 0
M  V30 3873 H 367.77 -1.06351 3.08799 0
M  V30 3874 H 366.429 1.02482 3.51984 0
M  V30 3875 H 366.077 -1.0125 4.92704 0
M  V30 3876 H 365.777 0.477325 5.85658 0
M  V30 3877 H 367.301 -0.425107 6.09118 0
M  V30 3878 H 368.715 1.75612 5.45741 0
M  V30 3879 H 367.112 2.54695 5.43369 0
M  V30 3880 H 368.182 2.69909 4.02836 0
M  V30 3881 N 369.525 -1.3858 0.750561 0
M  V30 3882 C 370.936 -1.82927 0.373438 0
M  V30 3883 C 371.287 -1.62634 -1.09748 0
M  V30 3884 O 370.412 -1.12588 -1.84805 0
M  V30 3885 C 371.007 -3.32088 0.671029 0
M  V30 3886 C 369.566 -3.74795 0.34722 0
M  V30 3887 C 368.713 -2.61391 0.92575 0
M  V30 3888 H 371.664 -1.27351 0.946958 0
M  V30 3889 H 371.685 -3.80465 -0.0518269 0
M  V30 3890 H 371.197 -3.46826 1.74164 0
M  V30 3891 H 369.298 -3.65638 -0.716933 0
M  V30 3892 H 369.411 -4.71667 0.840656 0
M  V30 3893 H 367.775 -2.52265 0.351327 0
M  V30 3894 H 368.558 -2.78929 2.00133 0
M  V30 3895 N 371.003 -0.499398 -1.49478 0
M  V30 3896 C 372.252 0.0475259 -2.01644 0
M  V30 3897 C 372.565 1.38195 -1.38425 0
M  V30 3898 O 373.771 2.01547 -1.8191 0
M  V30 3899 C 372.227 0.135164 -3.59646 0
M  V30 3900 C 371.835 -1.19252 -4.31837 0
M  V30 3901 C 373.579 0.632538 -4.19761 0
M  V30 3902 C 371.486 -1.06713 -5.81693 0
M  V30 3903 H 370.416 0.0215349 -0.753692 0
M  V30 3904 H 373.067 -0.638577 -1.7203 0
M  V30 3905 H 371.449 0.885681 -3.85969 0
M  V30 3906 H 372.623 -1.9562 -4.17216 0
M  V30 3907 H 370.938 -1.62321 -3.83459 0
M  V30 3908 H 373.535 0.743833 -5.29501 0
M  V30 3909 H 373.878 1.63098 -3.83021 0
M  V30 3910 H 374.411 -0.0613987 -3.97753 0
M  V30 3911 H 371.15 -2.03979 -6.22955 0
M  V30 3912 H 370.67 -0.344307 -5.98811 0
M  V30 3913 H 372.349 -0.745208 -6.42694 0
M  V30 3914 N 372.481 1.55866 -0.233164 0
M  V30 3915 C 373.706 2.03449 0.402906 0
M  V30 3916 C 374.131 1.11166 1.51736 0
M  V30 3917 O 373.489 0.101996 1.81013 0
M  V30 3918 C 373.537 3.49165 0.9009 0
M  V30 3919 O 372.641 3.60019 2.01147 0
M  V30 3920 H 371.982 0.657913 0.0897025 0
M  V30 3921 H 374.512 2.01493 -0.355201 0
M  V30 3922 H 374.522 3.89716 1.2077 0
M  V30 3923 H 373.197 4.15813 0.0852889 0
M  V30 3924 H 371.774 3.3136 1.71042 0
M  V30 3925 N 373.959 -0.0401083 1.57549 0
M  V30 3926 C 375.184 -0.748931 1.93406 0
M  V30 3927 C 375.609 -1.68686 0.832274 0
M  V30 3928 O 374.967 -1.80047 -0.212818 0
M  V30 3929 C 375.015 -1.4916 3.28304 0
M  V30 3930 O 374.119 -2.6042 3.19774 0
M  V30 3931 H 373.46 -0.202212 0.63246 0
M  V30 3932 H 375.99 0.00112086 2.046 0
M  V30 3933 H 376 -1.86395 3.62934 0
M  V30 3934 H 374.675 -0.80364 4.08062 0
M  V30 3935 H 373.252 -2.25808 2.96758 0
M  V30 3936 N 375.437 -1.54477 -0.31217 0
M  V30 3937 C 376.347 -1.87695 -1.4074 0
M  V30 3938 C 377.363 -0.769975 -1.56036 0
M  V30 3939 O 378.539 -1.06537 -1.70915 0
M  V30 3940 C 375.604 -2.10755 -2.75287 0
M  V30 3941 C 374.665 -3.34514 -2.69071 0
M  V30 3942 C 373.898 -3.56465 -3.97201 0
M  V30 3943 O 374.121 -2.81637 -4.96021 0
M  V30 3944 O 373.055 -4.49964 -3.9977 0
M  V30 3945 H 376.881 -2.80849 -1.15574 0
M  V30 3946 H 374.466 -1.40526 -0.507228 0
M  V30 3947 H 376.348 -2.27188 -3.54913 0
M  V30 3948 H 375.023 -1.20788 -3.0032 0
M  V30 3949 H 373.93 -3.23456 -1.87955 0
M  V30 3950 H 375.263 -4.24575 -2.48992 0
M  V30 3951 N 376.915 0.57481 -1.46744 0
M  V30 3952 C 378.161 1.3347 -1.52688 0
M  V30 3953 C 378.494 1.93353 -0.181229 0
M  V30 3954 O 377.769 1.76912 0.808237 0
M  V30 3955 C 378.052 2.45811 -2.63152 0
M  V30 3956 C 377.905 1.90912 -4.07275 0
M  V30 3957 C 379.224 3.47822 -2.69644 0
M  V30 3958 H 376.343 0.483935 -0.555856 0
M  V30 3959 H 378.985 0.644968 -1.78718 0
M  V30 3960 H 377.135 3.04646 -2.41088 0
M  V30 3961 H 378.807 1.36473 -4.4065 0
M  V30 3962 H 377.05 1.21691 -4.16382 0
M  V30 3963 H 377.721 2.72042 -4.80309 0
M  V30 3964 H 380.197 2.9888 -2.895 0
M  V30 3965 H 379.073 4.23876 -3.48742 0
M  V30 3966 H 379.334 4.05555 -1.76005 0
M  V30 3967 N 378.394 1.34581 0.820102 0
M  V30 3968 C 379.622 1.3018 1.60813 0
M  V30 3969 C 380.037 -0.123551 1.88395 0
M  V30 3970 O 379.394 -1.07148 1.47735 0
M  V30 3971 C 379.445 2.09312 2.94739 0
M  V30 3972 O 379.166 3.46288 2.68358 0
M  V30 3973 C 380.667 2.1234 3.89136 0
M  V30 3974 H 377.887 0.447726 0.499782 0
M  V30 3975 H 380.431 1.77237 1.02017 0
M  V30 3976 H 378.586 1.65889 3.50085 0
M  V30 3977 H 379 3.87227 3.53774 0
M  V30 3978 H 380.474 2.72126 4.80262 0
M  V30 3979 H 380.951 1.11854 4.24718 0
M  V30 3980 H 381.557 2.55864 3.39726 0
M  V30 3981 N 379.872 -1.04064 1.18357 0
M  V30 3982 C 381.149 -1.74252 0.888581 0
M  V30 3983 C 381.529 -2.02138 -0.60856 0
M  V30 3984 O 380.877 -1.66656 -1.56327 0
M  V30 3985 C 381.087 -3.0277 1.73584 0
M  V30 3986 C 382.435 -3.76506 1.96286 0
M  V30 3987 O 383.459 -3.12668 1.70637 0
M  V30 3988 O 382.318 -4.91243 2.39464 0
M  V30 3989 H 379.412 -0.758271 0.330082 0
M  V30 3990 H 381.958 -1.1013 1.2911 0
M  V30 3991 H 380.73 -2.78299 2.75073 0
M  V30 3992 H 380.353 -3.74631 1.33183 0
M  V30 3993 N 381.35 -0.985608 -1.22978 0
M  V30 3994 C 382.596 -0.65836 -1.91816 0
M  V30 3995 C 382.929 0.806692 -1.76653 0
M  V30 3996 O 382.204 1.58252 -1.13078 0
M  V30 3997 C 382.487 -1.056 -3.44268 0
M  V30 3998 C 382.34 -2.57906 -3.68516 0
M  V30 3999 C 383.659 -0.603781 -4.35939 0
M  V30 4000 H 380.778 -0.24065 -0.696604 0
M  V30 4001 H 383.42 -1.22783 -1.44998 0
M  V30 4002 H 381.57 -0.571445 -3.84274 0
M  V30 4003 H 383.242 -3.13976 -3.3796 0
M  V30 4004 H 381.485 -3.00305 -3.13048 0
M  V30 4005 H 382.156 -2.80779 -4.75255 0
M  V30 4006 H 384.632 -1.01987 -4.03408 0
M  V30 4007 H 383.508 -0.910383 -5.41298 0
M  V30 4008 H 383.769 0.495761 -4.39312 0
M  V30 4009 N 382.828 1.3818 -0.7579 0
M  V30 4010 C 383.776 2.32277 -0.122482 0
M  V30 4011 C 384.77 1.54238 0.700505 0
M  V30 4012 O 385.976 1.69737 0.599119 0
M  V30 4013 H 382.351 0.751712 -0.0208143 0
M  V30 4014 H 384.322 2.83469 -0.932099 0
M  V30 4015 C 383.071 3.39447 0.753076 0
M  V30 4016 H 382.394 3.99591 0.129184 0
M  V30 4017 H 383.834 4.07684 1.16489 0
M  V30 4018 C 382.293 2.78375 1.8976 0
M  V30 4019 O 382.823 2.68025 2.99208 0
M  V30 4020 N 381.029 2.36121 1.69397 0
M  V30 4021 H 380.576 2.4474 0.803762 0
M  V30 4022 H 380.534 1.95602 2.46145 0
M  V30 4023 N 384.306 0.507319 1.49211 0
M  V30 4024 C 385.722 0.163682 1.58758 0
M  V30 4025 C 385.922 -1.33208 1.51188 0
M  V30 4026 O 384.978 -2.10855 1.38911 0
M  V30 4027 C 386.291 0.746095 2.91297 0
M  V30 4028 C 387.839 0.712773 3.04776 0
M  V30 4029 C 388.314 1.27336 4.39943 0
M  V30 4030 N 389.805 1.23433 4.46451 0
M  V30 4031 C 390.54 1.63821 5.495 0
M  V30 4032 N 390.036 2.11832 6.5962 0
M  V30 4033 N 391.829 1.55198 5.4025 0
M  V30 4034 H 383.98 1.47972 1.52375 0
M  V30 4035 H 386.243 0.614147 0.722168 0
M  V30 4036 H 385.949 1.79534 3.02424 0
M  V30 4037 H 385.823 0.210137 3.76614 0
M  V30 4038 H 388.21 -0.327656 2.93275 0
M  V30 4039 H 388.291 1.28595 2.21127 0
M  V30 4040 H 387.935 2.3126 4.52196 0
M  V30 4041 H 387.865 0.676066 5.22242 0
M  V30 4042 H 390.356 0.882627 3.67448 0
M  V30 4043 H 390.669 2.40703 7.34358 0
M  V30 4044 H 389.014 2.1581 6.60644 0
M  V30 4045 H 392.205 1.17505 4.53112 0
M  V30 4046 H 392.378 1.86997 6.20432 0
M  V30 4047 N 385.784 -1.5574 0.241426 0
M  V30 4048 C 387.014 -2.02913 -0.38857 0
M  V30 4049 C 387.422 -1.12014 -1.52478 0
M  V30 4050 O 386.765 -0.125903 -1.83268 0
M  V30 4051 C 386.827 -3.4636 -0.963075 0
M  V30 4052 C 386.491 -4.56982 0.0401916 0
M  V30 4053 C 387.488 -5.12941 0.847766 0
M  V30 4054 C 385.173 -5.0203 0.164699 0
M  V30 4055 C 387.167 -6.12437 1.76636 0
M  V30 4056 C 384.854 -6.01358 1.0868 0
M  V30 4057 C 385.852 -6.5644 1.88616 0
M  V30 4058 O 385.54 -7.53831 2.79273 0
M  V30 4059 H 385.272 -0.668983 -0.0971452 0
M  V30 4060 H 387.826 -2.02198 0.361248 0
M  V30 4061 H 386.056 -3.44206 -1.76235 0
M  V30 4062 H 387.745 -3.77065 -1.50257 0
M  V30 4063 H 388.511 -4.78974 0.762133 0
M  V30 4064 H 384.39 -4.58824 -0.447411 0
M  V30 4065 H 387.934 -6.55355 2.39071 0
M  V30 4066 H 383.831 -6.34746 1.17338 0
M  V30 4067 H 384.599 -7.71428 2.73572 0
M  V30 4068 N 387.262 0.0317525 -1.57568 0
M  V30 4069 C 388.678 0.38735 -1.54828 0
M  V30 4070 C 388.878 1.7677 -0.967187 0
M  V30 4071 O 387.934 2.45581 -0.587063 0
M  V30 4072 C 389.247 0.291667 -2.99282 0
M  V30 4073 C 390.795 0.368946 -3.10818 0
M  V30 4074 C 391.27 0.302741 -4.56998 0
M  V30 4075 N 392.761 0.361617 -4.61786 0
M  V30 4076 C 393.496 0.333238 -5.72431 0
M  V30 4077 N 392.992 0.257308 -6.92322 0
M  V30 4078 N 394.785 0.382769 -5.60795 0
M  V30 4079 H 386.936 -0.871609 -1.93692 0
M  V30 4080 H 389.199 -0.331161 -0.888277 0
M  V30 4081 H 388.905 -0.656794 -3.45513 0
M  V30 4082 H 388.779 1.08638 -3.61217 0
M  V30 4083 H 391.166 1.30784 -2.64536 0
M  V30 4084 H 391.247 -0.455066 -2.5172 0
M  V30 4085 H 390.891 -0.632473 -5.03947 0
M  V30 4086 H 390.821 1.14482 -5.14005 0
M  V30 4087 H 393.312 0.422923 -3.75526 0
M  V30 4088 H 393.625 0.24068 -7.72425 0
M  V30 4089 H 391.97 0.223396 -6.94641 0
M  V30 4090 H 395.161 0.44006 -4.66027 0
M  V30 4091 H 395.334 0.357184 -6.47015 0
M  V30 4092 N 388.74 1.54641 0.303973 0
M  V30 4093 C 389.965 1.78092 1.06292 0
M  V30 4094 C 390.39 0.537342 1.80262 0
M  V30 4095 O 389.748 -0.511993 1.7392 0
M  V30 4096 C 389.796 2.98612 2.02147 0
M  V30 4097 O 388.9 2.71528 3.10397 0
M  V30 4098 H 388.241 0.589548 0.305497 0
M  V30 4099 H 390.771 2.01716 0.3423 0
M  V30 4100 H 390.781 3.265 2.44667 0
M  V30 4101 H 389.456 3.88785 1.47714 0
M  V30 4102 H 388.033 2.54648 2.72413 0
M  V30 4103 N 390.218 -0.567019 1.47046 0
M  V30 4104 C 391.466 -1.322 1.52864 0
M  V30 4105 C 391.787 -1.94088 0.188388 0
M  V30 4106 O 391.057 -1.7941 -0.786693 0
M  V30 4107 H 389.637 -0.490894 0.563056 0
M  V30 4108 H 392.299 -0.662879 1.83281 0
M  V30 4109 H 391.395 -2.12062 2.2899 0
M  V30 4110 N 391.696 -1.35014 -0.812953 0
M  V30 4111 C 392.606 -1.2951 -1.95613 0
M  V30 4112 C 393.622 -0.20107 -1.72834 0
M  V30 4113 O 394.798 -0.42932 -1.96771 0
M  V30 4114 C 391.863 -1.06033 -3.30088 0
M  V30 4115 C 390.924 -2.24688 -3.65805 0
M  V30 4116 C 390.157 -2.02322 -4.93864 0
M  V30 4117 O 390.38 -0.986464 -5.61805 0
M  V30 4118 O 389.314 -2.89525 -5.27692 0
M  V30 4119 H 393.14 -2.25705 -2.03202 0
M  V30 4120 H 390.725 -1.15321 -0.949811 0
M  V30 4121 H 392.607 -0.94763 -4.10607 0
M  V30 4122 H 391.282 -0.128852 -3.23443 0
M  V30 4123 H 390.189 -2.41521 -2.85689 0
M  V30 4124 H 391.522 -3.16261 -3.77147 0
M  V30 4125 N 393.175 1.03435 -1.18907 0
M  V30 4126 C 394.424 1.76143 -0.982669 0
M  V30 4127 C 394.737 1.89416 0.487953 0
M  V30 4128 O 395.943 2.59041 0.813036 0
M  V30 4129 C 394.399 3.16722 -1.70924 0
M  V30 4130 C 394.007 3.11522 -3.21959 0
M  V30 4131 C 395.751 3.93764 -1.58588 0
M  V30 4132 C 393.658 4.46999 -3.87228 0
M  V30 4133 H 392.588 0.660292 -0.364047 0
M  V30 4134 H 395.239 1.158 -1.42347 0
M  V30 4135 H 393.621 3.775 -1.19623 0
M  V30 4136 H 394.795 2.60158 -3.80335 0
M  V30 4137 H 393.11 2.47978 -3.34508 0
M  V30 4138 H 395.707 4.93963 -2.04707 0
M  V30 4139 H 396.05 4.12794 -0.539142 0
M  V30 4140 H 396.583 3.39576 -2.07203 0
M  V30 4141 H 393.322 4.33174 -4.91976 0
M  V30 4142 H 392.842 4.98441 -3.33642 0
M  V30 4143 H 394.521 5.15898 -3.90459 0
M  V30 4144 N 394.653 0.992116 1.22453 0
M  V30 4145 C 395.93 0.583508 1.86694 0
M  V30 4146 C 396.31 -0.9392 1.89056 0
M  V30 4147 O 395.658 -1.82081 1.38053 0
M  V30 4148 C 395.868 1.20304 3.2761 0
M  V30 4149 C 397.216 1.30308 4.0411 0
M  V30 4150 O 398.24 1.15737 3.36873 0
M  V30 4151 O 397.099 1.53615 5.24466 0
M  V30 4152 H 394.193 0.198129 0.802916 0
M  V30 4153 H 396.739 1.08794 1.30238 0
M  V30 4154 H 395.511 2.24461 3.2052 0
M  V30 4155 H 395.134 0.684144 3.9167 0
M  V30 4156 N 396.131 -1.37776 0.765217 0
M  V30 4157 C 397.064 -2.28008 0.0935025 0
M  V30 4158 C 398.042 -1.45985 -0.716047 0
M  V30 4159 O 399.226 -1.75331 -0.692203 0
M  V30 4160 C 396.353 -3.27228 -0.874052 0
M  V30 4161 C 395.399 -4.26239 -0.149307 0
M  V30 4162 S 396.232 -5.22827 1.15809 0
M  V30 4163 C 397.388 -6.256 0.193906 0
M  V30 4164 H 397.621 -2.84631 0.858637 0
M  V30 4165 H 395.154 -1.43952 0.558313 0
M  V30 4166 H 397.112 -3.84902 -1.42691 0
M  V30 4167 H 395.773 -2.69565 -1.61225 0
M  V30 4168 H 394.966 -4.96213 -0.88254 0
M  V30 4169 H 394.568 -3.7252 0.332366 0
M  V30 4170 H 396.86 -6.74508 -0.636011 0
M  V30 4171 H 397.803 -7.02838 0.861638 0
M  V30 4172 H 398.211 -5.64173 -0.191975 0
M  V30 4173 N 397.609 -0.515225 -1.4894 0
M  V30 4174 C 398.837 0.0206034 -2.0689 0
M  V30 4175 C 399.252 1.29514 -1.37374 0
M  V30 4176 O 398.609 1.76698 -0.456529 0
M  V30 4177 C 398.66 0.26351 -3.60538 0
M  V30 4178 O 398.381 -0.960517 -4.27441 0
M  V30 4179 C 399.882 0.841383 -4.35242 0
M  V30 4180 H 397.102 -0.0268608 -0.670462 0
M  V30 4181 H 399.646 -0.716651 -1.91532 0
M  V30 4182 H 397.801 0.950777 -3.75552 0
M  V30 4183 H 398.215 -0.73212 -5.19365 0
M  V30 4184 H 399.689 0.96085 -5.43573 0
M  V30 4185 H 400.166 1.8427 -3.98674 0
M  V30 4186 H 400.772 0.191143 -4.2487 0
M  V30 4187 N 399.087 1.5561 -0.249682 0
M  V30 4188 C 400.317 2.03116 0.377803 0
M  V30 4189 C 400.725 1.12822 1.51881 0
M  V30 4190 O 400.068 0.13562 1.83199 0
M  V30 4191 C 400.13 3.46866 0.944693 0
M  V30 4192 C 399.794 4.56955 -0.0644259 0
M  V30 4193 C 400.791 5.12485 -0.874957 0
M  V30 4194 C 398.476 5.01936 -0.19132 0
M  V30 4195 C 400.47 6.11491 -1.79881 0
M  V30 4196 C 398.157 6.00773 -1.11868 0
M  V30 4197 C 399.155 6.5543 -1.92095 0
M  V30 4198 O 398.843 7.5234 -2.83267 0
M  V30 4199 H 398.575 0.669489 0.0935961 0
M  V30 4200 H 401.129 2.02004 -0.371966 0
M  V30 4201 H 399.359 3.45136 1.74407 0
M  V30 4202 H 401.048 3.77856 1.48255 0
M  V30 4203 H 401.814 4.78564 -0.787523 0
M  V30 4204 H 397.693 4.59055 0.423072 0
M  V30 4205 H 401.237 6.54078 -2.42543 0
M  V30 4206 H 397.134 6.34114 -1.20703 0
M  V30 4207 H 397.902 7.69966 -2.7766 0
M  V30 4208 N 400.565 -0.0233959 1.57583 0
M  V30 4209 C 401.513 -1.04063 2.08023 0
M  V30 4210 C 402.507 -1.37084 0.995204 0
M  V30 4211 O 403.713 -1.35923 1.18004 0
M  V30 4212 H 400.088 -0.353144 0.663922 0
M  V30 4213 H 402.059 -0.589453 2.9252 0
M  V30 4214 C 400.808 -2.33123 2.57971 0
M  V30 4215 H 400.131 -2.08577 3.4108 0
M  V30 4216 H 401.571 -3.02632 2.96967 0
M  V30 4217 C 400.03 -3.02483 1.48342 0
M  V30 4218 O 400.56 -3.92541 0.852898 0
M  V30 4219 N 398.766 -2.63909 1.21658 0
M  V30 4220 H 398.313 -1.90758 1.73116 0
M  V30 4221 H 398.271 -3.10633 0.485218 0
M  V30 4222 N 402.043 -1.548 -0.295768 0
M  V30 4223 C 402.991 -1.86874 -1.38495 0
M  V30 4224 C 403.985 -0.742938 -1.52239 0
M  V30 4225 O 405.191 -0.926999 -1.54294 0
M  V30 4226 H 401.566 -0.592786 -0.462719 0
M  V30 4227 H 403.537 -2.77904 -1.08682 0
M  V30 4228 C 402.286 -2.13732 -2.74252 0
M  V30 4229 H 401.609 -2.99835 -2.64459 0
M  V30 4230 H 403.049 -2.4011 -3.49461 0
M  V30 4231 C 401.508 -0.937539 -3.23592 0
M  V30 4232 O 402.038 -0.160665 -4.01379 0
M  V30 4233 N 400.244 -0.741478 -2.80981 0
M  V30 4234 H 399.791 -1.37489 -2.1784 0
M  V30 4235 H 399.749 0.0597103 -3.14343 0
M  V30 4236 N 403.521 0.559213 -1.47345 0
M  V30 4237 C 404.454 1.68201 -1.5422 0
M  V30 4238 C 405.432 1.57742 -0.394497 0
M  V30 4239 O 406.616 1.78628 -0.60201 0
M  V30 4240 C 403.743 3.0643 -1.44285 0
M  V30 4241 C 402.789 3.3534 -2.63532 0
M  V30 4242 S 403.622 3.24816 -4.25741 0
M  V30 4243 C 404.778 4.65542 -4.18355 0
M  V30 4244 H 405.011 1.62114 -2.49211 0
M  V30 4245 H 402.544 0.739871 -1.35519 0
M  V30 4246 H 404.502 3.86164 -1.3924 0
M  V30 4247 H 403.163 3.09984 -0.506816 0
M  V30 4248 H 402.356 4.36107 -2.52639 0
M  V30 4249 H 401.958 2.63221 -2.65689 0
M  V30 4250 H 404.25 5.56449 -3.86485 0
M  V30 4251 H 405.193 4.81493 -5.19202 0
M  V30 4252 H 405.601 4.43495 -3.49246 0
M  V30 4253 N 404.999 1.35443 0.805782 0
M  V30 4254 C 406.41 1.25768 1.37983 0
M  V30 4255 C 406.761 -0.10958 1.95894 0
M  V30 4256 O 405.886 -1.01056 1.91355 0
M  V30 4257 C 406.481 2.27727 2.5085 0
M  V30 4258 C 405.04 2.2179 3.04115 0
M  V30 4259 C 404.187 2.13393 1.77084 0
M  V30 4260 H 407.138 1.4656 0.608752 0
M  V30 4261 H 407.159 1.90422 3.29424 0
M  V30 4262 H 406.671 3.27227 2.08671 0
M  V30 4263 H 404.772 1.25703 3.50756 0
M  V30 4264 H 404.885 3.13788 3.62042 0
M  V30 4265 H 403.249 1.59384 1.98668 0
M  V30 4266 H 404.032 3.14755 1.37056 0
M  V30 4267 N 406.477 -1.02803 1.19454 0
M  V30 4268 C 407.726 -1.7562 0.991996 0
M  V30 4269 C 408.039 -1.89672 -0.477901 0
M  V30 4270 O 409.245 -2.59468 -0.799287 0
M  V30 4271 C 407.701 -3.15812 1.72601 0
M  V30 4272 C 407.309 -3.0981 3.23607 0
M  V30 4273 C 409.053 -3.92918 1.60674 0
M  V30 4274 C 406.96 -4.44939 3.89594 0
M  V30 4275 H 405.89 -0.658352 0.367543 0
M  V30 4276 H 408.541 -1.15044 1.42959 0
M  V30 4277 H 406.923 -3.7686 1.21624 0
M  V30 4278 H 408.097 -2.58138 3.81709 0
M  V30 4279 H 406.412 -2.46201 3.35819 0
M  V30 4280 H 409.009 -4.9287 2.07323 0
M  V30 4281 H 409.352 -4.12502 0.561025 0
M  V30 4282 H 409.885 -3.38472 2.09001 0
M  V30 4283 H 406.624 -4.30559 4.94267 0
M  V30 4284 H 406.144 -4.96664 3.36281 0
M  V30 4285 H 407.823 -5.1382 3.93189 0
M  V30 4286 N 407.956 -0.998596 -1.21925 0
M  V30 4287 C 408.866 -0.562736 -2.27751 0
M  V30 4288 C 409.882 0.391203 -1.69545 0
M  V30 4289 O 411.058 0.256625 -1.99758 0
M  V30 4290 C 408.123 0.11012 -3.46525 0
M  V30 4291 C 407.184 -0.887495 -4.20026 0
M  V30 4292 C 406.417 -0.246654 -5.3313 0
M  V30 4293 O 406.64 0.958088 -5.62296 0
M  V30 4294 O 405.574 -0.954374 -5.94286 0
M  V30 4295 H 409.4 -1.44329 -2.67213 0
M  V30 4296 H 406.985 -0.767135 -1.28201 0
M  V30 4297 H 408.867 0.486756 -4.18579 0
M  V30 4298 H 407.542 0.965154 -3.08976 0
M  V30 4299 H 406.449 -1.31517 -3.5022 0
M  V30 4300 H 407.782 -1.71191 -4.6147 0
M  V30 4301 N 409.434 1.37368 -0.772513 0
M  V30 4302 C 410.364 2.32856 -0.173304 0
M  V30 4303 C 411.345 1.55818 0.682262 0
M  V30 4304 O 412.53 1.84052 0.619566 0
M  V30 4305 C 409.66 3.40048 0.706007 0
M  V30 4306 C 408.614 4.27973 -0.0483144 0
M  V30 4307 C 407.94 5.26184 0.950491 0
M  V30 4308 C 409.24 5.07665 -1.22776 0
M  V30 4309 H 410.934 2.83217 -0.971002 0
M  V30 4310 H 408.48 1.3617 -0.468377 0
M  V30 4311 H 410.433 4.05827 1.13501 0
M  V30 4312 H 409.157 2.88214 1.53623 0
M  V30 4313 H 407.816 3.63726 -0.458107 0
M  V30 4314 H 407.464 4.7063 1.77529 0
M  V30 4315 H 407.164 5.85872 0.450314 0
M  V30 4316 H 408.688 5.94838 1.37842 0
M  V30 4317 H 410.102 5.66578 -0.875366 0
M  V30 4318 H 408.499 5.76681 -1.66007 0
M  V30 4319 H 409.569 4.40294 -2.03149 0
M  V30 4320 N 410.912 0.523116 1.48665 0
M  V30 4321 C 412.159 -0.0134763 2.02496 0
M  V30 4322 C 412.487 -1.3493 1.40086 0
M  V30 4323 O 411.742 -1.88286 0.533567 0
M  V30 4324 C 412.041 -0.191671 3.56886 0
M  V30 4325 C 411.707 1.06893 4.38046 0
M  V30 4326 C 410.369 1.41443 4.59943 0
M  V30 4327 C 412.721 1.90584 4.85106 0
M  V30 4328 C 410.049 2.59594 5.26144 0
M  V30 4329 C 412.401 3.07907 5.52609 0
M  V30 4330 C 411.065 3.42811 5.72745 0
M  V30 4331 H 410.335 -0.00493133 0.740984 0
M  V30 4332 H 412.982 0.687751 1.78724 0
M  V30 4333 H 411.287 -0.97561 3.79459 0
M  V30 4334 H 412.984 -0.621659 3.96152 0
M  V30 4335 H 409.574 0.789848 4.21259 0
M  V30 4336 H 413.758 1.65203 4.67997 0
M  V30 4337 H 409.014 2.86847 5.39934 0
M  V30 4338 H 413.188 3.73066 5.88043 0
M  V30 4339 H 410.815 4.34462 6.23816 0
M  V30 4340 N 412.39 -1.55475 0.257931 0
M  V30 4341 C 413.322 -2.19192 -0.669881 0
M  V30 4342 C 414.335 -1.17148 -1.1305 0
M  V30 4343 O 415.524 -1.43959 -1.05537 0
M  V30 4344 C 412.624 -2.79016 -1.92363 0
M  V30 4345 C 411.797 -4.06586 -1.61265 0
M  V30 4346 C 410.856 -4.50622 -2.7171 0
M  V30 4347 O 409.882 -5.16765 -2.38627 0
M  V30 4348 N 411.084 -4.19325 -4.01431 0
M  V30 4349 H 413.849 -2.99441 -0.124635 0
M  V30 4350 H 411.41 -1.6171 0.0783311 0
M  V30 4351 H 413.402 -3.05427 -2.65511 0
M  V30 4352 H 411.972 -2.0286 -2.37837 0
M  V30 4353 H 411.192 -3.87646 -0.715811 0
M  V30 4354 H 412.48 -4.89737 -1.37967 0
M  V30 4355 H 411.878 -3.66247 -4.31138 0
M  V30 4356 H 410.435 -4.50547 -4.7101 0
M  V30 4357 N 413.868 0.0150385 -1.57593 0
M  V30 4358 C 414.815 1.01126 -2.07466 0
M  V30 4359 C 415.785 1.35064 -0.966794 0
M  V30 4360 O 416.97 1.4516 -1.23827 0
M  V30 4361 C 414.11 2.30276 -2.57035 0
M  V30 4362 C 413.223 2.02373 -3.81666 0
M  V30 4363 C 412.358 3.25496 -4.19793 0
M  V30 4364 C 411.397 2.93211 -5.37303 0
M  V30 4365 N 410.534 4.08826 -5.70794 0
M  V30 4366 H 415.374 0.57901 -2.92321 0
M  V30 4367 H 412.911 0.27426 -1.44521 0
M  V30 4368 H 414.869 3.05757 -2.83846 0
M  V30 4369 H 413.499 2.71197 -1.75077 0
M  V30 4370 H 412.551 1.17327 -3.61854 0
M  V30 4371 H 413.863 1.74567 -4.67256 0
M  V30 4372 H 413.017 4.09333 -4.47807 0
M  V30 4373 H 411.756 3.56428 -3.32882 0
M  V30 4374 H 410.761 2.07777 -5.09027 0
M  V30 4375 H 411.986 2.63542 -6.25877 0
M  V30 4376 H 409.932 4.39682 -4.86842 0
M  V30 4377 H 409.849 3.84491 -6.50924 0
M  V30 4378 H 411.117 4.93496 -6.03392 0
M  V30 4379 N 415.346 1.54954 0.287554 0
M  V30 4380 C 416.276 1.89839 1.35954 0
M  V30 4381 C 417.257 0.758675 1.52244 0
M  V30 4382 O 418.442 1.01557 1.65529 0
M  V30 4383 C 415.572 2.15753 2.72154 0
M  V30 4384 C 414.526 3.3159 2.70614 0
M  V30 4385 C 413.852 3.42952 4.10229 0
M  V30 4386 C 415.152 4.68359 2.31165 0
M  V30 4387 H 416.846 2.79625 1.07007 0
M  V30 4388 H 414.392 1.3454 0.513316 0
M  V30 4389 H 416.345 2.38743 3.47246 0
M  V30 4390 H 415.069 1.22752 3.02654 0
M  V30 4391 H 413.728 3.08545 1.97979 0
M  V30 4392 H 413.376 2.47443 4.37928 0
M  V30 4393 H 413.076 4.20826 4.10097 0
M  V30 4394 H 414.6 3.68218 4.87081 0
M  V30 4395 H 416.014 4.9099 2.95976 0
M  V30 4396 H 414.411 5.49044 2.42221 0
M  V30 4397 H 415.481 4.68165 1.26291 0
M  V30 4398 N 416.824 -0.551391 1.4764 0
M  V30 4399 C 417.771 -1.65796 1.60563 0
M  V30 4400 C 418.741 -1.59932 0.448428 0
M  V30 4401 O 419.926 -1.78679 0.669222 0
M  V30 4402 C 417.066 -3.04108 1.63133 0
M  V30 4403 C 416.179 -3.20365 2.89811 0
M  V30 4404 C 415.314 -4.49109 2.8368 0
M  V30 4405 C 414.353 -4.58819 4.05156 0
M  V30 4406 N 413.49 -5.78926 3.97227 0
M  V30 4407 H 418.33 -1.54088 2.5507 0
M  V30 4408 H 415.867 -0.75052 1.26513 0
M  V30 4409 H 417.825 -3.84207 1.62606 0
M  V30 4410 H 416.455 -3.14637 0.721341 0
M  V30 4411 H 415.507 -2.33659 3.00179 0
M  V30 4412 H 416.819 -3.23402 3.79753 0
M  V30 4413 H 415.973 -5.37475 2.81434 0
M  V30 4414 H 414.712 -4.4856 1.91431 0
M  V30 4415 H 413.717 -3.68864 4.077 0
M  V30 4416 H 414.942 -4.61124 4.98539 0
M  V30 4417 H 412.888 -5.79314 3.07785 0
M  V30 4418 H 412.805 -5.83367 4.80853 0
M  V30 4419 H 414.073 -6.69637 3.99007 0
M  V30 4420 N 418.302 -1.35869 -0.798587 0
M  V30 4421 C 419.249 -1.29446 -1.91082 0
M  V30 4422 C 420.219 -0.16487 -1.6528 0
M  V30 4423 O 421.404 -0.349888 -1.87564 0
M  V30 4424 C 418.544 -1.0804 -3.27752 0
M  V30 4425 C 417.657 -2.29993 -3.65687 0
M  V30 4426 C 416.792 -2.01673 -4.91428 0
M  V30 4427 C 415.831 -3.19636 -5.22015 0
M  V30 4428 N 414.968 -2.91039 -6.38937 0
M  V30 4429 H 419.808 -2.24553 -1.95907 0
M  V30 4430 H 417.345 -1.11615 -0.958148 0
M  V30 4431 H 419.303 -0.936586 -4.06551 0
M  V30 4432 H 417.933 -0.16592 -3.22373 0
M  V30 4433 H 416.985 -2.55211 -2.82085 0
M  V30 4434 H 418.297 -3.18052 -3.84245 0
M  V30 4435 H 417.451 -1.84168 -5.78072 0
M  V30 4436 H 416.19 -1.10911 -4.74921 0
M  V30 4437 H 415.195 -3.37709 -4.33858 0
M  V30 4438 H 416.42 -4.11211 -5.40447 0
M  V30 4439 H 414.366 -2.0288 -6.2384 0
M  V30 4440 H 414.283 -3.72635 -6.57784 0
M  V30 4441 H 415.551 -2.77093 -7.28587 0
M  V30 4442 N 419.78 1.02168 -1.19998 0
M  V30 4443 C 420.69 2.14069 -0.959774 0
M  V30 4444 C 421.706 1.73804 0.082655 0
M  V30 4445 O 422.882 2.01133 -0.103633 0
M  V30 4446 C 419.947 3.42936 -0.509459 0
M  V30 4447 C 419.008 3.97474 -1.62213 0
M  V30 4448 C 418.241 5.2019 -1.19321 0
M  V30 4449 O 418.464 5.70369 -0.0597726 0
M  V30 4450 O 417.398 5.67749 -1.99863 0
M  V30 4451 H 421.224 2.37199 -1.89658 0
M  V30 4452 H 418.809 1.12469 -0.983411 0
M  V30 4453 H 420.691 4.20551 -0.267322 0
M  V30 4454 H 419.366 3.21234 0.398821 0
M  V30 4455 H 418.273 3.21161 -1.9185 0
M  V30 4456 H 419.606 4.23555 -2.50723 0
M  V30 4457 N 421.258 1.00505 1.21394 0
M  V30 4458 C 422.507 0.683159 1.89778 0
M  V30 4459 C 422.82 -0.789471 1.7896 0
M  V30 4460 O 424.026 -1.22344 2.42372 0
M  V30 4461 C 422.482 1.17146 3.40301 0
M  V30 4462 C 422.09 2.67017 3.5973 0
M  V30 4463 C 423.834 0.924461 4.14311 0
M  V30 4464 C 421.741 3.09387 5.04017 0
M  V30 4465 H 420.671 0.25183 0.710702 0
M  V30 4466 H 423.322 1.21622 1.37406 0
M  V30 4467 H 421.704 0.566451 3.91928 0
M  V30 4468 H 422.878 3.32968 3.18542 0
M  V30 4469 H 421.193 2.89732 2.99073 0
M  V30 4470 H 423.79 1.21658 5.20676 0
M  V30 4471 H 424.133 -0.139286 4.16067 0
M  V30 4472 H 424.666 1.49226 3.6875 0
M  V30 4473 H 421.405 4.14989 5.07409 0
M  V30 4474 H 420.925 2.48149 5.46061 0
M  V30 4475 H 422.604 3.01371 5.72525 0
M  V30 4476 N 422.737 -1.36956 0.779787 0
M  V30 4477 C 424.148 -1.82094 0.412156 0
M  V30 4478 C 424.499 -1.64926 -1.06273 0
M  V30 4479 O 423.624 -1.16483 -1.82375 0
M  V30 4480 C 424.219 -3.3059 0.741319 0
M  V30 4481 C 422.778 -3.73974 0.426641 0
M  V30 4482 C 421.925 -2.59368 0.980987 0
M  V30 4483 H 424.876 -1.25314 0.973758 0
M  V30 4484 H 424.897 -3.80489 0.028887 0
M  V30 4485 H 424.409 -3.43054 1.81482 0
M  V30 4486 H 422.51 -3.67076 -0.639215 0
M  V30 4487 H 422.623 -4.69778 0.940515 0
M  V30 4488 H 420.987 -2.51463 0.404757 0
M  V30 4489 H 421.77 -2.74621 2.06005 0
M  V30 4490 N 424.215 -0.530993 -1.48385 0
M  V30 4491 C 425.163 0.244595 -2.3131 0
M  V30 4492 C 426.157 0.93451 -1.41291 0
M  V30 4493 O 427.363 0.85878 -1.58193 0
M  V30 4494 H 423.738 0.0977472 -0.74562 0
M  V30 4495 H 425.709 -0.474369 -2.94605 0
M  V30 4496 C 424.458 1.2779 -3.23365 0
M  V30 4497 H 423.781 0.756439 -3.92579 0
M  V30 4498 H 425.221 1.79198 -3.84271 0
M  V30 4499 C 423.68 2.31205 -2.45042 0
M  V30 4500 O 424.21 3.37661 -2.17596 0
M  V30 4501 N 422.416 2.04446 -2.0652 0
M  V30 4502 H 421.963 1.17891 -2.2904 0
M  V30 4503 H 421.921 2.73861 -1.54427 0
M  V30 4504 N 425.693 1.55336 -0.266172 0
M  V30 4505 C 426.603 2.2583 0.635458 0
M  V30 4506 C 427.619 1.28106 1.17749 0
M  V30 4507 O 428.795 1.61024 1.20968 0
M  V30 4508 C 425.86 2.95879 1.80712 0
M  V30 4509 C 424.921 4.09059 1.30265 0
M  V30 4510 C 424.154 4.75759 2.41846 0
M  V30 4511 O 424.377 4.41622 3.61007 0
M  V30 4512 O 423.311 5.63888 2.1051 0
M  V30 4513 H 427.137 3.03631 0.0646693 0
M  V30 4514 H 424.722 1.49361 -0.0339177 0
M  V30 4515 H 426.604 3.39932 2.49047 0
M  V30 4516 H 425.279 2.21002 2.36516 0
M  V30 4517 H 424.186 3.69482 0.586019 0
M  V30 4518 H 425.519 4.85811 0.790458 0
M  V30 4519 N 427.171 -0.0066808 1.57599 0
M  V30 4520 C 428.417 -0.693947 1.90558 0
M  V30 4521 C 428.75 -1.73792 0.866594 0
M  V30 4522 O 428.025 -1.94156 -0.115548 0
M  V30 4523 C 428.308 -1.34317 3.34112 0
M  V30 4524 C 428.161 -0.311189 4.48722 0
M  V30 4525 C 429.48 -2.27116 3.7697 0
M  V30 4526 H 426.599 -0.250803 0.693013 0
M  V30 4527 H 429.241 0.043242 1.89951 0
M  V30 4528 H 427.391 -1.9715 3.3476 0
M  V30 4529 H 429.063 0.316944 4.6021 0
M  V30 4530 H 427.306 0.367253 4.32243 0
M  V30 4531 H 427.977 -0.804366 5.46108 0
M  V30 4532 H 430.453 -1.74306 3.77831 0
M  V30 4533 H 429.329 -2.69511 4.78179 0
M  V30 4534 H 429.59 -3.14743 3.10466 0
M  V30 4535 N 428.649 -1.55105 -0.279332 0
M  V30 4536 C 430.065 -1.46803 -0.626187 0
M  V30 4537 C 430.265 -0.676939 -1.89789 0
M  V30 4538 O 429.321 -0.19326 -2.51759 0
M  V30 4539 C 430.634 -2.90962 -0.759034 0
M  V30 4540 C 432.182 -3.01138 -0.853504 0
M  V30 4541 C 432.657 -4.46539 -1.01818 0
M  V30 4542 N 434.148 -4.50341 -1.08386 0
M  V30 4543 C 434.883 -5.60053 -1.22996 0
M  V30 4544 N 434.379 -6.79645 -1.34366 0
M  V30 4545 N 436.172 -5.47783 -1.26056 0
M  V30 4546 H 428.323 -2.04996 0.555921 0
M  V30 4547 H 430.586 -0.929325 0.187239 0
M  V30 4548 H 430.292 -3.51544 0.104852 0
M  V30 4549 H 430.166 -3.39619 -1.64131 0
M  V30 4550 H 432.553 -2.40658 -1.70786 0
M  V30 4551 H 432.634 -2.55745 0.0532466 0
M  V30 4552 H 432.278 -5.0762 -0.168504 0
M  V30 4553 H 432.208 -4.89583 -1.93948 0
M  V30 4554 H 434.699 -3.64191 -1.00864 0
M  V30 4555 H 435.012 -7.59012 -1.4533 0
M  V30 4556 H 433.357 -6.82469 -1.31382 0
M  V30 4557 H 436.548 -4.53294 -1.168 0
M  V30 4558 H 436.721 -6.33331 -1.37098 0
M  V30 4559 N 430.127 0.543554 -1.4793 0
M  V30 4560 C 431.373 1.30201 -1.55485 0
M  V30 4561 C 431.706 1.92925 -0.222201 0
M  V30 4562 O 430.981 1.78586 0.77053 0
M  V30 4563 C 431.264 2.40174 -2.68307 0
M  V30 4564 C 431.117 1.8223 -4.11233 0
M  V30 4565 C 432.436 3.42024 -2.76961 0
M  V30 4566 H 429.555 0.472036 -0.565996 0
M  V30 4567 H 432.197 0.606914 -1.80046 0
M  V30 4568 H 430.347 2.99463 -2.47495 0
M  V30 4569 H 432.019 1.27096 -4.43446 0
M  V30 4570 H 430.262 1.12832 -4.18869 0
M  V30 4571 H 430.933 2.61793 -4.85972 0
M  V30 4572 H 433.409 2.92672 -2.95774 0
M  V30 4573 H 432.285 4.16383 -3.57654 0
M  V30 4574 H 432.546 4.0173 -1.84568 0
M  V30 4575 N 431.605 1.3629 0.791371 0
M  V30 4576 C 432.882 1.20962 1.53712 0
M  V30 4577 C 433.262 -0.205021 2.10102 0
M  V30 4578 O 432.61 -1.21042 1.93807 0
M  V30 4579 C 432.82 2.29002 2.63361 0
M  V30 4580 C 434.168 2.65572 3.31295 0
M  V30 4581 O 435.192 2.2803 2.73643 0
M  V30 4582 O 434.051 3.3018 4.35481 0
M  V30 4583 H 431.145 0.47086 0.679867 0
M  V30 4584 H 433.691 1.48016 0.830021 0
M  V30 4585 H 432.463 3.2382 2.19674 0
M  V30 4586 H 432.086 2.03303 3.41692 0
M  V30 4587 N 433.083 -1.0153 1.20538 0
M  V30 4588 C 434.494 -1.56598 1.01657 0
M  V30 4589 C 434.845 -1.91505 -0.426668 0
M  V30 4590 O 433.97 -1.72375 -1.30827 0
M  V30 4591 C 434.565 -2.84542 1.83905 0
M  V30 4592 C 433.124 -3.36133 1.69386 0
M  V30 4593 C 432.271 -2.09427 1.81757 0
M  V30 4594 H 435.222 -0.838974 1.34711 0
M  V30 4595 H 435.243 -3.56004 1.34319 0
M  V30 4596 H 434.755 -2.59105 2.8894 0
M  V30 4597 H 432.856 -3.66528 0.669933 0
M  V30 4598 H 432.969 -4.08248 2.50739 0
M  V30 4599 H 431.333 -2.21941 1.24957 0
M  V30 4600 H 432.116 -1.86414 2.88279 0
M  V30 4601 N 434.561 -1.01147 -1.20859 0
M  V30 4602 C 435.791 -0.715872 -1.93801 0
M  V30 4603 C 436.199 0.726592 -1.74692 0
M  V30 4604 O 435.542 1.50397 -1.05482 0
M  V30 4605 C 435.604 -0.965269 -3.46299 0
M  V30 4606 C 435.268 -2.39584 -3.89164 0
M  V30 4607 C 436.265 -3.3764 -3.95342 0
M  V30 4608 C 433.95 -2.73522 -4.21297 0
M  V30 4609 C 435.944 -4.67698 -4.33056 0
M  V30 4610 C 433.631 -4.03794 -4.58687 0
M  V30 4611 C 434.629 -5.00693 -4.64538 0
M  V30 4612 O 434.317 -6.28635 -5.01072 0
M  V30 4613 H 434.049 -0.262524 -0.622942 0
M  V30 4614 H 436.603 -1.35413 -1.54443 0
M  V30 4615 H 434.833 -0.269847 -3.85757 0
M  V30 4616 H 436.522 -0.662051 -4.00464 0
M  V30 4617 H 437.288 -3.12757 -3.70686 0
M  V30 4618 H 433.167 -1.9879 -4.15937 0
M  V30 4619 H 436.711 -5.4333 -4.37537 0
M  V30 4620 H 432.608 -4.28459 -4.82797 0
M  V30 4621 H 433.376 -6.32847 -5.19083 0
M  V30 4622 N 436.039 1.36541 -0.78704 0
M  V30 4623 C 436.969 2.32659 -0.197992 0
M  V30 4624 C 437.95 1.56533 0.665697 0
M  V30 4625 O 439.135 1.84698 0.60001 0
M  V30 4626 C 436.265 3.40778 0.669901 0
M  V30 4627 C 435.219 4.27897 -0.0937039 0
M  V30 4628 C 434.545 5.27163 0.894629 0
M  V30 4629 C 435.845 5.06334 -1.28154 0
M  V30 4630 H 437.539 2.82171 -1.00099 0
M  V30 4631 H 435.085 1.35665 -0.482793 0
M  V30 4632 H 437.038 4.07008 1.09191 0
M  V30 4633 H 435.762 2.89827 1.50558 0
M  V30 4634 H 434.421 3.6322 -0.49666 0
M  V30 4635 H 434.069 4.72486 1.72527 0
M  V30 4636 H 433.769 5.86317 0.388149 0
M  V30 4637 H 435.293 5.96266 1.31525 0
M  V30 4638 H 436.707 5.65617 -0.93541 0
M  V30 4639 H 435.104 5.74888 -1.72115 0
M  V30 4640 H 436.174 4.38114 -2.07807 0
M  V30 4641 N 437.518 0.538854 1.48102 0
M  V30 4642 C 438.758 0.0101209 2.04397 0
M  V30 4643 C 439.122 -1.30741 1.40609 0
M  V30 4644 O 440.323 -1.92272 1.87843 0
M  V30 4645 C 438.594 -0.100232 3.57259 0
M  V30 4646 S 440.153 -0.577746 4.3498 0
M  V30 4647 H 436.971 0.0163171 0.710813 0
M  V30 4648 H 439.573 0.721429 1.81702 0
M  V30 4649 H 438.277 0.863351 4.01216 0
M  V30 4650 H 437.808 -0.835651 3.84422 0
M  V30 4651 H 439.823 -1.84073 4.60794 0
M  V30 4652 N 438.996 -1.55193 0.274407 0
M  V30 4653 C 440.224 -2.03987 -0.345943 0
M  V30 4654 C 440.639 -1.15279 -1.4952 0
M  V30 4655 O 439.996 -0.172759 -1.8168 0
M  V30 4656 C 440.047 -3.51898 -0.827631 0
M  V30 4657 O 439.768 -4.37231 0.275855 0
M  V30 4658 C 441.269 -4.16577 -1.51587 0
M  V30 4659 H 438.489 -0.666335 -0.0789892 0
M  V30 4660 H 441.033 -2.00423 0.406294 0
M  V30 4661 H 439.188 -3.55909 -1.52996 0
M  V30 4662 H 439.602 -5.24415 -0.0943638 0
M  V30 4663 H 441.076 -5.21678 -1.80433 0
M  V30 4664 H 441.553 -3.64707 -2.44716 0
M  V30 4665 H 442.159 -4.16568 -0.857409 0
M  V30 4666 N 440.474 -0.00167713 -1.576 0
M  V30 4667 C 441.704 0.692754 -1.94639 0
M  V30 4668 C 442.112 1.67744 -0.87513 0
M  V30 4669 O 441.455 1.8305 0.154382 0
M  V30 4670 C 441.517 1.47881 -3.27676 0
M  V30 4671 C 441.181 0.655518 -4.52274 0
M  V30 4672 C 442.178 -0.0575214 -5.19868 0
M  V30 4673 C 439.863 0.600994 -4.98692 0
M  V30 4674 C 441.857 -0.814052 -6.3218 0
M  V30 4675 C 439.544 -0.15926 -6.10892 0
M  V30 4676 C 440.542 -0.865515 -6.77494 0
M  V30 4677 O 440.23 -1.61336 -7.87544 0
M  V30 4678 H 439.962 0.197792 -0.646417 0
M  V30 4679 H 442.516 -0.049423 -2.05341 0
M  V30 4680 H 440.746 2.2655 -3.13388 0
M  V30 4681 H 442.435 2.05874 -3.49816 0
M  V30 4682 H 443.201 -0.0245611 -4.84994 0
M  V30 4683 H 439.08 1.14025 -4.46676 0
M  V30 4684 H 442.624 -1.36584 -6.84098 0
M  V30 4685 H 438.521 -0.194035 -6.45208 0
M  V30 4686 H 439.289 -1.53025 -8.04068 0
M  V30 4687 N 441.952 1.55251 0.271103 0
M  V30 4688 C 443.182 1.79713 1.01916 0
M  V30 4689 C 443.59 0.571613 1.80359 0
M  V30 4690 O 442.933 -0.468853 1.77616 0
M  V30 4691 C 442.995 2.97138 2.02359 0
M  V30 4692 C 442.659 4.34104 1.42837 0
M  V30 4693 C 443.656 5.13019 0.843071 0
M  V30 4694 C 441.341 4.80765 1.455 0
M  V30 4695 C 443.335 6.36729 0.292333 0
M  V30 4696 C 441.022 6.0443 0.900402 0
M  V30 4697 C 442.02 6.8225 0.32007 0
M  V30 4698 O 441.708 8.03582 -0.226031 0
M  V30 4699 H 441.44 0.602431 0.306681 0
M  V30 4700 H 443.994 2.03097 0.306701 0
M  V30 4701 H 442.224 2.6945 2.77369 0
M  V30 4702 H 443.913 3.08907 2.63309 0
M  V30 4703 H 444.679 4.781 0.815178 0
M  V30 4704 H 440.558 4.20202 1.89609 0
M  V30 4705 H 444.102 6.97414 -0.161274 0
M  V30 4706 H 439.999 6.3883 0.925541 0
M  V30 4707 H 440.767 8.18418 -0.115572 0
M  V30 4708 N 443.43 -0.535701 1.48216 0
M  V30 4709 C 444.66 -1.3148 1.59363 0
M  V30 4710 C 445.068 -1.8753 0.250844 0
M  V30 4711 O 444.411 -1.66821 -0.769174 0
M  V30 4712 C 444.473 -2.50731 2.57632 0
M  V30 4713 C 444.137 -2.15811 4.02833 0
M  V30 4714 C 445.134 -1.71822 4.90686 0
M  V30 4715 C 442.819 -2.26509 4.48329 0
M  V30 4716 C 444.813 -1.3899 6.22062 0
M  V30 4717 C 442.5 -1.93289 5.79726 0
M  V30 4718 C 443.498 -1.49599 6.66415 0
M  V30 4719 O 443.186 -1.16812 7.95368 0
M  V30 4720 H 442.918 -0.406315 0.540263 0
M  V30 4721 H 445.472 -0.653569 1.94725 0
M  V30 4722 H 443.702 -3.19817 2.1738 0
M  V30 4723 H 445.391 -3.12797 2.58675 0
M  V30 4724 H 446.157 -1.63031 4.56778 0
M  V30 4725 H 442.036 -2.59471 3.81045 0
M  V30 4726 H 445.58 -1.04816 6.89681 0
M  V30 4727 H 441.477 -2.01718 6.13172 0
M  V30 4728 H 442.245 -1.30259 8.08069 0
M  V30 4729 N 444.908 -1.36708 -0.784132 0
M  V30 4730 C 445.818 -1.3363 -1.92822 0
M  V30 4731 C 446.834 -0.237686 -1.72369 0
M  V30 4732 O 448.01 -0.470962 -1.95816 0
M  V30 4733 C 445.075 -1.13011 -3.27764 0
M  V30 4734 C 444.136 -2.32397 -3.60957 0
M  V30 4735 C 443.369 -2.12752 -4.89461 0
M  V30 4736 O 443.592 -1.10541 -5.59586 0
M  V30 4737 O 442.526 -3.00653 -5.21432 0
M  V30 4738 H 446.352 -2.29964 -1.98369 0
M  V30 4739 H 443.937 -1.1731 -0.925136 0
M  V30 4740 H 445.819 -1.03451 -4.08504 0
M  V30 4741 H 444.494 -0.19743 -3.23097 0
M  V30 4742 H 443.401 -2.47527 -2.80502 0
M  V30 4743 H 444.734 -3.2419 -3.70354 0
M  V30 4744 N 446.386 1.0089 -1.21074 0
M  V30 4745 C 447.635 1.74019 -1.01981 0
M  V30 4746 C 447.948 1.90408 0.447665 0
M  V30 4747 O 449.154 2.60707 0.757906 0
M  V30 4748 C 447.61 3.13026 -1.77603 0
M  V30 4749 C 447.218 3.04623 -3.28495 0
M  V30 4750 C 448.962 3.90312 -1.66904 0
M  V30 4751 C 446.869 4.38685 -3.96623 0
M  V30 4752 H 445.799 0.652422 -0.377971 0
M  V30 4753 H 448.45 1.12755 -1.44771 0
M  V30 4754 H 446.832 3.74878 -1.27604 0
M  V30 4755 H 448.006 2.52032 -3.85767 0
M  V30 4756 H 446.321 2.40827 -3.39693 0
M  V30 4757 H 448.918 4.8951 -2.15138 0
M  V30 4758 H 449.261 4.11558 -0.62658 0
M  V30 4759 H 449.794 3.35104 -2.14359 0
M  V30 4760 H 446.533 4.22641 -5.01054 0
M  V30 4761 H 446.053 4.91252 -3.4414 0
M  V30 4762 H 447.732 5.075 -4.01314 0
M  V30 4763 N 447.864 1.01787 1.20321 0
M  V30 4764 C 448.812 0.58254 2.25187 0
M  V30 4765 C 449.806 -0.379359 1.65098 0
M  V30 4766 O 451.012 -0.249142 1.78267 0
M  V30 4767 H 447.387 0.170078 0.732514 0
M  V30 4768 H 449.358 1.47788 2.59232 0
M  V30 4769 C 448.107 -0.0620885 3.47645 0
M  V30 4770 H 447.43 0.669069 3.94162 0
M  V30 4771 H 448.87 -0.329784 4.22716 0
M  V30 4772 C 447.329 -1.3053 3.10586 0
M  V30 4773 O 447.859 -2.39848 3.22236 0
M  V30 4774 N 446.065 -1.18988 2.65123 0
M  V30 4775 H 445.612 -0.300341 2.55843 0
M  V30 4776 H 445.57 -2.02267 2.40698 0
M  V30 4777 N 449.342 -1.36122 0.79427 0
M  V30 4778 C 450.29 -2.31871 0.184023 0
M  V30 4779 C 451.284 -1.56041 -0.659365 0
M  V30 4780 O 452.49 -1.71266 -0.553906 0
M  V30 4781 H 448.865 -0.750896 0.0407373 0
M  V30 4782 H 450.836 -2.80898 1.00693 0
M  V30 4783 C 449.585 -3.41324 -0.662813 0
M  V30 4784 H 448.908 -3.99793 -0.0231944 0
M  V30 4785 H 450.348 -4.10629 -1.05639 0
M  V30 4786 C 448.807 -2.83308 -1.82313 0
M  V30 4787 O 449.337 -2.75863 -2.91997 0
M  V30 4788 N 447.543 -2.40529 -1.63077 0
M  V30 4789 H 447.09 -2.46785 -0.738591 0
M  V30 4790 H 447.048 -2.02059 -2.40872 0
M  V30 4791 N 450.82 -0.546701 -1.47814 0
M  V30 4792 C 451.752 0.244196 -2.27895 0
M  V30 4793 C 452.765 0.88911 -1.36377 0
M  V30 4794 O 453.954 0.764733 -1.61289 0
M  V30 4795 C 451.054 1.36252 -3.10304 0
M  V30 4796 C 450.227 0.816382 -4.29714 0
M  V30 4797 C 449.286 1.81789 -4.93801 0
M  V30 4798 O 448.312 1.36818 -5.52512 0
M  V30 4799 N 449.514 3.15085 -4.87547 0
M  V30 4800 H 452.279 -0.442694 -2.96412 0
M  V30 4801 H 449.84 -0.382095 -1.57327 0
M  V30 4802 H 451.832 2.03102 -3.50045 0
M  V30 4803 H 450.402 1.95281 -2.44099 0
M  V30 4804 H 449.622 -0.0285981 -3.9419 0
M  V30 4805 H 450.91 0.430668 -5.06974 0
M  V30 4806 H 450.308 3.54275 -4.41028 0
M  V30 4807 H 448.865 3.77522 -5.31339 0
M  V30 4808 N 452.299 1.55045 -0.282633 0
M  V30 4809 C 453.246 2.22822 0.601566 0
M  V30 4810 C 454.216 1.20431 1.14392 0
M  V30 4811 O 455.401 1.48996 1.19184 0
M  V30 4812 C 452.541 2.95873 1.77632 0
M  V30 4813 C 451.654 4.12999 1.26711 0
M  V30 4814 C 450.789 4.73676 2.40426 0
M  V30 4815 C 449.828 5.82981 1.86545 0
M  V30 4816 N 448.965 6.3769 2.93762 0
M  V30 4817 H 453.805 2.97995 0.0169528 0
M  V30 4818 H 451.342 1.471 -0.00339964 0
M  V30 4819 H 453.3 3.36447 2.46697 0
M  V30 4820 H 451.93 2.2311 2.33285 0
M  V30 4821 H 450.982 3.77494 0.469314 0
M  V30 4822 H 452.294 4.91803 0.832518 0
M  V30 4823 H 451.448 5.17008 3.17471 0
M  V30 4824 H 450.187 3.94164 2.87203 0
M  V30 4825 H 449.192 5.39092 1.07983 0
M  V30 4826 H 450.417 6.64366 1.40694 0
M  V30 4827 H 448.363 5.61069 3.39908 0
M  V30 4828 H 448.28 7.11788 2.54744 0
M  V30 4829 H 449.548 6.8568 3.7076 0
M  V30 4830 N 453.777 0.010035 1.57597 0
M  V30 4831 C 454.74 -0.963029 2.07986 0
M  V30 4832 C 455.74 -1.26619 0.991173 0
M  V30 4833 O 456.93 -1.2097 1.25347 0
M  V30 4834 C 454.062 -2.2851 2.52974 0
M  V30 4835 H 455.255 -0.526971 2.95234 0
M  V30 4836 H 452.808 -0.237639 1.54483 0
M  V30 4837 H 453.543 -2.76784 1.69 0
M  V30 4838 H 453.328 -2.07824 3.32493 0
M  V30 4839 H 454.818 -2.98294 2.9225 0
M  V30 4840 N 455.255 -1.55392 -0.262866 0
M  V30 4841 C 456.666 -1.67079 -0.833158 0
M  V30 4842 C 457.017 -0.604539 -1.86654 0
M  V30 4843 O 456.142 0.252138 -2.14926 0
M  V30 4844 C 456.737 -3.02891 -1.51797 0
M  V30 4845 C 455.296 -3.16571 -2.03617 0
M  V30 4846 C 454.443 -2.62909 -0.881701 0
M  V30 4847 H 457.394 -1.58652 -0.0389986 0
M  V30 4848 H 457.415 -2.96445 -2.38538 0
M  V30 4849 H 456.927 -3.80473 -0.765619 0
M  V30 4850 H 455.028 -2.43782 -2.81782 0
M  V30 4851 H 455.141 -4.23271 -2.24452 0
M  V30 4852 H 453.505 -2.20324 -1.27786 0
M  V30 4853 H 454.288 -3.43003 -0.14269 0
M  V30 4854 N 456.733 0.527833 -1.48498 0
M  V30 4855 C 457.98 1.28354 -1.56625 0
M  V30 4856 C 458.308 1.93 -0.241096 0
M  V30 4857 O 457.563 1.79967 0.768798 0
M  V30 4858 C 457.862 2.39275 -2.65485 0
M  V30 4859 C 457.528 1.92268 -4.07853 0
M  V30 4860 C 456.19 1.79166 -4.46602 0
M  V30 4861 C 458.542 1.56771 -4.97064 0
M  V30 4862 C 455.87 1.28905 -5.72364 0
M  V30 4863 C 458.222 1.07972 -6.23318 0
M  V30 4864 C 456.886 0.934887 -6.60921 0
M  V30 4865 H 456.156 0.469682 -0.573131 0
M  V30 4866 H 458.803 0.588781 -1.82224 0
M  V30 4867 H 457.108 3.1443 -2.33754 0
M  V30 4868 H 458.805 2.974 -2.68988 0
M  V30 4869 H 455.395 2.03417 -3.77252 0
M  V30 4870 H 459.579 1.65753 -4.67803 0
M  V30 4871 H 454.835 1.16381 -6.00221 0
M  V30 4872 H 459.009 0.795775 -6.91838 0
M  V30 4873 H 456.636 0.543231 -7.58257 0
M  V30 4874 N 458.211 1.37122 0.776871 0
M  V30 4875 C 459.159 1.32549 1.91138 0
M  V30 4876 C 460.153 0.215119 1.68029 0
M  V30 4877 O 461.359 0.382852 1.75881 0
M  V30 4878 H 457.734 0.412952 0.62847 0
M  V30 4879 H 459.705 2.28332 1.92112 0
M  V30 4880 C 458.454 1.14422 3.28333 0
M  V30 4881 H 457.777 1.99115 3.46689 0
M  V30 4882 H 459.217 1.15272 4.0803 0
M  V30 4883 C 457.676 -0.150434 3.36564 0
M  V30 4884 O 458.206 -1.13584 3.85307 0
M  V30 4885 N 456.412 -0.19939 2.89915 0
M  V30 4886 H 455.959 0.603142 2.5044 0
M  V30 4887 H 455.917 -1.06526 2.95803 0
M  V30 4888 N 459.689 -1.00246 1.21608 0
M  V30 4889 C 460.966 -1.71336 0.943568 0
M  V30 4890 C 461.346 -2.03972 -0.543943 0
M  V30 4891 O 460.694 -1.71545 -1.50946 0
M  V30 4892 C 460.904 -2.97094 1.83128 0
M  V30 4893 C 462.252 -3.70071 2.08165 0
M  V30 4894 O 463.276 -3.07081 1.80498 0
M  V30 4895 O 462.135 -4.83376 2.54971 0
M  V30 4896 H 459.229 -0.747386 0.354039 0
M  V30 4897 H 461.775 -1.05967 1.32549 0
M  V30 4898 H 460.547 -2.69407 2.83788 0
M  V30 4899 H 460.17 -3.70204 1.45034 0
M  V30 4900 N 461.167 -1.02423 -1.1978 0
M  V30 4901 C 462.413 -0.719051 -1.89625 0
M  V30 4902 C 462.746 0.750083 -1.7913 0
M  V30 4903 O 462.021 1.54574 -1.18056 0
M  V30 4904 C 462.304 -1.16499 -3.40735 0
M  V30 4905 C 462.157 -2.695 -3.60125 0
M  V30 4906 C 463.476 -0.742166 -4.33797 0
M  V30 4907 H 460.595 -0.26269 -0.688595 0
M  V30 4908 H 463.237 -1.27333 -1.41018 0
M  V30 4909 H 461.387 -0.69341 -3.82262 0
M  V30 4910 H 463.059 -3.24569 -3.278 0
M  V30 4911 H 461.302 -3.10113 -3.03336 0
M  V30 4912 H 461.973 -2.95757 -4.66081 0
M  V30 4913 H 464.449 -1.1477 -3.99959 0
M  V30 4914 H 463.325 -1.08213 -5.38127 0
M  V30 4915 H 463.586 0.355747 -4.40666 0
M  V30 4916 N 462.645 1.35699 -0.801477 0
M  V30 4917 C 464.061 1.52065 -0.484596 0
M  V30 4918 C 464.261 1.75215 0.995084 0
M  V30 4919 O 463.317 1.79061 1.78026 0
M  V30 4920 C 464.63 2.69908 -1.32552 0
M  V30 4921 C 466.178 2.83784 -1.32044 0
M  V30 4922 C 466.653 4.04646 -2.14536 0
M  V30 4923 N 468.144 4.11814 -2.12046 0
M  V30 4924 C 468.879 5.04437 -2.72636 0
M  V30 4925 N 468.375 6.02426 -3.42133 0
M  V30 4926 N 470.168 4.97144 -2.62305 0
M  V30 4927 H 462.319 1.18928 -1.75983 0
M  V30 4928 H 464.582 0.581455 -0.748741 0
M  V30 4929 H 464.288 2.59363 -2.37537 0
M  V30 4930 H 464.162 3.64376 -0.975181 0
M  V30 4931 H 466.549 2.93783 -0.27846 0
M  V30 4932 H 466.63 1.90188 -1.71062 0
M  V30 4933 H 466.274 3.95407 -3.18772 0
M  V30 4934 H 466.204 4.97413 -1.72882 0
M  V30 4935 H 468.695 3.41664 -1.61476 0
M  V30 4936 H 469.008 6.69688 -3.85666 0
M  V30 4937 H 467.353 6.02615 -3.46237 0
M  V30 4938 H 470.544 4.19546 -2.07603 0
M  V30 4939 H 470.717 5.69138 -3.09815 0
M  V30 4940 N 464.123 0.554532 1.47522 0
M  V30 4941 C 465.369 0.0295227 2.02779 0
M  V30 4942 C 465.702 -1.31582 1.42828 0
M  V30 4943 O 464.977 -1.85561 0.582872 0
M  V30 4944 C 465.26 -0.0664057 3.60039 0
M  V30 4945 C 465.113 1.30585 4.30427 0
M  V30 4946 C 466.432 -0.781162 4.33112 0
M  V30 4947 H 463.551 0.0122027 0.736899 0
M  V30 4948 H 466.193 0.716305 1.7598 0
M  V30 4949 H 464.343 -0.651307 3.83002 0
M  V30 4950 H 466.015 1.93374 4.18813 0
M  V30 4951 H 464.258 1.88125 3.90886 0
M  V30 4952 H 464.929 1.19147 5.38988 0
M  V30 4953 H 467.405 -0.284565 4.15126 0
M  V30 4954 H 466.281 -0.817237 5.42782 0
M  V30 4955 H 466.542 -1.83672 4.0214 0
M  V30 4956 N 465.601 -1.54893 0.290851 0
M  V30 4957 C 467.017 -1.59476 -0.0628432 0
M  V30 4958 C 467.217 -1.30795 -1.5328 0
M  V30 4959 O 466.273 -1.07644 -2.28406 0
M  V30 4960 C 467.586 -2.98928 0.325962 0
M  V30 4961 C 469.134 -3.11799 0.273882 0
M  V30 4962 C 469.609 -4.53544 0.637359 0
M  V30 4963 N 471.1 -4.59433 0.589507 0
M  V30 4964 C 471.835 -5.67164 0.84335 0
M  V30 4965 N 471.331 -6.82975 1.16263 0
M  V30 4966 N 473.124 -5.56786 0.771091 0
M  V30 4967 H 465.275 -1.71798 1.24896 0
M  V30 4968 H 467.538 -0.801879 0.505663 0
M  V30 4969 H 467.244 -3.24805 1.34887 0
M  V30 4970 H 467.118 -3.75793 -0.325441 0
M  V30 4971 H 469.505 -2.85677 -0.739765 0
M  V30 4972 H 469.586 -2.37112 0.959766 0
M  V30 4973 H 469.23 -4.80394 1.64877 0
M  V30 4974 H 469.16 -5.26553 -0.0704866 0
M  V30 4975 H 471.651 -3.76245 0.353252 0
M  V30 4976 H 471.964 -7.61048 1.34257 0
M  V30 4977 H 470.309 -6.84552 1.20057 0
M  V30 4978 H 473.5 -4.65187 0.521383 0
M  V30 4979 H 473.673 -6.40664 0.972295 0
M  V30 4980 N 467.08 -0.0183926 -1.57589 0
M  V30 4981 C 468.308 0.673046 -1.95647 0
M  V30 4982 C 468.723 1.66275 -0.894312 0
M  V30 4983 O 468.08 1.82072 0.124975 0
M  V30 4984 C 468.131 1.38884 -3.33756 0
M  V30 4985 O 467.852 0.438806 -4.35897 0
M  V30 4986 C 469.353 2.1731 -3.86383 0
M  V30 4987 H 466.573 0.186292 -0.644621 0
M  V30 4988 H 469.117 -0.0749748 -2.04363 0
M  V30 4989 H 467.272 2.08835 -3.26293 0
M  V30 4990 H 467.686 0.945869 -5.15901 0
M  V30 4991 H 469.16 2.62863 -4.85394 0
M  V30 4992 H 469.637 3.00764 -3.20059 0
M  V30 4993 H 470.243 1.52339 -3.97081 0
M  V30 4994 N 468.558 1.5553 0.254621 0
M  V30 4995 C 469.521 1.88872 1.29846 0
M  V30 4996 C 470.521 0.764591 1.41459 0
M  V30 4997 O 471.711 1.03265 1.40293 0
M  V30 4998 C 468.843 2.11032 2.67728 0
M  V30 4999 H 470.036 2.82201 1.01502 0
M  V30 5000 H 467.589 1.48303 0.493556 0
M  V30 5001 H 468.324 1.20146 3.01223 0
M  V30 5002 H 468.109 2.92895 2.60682 0
M  V30 5003 H 469.599 2.38038 3.43115 0
M  V30 5004 N 470.036 -0.519951 1.48776 0
M  V30 5005 C 470.966 -1.63253 1.66945 0
M  V30 5006 C 471.947 -1.62014 0.518224 0
M  V30 5007 O 473.132 -1.79053 0.751919 0
M  V30 5008 C 470.262 -3.0181 1.71836 0
M  V30 5009 C 469.216 -3.17911 2.8656 0
M  V30 5010 C 468.542 -4.5763 2.76548 0
M  V30 5011 C 469.842 -2.99729 4.27738 0
M  V30 5012 H 471.536 -1.48302 2.6009 0
M  V30 5013 H 469.082 -0.712026 1.25165 0
M  V30 5014 H 471.035 -3.79525 1.83135 0
M  V30 5015 H 469.759 -3.17806 0.752775 0
M  V30 5016 H 468.418 -2.42616 2.74833 0
M  V30 5017 H 468.066 -4.70476 1.77937 0
M  V30 5018 H 467.766 -4.69346 3.53536 0
M  V30 5019 H 469.29 -5.37431 2.89828 0
M  V30 5020 H 470.704 -3.67228 4.40246 0
M  V30 5021 H 469.101 -3.22932 5.05801 0
M  V30 5022 H 470.171 -1.96047 4.43502 0
M  V30 5023 N 471.514 -1.37532 -0.769588 0
M  V30 5024 C 472.461 -1.3347 -1.88293 0
M  V30 5025 C 473.431 -0.199891 -1.64893 0
M  V30 5026 O 474.616 -0.389594 -1.8678 0
M  V30 5027 C 471.756 -1.14968 -3.25387 0
M  V30 5028 C 470.869 -2.37698 -3.60727 0
M  V30 5029 C 470.004 -2.12051 -4.8704 0
M  V30 5030 C 469.043 -3.30636 -5.15117 0
M  V30 5031 N 468.18 -3.04527 -6.3262 0
M  V30 5032 H 473.02 -2.28658 -1.911 0
M  V30 5033 H 470.557 -1.13622 -0.934257 0
M  V30 5034 H 472.515 -1.02261 -4.04473 0
M  V30 5035 H 471.145 -0.234263 -3.21949 0
M  V30 5036 H 470.197 -2.61137 -2.76608 0
M  V30 5037 H 471.509 -3.26131 -3.77413 0
M  V30 5038 H 470.663 -1.96388 -5.74035 0
M  V30 5039 H 469.402 -1.20959 -4.72462 0
M  V30 5040 H 468.407 -3.46836 -4.26597 0
M  V30 5041 H 469.632 -4.22582 -5.31603 0
M  V30 5042 H 467.578 -2.16067 -6.19396 0
M  V30 5043 H 467.495 -3.86503 -6.49732 0
M  V30 5044 H 468.763 -2.92485 -7.22546 0
M  V30 5045 N 472.992 0.995999 -1.22138 0
M  V30 5046 C 473.922 2.10387 -1.01289 0
M  V30 5047 C 474.903 1.69975 0.0651454 0
M  V30 5048 O 476.088 1.9396 -0.0964628 0
M  V30 5049 C 473.218 3.42312 -0.586517 0
M  V30 5050 C 472.172 3.96558 -1.61014 0
M  V30 5051 C 471.498 5.24494 -1.0397 0
M  V30 5052 C 472.798 4.27595 -2.99933 0
M  V30 5053 H 474.492 2.28086 -1.93951 0
M  V30 5054 H 472.038 1.09607 -0.933928 0
M  V30 5055 H 473.991 4.19223 -0.427793 0
M  V30 5056 H 472.715 3.24431 0.375761 0
M  V30 5057 H 471.374 3.21776 -1.75658 0
M  V30 5058 H 471.022 5.02953 -0.0688703 0
M  V30 5059 H 470.722 5.61755 -1.72352 0
M  V30 5060 H 472.246 6.04042 -0.892494 0
M  V30 5061 H 473.66 4.95315 -2.8868 0
M  V30 5062 H 472.057 4.76021 -3.6541 0
M  V30 5063 H 473.127 3.35498 -3.50099 0
M  V30 5064 N 474.47 1.03057 1.19235 0
M  V30 5065 C 475.433 0.617418 2.20727 0
M  V30 5066 C 476.433 -0.319856 1.57587 0
M  V30 5067 O 477.623 -0.106633 1.73873 0
M  V30 5068 C 474.755 -0.096296 3.40764 0
M  V30 5069 H 475.948 1.51544 2.58794 0
M  V30 5070 H 473.501 0.821949 1.32942 0
M  V30 5071 H 474.236 -1.00859 3.08217 0
M  V30 5072 H 474.021 0.577217 3.87828 0
M  V30 5073 H 475.511 -0.372219 4.15938 0
M  V30 5074 N 475.948 -1.35272 0.808662 0
M  V30 5075 C 476.878 -2.32315 0.234981 0
M  V30 5076 C 477.859 -1.57572 -0.64071 0
M  V30 5077 O 479.044 -1.8563 -0.570551 0
M  V30 5078 C 476.174 -3.41801 -0.615601 0
M  V30 5079 C 475.128 -4.27694 0.161767 0
M  V30 5080 C 474.454 -5.28519 -0.810649 0
M  V30 5081 C 475.754 -5.04231 1.36193 0
M  V30 5082 H 477.448 -2.80543 1.04575 0
M  V30 5083 H 474.994 -1.3488 0.504315 0
M  V30 5084 H 476.947 -4.08693 -1.02702 0
M  V30 5085 H 475.671 -2.92186 -1.45928 0
M  V30 5086 H 474.33 -3.62384 0.554382 0
M  V30 5087 H 473.978 -4.75171 -1.64988 0
M  V30 5088 H 473.678 -5.8686 -0.294822 0
M  V30 5089 H 475.202 -5.98283 -1.22023 0
M  V30 5090 H 476.616 -5.64058 1.02528 0
M  V30 5091 H 475.013 -5.72077 1.81239 0
M  V30 5092 H 476.083 -4.34753 2.14751 0
M  V30 5093 N 477.426 -0.562348 -1.47226 0
M  V30 5094 C 478.703 0.0256985 -1.95583 0
M  V30 5095 C 479.083 1.48032 -1.50498 0
M  V30 5096 O 478.431 2.15973 -0.746181 0
M  V30 5097 C 478.641 -0.125129 -3.48776 0
M  V30 5098 C 479.989 0.0175728 -4.24596 0
M  V30 5099 O 481.013 -0.0529341 -3.56161 0
M  V30 5100 O 479.872 0.170145 -5.46235 0
M  V30 5101 H 476.966 0.0612565 -0.824728 0
M  V30 5102 H 479.512 -0.629233 -1.57603 0
M  V30 5103 H 478.284 -1.13715 -3.74412 0
M  V30 5104 H 477.907 0.567178 -3.93534 0
M  V30 5105 N 478.904 1.54736 -0.299062 0
M  V30 5106 C 480.32 1.59507 0.0543849 0
M  V30 5107 C 480.52 1.31606 1.52585 0
M  V30 5108 O 479.576 1.08853 2.27832 0
M  V30 5109 C 480.889 2.98751 -0.34181 0
M  V30 5110 C 482.437 3.1165 -0.290414 0
M  V30 5111 C 482.912 4.53199 -0.661402 0
M  V30 5112 N 484.403 4.59114 -0.613863 0
M  V30 5113 C 485.138 5.66709 -0.873417 0
M  V30 5114 N 484.634 6.82349 -1.19884 0
M  V30 5115 N 486.427 5.56369 -0.800608 0
M  V30 5116 H 478.578 1.71133 -1.25806 0
M  V30 5117 H 480.841 0.799186 -0.509908 0
M  V30 5118 H 480.547 3.24085 -1.36608 0
M  V30 5119 H 480.421 3.75961 0.305508 0
M  V30 5120 H 482.808 2.86066 0.724605 0
M  V30 5121 H 482.889 2.366 -0.972327 0
M  V30 5122 H 482.533 4.79513 -1.67422 0
M  V30 5123 H 482.463 5.26583 0.0425612 0
M  V30 5124 H 484.954 3.76053 -0.3732 0
M  V30 5125 H 485.267 7.60326 -1.38291 0
M  V30 5126 H 483.612 6.83906 -1.23685 0
M  V30 5127 H 486.803 4.64904 -0.546045 0
M  V30 5128 H 486.976 6.40139 -1.00626 0
M  V30 5129 N 480.382 0.0267497 1.57577 0
M  V30 5130 C 481.659 -0.690926 1.82991 0
M  V30 5131 C 482.039 -1.90471 0.910164 0
M  V30 5132 O 481.387 -2.28474 -0.0347985 0
M  V30 5133 C 481.597 -1.07139 3.32148 0
M  V30 5134 C 482.945 -1.46402 3.98562 0
M  V30 5135 O 483.969 -1.16443 3.36629 0
M  V30 5136 O 482.828 -2.02214 5.07712 0
M  V30 5137 H 479.922 -0.338747 0.75444 0
M  V30 5138 H 482.468 0.0542506 1.69613 0
M  V30 5139 H 481.24 -0.207394 3.9075 0
M  V30 5140 H 480.863 -1.87481 3.50623 0
M  V30 5141 N 481.861 -1.55662 -0.24637 0
M  V30 5142 C 483.11 -1.7672 -0.972254 0
M  V30 5143 C 483.423 -0.59078 -1.86465 0
M  V30 5144 O 484.629 -0.684391 -2.62732 0
M  V30 5145 C 483.085 -3.12869 -1.7788 0
M  V30 5146 C 482.693 -4.38161 -0.933768 0
M  V30 5147 C 484.437 -3.43265 -2.49738 0
M  V30 5148 C 482.344 -5.6534 -1.73623 0
M  V30 5149 H 481.274 -0.658795 -0.366749 0
M  V30 5150 H 483.925 -1.82092 -0.226902 0
M  V30 5151 H 482.307 -3.01606 -2.56612 0
M  V30 5152 H 483.481 -4.60413 -0.188736 0
M  V30 5153 H 481.796 -4.15102 -0.328488 0
M  V30 5154 H 484.393 -4.35501 -3.10231 0
M  V30 5155 H 484.736 -2.64614 -3.2138 0
M  V30 5156 H 485.269 -3.55746 -1.78016 0
M  V30 5157 H 482.008 -6.46814 -1.06354 0
M  V30 5158 H 481.528 -5.47188 -2.45653 0
M  V30 5159 H 483.207 -6.04616 -2.30323 0
M  V30 5160 N 483.339 0.512053 -1.4905 0
M  V30 5161 C 484.588 1.26343 -1.57227 0
M  V30 5162 C 484.901 1.93876 -0.259155 0
M  V30 5163 O 486.107 2.70612 -0.219358 0
M  V30 5164 C 484.563 2.29343 -2.77362 0
M  V30 5165 C 484.171 1.67799 -4.15388 0
M  V30 5166 C 485.915 3.05378 -2.94864 0
M  V30 5167 C 483.822 2.68845 -5.2676 0
M  V30 5168 H 482.752 0.475231 -0.585382 0
M  V30 5169 H 485.403 0.53862 -1.75417 0
M  V30 5170 H 483.785 3.04938 -2.52643 0
M  V30 5171 H 484.959 0.982715 -4.50199 0
M  V30 5172 H 483.274 1.04194 -4.03153 0
M  V30 5173 H 485.871 3.80921 -3.75238 0
M  V30 5174 H 486.214 3.62327 -2.05 0
M  V30 5175 H 486.747 2.36898 -3.19569 0
M  V30 5176 H 483.486 2.16692 -6.18647 0
M  V30 5177 H 483.006 3.36647 -4.96416 0
M  V30 5178 H 484.685 3.31487 -5.5563 0
M  V30 5179 N 484.817 1.37938 0.762283 0
M  V30 5180 C 486.063 1.33866 1.52341 0
M  V30 5181 C 486.396 -0.0738961 1.94059 0
M  V30 5182 O 485.671 -1.03326 1.64785 0
M  V30 5183 C 485.954 2.28644 2.78197 0
M  V30 5184 C 485.807 3.78722 2.42672 0
M  V30 5185 C 487.126 2.21702 3.80179 0
M  V30 5186 H 484.245 0.487593 0.55265 0
M  V30 5187 H 486.887 1.68717 0.873767 0
M  V30 5188 H 485.037 1.99055 3.33631 0
M  V30 5189 H 486.709 4.18948 1.93081 0
M  V30 5190 H 484.952 3.96827 1.75244 0
M  V30 5191 H 485.623 4.40486 3.3268 0
M  V30 5192 H 488.099 2.47805 3.34263 0
M  V30 5193 H 486.975 2.90143 4.65949 0
M  V30 5194 H 487.236 1.21301 4.25133 0
M  V30 5195 N 486.295 -0.989507 1.22664 0
M  V30 5196 C 487.243 -2.10148 0.997035 0
M  V30 5197 C 488.237 -1.6929 -0.0609783 0
M  V30 5198 O 489.443 -1.79766 0.0917523 0
M  V30 5199 H 485.818 -0.687256 0.305259 0
M  V30 5200 H 487.789 -2.26685 1.94053 0
M  V30 5201 C 486.538 -3.4257 0.595085 0
M  V30 5202 H 485.861 -3.74453 1.40089 0
M  V30 5203 H 487.301 -4.21344 0.473869 0
M  V30 5204 C 485.76 -3.29638 -0.695725 0
M  V30 5205 O 486.29 -3.61709 -1.74727 0
M  V30 5206 N 484.496 -2.82814 -0.668173 0
M  V30 5207 H 484.043 -2.56914 0.18787 0
M  V30 5208 H 484.001 -2.74544 -1.5321 0
M  V30 5209 N 487.773 -1.03688 -1.18687 0
M  V30 5210 C 488.72 -0.624624 -2.22187 0
M  V30 5211 C 489.69 0.365636 -1.62026 0
M  V30 5212 O 490.875 0.260481 -1.89014 0
M  V30 5213 C 488.015 0.0101738 -3.45099 0
M  V30 5214 C 487.128 -1.02709 -4.19613 0
M  V30 5215 C 486.263 -0.361213 -5.2997 0
M  V30 5216 C 485.302 -1.38384 -5.96252 0
M  V30 5217 N 484.439 -0.743196 -6.98155 0
M  V30 5218 H 489.279 -1.51176 -2.56807 0
M  V30 5219 H 486.816 -0.75636 -1.26165 0
M  V30 5220 H 488.774 0.395528 -4.15321 0
M  V30 5221 H 487.404 0.860848 -3.1111 0
M  V30 5222 H 486.456 -1.53043 -3.48256 0
M  V30 5223 H 487.768 -1.80398 -4.65036 0
M  V30 5224 H 486.922 0.0785537 -6.06649 0
M  V30 5225 H 485.661 0.447799 -4.8564 0
M  V30 5226 H 484.666 -1.83378 -5.18317 0
M  V30 5227 H 485.891 -2.19448 -6.42666 0
M  V30 5228 H 483.837 0.0455789 -6.55984 0
M  V30 5229 H 483.754 -1.45784 -7.41811 0
M  V30 5230 H 485.022 -0.327698 -7.78811 0
M  V30 5231 N 489.251 1.34841 -0.815825 0
M  V30 5232 C 490.497 1.98793 -0.401129 0
M  V30 5233 C 490.83 1.64548 1.03139 0
M  V30 5234 O 490.105 0.913487 1.71714 0
M  V30 5235 C 490.388 3.55143 -0.595409 0
M  V30 5236 C 490.241 3.99155 -2.07352 0
M  V30 5237 C 491.56 4.40092 -0.0268823 0
M  V30 5238 H 488.679 0.722146 -0.14722 0
M  V30 5239 H 491.321 1.59847 -1.02707 0
M  V30 5240 H 489.471 3.8845 -0.0625779 0
M  V30 5241 H 491.143 3.76216 -2.66945 0
M  V30 5242 H 489.386 3.49726 -2.56659 0
M  V30 5243 H 490.057 5.07971 -2.1603 0
M  V30 5244 H 492.533 4.13298 -0.482042 0
M  V30 5245 H 491.409 5.48562 -0.19267 0
M  V30 5246 H 491.67 4.29016 1.06759 0
M  V30 5247 N 490.729 0.570148 1.46925 0
M  V30 5248 C 491.676 -0.170257 2.30171 0
M  V30 5249 C 492.646 -0.896099 1.39855 0
M  V30 5250 O 493.831 -0.889248 1.68811 0
M  V30 5251 C 490.971 -1.18605 3.24079 0
M  V30 5252 C 490.084 -0.464947 4.29491 0
M  V30 5253 C 489.219 -1.46716 5.10537 0
M  V30 5254 C 488.258 -0.731758 6.0771 0
M  V30 5255 N 487.395 -1.68142 6.81669 0
M  V30 5256 H 492.235 0.545713 2.92961 0
M  V30 5257 H 489.772 0.280938 1.44392 0
M  V30 5258 H 491.73 -1.78771 3.76957 0
M  V30 5259 H 490.36 -1.86989 2.63125 0
M  V30 5260 H 489.412 0.251506 3.79568 0
M  V30 5261 H 490.724 0.110548 4.98677 0
M  V30 5262 H 489.878 -2.14199 5.6763 0
M  V30 5263 H 488.617 -2.07658 4.41282 0
M  V30 5264 H 487.622 -0.0430787 5.49783 0
M  V30 5265 H 488.847 -0.127904 6.7898 0
M  V30 5266 H 486.793 -2.27918 6.15134 0
M  V30 5267 H 486.71 -1.15841 7.47072 0
M  V30 5268 H 487.978 -2.347 7.43328 0
M  V30 5269 N 492.207 -1.54576 0.307264 0
M  V30 5270 C 493.155 -2.25208 -0.581723 0
M  V30 5271 C 494.149 -1.26031 -1.13192 0
M  V30 5272 O 495.355 -1.43862 -1.08184 0
M  V30 5273 H 491.73 -0.723173 -0.206214 0
M  V30 5274 H 493.701 -2.98378 0.0364663 0
M  V30 5275 C 492.45 -3.01086 -1.73904 0
M  V30 5276 H 491.773 -3.77208 -1.32491 0
M  V30 5277 H 493.213 -3.5378 -2.33701 0
M  V30 5278 C 491.672 -2.08422 -2.64692 0
M  V30 5279 O 492.202 -1.65636 -3.65961 0
M  V30 5280 N 490.408 -1.74247 -2.32564 0
M  V30 5281 H 489.955 -2.09238 -1.50257 0
M  V30 5282 H 489.913 -1.12524 -2.93574 0
M  V30 5283 N 493.685 -0.035106 -1.57561 0
M  V30 5284 C 494.617 0.973604 -2.07494 0
M  V30 5285 C 495.63 1.28504 -0.999534 0
M  V30 5286 O 496.819 1.24864 -1.27559 0
M  V30 5287 C 493.919 2.29945 -2.48955 0
M  V30 5288 C 493.092 2.1723 -3.79644 0
M  V30 5289 C 492.151 3.328 -4.07592 0
M  V30 5290 O 491.177 3.09418 -4.77754 0
M  V30 5291 N 492.379 4.56779 -3.58236 0
M  V30 5292 H 495.144 0.547525 -2.94656 0
M  V30 5293 H 492.705 0.151515 -1.61189 0
M  V30 5294 H 494.697 3.06097 -2.64739 0
M  V30 5295 H 493.267 2.64173 -1.67126 0
M  V30 5296 H 492.487 1.25768 -3.73599 0
M  V30 5297 H 493.775 2.05945 -4.65257 0
M  V30 5298 H 493.173 4.78668 -3.01485 0
M  V30 5299 H 491.73 5.30079 -3.79288 0
M  V30 5300 N 495.163 1.55791 0.238111 0
M  V30 5301 C 496.411 1.77681 0.963001 0
M  V30 5302 C 496.732 0.600674 1.85518 0
M  V30 5303 O 496.002 -0.383182 1.92116 0
M  V30 5304 H 494.582 0.655315 0.358568 0
M  V30 5305 H 497.244 1.93239 0.253945 0
M  V30 5306 H 496.34 2.69177 1.57956 0
M  V30 5307 N 496.642 -0.504142 1.49319 0
M  V30 5308 C 497.919 -1.26548 1.49147 0
M  V30 5309 C 498.299 -2.09977 0.21744 0
M  V30 5310 O 497.647 -2.14028 -0.800269 0
M  V30 5311 C 497.857 -2.12489 2.76857 0
M  V30 5312 C 499.205 -2.7178 3.26222 0
M  V30 5313 O 500.229 -2.22758 2.77952 0
M  V30 5314 O 499.088 -3.61015 4.10281 0
M  V30 5315 H 496.182 -0.572495 0.596806 0
M  V30 5316 H 498.728 -0.51867 1.61579 0
M  V30 5317 H 497.5 -1.50796 3.61077 0
M  V30 5318 H 497.123 -2.94368 2.6727 0
M  V30 5319 N 498.12 -1.38341 -0.754957 0
M  V30 5320 C 499.05 -1.38176 -1.88227 0
M  V30 5321 C 500.031 -0.247873 -1.68284 0
M  V30 5322 O 501.216 -0.45075 -1.88896 0
M  V30 5323 C 498.346 -1.20471 -3.25736 0
M  V30 5324 C 497.3 -2.3105 -3.60278 0
M  V30 5325 C 496.626 -1.98452 -4.96509 0
M  V30 5326 C 497.926 -3.73305 -3.65295 0
M  V30 5327 H 499.62 -2.32512 -1.88622 0
M  V30 5328 H 497.166 -1.1192 -0.906082 0
M  V30 5329 H 499.119 -1.18982 -4.04254 0
M  V30 5330 H 497.843 -0.225965 -3.25817 0
M  V30 5331 H 496.502 -2.31723 -2.84078 0
M  V30 5332 H 496.15 -0.990641 -4.93148 0
M  V30 5333 H 495.85 -2.7251 -5.20588 0
M  V30 5334 H 497.374 -1.98578 -5.77407 0
M  V30 5335 H 498.788 -3.7467 -4.3393 0
M  V30 5336 H 497.185 -4.46557 -4.00883 0
M  V30 5337 H 498.255 -4.05719 -2.65556 0
M  V30 5338 N 499.598 0.982988 -1.23187 0
M  V30 5339 C 501.009 1.53847 -1.05773 0
M  V30 5340 C 501.36 1.92568 0.375744 0
M  V30 5341 O 500.485 1.75783 1.26211 0
M  V30 5342 C 501.08 2.79567 -1.91384 0
M  V30 5343 C 499.639 3.31524 -1.78238 0
M  V30 5344 C 498.786 2.04534 -1.87246 0
M  V30 5345 H 501.737 0.802962 -1.36888 0
M  V30 5346 H 501.758 3.52317 -1.43711 0
M  V30 5347 H 501.27 2.51353 -2.95708 0
M  V30 5348 H 499.371 3.64623 -0.766875 0
M  V30 5349 H 499.484 4.01457 -2.61475 0
M  V30 5350 H 497.848 2.1855 -1.30797 0
M  V30 5351 H 498.631 1.78706 -2.9312 0
M  V30 5352 N 501.076 1.04316 1.18135 0
M  V30 5353 C 502.039 0.640794 2.2006 0
M  V30 5354 C 503.039 -0.303124 1.57917 0
M  V30 5355 O 504.229 -0.0881855 1.73977 0
M  V30 5356 C 501.361 -0.060148 3.40847 0
M  V30 5357 H 502.554 1.54281 2.57172 0
M  V30 5358 H 500.107 0.836004 1.32063 0
M  V30 5359 H 500.842 -0.975845 3.0927 0
M  V30 5360 H 500.627 0.618319 3.87194 0
M  V30 5361 H 502.117 -0.328082 4.16309 0
M  V30 5362 N 502.554 -1.34406 0.822964 0
M  V30 5363 C 503.784 -2.02214 0.423424 0
M  V30 5364 C 504.192 -1.62124 -0.975322 0
M  V30 5365 O 503.535 -0.822452 -1.6426 0
M  V30 5366 C 503.597 -3.56721 0.446107 0
M  V30 5367 C 503.261 -4.20136 1.79819 0
M  V30 5368 C 504.258 -4.4065 2.75904 0
M  V30 5369 C 501.943 -4.56906 2.08669 0
M  V30 5370 C 503.937 -4.9706 3.99012 0
M  V30 5371 C 501.624 -5.13026 3.32036 0
M  V30 5372 C 502.622 -5.33047 4.27024 0
M  V30 5373 O 502.31 -5.87979 5.48211 0
M  V30 5374 H 502.042 -0.654748 0.168169 0
M  V30 5375 H 504.596 -1.72659 1.11257 0
M  V30 5376 H 502.826 -3.85537 -0.299734 0
M  V30 5377 H 504.515 -4.05845 0.0666114 0
M  V30 5378 H 505.281 -4.12607 2.54912 0
M  V30 5379 H 501.16 -4.40626 1.35535 0
M  V30 5380 H 504.704 -5.12603 4.73164 0
M  V30 5381 H 500.601 -5.40498 3.52891 0
M  V30 5382 H 501.369 -6.06413 5.49732 0
M  V30 5383 N 504.032 -0.577932 -1.46621 0
M  V30 5384 C 505.257 -0.0652536 -2.07297 0
M  V30 5385 C 505.682 1.22828 -1.4246 0
M  V30 5386 O 505.04 1.74075 -0.506718 0
M  V30 5387 C 505.088 0.0920589 -3.60482 0
M  V30 5388 O 504.192 1.14972 -3.96049 0
M  V30 5389 H 503.533 -0.06065 -0.661224 0
M  V30 5390 H 506.063 -0.799515 -1.88332 0
M  V30 5391 H 506.073 0.299741 -4.06897 0
M  V30 5392 H 504.748 -0.852612 -4.07067 0
M  V30 5393 H 503.325 0.920879 -3.61351 0
M  V30 5394 N 505.51 1.54411 -0.315457 0
M  V30 5395 C 506.74 2.04536 0.291315 0
M  V30 5396 C 507.148 1.19162 1.4696 0
M  V30 5397 O 506.491 0.213199 1.82459 0
M  V30 5398 C 506.553 3.5056 0.796725 0
M  V30 5399 C 506.217 4.5627 -0.258178 0
M  V30 5400 C 507.214 5.08312 -1.09153 0
M  V30 5401 C 504.899 5.00672 -0.404036 0
M  V30 5402 C 506.893 6.03312 -2.05655 0
M  V30 5403 C 504.58 5.95488 -1.37248 0
M  V30 5404 C 505.578 6.46693 -2.19721 0
M  V30 5405 O 505.266 7.39648 -3.14921 0
M  V30 5406 H 504.998 0.672856 0.0651165 0
M  V30 5407 H 507.552 2.00244 -0.457308 0
M  V30 5408 H 505.782 3.52223 1.59612 0
M  V30 5409 H 507.471 3.83804 1.32096 0
M  V30 5410 H 508.237 4.74793 -0.98979 0
M  V30 5411 H 504.116 4.60436 0.22799 0
M  V30 5412 H 507.66 6.43203 -2.70067 0
M  V30 5413 H 503.557 6.28424 -1.47489 0
M  V30 5414 H 504.325 7.57496 -3.10067 0
M  V30 5415 N 506.988 0.0434614 1.5754 0
M  V30 5416 C 508.216 -0.641835 1.96693 0
M  V30 5417 C 508.631 -1.64832 0.920652 0
M  V30 5418 O 507.988 -1.82247 -0.095993 0
M  V30 5419 C 508.039 -1.33557 3.35924 0
M  V30 5420 O 507.76 -0.369403 4.3654 0
M  V30 5421 C 509.261 -2.11135 3.89791 0
M  V30 5422 H 506.481 -0.176013 0.647503 0
M  V30 5423 H 509.025 0.107478 2.04217 0
M  V30 5424 H 507.18 -2.03617 3.29574 0
M  V30 5425 H 507.594 -0.863674 5.1734 0
M  V30 5426 H 509.068 -2.55107 4.89514 0
M  V30 5427 H 509.545 -2.95634 3.24803 0
M  V30 5428 H 510.151 -1.46002 3.99454 0
M  V30 5429 N 508.466 -1.55915 -0.229846 0
M  V30 5430 C 509.877 -1.68809 -0.797531 0
M  V30 5431 C 510.228 -0.643995 -1.8533 0
M  V30 5432 O 509.353 0.206492 -2.15413 0
M  V30 5433 C 509.948 -3.06043 -1.45338 0
M  V30 5434 C 508.507 -3.20819 -1.96856 0
M  V30 5435 C 507.654 -2.6472 -0.825736 0
M  V30 5436 H 510.605 -1.58699 -0.00533733 0
M  V30 5437 H 510.626 -3.01438 -2.32196 0
M  V30 5438 H 510.138 -3.82012 -0.684743 0
M  V30 5439 H 508.239 -2.49704 -2.76548 0
M  V30 5440 H 508.352 -4.27937 -2.15423 0
M  V30 5441 H 506.716 -2.22985 -1.23084 0
M  V30 5442 H 507.499 -3.43229 -0.0699019 0
M  V30 5443 N 509.944 0.496216 -1.49584 0
M  V30 5444 C 511.355 1.07765 -1.52459 0
M  V30 5445 C 511.706 1.93679 -0.31353 0
M  V30 5446 O 510.831 2.08588 0.576186 0
M  V30 5447 C 511.426 1.96111 -2.76271 0
M  V30 5448 C 509.985 2.49409 -2.81908 0
M  V30 5449 C 509.132 1.27142 -2.46435 0
M  V30 5450 H 512.083 0.279914 -1.56212 0
M  V30 5451 H 512.104 2.80862 -2.56704 0
M  V30 5452 H 511.616 1.33555 -3.64396 0
M  V30 5453 H 509.717 3.1559 -1.98074 0
M  V30 5454 H 509.83 2.86234 -3.84196 0
M  V30 5455 H 508.194 1.59818 -1.98319 0
M  V30 5456 H 508.977 0.662866 -3.3684 0
M  V30 5457 N 511.423 1.38739 0.74761 0
M  V30 5458 C 512.653 1.3832 1.53464 0
M  V30 5459 C 513.061 -0.0273464 1.8918 0
M  V30 5460 O 512.404 -1.00588 1.53713 0
M  V30 5461 C 512.466 2.18007 2.85855 0
M  V30 5462 C 512.13 3.66762 2.72644 0
M  V30 5463 C 513.127 4.60124 2.42037 0
M  V30 5464 C 510.812 4.10193 2.89909 0
M  V30 5465 C 512.806 5.94897 2.28859 0
M  V30 5466 C 510.493 5.45045 2.7635 0
M  V30 5467 C 511.491 6.37211 2.45869 0
M  V30 5468 O 511.179 7.69581 2.3238 0
M  V30 5469 H 510.911 0.474718 0.481268 0
M  V30 5470 H 513.465 1.83012 0.932518 0
M  V30 5471 H 511.695 1.68043 3.48279 0
M  V30 5472 H 513.384 2.09921 3.47402 0
M  V30 5473 H 514.15 4.27874 2.28361 0
M  V30 5474 H 510.029 3.38797 3.1263 0
M  V30 5475 H 513.573 6.66802 2.04989 0
M  V30 5476 H 509.47 5.76889 2.89601 0
M  V30 5477 H 510.238 7.80169 2.47546 0
M  V30 5478 N 512.901 -0.976442 1.23707 0
M  V30 5479 C 514.129 -1.75341 1.09833 0
M  V30 5480 C 514.544 -1.8553 -0.349885 0
M  V30 5481 O 513.901 -1.33732 -1.24185 0
M  V30 5482 C 513.952 -3.17833 1.72233 0
M  V30 5483 O 513.673 -3.08167 3.11391 0
M  V30 5484 C 515.174 -4.11906 1.63853 0
M  V30 5485 H 512.394 -0.550137 0.384175 0
M  V30 5486 H 514.938 -1.2265 1.63638 0
M  V30 5487 H 513.093 -3.67538 1.22452 0
M  V30 5488 H 513.507 -3.97897 3.41729 0
M  V30 5489 H 514.981 -5.09579 2.12211 0
M  V30 5490 H 515.458 -4.35109 0.598092 0
M  V30 5491 H 516.064 -3.68107 2.13019 0
M  V30 5492 N 514.379 -1.04941 -1.1758 0
M  V30 5493 C 515.656 -0.671918 -1.83697 0
M  V30 5494 C 516.036 0.847929 -1.93322 0
M  V30 5495 O 515.384 1.75287 -1.46583 0
M  V30 5496 C 515.594 -1.35797 -3.21497 0
M  V30 5497 C 516.942 -1.4944 -3.97433 0
M  V30 5498 O 517.966 -1.31678 -3.30967 0
M  V30 5499 O 516.825 -1.78463 -5.1654 0
M  V30 5500 H 513.919 -0.236212 -0.792548 0
M  V30 5501 H 516.465 -1.14884 -1.24899 0
M  V30 5502 H 515.237 -2.39498 -3.09446 0
M  V30 5503 H 514.86 -0.870236 -3.8796 0
M  V30 5504 N 515.857 1.33968 -0.830081 0
M  V30 5505 C 517.105 1.97672 -0.420734 0
M  V30 5506 C 517.426 1.66111 1.02138 0
M  V30 5507 O 516.696 0.955503 1.71017 0
M  V30 5508 H 515.276 0.73125 -0.152587 0
M  V30 5509 H 517.938 1.63483 -1.0611 0
M  V30 5510 H 517.034 3.07294 -0.545588 0
M  V30 5511 N 517.335 0.585699 1.46312 0
M  V30 5512 C 518.298 -0.135673 2.28798 0
M  V30 5513 C 519.298 -0.815988 1.38558 0
M  V30 5514 O 520.488 -0.667487 1.60904 0
M  V30 5515 C 517.62 -1.20163 3.1902 0
M  V30 5516 H 518.813 0.589257 2.94054 0
M  V30 5517 H 516.366 0.343794 1.52472 0
M  V30 5518 H 517.101 -1.95804 2.58517 0
M  V30 5519 H 516.886 -0.718282 3.85465 0
M  V30 5520 H 518.376 -1.70749 3.81096 0
M  V30 5521 N 518.813 -1.54241 0.323641 0
M  V30 5522 C 519.76 -2.24339 -0.542277 0
M  V30 5523 C 520.73 -1.23421 -1.11159 0
M  V30 5524 O 521.915 -1.52104 -1.15192 0
M  V30 5525 C 519.055 -3.00479 -1.69725 0
M  V30 5526 C 518.168 -4.16214 -1.15716 0
M  V30 5527 C 517.303 -4.79884 -2.27783 0
M  V30 5528 C 516.342 -5.87722 -1.71023 0
M  V30 5529 N 515.479 -6.45254 -2.76752 0
M  V30 5530 H 520.319 -2.97935 0.0620613 0
M  V30 5531 H 517.856 -1.47039 0.0423993 0
M  V30 5532 H 519.814 -3.42869 -2.3769 0
M  V30 5533 H 518.444 -2.29217 -2.27288 0
M  V30 5534 H 517.496 -3.78605 -0.369063 0
M  V30 5535 H 518.808 -4.93838 -0.701832 0
M  V30 5536 H 517.962 -5.25243 -3.03651 0
M  V30 5537 H 516.701 -4.01641 -2.76652 0
M  V30 5538 H 515.706 -5.41765 -0.936518 0
M  V30 5539 H 516.931 -6.67863 -1.2303 0
M  V30 5540 H 514.877 -5.69884 -3.24912 0
M  V30 5541 H 514.794 -7.18292 -2.35782 0
M  V30 5542 H 516.062 -6.95269 -3.5245 0
M  V30 5543 N 520.291 -0.0518155 -1.57515 0
M  V30 5544 C 521.221 0.920283 -2.146 0
M  V30 5545 C 522.202 1.32406 -1.06783 0
M  V30 5546 O 523.387 1.39866 -1.34726 0
M  V30 5547 C 520.517 2.1949 -2.6915 0
M  V30 5548 C 519.471 1.93116 -3.81956 0
M  V30 5549 C 518.797 3.27037 -4.23026 0
M  V30 5550 C 520.097 1.25225 -5.07066 0
M  V30 5551 H 521.791 0.444801 -2.96077 0
M  V30 5552 H 519.337 0.212508 -1.42423 0
M  V30 5553 H 521.29 2.87894 -3.07725 0
M  V30 5554 H 520.014 2.69244 -1.84865 0
M  V30 5555 H 518.673 1.27123 -3.43854 0
M  V30 5556 H 518.321 3.74595 -3.3569 0
M  V30 5557 H 518.021 3.10189 -4.99056 0
M  V30 5558 H 519.545 3.96673 -4.64202 0
M  V30 5559 H 520.959 1.83666 -5.43083 0
M  V30 5560 H 519.356 1.18702 -5.88243 0
M  V30 5561 H 520.426 0.228382 -4.84362 0
M  V30 5562 N 521.769 1.56035 0.221574 0
M  V30 5563 C 523.015 1.79312 0.947372 0
M  V30 5564 C 523.348 0.621453 1.83988 0
M  V30 5565 O 522.623 -0.379287 1.90766 0
M  V30 5566 C 522.906 3.1267 1.78633 0
M  V30 5567 C 522.759 4.40284 0.920312 0
M  V30 5568 C 524.078 3.4247 2.7641 0
M  V30 5569 H 521.197 0.652328 0.342982 0
M  V30 5570 H 523.839 1.88765 0.216244 0
M  V30 5571 H 521.989 3.04741 2.40967 0
M  V30 5572 H 523.661 4.60232 0.313718 0
M  V30 5573 H 521.904 4.33212 0.225734 0
M  V30 5574 H 522.575 5.30033 1.54171 0
M  V30 5575 H 525.051 3.50526 2.24211 0
M  V30 5576 H 523.927 4.3695 3.32213 0
M  V30 5577 H 524.188 2.64635 3.54148 0
M  V30 5578 N 523.247 -0.488276 1.49845 0
M  V30 5579 C 524.157 -1.61451 1.70207 0
M  V30 5580 C 525.173 -1.63877 0.584846 0
M  V30 5581 O 526.349 -1.82063 0.861107 0
M  V30 5582 C 523.414 -2.9776 1.77594 0
M  V30 5583 C 522.475 -3.05861 3.01243 0
M  V30 5584 C 521.708 -4.35668 3.08268 0
M  V30 5585 O 521.931 -5.25197 2.22541 0
M  V30 5586 O 520.865 -4.49005 4.00847 0
M  V30 5587 H 524.691 -1.47199 2.65643 0
M  V30 5588 H 522.276 -0.665939 1.33737 0
M  V30 5589 H 524.158 -3.7875 1.84732 0
M  V30 5590 H 522.833 -3.12248 0.8534 0
M  V30 5591 H 521.74 -2.24012 2.99616 0
M  V30 5592 H 523.073 -2.96304 3.9302 0
M  V30 5593 N 524.725 -1.39134 -0.740242 0
M  V30 5594 C 526.136 -1.32208 -1.31825 0
M  V30 5595 C 526.487 0.0159919 -1.96193 0
M  V30 5596 O 525.612 0.918111 -1.95958 0
M  V30 5597 C 526.207 -2.39436 -2.39699 0
M  V30 5598 C 524.766 -2.36048 -2.93187 0
M  V30 5599 C 523.913 -2.21599 -1.66701 0
M  V30 5600 H 526.864 -1.49298 -0.538133 0
M  V30 5601 H 526.885 -2.05922 -3.19963 0
M  V30 5602 H 526.397 -3.36811 -1.92821 0
M  V30 5603 H 524.498 -1.42295 -3.44359 0
M  V30 5604 H 524.611 -3.30704 -3.46658 0
M  V30 5605 H 522.975 -1.68681 -1.90837 0
M  V30 5606 H 523.758 -3.20936 -1.21882 0
M  V30 5607 N 526.204 0.969867 -1.24223 0
M  V30 5608 C 527.114 2.09806 -1.0497 0
M  V30 5609 C 528.13 1.73998 0.00886455 0
M  V30 5610 O 529.306 2.00513 -0.188848 0
M  V30 5611 C 526.371 3.40467 -0.654452 0
M  V30 5612 C 525.432 3.90236 -1.78926 0
M  V30 5613 C 524.665 5.14662 -1.41277 0
M  V30 5614 O 524.888 5.69602 -0.301632 0
M  V30 5615 O 523.822 5.58761 -2.23763 0
M  V30 5616 H 527.648 2.28942 -1.99548 0
M  V30 5617 H 525.233 1.08197 -1.03023 0
M  V30 5618 H 527.115 4.19039 -0.445452 0
M  V30 5619 H 525.79 3.22636 0.262216 0
M  V30 5620 H 524.697 3.12735 -2.05299 0
M  V30 5621 H 526.03 4.1254 -2.68462 0
M  V30 5622 N 527.682 1.05563 1.17022 0
M  V30 5623 C 528.928 0.778872 1.87897 0
M  V30 5624 C 529.283 -0.686839 1.79723 0
M  V30 5625 O 528.576 -1.49612 1.19694 0
M  V30 5626 C 528.77 1.19849 3.36706 0
M  V30 5627 C 528.599 2.70345 3.59366 0
M  V30 5628 C 527.369 3.37707 3.75875 0
M  V30 5629 C 529.567 3.68564 3.58699 0
M  V30 5630 N 527.549 4.7703 3.86414 0
M  V30 5631 C 528.92 4.93634 3.75134 0
M  V30 5632 C 530.975 3.6198 3.4187 0
M  V30 5633 C 529.678 6.12907 3.76481 0
M  V30 5634 C 531.704 4.80697 3.44507 0
M  V30 5635 C 531.066 6.04592 3.61453 0
M  V30 5636 H 527.165 0.337297 0.705517 0
M  V30 5637 H 529.749 1.34832 1.40458 0
M  V30 5638 H 527.92 0.656958 3.82804 0
M  V30 5639 H 529.652 0.871172 3.95212 0
M  V30 5640 H 526.407 2.88108 3.75887 0
M  V30 5641 H 526.831 5.49483 3.95471 0
M  V30 5642 H 531.473 2.67154 3.27702 0
M  V30 5643 H 529.191 7.08073 3.89432 0
M  V30 5644 H 532.777 4.77259 3.32738 0
M  V30 5645 H 531.657 6.94916 3.63403 0
M  V30 5646 N 529.16 -1.33526 0.837174 0
M  V30 5647 C 530.407 -1.97837 0.432064 0
M  V30 5648 C 530.735 -1.66324 -1.00829 0
M  V30 5649 O 529.99 -0.93448 -1.71948 0
M  V30 5650 C 530.289 -3.52367 0.597675 0
M  V30 5651 C 529.955 -4.03826 2.00587 0
M  V30 5652 C 528.617 -4.1759 2.39106 0
M  V30 5653 C 530.969 -4.31333 2.92576 0
M  V30 5654 C 528.297 -4.56195 3.68921 0
M  V30 5655 C 530.649 -4.7139 4.2187 0
M  V30 5656 C 529.313 -4.8336 4.60347 0
M  V30 5657 H 528.583 -0.723937 0.158104 0
M  V30 5658 H 531.23 -1.5923 1.06387 0
M  V30 5659 H 529.535 -3.91624 -0.117452 0
M  V30 5660 H 531.232 -4.00126 0.26454 0
M  V30 5661 H 527.822 -3.93586 1.69671 0
M  V30 5662 H 532.006 -4.20224 2.64056 0
M  V30 5663 H 527.262 -4.63655 3.9854 0
M  V30 5664 H 531.436 -4.91631 4.93226 0
M  V30 5665 H 529.063 -5.1303 5.60985 0
M  V30 5666 N 530.638 -0.59345 -1.46 0
M  V30 5667 C 531.585 0.133618 -2.30413 0
M  V30 5668 C 532.555 0.873736 -1.41262 0
M  V30 5669 O 533.74 0.862279 -1.70204 0
M  V30 5670 C 530.88 1.13434 -3.25924 0
M  V30 5671 C 529.993 0.39656 -4.30176 0
M  V30 5672 C 529.128 1.38575 -5.12806 0
M  V30 5673 C 528.167 0.634984 -6.08797 0
M  V30 5674 N 527.304 1.57276 -6.84258 0
M  V30 5675 H 532.144 -0.592252 -2.92055 0
M  V30 5676 H 529.681 -0.303874 -1.43927 0
M  V30 5677 H 531.639 1.72752 -3.79753 0
M  V30 5678 H 530.269 1.82779 -2.66067 0
M  V30 5679 H 529.321 -0.311861 -3.79119 0
M  V30 5680 H 530.633 -0.189869 -4.98438 0
M  V30 5681 H 529.787 2.05141 -5.70966 0
M  V30 5682 H 528.526 2.00611 -4.44529 0
M  V30 5683 H 527.531 -0.0443925 -5.49782 0
M  V30 5684 H 528.756 0.0198678 -6.79097 0
M  V30 5685 H 526.702 2.18103 -6.18682 0
M  V30 5686 H 526.619 1.03941 -7.48821 0
M  V30 5687 H 527.887 2.22844 -7.46968 0
M  V30 5688 N 532.116 1.54067 -0.331816 0
M  V30 5689 C 533.362 2.01713 0.261395 0
M  V30 5690 C 533.717 1.21566 1.49129 0
M  V30 5691 O 533.01 0.291867 1.89364 0
M  V30 5692 C 533.204 3.51634 0.639392 0
M  V30 5693 C 533.033 4.46295 -0.552321 0
M  V30 5694 C 531.803 4.94185 -1.05399 0
M  V30 5695 C 534.001 4.94677 -1.40711 0
M  V30 5696 N 531.983 5.7277 -2.20925 0
M  V30 5697 C 533.354 5.71267 -2.40943 0
M  V30 5698 C 535.409 4.76805 -1.43392 0
M  V30 5699 C 534.112 6.31889 -3.4367 0
M  V30 5700 C 536.138 5.38268 -2.44994 0
M  V30 5701 C 535.5 6.14716 -3.43952 0
M  V30 5702 H 531.599 0.77975 0.0592729 0
M  V30 5703 H 534.183 1.88974 -0.468726 0
M  V30 5704 H 532.354 3.64603 1.33863 0
M  V30 5705 H 534.086 3.86038 1.21478 0
M  V30 5706 H 530.841 4.69472 -0.623952 0
M  V30 5707 H 531.265 6.16737 -2.79222 0
M  V30 5708 H 535.907 4.17255 -0.682489 0
M  V30 5709 H 533.625 6.90554 -4.19715 0
M  V30 5710 H 537.211 5.26352 -2.4788 0
M  V30 5711 H 536.091 6.6143 -4.21283 0
M  V30 5712 N 533.594 0.0601682 1.57485 0
M  V30 5713 C 534.819 -0.624416 1.97777 0
M  V30 5714 C 535.244 -1.63051 0.937867 0
M  V30 5715 O 534.602 -1.81036 -0.0978845 0
M  V30 5716 C 534.65 -1.27979 3.37126 0
M  V30 5717 O 533.754 -2.39556 3.35688 0
M  V30 5718 H 533.095 -0.161581 0.64404 0
M  V30 5719 H 535.625 0.131237 2.04179 0
M  V30 5720 H 535.635 -1.62937 3.74053 0
M  V30 5721 H 534.31 -0.542501 4.12347 0
M  V30 5722 H 532.887 -2.06478 3.10517 0
M  V30 5723 N 535.072 -1.5615 -0.213296 0
M  V30 5724 C 536.004 -1.89586 -1.28802 0
M  V30 5725 C 537.017 -0.784844 -1.42633 0
M  V30 5726 O 538.206 -1.06319 -1.43383 0
M  V30 5727 C 535.306 -2.09665 -2.66259 0
M  V30 5728 C 534.479 -3.40726 -2.7427 0
M  V30 5729 C 533.538 -3.50137 -3.92798 0
M  V30 5730 O 532.564 -4.23105 -3.8075 0
M  V30 5731 N 533.766 -2.81886 -5.07465 0
M  V30 5732 H 536.531 -2.82368 -1.00442 0
M  V30 5733 H 534.092 -1.56796 -0.403302 0
M  V30 5734 H 536.084 -2.13268 -3.43946 0
M  V30 5735 H 534.654 -1.23469 -2.87183 0
M  V30 5736 H 533.874 -3.4915 -1.82997 0
M  V30 5737 H 535.162 -4.27048 -2.76599 0
M  V30 5738 H 534.56 -2.22397 -5.2015 0
M  V30 5739 H 533.117 -2.91139 -5.83165 0
M  V30 5740 N 536.55 0.480323 -1.50102 0
M  V30 5741 C 537.482 1.59669 -1.64433 0
M  V30 5742 C 538.495 1.54063 -0.52615 0
M  V30 5743 O 539.684 1.59619 -0.798992 0
M  V30 5744 C 536.784 2.98527 -1.6042 0
M  V30 5745 C 535.957 3.291 -2.88117 0
M  V30 5746 C 535.016 4.47468 -2.76873 0
M  V30 5747 O 534.042 4.4823 -3.50825 0
M  V30 5748 N 535.244 5.48593 -1.89806 0
M  V30 5749 H 538.009 1.47795 -2.60723 0
M  V30 5750 H 535.57 0.66858 -1.4745 0
M  V30 5751 H 537.562 3.75666 -1.50523 0
M  V30 5752 H 536.132 3.04218 -0.719036 0
M  V30 5753 H 535.352 2.40662 -3.12211 0
M  V30 5754 H 536.64 3.46334 -3.72734 0
M  V30 5755 H 536.038 5.50791 -1.2902 0
M  V30 5756 H 534.595 6.24752 -1.85819 0
M  V30 5757 N 538.028 1.39524 0.732853 0
M  V30 5758 C 538.975 1.38416 1.84688 0
M  V30 5759 C 539.945 0.243539 1.64305 0
M  V30 5760 O 541.13 0.438979 1.85681 0
M  V30 5761 C 538.27 1.23555 3.22224 0
M  V30 5762 C 537.383 2.47179 3.54298 0
M  V30 5763 C 536.518 2.2489 4.81246 0
M  V30 5764 C 535.557 3.44178 5.0617 0
M  V30 5765 N 534.694 3.21192 6.24323 0
M  V30 5766 H 539.534 2.33645 1.84971 0
M  V30 5767 H 537.071 1.16059 0.903804 0
M  V30 5768 H 539.029 1.12949 4.0162 0
M  V30 5769 H 537.659 0.31954 3.21215 0
M  V30 5770 H 536.711 2.68379 2.69587 0
M  V30 5771 H 538.023 3.36022 3.68633 0
M  V30 5772 H 537.177 2.11538 5.68627 0
M  V30 5773 H 535.916 1.33443 4.69089 0
M  V30 5774 H 534.921 3.58025 4.17251 0
M  V30 5775 H 536.146 4.36528 5.20212 0
M  V30 5776 H 534.092 2.32413 6.1345 0
M  V30 5777 H 534.009 4.03594 6.39256 0
M  V30 5778 H 535.277 3.1154 7.14537 0
M  V30 5779 N 539.506 -0.963266 1.24736 0
M  V30 5780 C 540.922 -1.23273 1.01371 0
M  V30 5781 C 541.122 -1.99618 -0.274776 0
M  V30 5782 O 540.178 -2.32293 -0.989769 0
M  V30 5783 C 541.491 -2.01554 2.23152 0
M  V30 5784 C 543.039 -2.14629 2.27823 0
M  V30 5785 C 543.514 -2.96307 3.49237 0
M  V30 5786 N 545.005 -3.03887 3.49581 0
M  V30 5787 C 545.74 -3.67456 4.40186 0
M  V30 5788 N 545.236 -4.32706 5.41052 0
M  V30 5789 N 547.029 -3.64511 4.27888 0
M  V30 5790 H 539.18 -0.452294 2.07528 0
M  V30 5791 H 541.443 -0.262521 0.910926 0
M  V30 5792 H 541.149 -1.52847 3.1675 0
M  V30 5793 H 541.023 -3.02278 2.25628 0
M  V30 5794 H 543.41 -2.62537 1.34753 0
M  V30 5795 H 543.491 -1.13238 2.2937 0
M  V30 5796 H 543.135 -2.49091 4.42624 0
M  V30 5797 H 543.065 -3.97905 3.44933 0
M  V30 5798 H 545.556 -2.57477 2.76611 0
M  V30 5799 H 545.869 -4.79042 6.06415 0
M  V30 5800 H 544.214 -4.31361 5.44934 0
M  V30 5801 H 547.405 -3.12715 3.4832 0
M  V30 5802 H 547.578 -4.13768 4.98698 0
M  V30 5803 N 540.985 -1.06182 -1.16461 0
M  V30 5804 C 541.933 -0.665716 -2.2287 0
M  V30 5805 C 542.927 0.317822 -1.66392 0
M  V30 5806 O 544.133 0.182807 -1.79069 0
M  V30 5807 H 540.508 -0.197148 -0.725697 0
M  V30 5808 H 542.479 -1.57307 -2.53569 0
M  V30 5809 C 541.228 -0.0669803 -3.47635 0
M  V30 5810 H 540.551 -0.814899 -3.91407 0
M  V30 5811 H 541.991 0.172669 -4.23648 0
M  V30 5812 C 540.45 1.18913 -3.15216 0
M  V30 5813 O 540.98 2.27723 -3.30916 0
M  V30 5814 N 539.186 1.09066 -2.69357 0
M  V30 5815 H 538.733 0.20518 -2.56782 0
M  V30 5816 H 538.691 1.93195 -2.48039 0
M  V30 5817 N 542.463 1.3308 -0.844243 0
M  V30 5818 C 543.373 2.32876 -0.283922 0
M  V30 5819 C 544.389 1.63589 0.592846 0
M  V30 5820 O 545.565 1.95205 0.495693 0
M  V30 5821 C 542.63 3.42667 0.527283 0
M  V30 5822 C 541.691 4.27664 -0.374394 0
M  V30 5823 C 540.924 5.32212 0.39819 0
M  V30 5824 O 541.147 5.46635 1.62932 0
M  V30 5825 O 540.081 6.01458 -0.2306 0
M  V30 5826 H 543.907 2.82671 -1.11045 0
M  V30 5827 H 541.492 1.36518 -0.606903 0
M  V30 5828 H 543.374 4.09652 0.988078 0
M  V30 5829 H 542.049 2.95079 1.33078 0
M  V30 5830 H 540.956 3.63526 -0.883144 0
M  V30 5831 H 542.289 4.78749 -1.1428 0
M  V30 5832 N 543.941 0.601185 1.45683 0
M  V30 5833 C 544.851 -0.123395 2.34275 0
M  V30 5834 C 545.867 -0.86702 1.5086 0
M  V30 5835 O 547.043 -0.826049 1.8368 0
M  V30 5836 C 544.108 -1.11237 3.2837 0
M  V30 5837 C 543.169 -0.371405 4.2769 0
M  V30 5838 C 542.402 -1.31327 5.1729 0
M  V30 5839 O 542.625 -2.55078 5.10188 0
M  V30 5840 O 541.559 -0.813811 5.96373 0
M  V30 5841 H 545.385 0.604483 2.97623 0
M  V30 5842 H 542.97 0.361477 1.44961 0
M  V30 5843 H 544.852 -1.68214 3.8637 0
M  V30 5844 H 543.527 -1.82139 2.67595 0
M  V30 5845 H 542.434 0.24067 3.73325 0
M  V30 5846 H 543.767 0.296998 4.91303 0
M  V30 5847 N 545.419 -1.53889 0.339982 0
M  V30 5848 C 546.382 -2.23547 -0.50592 0
M  V30 5849 C 547.382 -1.23445 -1.03044 0
M  V30 5850 O 548.572 -1.47909 -0.920253 0
M  V30 5851 C 545.704 -2.95234 -1.7044 0
M  V30 5852 H 546.897 -2.99722 0.103247 0
M  V30 5853 H 544.45 -1.56033 0.0912804 0
M  V30 5854 H 545.185 -2.23236 -2.35236 0
M  V30 5855 H 544.97 -3.68654 -1.33553 0
M  V30 5856 H 546.46 -3.48258 -2.30447 0
M  V30 5857 N 546.897 -0.0685191 -1.57451 0
M  V30 5858 C 547.844 0.899861 -2.12535 0
M  V30 5859 C 548.814 1.29749 -1.03703 0
M  V30 5860 O 549.999 1.38392 -1.31348 0
M  V30 5861 C 547.139 2.16328 -2.6888 0
M  V30 5862 C 546.252 1.81857 -3.91857 0
M  V30 5863 C 545.387 3.02786 -4.36457 0
M  V30 5864 C 544.426 2.64317 -5.5209 0
M  V30 5865 N 543.563 3.77994 -5.91663 0
M  V30 5866 H 548.403 0.423243 -2.94979 0
M  V30 5867 H 545.94 0.197268 -1.45771 0
M  V30 5868 H 547.898 2.90281 -2.99655 0
M  V30 5869 H 546.528 2.61536 -1.89206 0
M  V30 5870 H 545.58 0.979808 -3.67565 0
M  V30 5871 H 546.892 1.49553 -4.75852 0
M  V30 5872 H 546.046 3.85021 -4.68875 0
M  V30 5873 H 544.785 3.38281 -3.51308 0
M  V30 5874 H 543.79 1.80503 -5.19325 0
M  V30 5875 H 545.015 2.29995 -6.38967 0
M  V30 5876 H 542.961 4.13258 -5.09464 0
M  V30 5877 H 542.878 3.49447 -6.7039 0
M  V30 5878 H 544.146 4.60818 -6.28703 0
M  V30 5879 N 548.375 1.56261 0.205012 0
M  V30 5880 C 549.322 1.93754 1.25411 0
M  V30 5881 C 550.292 0.796826 1.45739 0
M  V30 5882 O 551.477 1.05414 1.59036 0
M  V30 5883 C 548.617 2.27383 2.59598 0
M  V30 5884 C 547.73 3.5447 2.46931 0
M  V30 5885 C 546.865 3.77468 3.73753 0
M  V30 5886 C 545.904 4.98014 3.55877 0
M  V30 5887 N 545.041 5.17316 4.74688 0
M  V30 5888 H 549.881 2.83203 0.92737 0
M  V30 5889 H 547.418 1.40158 0.446574 0
M  V30 5890 H 549.376 2.44895 3.37761 0
M  V30 5891 H 548.006 1.41088 2.90335 0
M  V30 5892 H 547.058 3.45061 1.60116 0
M  V30 5893 H 548.37 4.42789 2.29651 0
M  V30 5894 H 547.524 3.95165 4.60358 0
M  V30 5895 H 546.263 2.87461 3.93976 0
M  V30 5896 H 545.268 4.80249 2.67657 0
M  V30 5897 H 546.493 5.8952 3.37109 0
M  V30 5898 H 544.439 4.30255 4.95194 0
M  V30 5899 H 544.356 5.99796 4.60197 0
M  V30 5900 H 545.624 5.39463 5.62672 0
M  V30 5901 N 549.853 -0.472356 1.50355 0
M  V30 5902 C 550.783 -1.57859 1.72055 0
M  V30 5903 C 551.764 -1.60283 0.569505 0
M  V30 5904 O 552.949 -1.7657 0.808503 0
M  V30 5905 C 550.079 -2.96191 1.81351 0
M  V30 5906 C 549.033 -3.08633 2.96529 0
M  V30 5907 C 548.359 -4.486 2.90968 0
M  V30 5908 C 549.659 -2.85969 4.37057 0
M  V30 5909 H 551.353 -1.39953 2.64676 0
M  V30 5910 H 548.899 -0.671846 1.27367 0
M  V30 5911 H 550.852 -3.73507 1.95117 0
M  V30 5912 H 549.576 -3.15251 0.853502 0
M  V30 5913 H 548.235 -2.33749 2.82413 0
M  V30 5914 H 547.883 -4.64577 1.92815 0
M  V30 5915 H 547.583 -4.57861 3.68289 0
M  V30 5916 H 549.107 -5.27938 3.0678 0
M  V30 5917 H 550.521 -3.53036 4.51706 0
M  V30 5918 H 548.918 -3.06677 5.15819 0
M  V30 5919 H 549.988 -1.81838 4.49514 0
M  V30 5920 N 551.331 -1.39911 -0.725443 0
M  V30 5921 C 552.261 -1.42138 -1.85254 0
M  V30 5922 C 553.242 -0.283513 -1.67721 0
M  V30 5923 O 554.427 -0.490717 -1.87898 0
M  V30 5924 C 551.557 -1.27354 -3.23107 0
M  V30 5925 C 550.511 -2.3864 -3.55296 0
M  V30 5926 C 549.837 -2.08939 -4.92188 0
M  V30 5927 C 551.137 -3.8097 -3.57295 0
M  V30 5928 H 552.831 -2.36461 -1.83648 0
M  V30 5929 H 550.377 -1.13817 -0.882138 0
M  V30 5930 H 552.33 -1.2753 -4.01639 0
M  V30 5931 H 551.054 -0.295025 -3.25265 0
M  V30 5932 H 549.713 -2.37696 -2.79099 0
M  V30 5933 H 549.361 -1.09502 -4.90936 0
M  V30 5934 H 549.061 -2.83491 -5.14691 0
M  V30 5935 H 550.585 -2.10781 -5.73065 0
M  V30 5936 H 551.999 -3.8379 -4.25885 0
M  V30 5937 H 550.396 -4.5496 -3.9132 0
M  V30 5938 H 551.466 -4.11261 -2.5689 0
M  V30 5939 N 552.809 0.956637 -1.25245 0
M  V30 5940 C 553.772 2.03457 -1.05537 0
M  V30 5941 C 554.772 1.60798 -0.00886317 0
M  V30 5942 O 555.962 1.72384 -0.250865 0
M  V30 5943 C 553.094 3.35543 -0.601965 0
M  V30 5944 H 554.287 2.22372 -2.01223 0
M  V30 5945 H 551.84 1.13344 -1.07623 0
M  V30 5946 H 552.575 3.22323 0.357584 0
M  V30 5947 H 552.36 3.67854 -1.35743 0
M  V30 5948 H 553.85 4.14769 -0.485454 0
M  V30 5949 N 554.287 1.06798 1.15896 0
M  V30 5950 C 555.197 0.694564 2.24083 0
M  V30 5951 C 556.213 -0.291687 1.71538 0
M  V30 5952 O 557.389 -0.139723 2.00915 0
M  V30 5953 C 554.454 0.0921014 3.46578 0
M  V30 5954 C 553.515 1.13087 4.14137 0
M  V30 5955 C 552.748 0.557064 5.30785 0
M  V30 5956 O 552.971 -0.628623 5.66925 0
M  V30 5957 O 551.905 1.29924 5.8771 0
M  V30 5958 H 555.731 1.59663 2.58344 0
M  V30 5959 H 553.316 0.840575 1.2351 0
M  V30 5960 H 555.198 -0.241884 4.20705 0
M  V30 5961 H 553.873 -0.78337 3.14078 0
M  V30 5962 H 552.78 1.51712 3.41957 0
M  V30 5963 H 554.113 1.97805 4.50704 0
M  V30 5964 N 555.766 -1.3263 0.851289 0
M  V30 5965 C 556.729 -2.27247 0.298541 0
M  V30 5966 C 557.729 -1.51467 -0.539847 0
M  V30 5967 O 558.919 -1.7061 -0.351843 0
M  V30 5968 C 556.051 -3.35964 -0.578004 0
M  V30 5969 H 557.244 -2.7765 1.13359 0
M  V30 5970 H 554.797 -1.43245 0.625354 0
M  V30 5971 H 555.532 -2.90823 -1.435 0
M  V30 5972 H 555.317 -3.92094 0.0220539 0
M  V30 5973 H 556.807 -4.06472 -0.957626 0
M  V30 5974 N 557.244 -0.608902 -1.45362 0
M  V30 5975 C 558.492 -0.104401 -2.0183 0
M  V30 5976 C 558.813 1.27007 -1.47967 0
M  V30 5977 O 558.083 1.83924 -0.674455 0
M  V30 5978 H 556.663 -0.0356042 -0.746151 0
M  V30 5979 H 559.325 -0.790596 -1.78145 0
M  V30 5980 H 558.421 -0.0551793 -3.12051 0
M  V30 5981 N 558.722 1.53707 -0.348139 0
M  V30 5982 C 559.969 2.00988 0.246966 0
M  V30 5983 C 560.297 1.23586 1.50189 0
M  V30 5984 O 559.552 0.312817 1.93184 0
M  V30 5985 C 559.851 3.52292 0.602061 0
M  V30 5986 C 559.517 4.47453 -0.556509 0
M  V30 5987 C 558.179 4.73188 -0.874446 0
M  V30 5988 C 560.531 5.03851 -1.33354 0
M  V30 5989 C 557.859 5.52577 -1.9717 0
M  V30 5990 C 560.211 5.84437 -2.42108 0
M  V30 5991 C 558.875 6.08465 -2.74456 0
M  V30 5992 H 558.145 0.735469 0.0903712 0
M  V30 5993 H 560.792 1.85464 -0.477001 0
M  V30 5994 H 559.097 3.65672 1.40681 0
M  V30 5995 H 560.794 3.86337 1.07447 0
M  V30 5996 H 557.384 4.27558 -0.298652 0
M  V30 5997 H 561.568 4.8393 -1.10117 0
M  V30 5998 H 556.824 5.69418 -2.22651 0
M  V30 5999 H 560.998 6.27151 -3.02745 0
M  V30 6000 H 558.625 6.69768 -3.59604 0
M  V30 6001 N 560.2 0.0768682 1.57412 0
M  V30 6002 C 561.428 -0.59997 1.9801 0
M  V30 6003 C 561.843 -1.62842 0.955408 0
M  V30 6004 O 561.2 -1.8241 -0.057314 0
M  V30 6005 C 561.251 -1.26401 3.38681 0
M  V30 6006 O 560.972 -0.276723 4.37225 0
M  V30 6007 C 562.473 -2.0282 3.94182 0
M  V30 6008 H 559.693 -0.162239 0.651091 0
M  V30 6009 H 562.237 0.150771 2.03943 0
M  V30 6010 H 560.392 -1.96581 3.33819 0
M  V30 6011 H 560.806 -0.753744 5.19056 0
M  V30 6012 H 562.28 -2.44667 4.94815 0
M  V30 6013 H 562.757 -2.88678 3.31001 0
M  V30 6014 H 563.363 -1.37496 4.02461 0
M  V30 6015 N 561.678 -1.56367 -0.196722 0
M  V30 6016 C 562.641 -1.93561 -1.22746 0
M  V30 6017 C 563.641 -0.816566 -1.38524 0
M  V30 6018 O 564.831 -1.084 -1.36363 0
M  V30 6019 C 561.963 -2.20823 -2.59712 0
M  V30 6020 H 563.156 -2.85774 -0.909586 0
M  V30 6021 H 560.709 -1.50032 -0.438174 0
M  V30 6022 H 561.444 -1.31243 -2.96557 0
M  V30 6023 H 561.229 -3.02368 -2.49632 0
M  V30 6024 H 562.719 -2.50608 -3.34044 0
M  V30 6025 N 563.156 0.464375 -1.50603 0
M  V30 6026 C 564.433 1.22549 -1.5245 0
M  V30 6027 C 564.813 2.09327 -0.273035 0
M  V30 6028 O 564.161 2.16074 0.743242 0
M  V30 6029 C 564.371 2.05074 -2.82393 0
M  V30 6030 C 565.719 2.63036 -3.33313 0
M  V30 6031 O 566.743 2.1531 -2.8376 0
M  V30 6032 O 565.602 3.5001 -4.19709 0
M  V30 6033 H 562.696 0.556471 -0.611775 0
M  V30 6034 H 565.242 0.475648 -1.62898 0
M  V30 6035 H 564.014 1.41169 -3.64948 0
M  V30 6036 H 563.637 2.87179 -2.7498 0
M  V30 6037 N 564.634 1.40294 0.718013 0
M  V30 6038 C 565.581 1.40367 1.8321 0
M  V30 6039 C 566.551 0.260952 1.64037 0
M  V30 6040 O 567.736 0.458648 1.85205 0
M  V30 6041 C 564.876 1.26965 3.20895 0
M  V30 6042 C 563.989 2.50922 3.51656 0
M  V30 6043 C 563.124 2.29981 4.78834 0
M  V30 6044 C 562.163 3.49527 5.02491 0
M  V30 6045 N 561.3 3.27796 6.20882 0
M  V30 6046 H 566.14 2.35593 1.82482 0
M  V30 6047 H 563.677 1.17012 0.891444 0
M  V30 6048 H 565.635 1.17202 4.00399 0
M  V30 6049 H 564.265 0.353591 3.20858 0
M  V30 6050 H 563.317 2.71223 2.66725 0
M  V30 6051 H 564.629 3.39913 3.65048 0
M  V30 6052 H 563.783 2.17558 5.66351 0
M  V30 6053 H 562.522 1.38411 4.67647 0
M  V30 6054 H 561.527 3.6243 4.1343 0
M  V30 6055 H 562.752 4.42021 5.15553 0
M  V30 6056 H 560.698 2.38906 6.1095 0
M  V30 6057 H 560.615 4.10351 6.34939 0
M  V30 6058 H 561.883 3.19101 7.11193 0
M  V30 6059 N 566.112 -0.949982 1.2575 0
M  V30 6060 C 567.523 -1.50989 1.09815 0
M  V30 6061 C 567.874 -1.93497 -0.324556 0
M  V30 6062 O 566.999 -1.79068 -1.21506 0
M  V30 6063 C 567.594 -2.74394 1.98729 0
M  V30 6064 C 566.153 -3.26682 1.86965 0
M  V30 6065 C 565.3 -1.99498 1.92603 0
M  V30 6066 H 568.251 -0.766387 1.38968 0
M  V30 6067 H 568.272 -3.48383 1.53001 0
M  V30 6068 H 567.784 -2.43425 3.02268 0
M  V30 6069 H 565.885 -3.62461 0.863279 0
M  V30 6070 H 565.998 -3.94383 2.72027 0
M  V30 6071 H 564.362 -2.15005 1.36546 0
M  V30 6072 H 565.145 -1.70871 2.97755 0
M  V30 6073 N 567.59 -1.07411 -1.15328 0
M  V30 6074 C 568.52 -0.716472 -2.22236 0
M  V30 6075 C 569.501 0.296373 -1.67498 0
M  V30 6076 O 570.686 0.168989 -1.93463 0
M  V30 6077 C 567.816 -0.114142 -3.47112 0
M  V30 6078 C 566.77 -1.05421 -4.14814 0
M  V30 6079 C 566.096 -0.314604 -5.33774 0
M  V30 6080 C 567.396 -2.38808 -4.64508 0
M  V30 6081 H 569.09 -1.61029 -2.52408 0
M  V30 6082 H 566.636 -0.775702 -1.21321 0
M  V30 6083 H 568.589 0.148001 -4.2114 0
M  V30 6084 H 567.313 0.814755 -3.16274 0
M  V30 6085 H 565.972 -1.30128 -3.42728 0
M  V30 6086 H 565.62 0.617772 -4.99192 0
M  V30 6087 H 565.32 -0.941209 -5.80013 0
M  V30 6088 H 566.844 -0.0602747 -6.1057 0
M  V30 6089 H 568.258 -2.18424 -5.3006 0
M  V30 6090 H 566.655 -2.97069 -5.21412 0
M  V30 6091 H 567.725 -3.01067 -3.80114 0
M  V30 6092 N 569.068 1.32177 -0.85831 0
M  V30 6093 C 570.296 2.01313 -0.477582 0
M  V30 6094 C 570.711 1.6449 0.926736 0
M  V30 6095 O 570.068 0.868096 1.60531 0
M  V30 6096 C 570.119 3.56293 -0.611337 0
M  V30 6097 O 569.84 3.91794 -1.96034 0
M  V30 6098 C 571.341 4.42702 -0.230093 0
M  V30 6099 H 568.561 0.644323 -0.187322 0
M  V30 6100 H 571.105 1.68674 -1.15626 0
M  V30 6101 H 569.26 3.87395 0.0196494 0
M  V30 6102 H 569.674 4.86513 -1.95973 0
M  V30 6103 H 571.148 5.50727 -0.374674 0
M  V30 6104 H 571.625 4.3129 0.829779 0
M  V30 6105 H 572.231 4.16997 -0.836302 0
M  V30 6106 N 570.547 0.616602 1.45037 0
M  V30 6107 C 571.794 0.115331 2.02171 0
M  V30 6108 C 572.122 -1.25748 1.48383 0
M  V30 6109 O 571.377 -1.84511 0.652229 0
M  V30 6110 C 571.676 0.0356829 3.57382 0
M  V30 6111 C 571.342 1.34535 4.30362 0
M  V30 6112 C 570.004 1.70408 4.50016 0
M  V30 6113 C 572.356 2.21049 4.72003 0
M  V30 6114 C 569.684 2.92529 5.0857 0
M  V30 6115 C 572.036 3.42427 5.31908 0
M  V30 6116 C 570.7 3.78541 5.49784 0
M  V30 6117 H 569.97 0.0422024 0.739797 0
M  V30 6118 H 572.617 0.80002 1.73988 0
M  V30 6119 H 570.922 -0.732314 3.84895 0
M  V30 6120 H 572.619 -0.368463 3.99304 0
M  V30 6121 H 569.209 1.05615 4.15383 0
M  V30 6122 H 573.393 1.94632 4.56544 0
M  V30 6123 H 568.649 3.20605 5.20598 0
M  V30 6124 H 572.823 4.09709 5.63127 0
M  V30 6125 H 570.45 4.73255 5.94923 0
M  V30 6126 N 572.025 -1.5352 0.356285 0
M  V30 6127 C 573.302 -1.93405 -0.292223 0
M  V30 6128 C 573.682 -1.28901 -1.67176 0
M  V30 6129 O 573.03 -0.444632 -2.24132 0
M  V30 6130 C 573.24 -3.47223 -0.35175 0
M  V30 6131 C 574.588 -4.20389 -0.596534 0
M  V30 6132 O 575.612 -3.53554 -0.433344 0
M  V30 6133 O 574.471 -5.3881 -0.913589 0
M  V30 6134 H 571.565 -0.808666 -0.173172 0
M  V30 6135 H 574.111 -1.64713 0.408391 0
M  V30 6136 H 572.883 -3.86423 0.615841 0
M  V30 6137 H 572.506 -3.8212 -1.09864 0
M  V30 6138 N 573.503 -0.0852151 -1.57369 0
M  V30 6139 C 574.433 0.874556 -2.16503 0
M  V30 6140 C 575.414 1.30111 -1.09568 0
M  V30 6141 O 576.599 1.36977 -1.37662 0
M  V30 6142 C 573.729 2.13731 -2.73745 0
M  V30 6143 C 572.683 1.84971 -3.85966 0
M  V30 6144 C 572.009 3.17991 -4.29867 0
M  V30 6145 C 573.309 1.14442 -5.09608 0
M  V30 6146 H 575.003 0.381899 -2.96954 0
M  V30 6147 H 572.549 0.18225 -1.42842 0
M  V30 6148 H 574.502 2.81302 -3.13763 0
M  V30 6149 H 573.226 2.65263 -1.90534 0
M  V30 6150 H 571.885 1.19801 -3.46473 0
M  V30 6151 H 571.533 3.6739 -3.4356 0
M  V30 6152 H 571.233 2.99534 -5.05523 0
M  V30 6153 H 572.757 3.86737 -4.72511 0
M  V30 6154 H 574.171 1.72105 -5.46857 0
M  V30 6155 H 572.568 1.06197 -5.90629 0
M  V30 6156 H 573.638 0.12559 -4.84737 0
M  V30 6157 N 574.981 1.5647 0.188427 0
M  V30 6158 C 575.911 1.98101 1.23606 0
M  V30 6159 C 576.892 0.853961 1.47111 0
M  V30 6160 O 578.077 1.11879 1.58735 0
M  V30 6161 C 575.207 2.32624 2.57882 0
M  V30 6162 C 574.161 3.48129 2.48978 0
M  V30 6163 C 573.487 3.68347 3.87588 0
M  V30 6164 C 574.787 4.82112 2.00911 0
M  V30 6165 H 576.481 2.85864 0.890068 0
M  V30 6166 H 574.027 1.37532 0.426714 0
M  V30 6167 H 575.98 2.60343 3.3136 0
M  V30 6168 H 574.704 1.41751 2.94235 0
M  V30 6169 H 573.363 3.20511 1.77956 0
M  V30 6170 H 573.011 2.74793 4.21305 0
M  V30 6171 H 572.711 4.46055 3.82503 0
M  V30 6172 H 574.235 3.98449 4.62678 0
M  V30 6173 H 575.649 5.08819 2.64151 0
M  V30 6174 H 574.046 5.63337 2.06814 0
M  V30 6175 H 575.116 4.75249 0.96262 0
M  V30 6176 N 576.459 -0.456382 1.50847 0
M  V30 6177 C 577.689 -1.22848 1.66108 0
M  V30 6178 C 578.097 -1.85936 0.349897 0
M  V30 6179 O 577.44 -1.70664 -0.679665 0
M  V30 6180 C 577.502 -2.36722 2.70561 0
M  V30 6181 C 577.166 -1.94154 4.13707 0
M  V30 6182 C 578.163 -1.4557 4.99105 0
M  V30 6183 C 575.848 -2.02426 4.59705 0
M  V30 6184 C 577.842 -1.0582 6.28555 0
M  V30 6185 C 575.529 -1.62287 5.89157 0
M  V30 6186 C 576.527 -1.14064 6.73408 0
M  V30 6187 O 576.215 -0.744873 8.00442 0
M  V30 6188 H 575.947 -0.377105 0.561042 0
M  V30 6189 H 578.501 -0.549431 1.97915 0
M  V30 6190 H 576.731 -3.07844 2.34027 0
M  V30 6191 H 578.42 -2.98646 2.74892 0
M  V30 6192 H 579.186 -1.38589 4.64777 0
M  V30 6193 H 575.065 -2.38908 3.94264 0
M  V30 6194 H 578.609 -0.6811 6.94267 0
M  V30 6195 H 574.506 -1.68932 6.23003 0
M  V30 6196 H 575.274 -0.87242 8.13837 0
M  V30 6197 N 577.937 -1.40673 -0.710563 0
M  V30 6198 C 578.885 -1.41517 -1.84596 0
M  V30 6199 C 579.879 -0.295043 -1.66811 0
M  V30 6200 O 581.085 -0.466331 -1.73854 0
M  V30 6201 H 577.46 -0.442467 -0.608052 0
M  V30 6202 H 579.431 -2.37238 -1.80999 0
M  V30 6203 C 578.18 -1.29957 -3.225 0
M  V30 6204 H 577.503 -2.15429 -3.36794 0
M  V30 6205 H 578.943 -1.34608 -4.02066 0
M  V30 6206 C 577.402 -0.0103164 -3.36898 0
M  V30 6207 O 577.932 0.950707 -3.90288 0
M  V30 6208 N 576.138 0.0608409 -2.90536 0
M  V30 6209 H 575.685 -0.721943 -2.47277 0
M  V30 6210 H 575.643 0.92292 -3.00549 0
M  V30 6211 N 579.415 0.9433 -1.26252 0
M  V30 6212 C 580.643 1.72367 -1.14443 0
M  V30 6213 C 581.058 1.86392 0.300572 0
M  V30 6214 O 580.415 1.36978 1.20596 0
M  V30 6215 C 580.466 3.13155 -1.806 0
M  V30 6216 O 580.187 2.99803 -3.19452 0
M  V30 6217 C 581.688 4.07417 -1.74717 0
M  V30 6218 H 578.908 0.539758 -0.398626 0
M  V30 6219 H 581.452 1.18268 -1.66832 0
M  V30 6220 H 579.607 3.64162 -1.32154 0
M  V30 6221 H 580.021 3.88697 -3.52158 0
M  V30 6222 H 581.495 5.03773 -2.25647 0
M  V30 6223 H 581.972 4.3337 -0.713244 0
M  V30 6224 H 582.578 3.6233 -2.22704 0
M  V30 6225 N 580.893 1.08022 1.14757 0
M  V30 6226 C 582.118 0.82895 1.90114 0
M  V30 6227 C 582.543 -0.612772 1.77839 0
M  V30 6228 O 581.901 -1.42895 1.11583 0
M  V30 6229 C 581.949 1.25062 3.38219 0
M  V30 6230 O 581.053 0.400119 4.10454 0
M  V30 6231 H 580.394 0.301412 0.591648 0
M  V30 6232 H 582.924 1.44062 1.45284 0
M  V30 6233 H 582.934 1.22977 3.89025 0
M  V30 6234 H 581.609 2.30067 3.46471 0
M  V30 6235 H 580.186 0.484052 3.69745 0
M  V30 6236 N 582.371 -1.3172 0.865308 0
M  V30 6237 C 583.648 -1.91574 0.394789 0
M  V30 6238 C 584.028 -1.78769 -1.12271 0
M  V30 6239 O 583.376 -1.19245 -1.94918 0
M  V30 6240 C 583.586 -3.37957 0.870982 0
M  V30 6241 C 584.934 -4.15073 0.894384 0
M  V30 6242 O 585.958 -3.4672 0.816325 0
M  V30 6243 O 584.817 -5.37151 1.00651 0
M  V30 6244 H 581.911 -0.818649 0.117229 0
M  V30 6245 H 584.457 -1.4042 0.952913 0
M  V30 6246 H 583.229 -3.41269 1.91444 0
M  V30 6247 H 582.852 -3.96534 0.290907 0
M  V30 6248 N 583.85 -0.624285 -1.44708 0
M  V30 6249 C 584.779 0.0717025 -2.3339 0
M  V30 6250 C 585.76 0.841814 -1.47809 0
M  V30 6251 O 586.946 0.809056 -1.76544 0
M  V30 6252 C 584.076 1.05852 -3.30776 0
M  V30 6253 C 583.029 0.400503 -4.26122 0
M  V30 6254 C 582.356 1.49674 -5.13324 0
M  V30 6255 C 583.656 -0.688924 -5.17737 0
M  V30 6256 H 585.35 -0.668819 -2.91834 0
M  V30 6257 H 582.896 -0.32308 -1.40329 0
M  V30 6258 H 584.849 1.5541 -3.91696 0
M  V30 6259 H 583.572 1.82984 -2.70526 0
M  V30 6260 H 582.231 -0.0743687 -3.66525 0
M  V30 6261 H 581.88 2.25877 -4.49431 0
M  V30 6262 H 581.58 1.06188 -5.77926 0
M  V30 6263 H 583.104 1.99427 -5.77115 0
M  V30 6264 H 584.518 -0.276724 -5.72632 0
M  V30 6265 H 582.915 -1.04652 -5.90904 0
M  V30 6266 H 583.985 -1.55884 -4.5916 0
M  V30 6267 N 585.328 1.53329 -0.364422 0
M  V30 6268 C 586.278 2.22472 0.499024 0
M  V30 6269 C 587.262 1.21952 1.0496 0
M  V30 6270 O 588.454 1.47405 0.979836 0
M  V30 6271 C 585.583 3.01659 1.6388 0
M  V30 6272 C 584.669 4.09555 1.10116 0
M  V30 6273 N 585.06 5.04988 0.286414 0
M  V30 6274 C 583.358 4.2424 1.37608 0
M  V30 6275 C 584.059 5.81699 -0.00781682 0
M  V30 6276 N 583.035 5.40394 0.589494 0
M  V30 6277 H 586.837 2.93611 -0.130284 0
M  V30 6278 H 584.351 1.61483 -0.172377 0
M  V30 6279 H 586.348 3.4971 2.26954 0
M  V30 6280 H 585.008 2.32051 2.27118 0
M  V30 6281 H 586.019 5.17847 -0.0742839 0
M  V30 6282 H 582.696 3.65858 2.01133 0
M  V30 6283 H 584.086 6.68587 -0.666394 0
M  V30 6284 N 586.806 0.0935595 1.57322 0
M  V30 6285 C 587.753 -0.865935 2.1394 0
M  V30 6286 C 588.723 -1.28083 1.05754 0
M  V30 6287 O 589.908 -1.36285 1.33533 0
M  V30 6288 C 587.048 -2.12023 2.72287 0
M  V30 6289 C 586.161 -1.756 3.94701 0
M  V30 6290 C 585.296 -2.95804 4.41218 0
M  V30 6291 C 584.335 -2.555 5.56225 0
M  V30 6292 N 583.472 -3.68534 5.97601 0
M  V30 6293 H 588.312 -0.376261 2.95615 0
M  V30 6294 H 585.849 -0.174052 1.46067 0
M  V30 6295 H 587.807 -2.85477 3.04235 0
M  V30 6296 H 586.437 -2.58492 1.93343 0
M  V30 6297 H 585.489 -0.921208 3.69077 0
M  V30 6298 H 586.801 -1.41964 4.78171 0
M  V30 6299 H 585.955 -3.77513 4.74941 0
M  V30 6300 H 584.694 -3.32649 3.56645 0
M  V30 6301 H 583.699 -1.72218 5.22131 0
M  V30 6302 H 584.924 -2.19801 6.42545 0
M  V30 6303 H 582.87 -4.051 5.15974 0
M  V30 6304 H 582.787 -3.38737 6.75865 0
M  V30 6305 H 584.055 -4.50757 6.35955 0
M  V30 6306 N 588.284 -1.56567 -0.180126 0
M  V30 6307 C 589.231 -1.95725 -1.22313 0
M  V30 6308 C 590.201 -0.819911 -1.44453 0
M  V30 6309 O 591.386 -1.07931 -1.57339 0
M  V30 6310 C 588.526 -2.31484 -2.55947 0
M  V30 6311 C 587.639 -3.58354 -2.4126 0
M  V30 6312 C 586.774 -3.83366 -3.67701 0
M  V30 6313 C 585.813 -5.03612 -3.47909 0
M  V30 6314 N 584.95 -5.24802 -4.66398 0
M  V30 6315 H 589.79 -2.84642 -0.882198 0
M  V30 6316 H 587.327 -1.4085 -0.42422 0
M  V30 6317 H 589.285 -2.50237 -3.33822 0
M  V30 6318 H 587.915 -1.45689 -2.88053 0
M  V30 6319 H 586.967 -3.47565 -1.54606 0
M  V30 6320 H 588.279 -4.46386 -2.22577 0
M  V30 6321 H 587.433 -4.02439 -4.54013 0
M  V30 6322 H 586.172 -2.93692 -3.89353 0
M  V30 6323 H 585.177 -4.84447 -2.59983 0
M  V30 6324 H 586.402 -5.94809 -3.27688 0
M  V30 6325 H 584.348 -4.38079 -4.88286 0
M  V30 6326 H 584.265 -6.07041 -4.50596 0
M  V30 6327 H 585.533 -5.48346 -5.54019 0
M  V30 6328 N 589.762 0.448376 -1.51087 0
M  V30 6329 C 590.692 1.55102 -1.74544 0
M  V30 6330 C 591.673 1.59357 -0.594932 0
M  V30 6331 O 592.858 1.75261 -0.836491 0
M  V30 6332 C 589.988 2.93268 -1.86041 0
M  V30 6333 C 588.942 3.03877 -3.01402 0
M  V30 6334 C 588.268 4.43914 -2.98068 0
M  V30 6335 C 589.568 2.7898 -4.41551 0
M  V30 6336 H 591.262 1.35724 -2.66869 0
M  V30 6337 H 588.808 0.651498 -1.28419 0
M  V30 6338 H 590.761 3.70356 -2.01034 0
M  V30 6339 H 589.485 3.13853 -0.903548 0
M  V30 6340 H 588.144 2.29227 -2.86096 0
M  V30 6341 H 587.792 4.6145 -2.00182 0
M  V30 6342 H 587.492 4.51944 -3.75527 0
M  V30 6343 H 589.016 5.22991 -3.1514 0
M  V30 6344 H 590.43 3.45805 -4.57265 0
M  V30 6345 H 588.827 2.98431 -5.20633 0
M  V30 6346 H 589.897 1.74663 -4.5235 0
M  V30 6347 N 591.24 1.41047 0.703093 0
M  V30 6348 C 592.203 1.42036 1.79884 0
M  V30 6349 C 593.203 0.312153 1.57741 0
M  V30 6350 O 594.393 0.571672 1.64553 0
M  V30 6351 C 591.525 1.22437 3.18154 0
M  V30 6352 H 592.718 2.39572 1.80403 0
M  V30 6353 H 590.271 1.27079 0.909977 0
M  V30 6354 H 591.006 0.257112 3.23279 0
M  V30 6355 H 590.791 2.02723 3.35627 0
M  V30 6356 H 592.281 1.25946 3.98155 0
M  V30 6357 N 592.718 -0.936591 1.26751 0
M  V30 6358 C 593.967 -1.67778 1.11953 0
M  V30 6359 C 594.28 -1.92694 -0.33589 0
M  V30 6360 O 595.486 -2.64682 -0.604618 0
M  V30 6361 C 593.942 -3.02138 1.95551 0
M  V30 6362 C 593.55 -2.84953 3.45696 0
M  V30 6363 C 595.294 -3.79917 1.89377 0
M  V30 6364 C 593.201 -4.14814 4.21525 0
M  V30 6365 H 592.131 -0.629275 0.415366 0
M  V30 6366 H 594.782 -1.04122 1.51099 0
M  V30 6367 H 593.164 -3.668 1.49243 0
M  V30 6368 H 594.338 -2.29112 3.99805 0
M  V30 6369 H 592.653 -2.20612 3.53156 0
M  V30 6370 H 595.25 -4.76134 2.43312 0
M  V30 6371 H 595.593 -4.07204 0.865464 0
M  V30 6372 H 596.126 -3.22037 2.33532 0
M  V30 6373 H 592.865 -3.92709 5.24843 0
M  V30 6374 H 592.385 -4.70352 3.72195 0
M  V30 6375 H 594.064 -4.83239 4.3022 0
M  V30 6376 N 594.196 -1.08629 -1.14182 0
M  V30 6377 C 595.159 -0.722027 -2.1753 0
M  V30 6378 C 596.159 0.244305 -1.58933 0
M  V30 6379 O 597.349 0.0235545 -1.74184 0
M  V30 6380 C 594.481 -0.0663966 -3.40835 0
M  V30 6381 H 595.674 -1.63719 -2.51269 0
M  V30 6382 H 593.227 -0.884442 -1.28869 0
M  V30 6383 H 593.962 0.860389 -3.12678 0
M  V30 6384 H 593.747 -0.761598 -3.84632 0
M  V30 6385 H 595.237 0.173346 -4.1724 0
M  V30 6386 N 595.674 1.31259 -0.872281 0
M  V30 6387 C 596.92 1.96913 -0.485083 0
M  V30 6388 C 597.253 1.68774 0.960667 0
M  V30 6389 O 596.528 0.985495 1.67685 0
M  V30 6390 C 596.811 3.52299 -0.745502 0
M  V30 6391 C 596.664 3.90002 -2.24095 0
M  V30 6392 C 597.983 4.39582 -0.213516 0
M  V30 6393 H 595.102 0.715252 -0.177716 0
M  V30 6394 H 597.744 1.55347 -1.09395 0
M  V30 6395 H 595.894 3.87835 -0.227276 0
M  V30 6396 H 597.566 3.64555 -2.82661 0
M  V30 6397 H 595.809 3.38526 -2.71261 0
M  V30 6398 H 596.48 4.98352 -2.37381 0
M  V30 6399 H 598.956 4.10882 -0.656902 0
M  V30 6400 H 597.832 5.47251 -0.42516 0
M  V30 6401 H 598.093 4.33158 0.884666 0
M  V30 6402 N 597.152 0.631951 1.44375 0
M  V30 6403 C 598.115 -0.0628142 2.29114 0
M  V30 6404 C 599.115 -0.771494 1.41084 0
M  V30 6405 O 600.305 -0.615959 1.62947 0
M  V30 6406 C 597.437 -1.09953 3.22681 0
M  V30 6407 H 598.63 0.682509 2.92031 0
M  V30 6408 H 596.183 0.392128 1.51301 0
M  V30 6409 H 596.918 -1.87481 2.64616 0
M  V30 6410 H 596.703 -0.595286 3.87555 0
M  V30 6411 H 598.193 -1.58538 3.86336 0
M  V30 6412 N 598.631 -1.53133 0.372548 0
M  V30 6413 C 599.856 -2.0625 -0.218098 0
M  V30 6414 C 600.281 -1.24375 -1.41111 0
M  V30 6415 O 599.639 -0.264554 -1.79359 0
M  V30 6416 C 599.687 -3.55858 -0.582876 0
M  V30 6417 O 598.791 -3.76667 -1.67917 0
M  V30 6418 H 598.132 -0.663317 -0.030104 0
M  V30 6419 H 600.662 -1.97477 0.535169 0
M  V30 6420 H 600.672 -3.99007 -0.851925 0
M  V30 6421 H 599.347 -4.14892 0.289428 0
M  V30 6422 H 597.924 -3.45413 -1.40513 0
M  V30 6423 N 600.109 -0.101901 -1.5727 0
M  V30 6424 C 601.358 0.559922 -1.93772 0
M  V30 6425 C 601.671 1.68913 -0.98629 0
M  V30 6426 O 602.877 2.41256 -1.24529 0
M  V30 6427 C 601.333 1.04739 -3.44322 0
M  V30 6428 C 600.941 -0.05243 -4.47969 0
M  V30 6429 C 602.685 1.68157 -3.89774 0
M  V30 6430 C 600.592 0.450781 -5.8968 0
M  V30 6431 H 599.522 0.212931 -0.723309 0
M  V30 6432 H 602.173 -0.179001 -1.82625 0
M  V30 6433 H 600.555 1.84021 -3.50645 0
M  V30 6434 H 601.729 -0.828157 -4.53297 0
M  V30 6435 H 600.044 -0.592202 -4.12167 0
M  V30 6436 H 602.641 2.0689 -4.93052 0
M  V30 6437 H 602.984 2.55338 -3.28798 0
M  V30 6438 H 603.517 0.954453 -3.8618 0
M  V30 6439 H 600.256 -0.38458 -6.54371 0
M  V30 6440 H 599.776 1.19336 -5.87809 0
M  V30 6441 H 601.455 0.917555 -6.40461 0
M  V30 6442 N 601.587 1.56661 0.17182 0
M  V30 6443 C 602.833 1.8313 0.88516 0
M  V30 6444 C 603.188 0.682376 1.79893 0
M  V30 6445 O 602.481 -0.321215 1.88888 0
M  V30 6446 C 602.675 3.13435 1.71736 0
M  V30 6447 C 602.504 4.40892 0.885659 0
M  V30 6448 C 601.274 5.02177 0.560939 0
M  V30 6449 C 603.472 5.13797 0.227454 0
M  V30 6450 N 601.454 6.13229 -0.286953 0
M  V30 6451 C 602.825 6.18127 -0.481625 0
M  V30 6452 C 604.88 4.97687 0.145567 0
M  V30 6453 C 603.583 7.08092 -1.26482 0
M  V30 6454 C 605.609 5.88096 -0.624298 0
M  V30 6455 C 604.971 6.91888 -1.32174 0
M  V30 6456 H 601.07 0.721107 0.302536 0
M  V30 6457 H 603.654 1.94104 0.152178 0
M  V30 6458 H 601.825 3.03653 2.42176 0
M  V30 6459 H 603.557 3.27903 2.37196 0
M  V30 6460 H 600.312 4.65145 0.890902 0
M  V30 6461 H 600.736 6.73359 -0.701193 0
M  V30 6462 H 605.378 4.17451 0.670426 0
M  V30 6463 H 603.096 7.87774 -1.80103 0
M  V30 6464 H 606.682 5.77702 -0.689321 0
M  V30 6465 H 605.562 7.60637 -1.90791 0
M  V30 6466 N 603.065 -0.440357 1.51323 0
M  V30 6467 C 604.012 -1.53429 1.72419 0
M  V30 6468 C 604.982 -1.56165 0.565826 0
M  V30 6469 O 606.167 -1.73222 0.799917 0
M  V30 6470 C 603.307 -2.91169 1.85242 0
M  V30 6471 C 602.42 -2.97985 3.12777 0
M  V30 6472 C 601.555 -4.26829 3.16212 0
M  V30 6473 C 600.594 -4.27501 4.38074 0
M  V30 6474 N 599.731 -5.47866 4.39076 0
M  V30 6475 H 604.571 -1.34743 2.65797 0
M  V30 6476 H 602.108 -0.654608 1.31732 0
M  V30 6477 H 604.066 -3.71087 1.90658 0
M  V30 6478 H 602.696 -3.0842 0.952744 0
M  V30 6479 H 601.748 -2.10749 3.16685 0
M  V30 6480 H 603.06 -2.94342 4.02696 0
M  V30 6481 H 602.214 -5.15118 3.20527 0
M  V30 6482 H 600.953 -4.33124 2.24176 0
M  V30 6483 H 599.958 -3.37606 4.33938 0
M  V30 6484 H 601.183 -4.22873 5.31371 0
M  V30 6485 H 599.129 -5.54887 3.49909 0
M  V30 6486 H 599.046 -5.46091 5.22801 0
M  V30 6487 H 600.314 -6.38195 4.4758 0
M  V30 6488 N 604.543 -1.41418 -0.695603 0
M  V30 6489 C 605.49 -1.43264 -1.80954 0
M  V30 6490 C 606.46 -0.287016 -1.63601 0
M  V30 6491 O 607.645 -0.488054 -1.84452 0
M  V30 6492 C 604.785 -1.32054 -3.18835 0
M  V30 6493 C 603.898 -2.56485 -3.4762 0
M  V30 6494 C 603.033 -2.3757 -4.75115 0
M  V30 6495 C 602.072 -3.57477 -4.96867 0
M  V30 6496 N 601.209 -3.37632 -6.15588 0
M  V30 6497 H 606.049 -2.38467 -1.78711 0
M  V30 6498 H 603.586 -1.18415 -0.872715 0
M  V30 6499 H 605.544 -1.23558 -3.98484 0
M  V30 6500 H 604.174 -0.404592 -3.20254 0
M  V30 6501 H 603.226 -2.75432 -2.62376 0
M  V30 6502 H 604.538 -3.45678 -3.59594 0
M  V30 6503 H 603.692 -2.2654 -5.62818 0
M  V30 6504 H 602.431 -1.45834 -4.65386 0
M  V30 6505 H 601.436 -3.68961 -4.07612 0
M  V30 6506 H 602.661 -4.50167 -5.08455 0
M  V30 6507 H 600.607 -2.48596 -6.07072 0
M  V30 6508 H 600.524 -4.20401 -6.2833 0
M  V30 6509 H 601.792 -3.30375 -7.06026 0
M  V30 6510 N 606.021 0.929856 -1.27246 0
M  V30 6511 C 606.969 2.05151 -1.09616 0
M  V30 6512 C 607.963 1.69388 -0.0198617 0
M  V30 6513 O 609.169 1.79124 -0.177417 0
M  V30 6514 H 605.544 0.671909 -0.337701 0
M  V30 6515 H 607.515 2.17168 -2.04648 0
M  V30 6516 C 606.264 3.3934 -0.757851 0
M  V30 6517 H 605.587 3.67343 -1.57795 0
M  V30 6518 H 607.027 4.18603 -0.674358 0
M  V30 6519 C 605.486 3.32582 0.537658 0
M  V30 6520 O 606.016 3.69633 1.57271 0
M  V30 6521 N 604.222 2.8568 0.532478 0
M  V30 6522 H 603.769 2.55725 -0.310233 0
M  V30 6523 H 603.727 2.81541 1.39936 0
M  V30 6524 N 607.499 1.09233 1.13605 0
M  V30 6525 C 608.429 0.751738 2.21068 0
M  V30 6526 C 609.41 -0.269688 1.67948 0
M  V30 6527 O 610.595 -0.13819 1.93708 0
M  V30 6528 C 607.725 0.16935 3.46887 0
M  V30 6529 C 606.679 1.12007 4.13084 0
M  V30 6530 C 606.005 0.399483 5.33206 0
M  V30 6531 C 607.305 2.46168 4.6065 0
M  V30 6532 H 608.999 1.65024 2.49815 0
M  V30 6533 H 606.545 0.794905 1.20072 0
M  V30 6534 H 608.498 -0.0809824 4.21322 0
M  V30 6535 H 607.222 -0.764335 3.1753 0
M  V30 6536 H 605.881 1.35564 3.40614 0
M  V30 6537 H 605.529 -0.538277 5.00112 0
M  V30 6538 H 605.229 1.03337 5.78442 0
M  V30 6539 H 606.753 0.157403 6.10397 0
M  V30 6540 H 608.167 2.26829 5.26518 0
M  V30 6541 H 606.564 3.05326 5.1662 0
M  V30 6542 H 607.634 3.07076 3.75276 0
M  V30 6543 N 608.977 -1.30795 0.87923 0
M  V30 6544 C 610.225 -1.95974 0.493809 0
M  V30 6545 C 610.546 -1.69787 -0.959021 0
M  V30 6546 O 609.816 -1.01832 -1.67353 0
M  V30 6547 H 608.396 -0.725083 0.179622 0
M  V30 6548 H 611.058 -1.59432 1.12105 0
M  V30 6549 H 610.154 -3.05058 0.659263 0
M  V30 6550 N 610.455 -0.639598 -1.44038 0
M  V30 6551 C 611.701 -0.147698 -2.02261 0
M  V30 6552 C 612.034 1.23031 -1.50256 0
M  V30 6553 O 611.309 1.81847 -0.690068 0
M  V30 6554 C 611.592 -0.14362 -3.59813 0
M  V30 6555 C 611.445 -1.55458 -4.22082 0
M  V30 6556 C 612.764 0.527317 -4.36929 0
M  V30 6557 H 609.883 -0.0551453 -0.734934 0
M  V30 6558 H 612.525 -0.817688 -1.71505 0
M  V30 6559 H 610.675 0.426898 -3.86147 0
M  V30 6560 H 612.347 -2.17464 -4.06826 0
M  V30 6561 H 610.59 -2.10594 -3.79253 0
M  V30 6562 H 611.261 -1.50369 -5.31124 0
M  V30 6563 H 613.737 0.0420504 -4.16079 0
M  V30 6564 H 612.613 0.499389 -5.46624 0
M  V30 6565 H 612.874 1.59914 -4.12165 0
M  V30 6566 N 611.933 1.52934 -0.380664 0
M  V30 6567 C 612.881 2.27727 0.47361 0
M  V30 6568 C 613.875 1.31288 1.0705 0
M  V30 6569 O 615.081 1.4886 1.01197 0
M  V30 6570 H 611.456 0.732189 0.171475 0
M  V30 6571 H 613.427 2.97864 -0.178785 0
M  V30 6572 C 612.176 3.0904 1.59341 0
M  V30 6573 H 611.499 3.831 1.14343 0
M  V30 6574 H 612.939 3.64527 2.16555 0
M  V30 6575 C 611.398 2.20813 2.54447 0
M  V30 6576 O 611.928 1.82907 3.57642 0
M  V30 6577 N 610.134 1.85145 2.23986 0
M  V30 6578 H 609.681 2.16169 1.40103 0
M  V30 6579 H 609.639 1.26402 2.87871 0
M  V30 6580 N 613.412 0.11024 1.57214 0
M  V30 6581 C 614.658 -0.550684 1.9518 0
M  V30 6582 C 614.991 -1.66885 0.993122 0
M  V30 6583 O 614.266 -1.94479 0.0287907 0
M  V30 6584 C 614.549 -1.09163 3.43155 0
M  V30 6585 C 614.402 0.0225198 4.49794 0
M  V30 6586 C 615.721 -1.98527 3.92778 0
M  V30 6587 H 612.84 -0.198706 0.709708 0
M  V30 6588 H 615.482 0.184024 1.89107 0
M  V30 6589 H 613.632 -1.71775 3.48462 0
M  V30 6590 H 615.304 0.657443 4.56591 0
M  V30 6591 H 613.547 0.686868 4.28328 0
M  V30 6592 H 614.218 -0.39706 5.5057 0
M  V30 6593 H 616.694 -1.458 3.8972 0
M  V30 6594 H 615.57 -2.33298 4.96853 0
M  V30 6595 H 615.831 -2.90846 3.32958 0
M  V30 6596 N 614.89 -1.56749 -0.16351 0
M  V30 6597 C 615.838 -1.97939 -1.22159 0
M  V30 6598 C 616.832 -0.869288 -1.45395 0
M  V30 6599 O 618.038 -1.05443 -1.45883 0
M  V30 6600 H 614.413 -0.629869 -0.410815 0
M  V30 6601 H 616.384 -2.86115 -0.847381 0
M  V30 6602 C 615.133 -2.36206 -2.55151 0
M  V30 6603 H 614.456 -3.2117 -2.38097 0
M  V30 6604 H 615.896 -2.68863 -3.27854 0
M  V30 6605 C 614.355 -1.20841 -3.14482 0
M  V30 6606 O 614.885 -0.500258 -3.98573 0
M  V30 6607 N 613.091 -0.976943 -2.73686 0
M  V30 6608 H 612.638 -1.55457 -2.05404 0
M  V30 6609 H 612.596 -0.206912 -3.13718 0
M  V30 6610 N 616.368 0.432326 -1.51554 0
M  V30 6611 C 617.298 1.53242 -1.76179 0
M  V30 6612 C 618.279 1.58717 -0.611801 0
M  V30 6613 O 619.464 1.74364 -0.855033 0
M  V30 6614 C 616.594 2.91278 -1.89141 0
M  V30 6615 C 615.548 3.00663 -3.04608 0
M  V30 6616 C 614.874 4.40728 -3.02759 0
M  V30 6617 C 616.174 2.74281 -4.44485 0
M  V30 6618 H 617.868 1.32886 -2.68294 0
M  V30 6619 H 615.414 0.637841 -1.29103 0
M  V30 6620 H 617.367 3.68203 -2.04951 0
M  V30 6621 H 616.091 3.12877 -0.936785 0
M  V30 6622 H 614.75 2.26179 -2.88511 0
M  V30 6623 H 614.398 4.59301 -2.05065 0
M  V30 6624 H 614.098 4.47936 -3.80299 0
M  V30 6625 H 615.622 5.19619 -3.20669 0
M  V30 6626 H 617.036 3.40936 -4.60907 0
M  V30 6627 H 615.433 2.92893 -5.23769 0
M  V30 6628 H 616.503 1.69856 -4.54177 0
M  V30 6629 N 617.846 1.41785 0.688094 0
M  V30 6630 C 618.756 1.46596 1.83158 0
M  V30 6631 C 619.772 0.355862 1.70322 0
M  V30 6632 O 620.948 0.604737 1.92106 0
M  V30 6633 C 618.013 1.35322 3.192 0
M  V30 6634 C 617.074 2.56711 3.4409 0
M  V30 6635 C 616.307 2.45965 4.73642 0
M  V30 6636 O 616.53 1.48827 5.50642 0
M  V30 6637 O 615.464 3.35859 4.99482 0
M  V30 6638 H 619.29 2.43083 1.82056 0
M  V30 6639 H 616.875 1.23404 0.842126 0
M  V30 6640 H 618.757 1.31347 4.00407 0
M  V30 6641 H 617.432 0.419536 3.2097 0
M  V30 6642 H 616.339 2.66262 2.62784 0
M  V30 6643 H 617.672 3.48933 3.47141 0
M  V30 6644 N 619.324 -0.923095 1.27737 0
M  V30 6645 C 620.272 -2.04567 1.10703 0
M  V30 6646 C 621.266 -1.69375 0.0288445 0
M  V30 6647 O 622.472 -1.79027 0.186913 0
M  V30 6648 H 618.847 -0.670109 0.34126 0
M  V30 6649 H 620.818 -2.1608 2.05796 0
M  V30 6650 C 619.567 -3.38934 0.775837 0
M  V30 6651 H 618.89 -3.66501 1.59741 0
M  V30 6652 H 620.33 -4.18239 0.696548 0
M  V30 6653 C 618.789 -3.32863 -0.520012 0
M  V30 6654 O 619.319 -3.70462 -1.55308 0
M  V30 6655 N 617.525 -2.85958 -0.51732 0
M  V30 6656 H 617.072 -2.55557 0.32379 0
M  V30 6657 H 617.03 -2.82279 -1.38441 0
M  V30 6658 N 620.802 -1.09834 -1.13024 0
M  V30 6659 C 621.734 -0.699379 -2.18269 0
M  V30 6660 C 622.747 0.260841 -1.60697 0
M  V30 6661 O 623.936 0.0462538 -1.7844 0
M  V30 6662 C 621.036 -0.0104537 -3.38898 0
M  V30 6663 C 620.209 -0.993275 -4.25973 0
M  V30 6664 C 619.268 -0.336982 -5.2512 0
M  V30 6665 O 618.294 -0.985892 -5.60597 0
M  V30 6666 N 619.496 0.90716 -5.73368 0
M  V30 6667 H 622.261 -1.60486 -2.5311 0
M  V30 6668 H 619.822 -0.986337 -1.28386 0
M  V30 6669 H 621.814 0.43991 -4.02302 0
M  V30 6670 H 620.384 0.797335 -3.0226 0
M  V30 6671 H 619.604 -1.62208 -3.5928 0
M  V30 6672 H 620.892 -1.65876 -4.81002 0
M  V30 6673 H 620.29 1.45384 -5.46699 0
M  V30 6674 H 618.847 1.30077 -6.38689 0
M  V30 6675 N 622.28 1.30327 -0.886154 0
M  V30 6676 C 623.19 2.31854 -0.357866 0
M  V30 6677 C 624.206 1.65392 0.540502 0
M  V30 6678 O 625.382 1.96683 0.433339 0
M  V30 6679 C 622.447 3.44171 0.417999 0
M  V30 6680 C 621.508 4.26257 -0.510263 0
M  V30 6681 C 620.741 5.3321 0.228669 0
M  V30 6682 O 620.964 5.51542 1.45458 0
M  V30 6683 O 619.898 6.0042 -0.421832 0
M  V30 6684 H 623.724 2.78995 -1.19982 0
M  V30 6685 H 621.309 1.34518 -0.650028 0
M  V30 6686 H 623.191 4.12588 0.857251 0
M  V30 6687 H 621.866 2.99164 1.23623 0
M  V30 6688 H 620.773 3.60533 -0.99835 0
M  V30 6689 H 622.106 4.74871 -1.29454 0
M  V30 6690 N 623.758 0.647228 1.43697 0
M  V30 6691 C 625.004 0.167001 2.02713 0
M  V30 6692 C 625.359 -1.20351 1.50111 0
M  V30 6693 O 624.652 -1.79047 0.682113 0
M  V30 6694 C 624.846 0.111481 3.57226 0
M  V30 6695 C 624.675 1.47507 4.2482 0
M  V30 6696 C 623.445 2.06594 4.61137 0
M  V30 6697 C 625.643 2.41224 4.54219 0
M  V30 6698 N 623.625 3.3602 5.13774 0
M  V30 6699 C 624.996 3.55278 5.08112 0
M  V30 6700 C 627.051 2.40102 4.36183 0
M  V30 6701 C 625.754 4.68426 5.45866 0
M  V30 6702 C 627.78 3.52326 4.74995 0
M  V30 6703 C 627.142 4.65104 5.29015 0
M  V30 6704 H 623.241 0.105402 0.774864 0
M  V30 6705 H 625.825 0.854229 1.7496 0
M  V30 6706 H 623.996 -0.545073 3.84556 0
M  V30 6707 H 625.728 -0.379063 4.02921 0
M  V30 6708 H 622.483 1.59366 4.45981 0
M  V30 6709 H 622.907 4.02233 5.44552 0
M  V30 6710 H 627.549 1.54151 3.93697 0
M  V30 6711 H 625.267 5.55074 5.87298 0
M  V30 6712 H 628.853 3.52652 4.6274 0
M  V30 6713 H 627.733 5.50506 5.58492 0
M  V30 6714 N 625.236 -1.5273 0.388769 0
M  V30 6715 C 626.183 -2.26437 -0.446639 0
M  V30 6716 C 627.153 -1.28025 -1.05824 0
M  V30 6717 O 628.338 -1.56852 -1.08637 0
M  V30 6718 C 625.478 -3.07407 -1.56828 0
M  V30 6719 C 624.591 -4.20747 -0.979589 0
M  V30 6720 C 623.726 -4.89113 -2.07224 0
M  V30 6721 C 622.765 -5.94447 -1.45942 0
M  V30 6722 N 621.902 -6.56411 -2.49135 0
M  V30 6723 H 626.742 -2.97404 0.18837 0
M  V30 6724 H 624.279 -1.46727 0.104725 0
M  V30 6725 H 626.237 -3.52642 -2.22934 0
M  V30 6726 H 624.867 -2.3865 -2.17361 0
M  V30 6727 H 623.919 -3.7983 -0.208151 0
M  V30 6728 H 625.231 -4.9637 -0.491747 0
M  V30 6729 H 624.385 -5.3765 -2.81101 0
M  V30 6730 H 623.124 -4.13013 -2.59368 0
M  V30 6731 H 622.129 -5.4525 -0.705894 0
M  V30 6732 H 623.354 -6.7248 -0.945932 0
M  V30 6733 H 621.3 -5.83152 -3.00449 0
M  V30 6734 H 621.217 -7.27645 -2.05105 0
M  V30 6735 H 622.485 -7.09592 -3.22644 0
M  V30 6736 N 626.714 -0.118576 -1.57153 0
M  V30 6737 C 627.942 0.54726 -1.99531 0
M  V30 6738 C 628.357 1.60251 -0.998246 0
M  V30 6739 O 627.714 1.82498 0.00893106 0
M  V30 6740 C 627.765 1.17378 -3.41913 0
M  V30 6741 O 627.486 0.160703 -4.37805 0
M  V30 6742 C 628.987 1.92297 -3.9942 0
M  V30 6743 H 626.207 0.144919 -0.655164 0
M  V30 6744 H 628.751 -0.20479 -2.03472 0
M  V30 6745 H 626.906 1.87661 -3.38913 0
M  V30 6746 H 627.32 0.61586 -5.20872 0
M  V30 6747 H 628.794 2.31462 -5.01128 0
M  V30 6748 H 629.271 2.79801 -3.38538 0
M  V30 6749 H 629.877 1.26777 -4.05965 0
M  V30 6750 N 628.193 1.56834 0.155195 0
M  V30 6751 C 629.44 1.82898 0.869179 0
M  V30 6752 C 629.768 0.698194 1.81537 0
M  V30 6753 O 629.023 -0.313404 1.93174 0
M  V30 6754 C 629.322 3.15239 1.68402 0
M  V30 6755 C 628.988 4.42123 0.885341 0
M  V30 6756 C 627.65 4.76583 0.664971 0
M  V30 6757 C 630.002 5.20178 0.326234 0
M  V30 6758 C 627.33 5.86566 -0.125346 0
M  V30 6759 C 629.682 6.3099 -0.45108 0
M  V30 6760 C 628.346 6.64006 -0.682102 0
M  V30 6761 H 627.616 0.66927 0.318055 0
M  V30 6762 H 630.263 1.91036 0.133241 0
M  V30 6763 H 628.568 3.02515 2.48982 0
M  V30 6764 H 630.265 3.32618 2.23978 0
M  V30 6765 H 626.855 4.15102 1.06716 0
M  V30 6766 H 631.039 4.93936 0.483787 0
M  V30 6767 H 626.295 6.10594 -0.313915 0
M  V30 6768 H 630.469 6.9067 -0.89149 0
M  V30 6769 H 628.096 7.49065 -1.29636 0
M  V30 6770 N 629.671 -0.424282 1.51781 0
M  V30 6771 C 630.601 -1.52305 1.7699 0
M  V30 6772 C 631.582 -1.5839 0.620209 0
M  V30 6773 O 632.767 -1.73908 0.864268 0
M  V30 6774 C 629.897 -2.90271 1.90683 0
M  V30 6775 C 628.851 -2.99043 3.06198 0
M  V30 6776 C 628.177 -4.39116 3.05092 0
M  V30 6777 C 629.477 -2.7192 4.45934 0
M  V30 6778 H 631.171 -1.31461 2.68995 0
M  V30 6779 H 628.717 -0.630985 1.29439 0
M  V30 6780 H 630.67 -3.6711 2.06901 0
M  V30 6781 H 629.394 -3.12376 0.953365 0
M  V30 6782 H 628.053 -2.24646 2.89706 0
M  V30 6783 H 627.701 -4.58207 2.07498 0
M  V30 6784 H 627.401 -4.45912 3.82669 0
M  V30 6785 H 628.925 -5.17911 3.2342 0
M  V30 6786 H 630.339 -3.38487 4.62709 0
M  V30 6787 H 628.736 -2.90111 5.25315 0
M  V30 6788 H 629.806 -1.67445 4.55072 0
M  V30 6789 N 631.149 -1.42148 -0.680565 0
M  V30 6790 C 632.426 -1.32795 -1.43614 0
M  V30 6791 C 632.806 0.037415 -2.11067 0
M  V30 6792 O 632.154 1.05258 -2.02813 0
M  V30 6793 C 632.364 -2.49206 -2.44331 0
M  V30 6794 C 633.712 -2.91059 -3.09144 0
M  V30 6795 O 634.736 -2.49054 -2.54657 0
M  V30 6796 O 633.595 -3.63741 -4.07866 0
M  V30 6797 H 630.689 -0.523397 -0.640301 0
M  V30 6798 H 633.235 -1.54144 -0.709775 0
M  V30 6799 H 632.007 -3.40252 -1.93247 0
M  V30 6800 H 631.63 -2.29813 -3.24456 0
M  V30 6801 N 632.627 0.916307 -1.28225 0
M  V30 6802 C 633.855 1.69901 -1.18073 0
M  V30 6803 C 634.27 1.86988 0.260968 0
M  V30 6804 O 633.627 1.39505 1.17663 0
M  V30 6805 C 633.678 3.09254 -1.87201 0
M  V30 6806 O 633.399 2.92959 -3.2574 0
M  V30 6807 C 634.9 4.0362 -1.83319 0
M  V30 6808 H 632.12 0.531181 -0.409985 0
M  V30 6809 H 634.664 1.14703 -1.69303 0
M  V30 6810 H 632.819 3.61277 -1.39848 0
M  V30 6811 H 633.233 3.81139 -3.60324 0
M  V30 6812 H 634.707 4.98873 -2.36282 0
M  V30 6813 H 635.184 4.3176 -0.805007 0
M  V30 6814 H 635.79 3.57524 -2.3034 0
M  V30 6815 N 634.105 1.10431 1.1244 0
M  V30 6816 C 635.521 0.836096 1.35947 0
M  V30 6817 C 635.721 -0.544475 1.94004 0
M  V30 6818 O 634.777 -1.29735 2.16622 0
M  V30 6819 C 636.09 1.93575 2.30107 0
M  V30 6820 C 637.638 1.9642 2.43697 0
M  V30 6821 C 638.113 3.05559 3.41171 0
M  V30 6822 N 639.604 3.04865 3.48728 0
M  V30 6823 C 640.339 3.85954 4.24061 0
M  V30 6824 N 639.835 4.76977 5.02458 0
M  V30 6825 N 641.628 3.74172 4.19466 0
M  V30 6826 H 633.779 1.9942 0.731124 0
M  V30 6827 H 636.042 0.866607 0.384312 0
M  V30 6828 H 635.748 2.92943 1.94621 0
M  V30 6829 H 635.622 1.8229 3.30227 0
M  V30 6830 H 638.009 0.97685 2.78463 0
M  V30 6831 H 638.09 2.11782 1.43465 0
M  V30 6832 H 637.734 4.04513 3.07135 0
M  V30 6833 H 637.664 2.87438 4.41234 0
M  V30 6834 H 640.155 2.38908 2.92799 0
M  V30 6835 H 640.468 5.35409 5.57277 0
M  V30 6836 H 638.813 4.81006 5.01655 0
M  V30 6837 H 642.004 3.02412 3.57302 0
M  V30 6838 H 642.177 4.37602 4.77921 0
M  V30 6839 N 635.583 -1.29855 0.893053 0
M  V30 6840 C 636.533 -2.25493 0.337211 0
M  V30 6841 C 637.517 -1.51606 -0.53894 0
M  V30 6842 O 638.709 -1.72828 -0.382043 0
M  V30 6843 C 635.838 -3.40467 -0.440117 0
M  V30 6844 C 634.924 -4.217 0.450578 0
M  V30 6845 N 635.315 -4.81312 1.55476 0
M  V30 6846 C 633.613 -4.45315 0.247154 0
M  V30 6847 C 634.314 -5.42241 2.10593 0
M  V30 6848 N 633.29 -5.25267 1.39982 0
M  V30 6849 H 637.092 -2.69137 1.18079 0
M  V30 6850 H 634.606 -1.44388 0.743359 0
M  V30 6851 H 636.603 -4.08038 -0.855021 0
M  V30 6852 H 635.263 -2.98361 -1.28104 0
M  V30 6853 H 636.274 -4.80291 1.93755 0
M  V30 6854 H 632.951 -4.13782 -0.555939 0
M  V30 6855 H 634.341 -5.99517 3.03362 0
M  V30 6856 N 637.061 -0.65484 -1.43351 0
M  V30 6857 C 637.993 0.0744757 -2.29079 0
M  V30 6858 C 639.006 0.7855 -1.42596 0
M  V30 6859 O 640.195 0.642986 -1.66517 0
M  V30 6860 C 637.295 1.12859 -3.19556 0
M  V30 6861 C 636.468 0.495381 -4.34586 0
M  V30 6862 C 635.527 1.44659 -5.05925 0
M  V30 6863 O 634.553 0.954567 -5.61139 0
M  V30 6864 N 635.755 2.78051 -5.09576 0
M  V30 6865 H 638.52 -0.661346 -2.92312 0
M  V30 6866 H 636.081 -0.497744 -1.54059 0
M  V30 6867 H 638.073 1.76577 -3.64147 0
M  V30 6868 H 636.643 1.76636 -2.57912 0
M  V30 6869 H 635.863 -0.32092 -3.92892 0
M  V30 6870 H 637.151 0.0534203 -5.08772 0
M  V30 6871 H 636.549 3.20584 -4.66093 0
M  V30 6872 H 635.106 3.37068 -5.57878 0
M  V30 6873 N 638.539 1.52521 -0.396863 0
M  V30 6874 C 639.787 2.01274 0.182536 0
M  V30 6875 C 640.108 1.28485 1.46685 0
M  V30 6876 O 639.378 0.407134 1.91623 0
M  V30 6877 H 637.958 0.743671 0.0704442 0
M  V30 6878 H 640.62 1.87547 -0.530289 0
M  V30 6879 H 639.716 3.09687 0.387385 0
M  V30 6880 N 640.017 0.126909 1.57088 0
M  V30 6881 C 641.245 -0.53667 1.99819 0
M  V30 6882 C 641.66 -1.5972 1.00673 0
M  V30 6883 O 641.017 -1.825 0.000747365 0
M  V30 6884 C 641.068 -1.15563 3.42531 0
M  V30 6885 O 640.789 -0.137483 4.37884 0
M  V30 6886 C 642.29 -1.90176 4.00435 0
M  V30 6887 H 639.51 -0.141443 0.655923 0
M  V30 6888 H 642.054 0.215578 2.03361 0
M  V30 6889 H 640.209 -1.85861 3.39904 0
M  V30 6890 H 640.623 -0.588229 5.21191 0
M  V30 6891 H 642.097 -2.28801 5.02349 0
M  V30 6892 H 642.574 -2.78002 3.40017 0
M  V30 6893 H 643.18 -1.24623 4.06632 0
M  V30 6894 N 641.495 -1.56914 -0.146875 0
M  V30 6895 C 642.742 -1.83356 -0.859467 0
M  V30 6896 C 643.07 -0.707811 -1.81164 0
M  V30 6897 O 642.325 0.303155 -1.93338 0
M  V30 6898 C 642.624 -3.16128 -1.66727 0
M  V30 6899 C 642.29 -4.42586 -0.861881 0
M  V30 6900 C 640.952 -4.76929 -0.639687 0
M  V30 6901 C 643.304 -5.20344 -0.298643 0
M  V30 6902 C 640.632 -5.86491 0.156451 0
M  V30 6903 C 642.984 -6.30742 0.484536 0
M  V30 6904 C 641.648 -6.63635 0.717306 0
M  V30 6905 H 640.918 -0.670947 -0.314501 0
M  V30 6906 H 643.565 -1.91104 -0.123108 0
M  V30 6907 H 641.87 -3.03831 -2.47374 0
M  V30 6908 H 643.567 -3.33802 -2.2221 0
M  V30 6909 H 640.157 -4.15662 -1.04513 0
M  V30 6910 H 644.341 -4.94186 -0.457585 0
M  V30 6911 H 639.597 -6.10419 0.346292 0
M  V30 6912 H 643.771 -6.90188 0.928105 0
M  V30 6913 H 641.398 -7.48367 1.33607 0
M  V30 6914 N 642.974 0.416227 -1.52004 0
M  V30 6915 C 644.251 1.17637 -1.56272 0
M  V30 6916 C 644.631 2.08352 -0.339493 0
M  V30 6917 O 643.979 2.1833 0.674124 0
M  V30 6918 C 644.189 1.95986 -2.88774 0
M  V30 6919 C 645.537 2.52299 -3.41512 0
M  V30 6920 O 646.561 2.06174 -2.90467 0
M  V30 6921 O 645.42 3.3648 -4.30631 0
M  V30 6922 H 642.514 0.536726 -0.629169 0
M  V30 6923 H 645.06 0.423583 -1.64329 0
M  V30 6924 H 643.832 1.29487 -3.69254 0
M  V30 6925 H 643.455 2.78285 -2.83978 0
M  V30 6926 N 644.452 1.42507 0.673017 0
M  V30 6927 C 645.698 1.43284 1.43519 0
M  V30 6928 C 646.031 0.049668 1.94136 0
M  V30 6929 O 645.306 -0.926369 1.71022 0
M  V30 6930 C 645.589 2.45874 2.63093 0
M  V30 6931 C 645.442 3.93388 2.18096 0
M  V30 6932 C 646.761 2.45431 3.6531 0
M  V30 6933 H 643.88 0.521752 0.520522 0
M  V30 6934 H 646.522 1.73932 0.764701 0
M  V30 6935 H 644.672 2.19869 3.20296 0
M  V30 6936 H 646.344 4.30379 1.66046 0
M  V30 6937 H 644.587 4.07169 1.49652 0
M  V30 6938 H 645.258 4.60752 3.03993 0
M  V30 6939 H 647.734 2.68561 3.17827 0
M  V30 6940 H 646.61 3.19189 4.46553 0
M  V30 6941 H 646.871 1.48092 4.16559 0
M  V30 6942 N 645.93 -0.909495 1.28709 0
M  V30 6943 C 646.893 -1.99399 1.13016 0
M  V30 6944 C 647.893 -1.60654 0.068536 0
M  V30 6945 O 649.083 -1.71334 0.314671 0
M  V30 6946 C 646.215 -3.33078 0.726085 0
M  V30 6947 H 647.408 -2.14751 2.09338 0
M  V30 6948 H 644.961 -1.09272 1.11756 0
M  V30 6949 H 645.696 -3.23428 -0.23771 0
M  V30 6950 H 645.481 -3.62562 1.49302 0
M  V30 6951 H 646.971 -4.12681 0.639058 0
M  V30 6952 N 647.408 -1.11026 -1.11852 0
M  V30 6953 C 648.824 -0.843294 -1.35502 0
M  V30 6954 C 649.024 0.534179 -1.9429 0
M  V30 6955 O 648.08 1.28585 -2.17307 0
M  V30 6956 C 649.393 -1.94793 -2.29077 0
M  V30 6957 C 650.941 -1.97709 -2.42652 0
M  V30 6958 C 651.416 -3.07364 -3.39546 0
M  V30 6959 N 652.907 -3.0671 -3.47107 0
M  V30 6960 C 653.642 -3.88197 -4.22008 0
M  V30 6961 N 653.138 -4.79635 -4.99922 0
M  V30 6962 N 654.931 -3.76391 -4.17476 0
M  V30 6963 H 647.082 -1.99805 -0.720538 0
M  V30 6964 H 649.345 -0.868633 -0.379711 0
M  V30 6965 H 649.051 -2.93971 -1.93065 0
M  V30 6966 H 648.925 -1.84039 -3.29256 0
M  V30 6967 H 651.312 -0.991604 -2.77941 0
M  V30 6968 H 651.393 -2.1254 -1.4234 0
M  V30 6969 H 651.037 -4.06136 -3.04985 0
M  V30 6970 H 650.967 -2.89774 -4.39703 0
M  V30 6971 H 653.458 -2.40457 -2.91528 0
M  V30 6972 H 653.771 -5.38357 -5.54429 0
M  V30 6973 H 652.116 -4.8366 -4.99097 0
M  V30 6974 H 655.307 -3.04303 -3.55693 0
M  V30 6975 H 655.48 -4.40131 -4.75593 0
M  V30 6976 N 648.886 1.2938 -0.899927 0
M  V30 6977 C 649.849 2.25983 -0.382677 0
M  V30 6978 C 650.849 1.53366 0.483259 0
M  V30 6979 O 652.039 1.71798 0.28828 0
M  V30 6980 C 649.171 3.37878 0.452915 0
M  V30 6981 H 650.364 2.73252 -1.23586 0
M  V30 6982 H 647.917 1.40825 -0.678088 0
M  V30 6983 H 648.652 2.95949 1.32608 0
M  V30 6984 H 648.437 3.91742 -0.167562 0
M  V30 6985 H 649.927 4.09746 0.806107 0
M  V30 6986 N 650.364 0.662433 1.43002 0
M  V30 6987 C 651.612 0.179237 2.01304 0
M  V30 6988 C 651.933 -1.21428 1.52579 0
M  V30 6989 O 651.203 -1.81294 0.742252 0
M  V30 6990 H 649.783 0.0632725 0.744316 0
M  V30 6991 H 652.445 0.856169 1.75088 0
M  V30 6992 H 651.541 0.170957 3.11631 0
M  V30 6993 N 651.842 -1.52309 0.404946 0
M  V30 6994 C 653.088 -2.02731 -0.164857 0
M  V30 6995 C 653.443 -1.28543 -1.43159 0
M  V30 6996 O 652.736 -0.381883 -1.87756 0
M  V30 6997 C 652.93 -3.54284 -0.470895 0
M  V30 6998 C 652.759 -4.43152 0.764625 0
M  V30 6999 C 651.529 -4.88594 1.28858 0
M  V30 7000 C 653.727 -4.874 1.64152 0
M  V30 7001 N 651.709 -5.61577 2.48001 0
M  V30 7002 C 653.08 -5.59121 2.67924 0
M  V30 7003 C 655.135 -4.69421 1.65978 0
M  V30 7004 C 653.838 -6.14772 3.73427 0
M  V30 7005 C 655.864 -5.25966 2.70396 0
M  V30 7006 C 655.226 -5.97606 3.7289 0
M  V30 7007 H 651.325 -0.78169 -0.0220025 0
M  V30 7008 H 653.909 -1.86522 0.558354 0
M  V30 7009 H 652.08 -3.70574 -1.16315 0
M  V30 7010 H 653.812 -3.91394 -1.02921 0
M  V30 7011 H 650.567 -4.6596 0.847232 0
M  V30 7012 H 650.991 -6.02712 3.08329 0
M  V30 7013 H 655.633 -4.13524 0.88079 0
M  V30 7014 H 653.351 -6.69743 4.52184 0
M  V30 7015 H 656.937 -5.13926 2.72711 0
M  V30 7016 H 655.817 -6.40577 4.52361 0
M  V30 7017 N 653.32 -0.135238 -1.57019 0
M  V30 7018 C 654.56 0.521686 -1.9763 0
M  V30 7019 C 654.924 1.62804 -1.01778 0
M  V30 7020 O 656.125 2.345 -1.31389 0
M  V30 7021 C 654.396 1.0257 -3.42365 0
M  V30 7022 S 655.955 1.68888 -4.04997 0
M  V30 7023 H 652.773 0.169064 -0.690607 0
M  V30 7024 H 655.375 -0.224168 -1.94211 0
M  V30 7025 H 654.079 0.209556 -4.09865 0
M  V30 7026 H 653.61 1.80645 -3.49472 0
M  V30 7027 H 655.625 2.97554 -3.97084 0
M  V30 7028 N 654.798 1.5699 0.138552 0
M  V30 7029 C 655.761 1.97984 1.15478 0
M  V30 7030 C 656.761 0.867416 1.35398 0
M  V30 7031 O 657.951 1.13387 1.32246 0
M  V30 7032 C 655.083 2.3031 2.51337 0
M  V30 7033 H 656.276 2.88953 0.802896 0
M  V30 7034 H 653.829 1.51555 0.382189 0
M  V30 7035 H 654.564 1.42159 2.91481 0
M  V30 7036 H 654.349 3.11425 2.38237 0
M  V30 7037 H 655.839 2.62834 3.24512 0
M  V30 7038 N 656.276 -0.40816 1.52223 0
M  V30 7039 C 657.553 -1.16807 1.56893 0
M  V30 7040 C 657.933 -2.08169 0.350537 0
M  V30 7041 O 657.281 -2.18684 -0.662536 0
M  V30 7042 C 657.491 -1.94451 2.8981 0
M  V30 7043 C 658.839 -2.50484 3.42845 0
M  V30 7044 O 659.863 -2.0463 2.91556 0
M  V30 7045 O 658.722 -3.34192 4.3241 0
M  V30 7046 H 655.816 -0.533382 0.632007 0
M  V30 7047 H 658.362 -0.414862 1.64551 0
M  V30 7048 H 657.134 -1.27527 3.69936 0
M  V30 7049 H 656.757 -2.76775 2.85449 0
M  V30 7050 N 657.755 -1.42862 -0.66545 0
M  V30 7051 C 658.985 -1.47032 -1.45138 0
M  V30 7052 C 659.393 -0.0829977 -1.89018 0
M  V30 7053 O 658.736 0.914551 -1.59316 0
M  V30 7054 C 658.798 -2.34302 -2.72659 0
M  V30 7055 C 658.462 -3.82034 -2.50796 0
M  V30 7056 C 659.459 -4.73453 -2.14799 0
M  V30 7057 C 657.144 -4.26397 -2.655 0
M  V30 7058 C 659.138 -6.07228 -1.93785 0
M  V30 7059 C 656.825 -5.6023 -2.44103 0
M  V30 7060 C 657.823 -6.50462 -2.08299 0
M  V30 7061 O 657.511 -7.8182 -1.87116 0
M  V30 7062 H 657.243 -0.501969 -0.452772 0
M  V30 7063 H 659.797 -1.88137 -0.82423 0
M  V30 7064 H 658.027 -1.88063 -3.37889 0
M  V30 7065 H 659.716 -2.29818 -3.34572 0
M  V30 7066 H 660.482 -4.4046 -2.03026 0
M  V30 7067 H 656.361 -3.56448 -2.92345 0
M  V30 7068 H 659.905 -6.7762 -1.65763 0
M  V30 7069 H 655.802 -5.92793 -2.55475 0
M  V30 7070 H 656.57 -7.93274 -2.01639 0
M  V30 7071 N 659.233 0.902656 -1.29189 0
M  V30 7072 C 660.181 2.0278 -1.13943 0
M  V30 7073 C 661.175 1.69308 -0.055787 0
M  V30 7074 O 662.381 1.78707 -0.215371 0
M  V30 7075 H 658.756 0.664595 -0.351877 0
M  V30 7076 H 660.727 2.12778 -2.09208 0
M  V30 7077 C 659.476 3.37657 -0.82966 0
M  V30 7078 H 658.799 3.63913 -1.65551 0
M  V30 7079 H 660.239 4.17078 -0.762998 0
M  V30 7080 C 658.698 3.33648 0.466991 0
M  V30 7081 O 659.228 3.72886 1.49395 0
M  V30 7082 N 657.434 2.86745 0.471761 0
M  V30 7083 H 656.981 2.55009 -0.364406 0
M  V30 7084 H 656.939 2.84446 1.33933 0
M  V30 7085 N 660.711 1.11618 1.11262 0
M  V30 7086 C 661.621 0.78898 2.20935 0
M  V30 7087 C 662.637 -0.21867 1.7262 0
M  V30 7088 O 663.813 -0.0543826 2.01327 0
M  V30 7089 C 660.878 0.239014 3.45875 0
M  V30 7090 C 659.939 1.3055 4.08968 0
M  V30 7091 C 659.172 0.781687 5.27944 0
M  V30 7092 O 659.395 -0.387605 5.69082 0
M  V30 7093 O 658.329 1.54734 5.81671 0
M  V30 7094 H 662.155 1.70477 2.51339 0
M  V30 7095 H 659.74 0.892203 1.19834 0
M  V30 7096 H 661.622 -0.0632312 4.21353 0
M  V30 7097 H 660.297 -0.649454 3.17118 0
M  V30 7098 H 659.204 1.66079 3.35214 0
M  V30 7099 H 660.537 2.16743 4.41909 0
M  V30 7100 N 662.189 -1.289 0.906776 0
M  V30 7101 C 663.6 -1.77336 0.58384 0
M  V30 7102 C 663.951 -1.74304 -0.900697 0
M  V30 7103 O 663.076 -1.33335 -1.70443 0
M  V30 7104 C 663.671 -3.22019 1.05304 0
M  V30 7105 C 662.23 -3.68205 0.781148 0
M  V30 7106 C 661.377 -2.48837 1.22373 0
M  V30 7107 H 664.328 -1.15462 1.08877 0
M  V30 7108 H 664.349 -3.78481 0.391414 0
M  V30 7109 H 663.861 -3.24194 2.13353 0
M  V30 7110 H 661.962 -3.71497 -0.28643 0
M  V30 7111 H 662.075 -4.58675 1.384 0
M  V30 7112 H 660.439 -2.46461 0.642594 0
M  V30 7113 H 661.222 -2.53736 2.31242 0
M  V30 7114 N 663.667 -0.670007 -1.42649 0
M  V30 7115 C 664.895 -0.19854 -2.05945 0
M  V30 7116 C 665.31 1.14243 -1.50313 0
M  V30 7117 O 664.667 1.70872 -0.641027 0
M  V30 7118 C 664.718 -0.11966 -3.61302 0
M  V30 7119 O 664.439 -1.40764 -4.1487 0
M  V30 7120 C 665.94 0.375878 -4.41704 0
M  V30 7121 H 663.16 -0.0976894 -0.663851 0
M  V30 7122 H 665.704 -0.915392 -1.82868 0
M  V30 7123 H 663.859 0.547851 -3.83507 0
M  V30 7124 H 664.273 -1.27784 -5.08696 0
M  V30 7125 H 665.747 0.379988 -5.50691 0
M  V30 7126 H 666.224 1.41028 -4.15942 0
M  V30 7127 H 666.83 -0.259727 -4.24506 0
M  V30 7128 N 665.145 1.52092 -0.413018 0
M  V30 7129 C 666.37 2.06756 0.163338 0
M  V30 7130 C 666.795 1.28073 1.37764 0
M  V30 7131 O 666.153 0.312015 1.78595 0
M  V30 7132 C 666.201 3.57278 0.488322 0
M  V30 7133 O 665.305 3.80986 1.57871 0
M  V30 7134 H 664.646 0.663882 0.0125068 0
M  V30 7135 H 667.176 1.95988 -0.587339 0
M  V30 7136 H 667.186 4.01125 0.745836 0
M  V30 7137 H 665.861 4.13978 -0.399327 0
M  V30 7138 H 664.438 3.49017 1.31306 0
M  V30 7139 N 666.623 0.143563 1.56945 0
M  V30 7140 C 667.87 -0.508407 1.96014 0
M  V30 7141 C 668.198 -1.65099 1.02824 0
M  V30 7142 O 667.453 -1.95618 0.0567764 0
M  V30 7143 C 667.752 -1.05885 3.41355 0
M  V30 7144 C 667.418 -0.0350809 4.50886 0
M  V30 7145 C 666.08 0.246362 4.80569 0
M  V30 7146 C 668.432 0.661282 5.16988 0
M  V30 7147 C 665.76 1.23003 5.73661 0
M  V30 7148 C 668.112 1.63375 6.11139 0
M  V30 7149 C 666.776 1.92292 6.39203 0
M  V30 7150 H 666.046 -0.186039 0.717266 0
M  V30 7151 H 668.693 0.229667 1.90118 0
M  V30 7152 H 666.998 -1.87419 3.44066 0
M  V30 7153 H 668.695 -1.57183 3.6891 0
M  V30 7154 H 665.285 -0.264622 4.27782 0
M  V30 7155 H 669.469 0.457038 4.94191 0
M  V30 7156 H 664.725 1.46056 5.93698 0
M  V30 7157 H 668.899 2.17887 6.61436 0
M  V30 7158 H 666.526 2.68666 7.11142 0
M  V30 7159 N 668.101 -1.57061 -0.130224 0
M  V30 7160 C 669.031 -2.02552 -1.16168 0
M  V30 7161 C 670.012 -0.907971 -1.4384 0
M  V30 7162 O 671.197 -1.17693 -1.54473 0
M  V30 7163 C 668.327 -2.42035 -2.49071 0
M  V30 7164 C 667.281 -3.5713 -2.35886 0
M  V30 7165 C 666.607 -3.82478 -3.7365 0
M  V30 7166 C 667.907 -4.89236 -1.8288 0
M  V30 7167 H 669.601 -2.8897 -0.783359 0
M  V30 7168 H 667.147 -1.39021 -0.375376 0
M  V30 7169 H 669.1 -2.72462 -3.21469 0
M  V30 7170 H 667.824 -1.52573 -2.88771 0
M  V30 7171 H 666.483 -3.26895 -1.65938 0
M  V30 7172 H 666.131 -2.9024 -4.10816 0
M  V30 7173 H 665.831 -4.59944 -3.65685 0
M  V30 7174 H 667.355 -4.15347 -4.47571 0
M  V30 7175 H 668.769 -5.18272 -2.45085 0
M  V30 7176 H 667.166 -5.70624 -1.85763 0
M  V30 7177 H 668.236 -4.78494 -0.785571 0
M  V30 7178 N 669.579 0.400081 -1.52437 0
M  V30 7179 C 670.527 1.50851 -1.7705 0
M  V30 7180 C 671.521 1.56928 -0.637969 0
M  V30 7181 O 672.727 1.60226 -0.820212 0
M  V30 7182 H 669.102 0.50186 -0.560036 0
M  V30 7183 H 671.073 1.27281 -2.69893 0
M  V30 7184 C 669.822 2.88117 -1.94638 0
M  V30 7185 H 669.145 2.84187 -2.81208 0
M  V30 7186 H 670.585 3.64942 -2.15855 0
M  V30 7187 C 669.044 3.29206 -0.715899 0
M  V30 7188 O 669.574 4.01544 0.111944 0
M  V30 7189 N 667.78 2.85363 -0.549191 0
M  V30 7190 H 667.327 2.26664 -1.22397 0
M  V30 7191 H 667.285 3.13214 0.27278 0
M  V30 7192 N 671.057 1.43213 0.657864 0
M  V30 7193 C 672.285 1.48015 1.44566 0
M  V30 7194 C 672.7 0.0965951 1.88553 0
M  V30 7195 O 672.057 -0.892221 1.59203 0
M  V30 7196 C 672.108 2.42199 2.68369 0
M  V30 7197 O 671.829 3.75173 2.26223 0
M  V30 7198 C 673.33 2.56195 3.61772 0
M  V30 7199 H 670.55 0.502861 0.444266 0
M  V30 7200 H 673.094 1.87907 0.806917 0
M  V30 7201 H 671.249 2.05514 3.28394 0
M  V30 7202 H 671.663 4.25776 3.06293 0
M  V30 7203 H 673.137 3.26182 4.4532 0
M  V30 7204 H 673.614 1.60534 4.0881 0
M  V30 7205 H 674.22 2.93671 3.07632 0
M  V30 7206 N 672.536 -0.895792 1.29666 0
M  V30 7207 C 673.469 -2.00238 1.09453 0
M  V30 7208 C 674.447 -1.62599 0.00527044 0
M  V30 7209 O 675.631 -1.87847 0.156729 0
M  V30 7210 C 672.758 -3.32066 0.667054 0
M  V30 7211 C 671.804 -3.88691 1.7556 0
M  V30 7212 S 672.637 -4.17317 3.35569 0
M  V30 7213 C 673.793 -5.52181 2.94698 0
M  V30 7214 H 674.026 -2.17076 2.03138 0
M  V30 7215 H 671.559 -1.04287 1.13858 0
M  V30 7216 H 673.517 -4.08272 0.427136 0
M  V30 7217 H 672.178 -3.13101 -0.250256 0
M  V30 7218 H 671.371 -4.83918 1.40853 0
M  V30 7219 H 670.973 -3.19187 1.94924 0
M  V30 7220 H 673.265 -6.3281 2.41986 0
M  V30 7221 H 674.208 -5.91817 3.88791 0
M  V30 7222 H 674.616 -5.14225 2.32879 0
M  V30 7223 N 674.014 -1.12206 -1.10668 0
M  V30 7224 C 674.944 -0.810086 -2.18997 0
M  V30 7225 C 675.925 0.225065 -1.68604 0
M  V30 7226 O 677.11 0.086783 -1.94006 0
M  V30 7227 C 674.24 -0.261262 -3.46316 0
M  V30 7228 C 673.194 -1.2292 -4.09969 0
M  V30 7229 C 672.52 -0.540713 -5.31959 0
M  V30 7230 C 673.82 -2.58295 -4.53962 0
M  V30 7231 H 675.514 -1.7159 -2.45352 0
M  V30 7232 H 673.06 -0.82646 -1.17922 0
M  V30 7233 H 675.013 -0.0307522 -4.21389 0
M  V30 7234 H 673.737 0.679879 -3.19445 0
M  V30 7235 H 672.396 -1.44548 -3.369 0
M  V30 7236 H 672.044 0.405492 -5.01363 0
M  V30 7237 H 671.744 -1.18637 -5.75499 0
M  V30 7238 H 673.268 -0.319184 -6.09765 0
M  V30 7239 H 674.682 -2.40709 -5.20319 0
M  V30 7240 H 673.079 -3.18916 -5.08343 0
M  V30 7241 H 674.149 -3.16918 -3.67002 0
M  V30 7242 N 675.492 1.28418 -0.913599 0
M  V30 7243 C 676.717 1.99643 -0.561899 0
M  V30 7244 C 677.142 1.67819 0.849608 0
M  V30 7245 O 676.5 0.910503 1.56779 0
M  V30 7246 C 676.548 3.52116 -0.777622 0
M  V30 7247 O 675.652 4.12076 0.163457 0
M  V30 7248 H 674.993 0.627229 -0.217898 0
M  V30 7249 H 677.523 1.63575 -1.229 0
M  V30 7250 H 677.533 4.02163 -0.687666 0
M  V30 7251 H 676.208 3.74613 -1.8066 0
M  V30 7252 H 674.785 3.72892 0.0247827 0
M  V30 7253 N 676.97 0.677563 1.42291 0
M  V30 7254 C 678.247 0.129803 1.95169 0
M  V30 7255 C 678.627 -1.35605 1.61786 0
M  V30 7256 O 677.975 -2.09361 0.915444 0
M  V30 7257 C 678.185 0.401889 3.46678 0
M  V30 7258 C 679.533 0.319889 4.23393 0
M  V30 7259 O 680.557 0.33579 3.54614 0
M  V30 7260 O 679.416 0.264459 5.4586 0
M  V30 7261 H 676.51 0.00447433 0.826988 0
M  V30 7262 H 679.056 0.752483 1.52105 0
M  V30 7263 H 677.828 1.43108 3.64192 0
M  V30 7264 H 677.451 -0.252662 3.96796 0
M  V30 7265 N 678.448 -1.51871 0.421078 0
M  V30 7266 C 679.673 -2.0684 -0.152371 0
M  V30 7267 C 680.098 -1.28802 -1.37083 0
M  V30 7268 O 679.456 -0.321482 -1.78427 0
M  V30 7269 C 679.504 -3.57532 -0.469368 0
M  V30 7270 O 678.608 -3.81818 -1.55848 0
M  V30 7271 H 677.949 -0.663939 -0.00898586 0
M  V30 7272 H 680.479 -1.95674 0.597724 0
M  V30 7273 H 680.489 -4.01515 -0.724553 0
M  V30 7274 H 679.164 -4.13761 0.421276 0
M  V30 7275 H 677.741 -3.49709 -1.29453 0
M  V30 7276 N 679.926 -0.151884 -1.56866 0
M  V30 7277 C 681.151 0.508044 -2.01081 0
M  V30 7278 C 681.576 1.57306 -1.03134 0
M  V30 7279 O 680.934 1.81298 -0.0078309 0
M  V30 7280 C 680.982 1.08106 -3.44014 0
M  V30 7281 O 680.086 2.19577 -3.49084 0
M  V30 7282 H 679.427 0.123757 -0.652365 0
M  V30 7283 H 681.957 -0.250055 -2.03066 0
M  V30 7284 H 681.967 1.40851 -3.82916 0
M  V30 7285 H 680.642 0.301168 -4.14808 0
M  V30 7286 H 679.219 1.88023 -3.22027 0
M  V30 7287 N 681.404 1.57128 0.121893 0
M  V30 7288 C 682.352 2.01109 1.16868 0
M  V30 7289 C 683.346 0.907532 1.43039 0
M  V30 7290 O 684.552 1.09274 1.43036 0
M  V30 7291 H 680.927 0.640539 0.393971 0
M  V30 7292 H 682.898 2.88261 0.771224 0
M  V30 7293 C 681.647 2.42887 2.48799 0
M  V30 7294 H 680.97 3.2737 2.29498 0
M  V30 7295 H 682.41 2.77461 3.20611 0
M  V30 7296 C 680.869 1.29137 3.11168 0
M  V30 7297 O 681.399 0.605756 3.97106 0
M  V30 7298 N 679.605 1.04916 2.71 0
M  V30 7299 H 679.152 1.60848 2.01211 0
M  V30 7300 H 679.11 0.290016 3.1306 0
M  V30 7301 N 682.882 -0.391992 1.52647 0
M  V30 7302 C 683.83 -1.4991 1.77848 0
M  V30 7303 C 684.824 -1.56587 0.646282 0
M  V30 7304 O 686.03 -1.59789 0.828698 0
M  V30 7305 H 682.405 -0.498883 0.56269 0
M  V30 7306 H 684.376 -1.25847 2.70564 0
M  V30 7307 C 683.125 -2.87081 1.96163 0
M  V30 7308 H 682.448 -2.82692 2.82711 0
M  V30 7309 H 683.888 -3.63792 2.17787 0
M  V30 7310 C 682.347 -3.28822 0.733348 0
M  V30 7311 O 682.877 -4.01598 -0.0906481 0
M  V30 7312 N 681.083 -2.85068 0.564317 0
M  V30 7313 H 680.63 -2.26012 1.23598 0
M  V30 7314 H 680.588 -3.13355 -0.256166 0
M  V30 7315 N 684.36 -1.4356 -0.65026 0
M  V30 7316 C 685.588 -1.48779 -1.43779 0
M  V30 7317 C 686.003 -0.106593 -1.88499 0
M  V30 7318 O 685.36 0.883766 -1.59674 0
M  V30 7319 C 685.411 -2.43618 -2.67081 0
M  V30 7320 O 685.132 -3.76367 -2.24231 0
M  V30 7321 C 686.633 -2.5811 -3.60409 0
M  V30 7322 H 683.853 -0.50521 -0.441593 0
M  V30 7323 H 686.397 -1.88332 -0.796941 0
M  V30 7324 H 684.552 -2.07253 -3.273 0
M  V30 7325 H 684.966 -4.27394 -3.0403 0
M  V30 7326 H 686.44 -3.28539 -4.43583 0
M  V30 7327 H 686.917 -1.627 -4.07953 0
M  V30 7328 H 687.523 -2.95298 -3.0607 0
M  V30 7329 N 685.838 0.888903 -1.30139 0
M  V30 7330 C 686.801 1.97576 -1.16174 0
M  V30 7331 C 687.801 1.60525 -0.094086 0
M  V30 7332 O 688.991 1.70812 -0.341889 0
M  V30 7333 C 686.123 3.3188 -0.778983 0
M  V30 7334 H 687.316 2.11393 -2.12728 0
M  V30 7335 H 684.869 1.0748 -1.1348 0
M  V30 7336 H 685.604 3.23765 0.186225 0
M  V30 7337 H 685.389 3.60141 -1.55051 0
M  V30 7338 H 686.879 4.11612 -0.704631 0
M  V30 7339 N 687.317 1.12792 1.10072 0
M  V30 7340 C 688.267 0.768086 2.14673 0
M  V30 7341 C 689.251 -0.234716 1.59179 0
M  V30 7342 O 690.443 -0.039643 1.76956 0
M  V30 7343 C 687.572 0.228472 3.42539 0
M  V30 7344 C 686.658 1.25979 4.04957 0
M  V30 7345 N 687.049 2.4586 4.42025 0
M  V30 7346 C 685.347 1.10602 4.32069 0
M  V30 7347 C 686.048 3.11747 4.9111 0
M  V30 7348 N 685.024 2.39185 4.88151 0
M  V30 7349 H 688.826 1.68029 2.4113 0
M  V30 7350 H 686.34 1.00925 1.27232 0
M  V30 7351 H 688.337 -0.0475216 4.16873 0
M  V30 7352 H 686.997 -0.678136 3.1754 0
M  V30 7353 H 688.008 2.83215 4.33601 0
M  V30 7354 H 684.685 0.257021 4.16708 0
M  V30 7355 H 686.075 4.13862 5.29309 0
M  V30 7356 N 688.795 -1.27931 0.920396 0
M  V30 7357 C 690.025 -1.98516 0.572256 0
M  V30 7358 C 690.433 -1.68912 -0.852375 0
M  V30 7359 O 689.776 -0.94203 -1.57707 0
M  V30 7360 C 689.838 -3.5243 0.709485 0
M  V30 7361 C 689.502 -4.0564 2.10489 0
M  V30 7362 C 690.499 -4.1897 3.07831 0
M  V30 7363 C 688.184 -4.40168 2.41986 0
M  V30 7364 C 690.178 -4.66093 4.34783 0
M  V30 7365 C 687.865 -4.86983 3.69176 0
M  V30 7366 C 688.863 -4.99903 4.65388 0
M  V30 7367 O 688.551 -5.45694 5.90316 0
M  V30 7368 H 688.283 -0.64047 0.216274 0
M  V30 7369 H 690.837 -1.6393 1.23758 0
M  V30 7370 H 689.067 -3.86698 -0.0129263 0
M  V30 7371 H 690.756 -4.04233 0.367474 0
M  V30 7372 H 691.522 -3.92562 2.84816 0
M  V30 7373 H 687.401 -4.29358 1.67846 0
M  V30 7374 H 690.945 -4.76092 5.09884 0
M  V30 7375 H 686.842 -5.12832 3.92012 0
M  V30 7376 H 687.61 -5.63965 5.932 0
M  V30 7377 N 690.273 -0.685099 -1.4193 0
M  V30 7378 C 691.22 -0.0131869 -2.30796 0
M  V30 7379 C 692.19 0.782129 -1.46533 0
M  V30 7380 O 693.375 0.75229 -1.75343 0
M  V30 7381 C 690.515 0.924768 -3.32479 0
M  V30 7382 C 689.628 0.122181 -4.31827 0
M  V30 7383 C 688.763 1.05682 -5.20581 0
M  V30 7384 C 687.802 0.246526 -6.11603 0
M  V30 7385 N 686.939 1.13442 -6.92875 0
M  V30 7386 H 691.779 -0.776789 -2.87698 0
M  V30 7387 H 689.316 -0.394791 -1.41703 0
M  V30 7388 H 691.274 1.48251 -3.89971 0
M  V30 7389 H 689.904 1.65488 -2.77152 0
M  V30 7390 H 688.956 -0.552335 -3.76369 0
M  V30 7391 H 690.268 -0.506473 -4.96222 0
M  V30 7392 H 689.422 1.68415 -5.82856 0
M  V30 7393 H 688.161 1.71935 -4.56388 0
M  V30 7394 H 687.166 -0.393944 -5.48387 0
M  V30 7395 H 688.391 -0.412053 -6.77849 0
M  V30 7396 H 686.337 1.78316 -6.313 0
M  V30 7397 H 686.254 0.561089 -7.53915 0
M  V30 7398 H 687.522 1.74889 -7.59628 0
M  V30 7399 N 691.751 1.51645 -0.429126 0
M  V30 7400 C 692.976 2.06917 0.141399 0
M  V30 7401 C 693.401 1.29527 1.36398 0
M  V30 7402 O 692.759 0.33094 1.78254 0
M  V30 7403 C 692.807 3.57776 0.4504 0
M  V30 7404 O 691.911 3.82639 1.53821 0
M  V30 7405 H 691.252 0.663978 0.0054647 0
M  V30 7406 H 693.782 1.95355 -0.608093 0
M  V30 7407 H 693.792 4.01894 0.703249 0
M  V30 7408 H 692.467 4.13532 -0.443213 0
M  V30 7409 H 691.044 3.5039 1.27597 0
M  V30 7410 N 693.229 0.160201 1.56784 0
M  V30 7411 C 694.64 -0.358417 1.83227 0
M  V30 7412 C 694.991 -1.63831 1.07952 0
M  V30 7413 O 694.116 -2.13885 0.328995 0
M  V30 7414 C 694.711 -0.657058 3.32368 0
M  V30 7415 C 693.27 -1.12015 3.59346 0
M  V30 7416 C 692.417 -0.15015 2.76893 0
M  V30 7417 H 695.368 0.384669 1.53967 0
M  V30 7418 H 695.389 -1.51033 3.49241 0
M  V30 7419 H 694.901 0.274647 3.87127 0
M  V30 7420 H 693.002 -2.06734 3.09987 0
M  V30 7421 H 693.115 -1.037 4.67743 0
M  V30 7422 H 691.479 -0.645361 2.46388 0
M  V30 7423 H 692.262 0.775379 3.34429 0
M  V30 7424 N 694.707 -1.5719 -0.113559 0
M  V30 7425 C 695.67 -1.99796 -1.12314 0
M  V30 7426 C 696.67 -0.888847 -1.34001 0
M  V30 7427 O 697.86 -1.15476 -1.30426 0
M  V30 7428 C 694.992 -2.34279 -2.47641 0
M  V30 7429 H 696.185 -2.90193 -0.756825 0
M  V30 7430 H 693.738 -1.52144 -0.358029 0
M  V30 7431 H 694.473 -1.46778 -2.89183 0
M  V30 7432 H 694.258 -3.15175 -2.33253 0
M  V30 7433 H 695.748 -2.67963 -3.2029 0
M  V30 7434 N 696.185 0.383891 -1.52853 0
M  V30 7435 C 697.432 1.12842 -1.68146 0
M  V30 7436 C 697.76 1.89823 -0.423954 0
M  V30 7437 O 697.015 1.86475 0.593765 0
M  V30 7438 C 697.314 2.12881 -2.87082 0
M  V30 7439 C 696.98 1.52519 -4.24322 0
M  V30 7440 C 695.642 1.35783 -4.61645 0
M  V30 7441 C 697.994 1.0868 -5.09743 0
M  V30 7442 C 695.322 0.737643 -5.82044 0
M  V30 7443 C 697.674 0.480699 -6.30771 0
M  V30 7444 C 696.338 0.300681 -6.66822 0
M  V30 7445 H 695.608 0.412917 -0.615289 0
M  V30 7446 H 698.255 0.412416 -1.87006 0
M  V30 7447 H 696.56 2.90719 -2.62659 0
M  V30 7448 H 698.257 2.70408 -2.96109 0
M  V30 7449 H 694.847 1.66534 -3.94923 0
M  V30 7450 H 699.031 1.2041 -4.81472 0
M  V30 7451 H 694.287 0.586415 -6.08581 0
M  V30 7452 H 698.461 0.132733 -6.96273 0
M  V30 7453 H 696.088 -0.181966 -7.59982 0
M  V30 7454 N 697.663 1.43903 0.642637 0
M  V30 7455 C 698.94 1.36556 1.40043 0
M  V30 7456 C 699.32 0.0185588 2.11092 0
M  V30 7457 O 698.668 -0.998438 2.05532 0
M  V30 7458 C 698.878 2.55596 2.37638 0
M  V30 7459 C 700.226 2.99153 3.01318 0
M  V30 7460 O 701.25 2.55719 2.47965 0
M  V30 7461 O 700.109 3.74427 3.98078 0
M  V30 7462 H 697.203 0.540189 0.626198 0
M  V30 7463 H 699.749 1.55971 0.668657 0
M  V30 7464 H 698.521 3.45256 1.84158 0
M  V30 7465 H 698.144 2.38334 3.18249 0
M  V30 7466 N 699.141 -0.881989 1.30609 0
M  V30 7467 C 700.088 -1.98803 1.17244 0
M  V30 7468 C 701.058 -1.65987 0.0611905 0
M  V30 7469 O 702.243 -1.89385 0.231911 0
M  V30 7470 C 699.383 -3.33867 0.87333 0
M  V30 7471 C 698.496 -3.79354 2.06675 0
M  V30 7472 C 697.631 -5.03078 1.70547 0
M  V30 7473 C 696.67 -5.40981 2.86366 0
M  V30 7474 N 695.807 -6.55886 2.50514 0
M  V30 7475 H 700.647 -2.09566 2.11863 0
M  V30 7476 H 698.184 -1.02607 1.05405 0
M  V30 7477 H 700.142 -4.11612 0.680519 0
M  V30 7478 H 698.772 -3.2278 -0.0359983 0
M  V30 7479 H 697.824 -2.97492 2.37071 0
M  V30 7480 H 699.136 -4.03382 2.93401 0
M  V30 7481 H 698.29 -5.88457 1.47658 0
M  V30 7482 H 697.029 -4.80927 0.809947 0
M  V30 7483 H 696.034 -4.54127 3.09917 0
M  V30 7484 H 697.259 -5.65104 3.76609 0
M  V30 7485 H 695.205 -6.35306 1.63471 0
M  V30 7486 H 695.122 -6.79799 3.30771 0
M  V30 7487 H 696.39 -7.44489 2.30989 0
M  V30 7488 N 700.619 -1.13374 -1.09472 0
M  V30 7489 C 701.549 -0.833268 -2.18126 0
M  V30 7490 C 702.53 0.207169 -1.68834 0
M  V30 7491 O 703.715 0.0662012 -1.94087 0
M  V30 7492 C 700.845 -0.297979 -3.46019 0
M  V30 7493 C 699.799 -1.27261 -4.08642 0
M  V30 7494 C 699.125 -0.597104 -5.31356 0
M  V30 7495 C 700.425 -2.63095 -4.51197 0
M  V30 7496 H 702.119 -1.74182 -2.43518 0
M  V30 7497 H 699.665 -0.838921 -1.17039 0
M  V30 7498 H 701.618 -0.0754444 -4.21332 0
M  V30 7499 H 700.342 0.645959 -3.20148 0
M  V30 7500 H 699.001 -1.48113 -3.35348 0
M  V30 7501 H 698.649 0.352293 -5.01765 0
M  V30 7502 H 698.349 -1.24734 -5.74208 0
M  V30 7503 H 699.873 -0.38384 -6.09392 0
M  V30 7504 H 701.287 -2.46214 -5.17737 0
M  V30 7505 H 699.684 -3.2429 -5.04932 0
M  V30 7506 H 700.754 -3.20793 -3.6362 0
M  V30 7507 N 702.098 1.27442 -0.927168 0
M  V30 7508 C 703.347 1.93679 -0.563146 0
M  V30 7509 C 703.66 1.73673 0.899837 0
M  V30 7510 O 704.866 2.34247 1.37262 0
M  V30 7511 C 703.322 3.46961 -0.95636 0
M  V30 7512 C 702.93 3.75724 -2.43999 0
M  V30 7513 C 704.674 4.19282 -0.663565 0
M  V30 7514 C 702.581 5.22378 -2.77263 0
M  V30 7515 H 701.511 0.725059 -0.206894 0
M  V30 7516 H 704.162 1.44743 -1.12791 0
M  V30 7517 H 702.544 3.94703 -0.320254 0
M  V30 7518 H 703.718 3.38741 -3.12396 0
M  V30 7519 H 702.033 3.16605 -2.70463 0
M  V30 7520 H 704.63 5.27265 -0.888596 0
M  V30 7521 H 704.973 4.14382 0.399198 0
M  V30 7522 H 705.506 3.7736 -1.25875 0
M  V30 7523 H 702.245 5.32367 -3.82446 0
M  V30 7524 H 701.765 5.6051 -2.13516 0
M  V30 7525 H 703.444 5.9025 -2.64979 0
M  V30 7526 N 703.576 0.692616 1.41565 0
M  V30 7527 C 704.539 0.0344174 2.29174 0
M  V30 7528 C 705.539 -0.710961 1.44229 0
M  V30 7529 O 706.729 -0.546293 1.65412 0
M  V30 7530 C 703.861 -0.961682 3.27054 0
M  V30 7531 H 705.054 0.805755 2.88873 0
M  V30 7532 H 702.607 0.455947 1.49502 0
M  V30 7533 H 703.342 -1.76089 2.72329 0
M  V30 7534 H 703.127 -0.430375 3.89731 0
M  V30 7535 H 704.617 -1.4201 3.92712 0
M  V30 7536 N 705.054 -1.51416 0.437162 0
M  V30 7537 C 706.331 -1.94682 -0.189292 0
M  V30 7538 C 706.711 -1.37581 -1.60108 0
M  V30 7539 O 706.059 -0.562815 -2.2146 0
M  V30 7540 C 706.269 -3.48599 -0.167201 0
M  V30 7541 C 707.617 -4.2296 -0.372856 0
M  V30 7542 O 708.641 -3.55354 -0.245323 0
M  V30 7543 O 707.5 -5.42895 -0.626693 0
M  V30 7544 H 704.594 -0.816708 -0.130063 0
M  V30 7545 H 707.14 -1.62316 0.495128 0
M  V30 7546 H 705.912 -3.82616 0.81981 0
M  V30 7547 H 705.535 -3.87406 -0.894537 0
M  V30 7548 N 706.532 -0.168513 -1.56696 0
M  V30 7549 C 707.76 0.483503 -2.01171 0
M  V30 7550 C 708.175 1.56994 -1.04872 0
M  V30 7551 O 707.532 1.82434 -0.0491337 0
M  V30 7552 C 707.583 1.0644 -3.45475 0
M  V30 7553 O 707.304 0.0213375 -4.38095 0
M  V30 7554 C 708.805 1.79493 -4.05336 0
M  V30 7555 H 706.025 0.124002 -0.659443 0
M  V30 7556 H 708.569 -0.269419 -2.02717 0
M  V30 7557 H 706.724 1.76784 -3.44712 0
M  V30 7558 H 707.138 0.449837 -5.22567 0
M  V30 7559 H 708.612 2.15401 -5.08238 0
M  V30 7560 H 709.089 2.68889 -3.47269 0
M  V30 7561 H 709.695 1.13798 -4.09793 0
M  V30 7562 N 708.01 1.57248 0.105221 0
M  V30 7563 C 708.94 2.04374 1.12931 0
M  V30 7564 C 709.921 0.93074 1.42377 0
M  V30 7565 O 711.106 1.20136 1.52581 0
M  V30 7566 C 708.236 2.45967 2.45189 0
M  V30 7567 C 707.19 3.60838 2.30174 0
M  V30 7568 C 706.516 3.88374 3.67518 0
M  V30 7569 C 707.816 4.92084 1.75073 0
M  V30 7570 H 709.51 2.9018 0.737287 0
M  V30 7571 H 707.056 1.39601 0.353211 0
M  V30 7572 H 709.009 2.77542 3.17094 0
M  V30 7573 H 707.733 1.57148 2.86308 0
M  V30 7574 H 706.392 3.29493 1.60716 0
M  V30 7575 H 706.04 2.96739 4.06147 0
M  V30 7576 H 705.74 4.65703 3.58321 0
M  V30 7577 H 707.264 4.22415 4.40906 0
M  V30 7578 H 708.678 5.22106 2.36809 0
M  V30 7579 H 707.075 5.73507 1.76662 0
M  V30 7580 H 708.145 4.79684 0.709347 0
M  V30 7581 N 709.488 -0.375779 1.53054 0
M  V30 7582 C 710.435 -1.45978 1.78771 0
M  V30 7583 C 711.405 -1.53625 0.631552 0
M  V30 7584 O 712.59 -1.69674 0.872667 0
M  V30 7585 C 709.73 -2.8305 1.97425 0
M  V30 7586 C 708.843 -2.84451 3.25134 0
M  V30 7587 C 707.978 -4.13034 3.34031 0
M  V30 7588 C 707.017 -4.08536 4.55812 0
M  V30 7589 N 706.154 -5.2875 4.61918 0
M  V30 7590 H 710.994 -1.23349 2.71273 0
M  V30 7591 H 708.531 -0.598147 1.3439 0
M  V30 7592 H 710.489 -3.62666 2.06225 0
M  V30 7593 H 709.119 -3.04101 1.0827 0
M  V30 7594 H 708.171 -1.97127 3.25338 0
M  V30 7595 H 709.483 -2.76998 4.14818 0
M  V30 7596 H 708.637 -5.0106 3.42087 0
M  V30 7597 H 707.376 -4.23226 2.42345 0
M  V30 7598 H 706.381 -3.18897 4.47867 0
M  V30 7599 H 707.606 -3.99955 5.48828 0
M  V30 7600 H 705.552 -5.39547 3.73129 0
M  V30 7601 H 705.469 -5.23426 5.45492 0
M  V30 7602 H 706.737 -6.18637 4.74245 0
M  V30 7603 N 710.966 -1.44241 -0.634997 0
M  V30 7604 C 712.212 -1.47038 -1.39669 0
M  V30 7605 C 712.545 -0.101122 -1.93937 0
M  V30 7606 O 711.82 0.880699 -1.73418 0
M  V30 7607 C 712.103 -2.52763 -2.56482 0
M  V30 7608 C 711.956 -3.99032 -2.07589 0
M  V30 7609 C 713.275 -2.55031 -3.58674 0
M  V30 7610 H 710.394 -0.53537 -0.506506 0
M  V30 7611 H 713.036 -1.75898 -0.718317 0
M  V30 7612 H 711.186 -2.28284 -3.14354 0
M  V30 7613 H 712.858 -4.3463 -1.54577 0
M  V30 7614 H 711.101 -4.10994 -1.38804 0
M  V30 7615 H 711.772 -4.68649 -2.91671 0
M  V30 7616 H 714.248 -2.76893 -3.10595 0
M  V30 7617 H 713.124 -3.30916 -4.37934 0
M  V30 7618 H 713.385 -1.59085 -4.12486 0
M  V30 7619 N 712.444 0.87505 -1.31075 0
M  V30 7620 C 713.407 1.96333 -1.18263 0
M  V30 7621 C 714.407 1.60416 -0.111106 0
M  V30 7622 O 715.597 1.7044 -0.359987 0
M  V30 7623 C 712.729 3.31036 -0.81414 0
M  V30 7624 H 713.922 2.09125 -2.14958 0
M  V30 7625 H 711.475 1.06271 -1.14614 0
M  V30 7626 H 712.21 3.23944 0.151875 0
M  V30 7627 H 711.995 3.58476 -1.58862 0
M  V30 7628 H 713.485 4.10842 -0.748249 0
M  V30 7629 N 713.922 1.13953 1.08869 0
M  V30 7630 C 715.199 0.815768 1.77777 0
M  V30 7631 C 715.579 -0.691624 1.99449 0
M  V30 7632 O 714.927 -1.63085 1.60049 0
M  V30 7633 C 715.137 1.60916 3.09689 0
M  V30 7634 C 716.485 1.80549 3.84301 0
M  V30 7635 O 717.509 1.57562 3.19457 0
M  V30 7636 O 716.368 2.18946 5.00724 0
M  V30 7637 H 713.462 0.298445 0.771271 0
M  V30 7638 H 716.008 1.24446 1.15374 0
M  V30 7639 H 714.78 2.6333 2.89435 0
M  V30 7640 H 714.403 1.17578 3.79817 0
M  V30 7641 N 715.4 -1.26948 0.933913 0
M  V30 7642 C 716.677 -1.89212 0.495784 0
M  V30 7643 C 717.057 -1.84469 -1.02637 0
M  V30 7644 O 716.405 -1.29409 -1.88323 0
M  V30 7645 C 716.615 -3.32865 1.0489 0
M  V30 7646 C 717.963 -4.09749 1.11315 0
M  V30 7647 O 718.987 -3.41905 0.998966 0
M  V30 7648 O 717.846 -5.31061 1.28983 0
M  V30 7649 H 714.94 -0.811284 0.160459 0
M  V30 7650 H 717.486 -1.35171 1.02601 0
M  V30 7651 H 716.258 -3.30642 2.09265 0
M  V30 7652 H 715.881 -3.94435 0.500692 0
M  V30 7653 N 716.879 -0.700114 -1.41195 0
M  V30 7654 C 718.107 -0.242179 -2.05478 0
M  V30 7655 C 718.522 1.11029 -1.52702 0
M  V30 7656 O 717.879 1.69473 -0.677127 0
M  V30 7657 C 717.93 -0.196271 -3.60967 0
M  V30 7658 O 717.651 -1.49532 -4.11791 0
M  V30 7659 C 719.152 0.282102 -4.42401 0
M  V30 7660 H 716.372 -0.111749 -0.661629 0
M  V30 7661 H 718.916 -0.953975 -1.80885 0
M  V30 7662 H 717.071 0.46638 -3.84582 0
M  V30 7663 H 717.485 -1.38545 -5.05871 0
M  V30 7664 H 718.959 0.263093 -5.51373 0
M  V30 7665 H 719.436 1.32174 -4.1884 0
M  V30 7666 H 720.042 -0.349712 -4.2386 0
M  V30 7667 N 718.357 1.51182 -0.445186 0
M  V30 7668 C 719.289 2.25714 0.398206 0
M  V30 7669 C 720.302 1.30032 0.979562 0
M  V30 7670 O 721.491 1.55731 0.872368 0
M  V30 7671 C 718.591 3.00348 1.56985 0
M  V30 7672 C 717.764 4.23187 1.10596 0
M  V30 7673 C 716.823 4.80334 2.14863 0
M  V30 7674 O 715.849 5.4196 1.73977 0
M  V30 7675 N 717.051 4.65053 3.47427 0
M  V30 7676 H 719.816 2.98732 -0.240629 0
M  V30 7677 H 717.377 1.59556 -0.274507 0
M  V30 7678 H 719.369 3.35464 2.26376 0
M  V30 7679 H 717.939 2.30291 2.11387 0
M  V30 7680 H 717.159 3.93476 0.238832 0
M  V30 7681 H 718.447 5.02886 0.773537 0
M  V30 7682 H 717.845 4.15984 3.83372 0
M  V30 7683 H 716.402 5.04509 4.12691 0
M  V30 7684 N 719.835 0.176821 1.56605 0
M  V30 7685 C 721.251 -0.179278 1.5859 0
M  V30 7686 C 721.451 -1.62433 1.19238 0
M  V30 7687 O 720.507 -2.35665 0.906552 0
M  V30 7688 C 721.82 0.106524 3.00511 0
M  V30 7689 C 723.368 0.0451731 3.12967 0
M  V30 7690 C 723.843 0.304038 4.5699 0
M  V30 7691 N 725.334 0.252008 4.62514 0
M  V30 7692 C 726.069 0.426404 5.71812 0
M  V30 7693 N 725.565 0.660155 6.89648 0
M  V30 7694 N 727.358 0.361926 5.60934 0
M  V30 7695 H 719.509 1.12001 1.8047 0
M  V30 7696 H 721.772 0.445679 0.836704 0
M  V30 7697 H 721.478 1.10778 3.33798 0
M  V30 7698 H 721.352 -0.599337 3.72408 0
M  V30 7699 H 723.739 -0.946662 2.79504 0
M  V30 7700 H 723.82 0.78383 2.43495 0
M  V30 7701 H 723.464 1.29311 4.91163 0
M  V30 7702 H 723.394 -0.455294 5.24628 0
M  V30 7703 H 725.885 0.0772102 3.77821 0
M  V30 7704 H 726.198 0.782529 7.68828 0
M  V30 7705 H 724.543 0.696835 6.91498 0
M  V30 7706 H 727.734 0.17986 4.67754 0
M  V30 7707 H 727.907 0.501263 6.46058 0
M  V30 7708 N 721.313 -1.57302 -0.09688 0
M  V30 7709 C 722.538 -1.9058 -0.818169 0
M  V30 7710 C 722.963 -0.770921 -1.71576 0
M  V30 7711 O 722.321 0.277588 -1.79162 0
M  V30 7712 C 722.369 -3.22714 -1.60898 0
M  V30 7713 O 721.473 -3.10178 -2.71779 0
M  V30 7714 H 720.814 -0.624759 -0.224882 0
M  V30 7715 H 723.344 -2.04471 -0.07264 0
M  V30 7716 H 723.354 -3.55978 -1.99358 0
M  V30 7717 H 722.029 -4.04899 -0.950227 0
M  V30 7718 H 720.606 -2.88424 -2.3636 0
M  V30 7719 N 722.791 0.367657 -1.53252 0
M  V30 7720 C 723.701 1.47415 -1.82499 0
M  V30 7721 C 724.717 1.58711 -0.713222 0
M  V30 7722 O 725.893 1.74644 -1.00306 0
M  V30 7723 C 722.958 2.82706 -2.00694 0
M  V30 7724 C 722.019 2.80955 -3.24596 0
M  V30 7725 C 721.252 4.09793 -3.41914 0
M  V30 7726 O 721.475 5.05852 -2.63572 0
M  V30 7727 O 720.409 4.15731 -4.3526 0
M  V30 7728 H 724.235 1.25624 -2.765 0
M  V30 7729 H 721.82 0.557559 -1.38606 0
M  V30 7730 H 723.702 3.62873 -2.14246 0
M  V30 7731 H 722.377 3.04479 -1.09883 0
M  V30 7732 H 721.284 1.99494 -3.16469 0
M  V30 7733 H 722.617 2.64136 -4.15323 0
M  V30 7734 N 724.269 1.44576 0.627338 0
M  V30 7735 C 725.199 1.54562 1.75022 0
M  V30 7736 C 726.18 0.398378 1.65369 0
M  V30 7737 O 727.365 0.61899 1.84071 0
M  V30 7738 C 724.495 1.49309 3.13567 0
M  V30 7739 C 723.449 2.62549 3.38012 0
M  V30 7740 C 722.775 2.42348 4.76625 0
M  V30 7741 C 724.075 4.04678 3.30202 0
M  V30 7742 H 725.769 2.4855 1.66922 0
M  V30 7743 H 723.315 1.19624 0.801636 0
M  V30 7744 H 725.268 1.54895 3.919 0
M  V30 7745 H 723.992 0.518392 3.2246 0
M  V30 7746 H 722.651 2.56358 2.62061 0
M  V30 7747 H 722.299 1.43062 4.82226 0
M  V30 7748 H 721.999 3.18273 4.93939 0
M  V30 7749 H 723.523 2.49758 5.57183 0
M  V30 7750 H 724.937 4.12217 3.98435 0
M  V30 7751 H 723.334 4.80836 3.5905 0
M  V30 7752 H 724.404 4.2798 2.27949 0
M  V30 7753 N 725.747 -0.868086 1.31537 0
M  V30 7754 C 726.977 -1.65162 1.24118 0
M  V30 7755 C 727.385 -1.88187 -0.195558 0
M  V30 7756 O 726.728 -1.44154 -1.13866 0
M  V30 7757 C 726.79 -3.04119 1.91708 0
M  V30 7758 C 726.454 -3.04194 3.4105 0
M  V30 7759 C 727.451 -2.82016 4.36764 0
M  V30 7760 C 725.136 -3.25256 3.82772 0
M  V30 7761 C 727.13 -2.80881 5.72175 0
M  V30 7762 C 724.817 -3.23749 5.18295 0
M  V30 7763 C 725.815 -3.01589 6.12808 0
M  V30 7764 O 725.503 -2.9993 7.45853 0
M  V30 7765 H 725.235 -0.521597 0.430015 0
M  V30 7766 H 727.789 -1.09165 1.73989 0
M  V30 7767 H 726.019 -3.61849 1.36389 0
M  V30 7768 H 727.708 -3.64701 1.78179 0
M  V30 7769 H 728.474 -2.65525 4.05859 0
M  V30 7770 H 724.353 -3.41534 3.09638 0
M  V30 7771 H 727.897 -2.63503 6.45919 0
M  V30 7772 H 723.794 -3.39781 5.48834 0
M  V30 7773 H 724.562 -3.15979 7.55049 0
M  V30 7774 N 727.225 -1.14528 -1.08264 0
M  V30 7775 C 728.188 -0.83632 -2.13397 0
M  V30 7776 C 729.188 0.159715 -1.60005 0
M  V30 7777 O 730.378 -0.0688098 -1.74064 0
M  V30 7778 C 727.51 -0.246973 -3.40004 0
M  V30 7779 H 728.703 -1.76808 -2.42237 0
M  V30 7780 H 726.256 -0.951509 -1.24 0
M  V30 7781 H 726.991 0.693436 -3.168 0
M  V30 7782 H 726.776 -0.964412 -3.80055 0
M  V30 7783 H 728.266 -0.0480679 -4.17572 0
M  V30 7784 N 728.703 1.26451 -0.940633 0
M  V30 7785 C 729.65 2.264 -0.448497 0
M  V30 7786 C 730.62 1.5866 0.491546 0
M  V30 7787 O 731.805 1.86389 0.407874 0
M  V30 7788 C 728.945 3.43956 0.280715 0
M  V30 7789 C 728.058 4.26374 -0.694937 0
M  V30 7790 C 727.193 5.31171 0.0554186 0
M  V30 7791 C 726.232 6.05266 -0.912091 0
M  V30 7792 N 725.369 7.01833 -0.193524 0
M  V30 7793 H 730.209 2.67869 -1.30576 0
M  V30 7794 H 727.746 1.31707 -0.655112 0
M  V30 7795 H 729.704 4.10941 0.71994 0
M  V30 7796 H 728.334 3.03403 1.10212 0
M  V30 7797 H 727.386 3.59183 -1.25267 0
M  V30 7798 H 728.698 4.77748 -1.43382 0
M  V30 7799 H 727.852 6.04166 0.553951 0
M  V30 7800 H 726.591 4.80634 0.827183 0
M  V30 7801 H 725.596 5.31099 -1.42175 0
M  V30 7802 H 726.821 6.57893 -1.68385 0
M  V30 7803 H 724.767 6.53607 0.559758 0
M  V30 7804 H 724.684 7.50957 -0.871744 0
M  V30 7805 H 725.952 7.78983 0.283932 0
M  V30 7806 N 730.181 0.707592 1.40822 0
M  V30 7807 C 731.144 0.0587224 2.29125 0
M  V30 7808 C 732.144 -0.695624 1.44975 0
M  V30 7809 O 733.334 -0.528718 1.65983 0
M  V30 7810 C 730.466 -0.926939 3.28056 0
M  V30 7811 H 731.659 0.836349 2.88002 0
M  V30 7812 H 729.212 0.471778 1.4901 0
M  V30 7813 H 729.947 -1.7319 2.74182 0
M  V30 7814 H 729.732 -0.389015 3.90165 0
M  V30 7815 H 731.222 -1.37837 3.94196 0
M  V30 7816 N 731.66 -1.50943 0.453197 0
M  V30 7817 C 732.57 -2.31884 -0.355963 0
M  V30 7818 C 733.586 -1.41481 -1.01287 0
M  V30 7819 O 734.762 -1.74546 -1.00477 0
M  V30 7820 C 731.827 -3.15668 -1.43369 0
M  V30 7821 C 730.888 -4.2187 -0.795253 0
M  V30 7822 C 730.121 -5.0165 -1.82162 0
M  V30 7823 O 730.344 -4.82266 -3.04592 0
M  V30 7824 O 729.278 -5.85311 -1.40336 0
M  V30 7825 H 733.104 -3.02162 0.305248 0
M  V30 7826 H 730.689 -1.47839 0.215398 0
M  V30 7827 H 732.571 -3.67709 -2.05836 0
M  V30 7828 H 731.246 -2.48137 -2.07869 0
M  V30 7829 H 730.153 -3.73867 -0.132106 0
M  V30 7830 H 731.486 -4.9182 -0.193484 0
M  V30 7831 N 733.138 -0.185124 -1.56509 0
M  V30 7832 C 734.07 0.771401 -2.15829 0
M  V30 7833 C 735.083 1.18392 -1.11747 0
M  V30 7834 O 736.272 1.12137 -1.38879 0
M  V30 7835 C 733.372 2.05169 -2.69739 0
M  V30 7836 C 732.545 1.80056 -3.98621 0
M  V30 7837 C 731.604 2.92435 -4.37456 0
M  V30 7838 O 730.63 2.62473 -5.05071 0
M  V30 7839 N 731.832 4.20554 -4.00143 0
M  V30 7840 H 734.597 0.264184 -2.98533 0
M  V30 7841 H 732.158 -0.00281069 -1.619 0
M  V30 7842 H 734.15 2.7947 -2.92709 0
M  V30 7843 H 732.72 2.47041 -1.91545 0
M  V30 7844 H 731.94 0.895862 -3.83885 0
M  V30 7845 H 733.228 1.60662 -4.82768 0
M  V30 7846 H 732.626 4.47753 -3.45736 0
M  V30 7847 H 731.183 4.91514 -4.28085 0
M  V30 7848 N 734.616 1.57351 0.0885366 0
M  V30 7849 C 735.548 1.99221 1.13329 0
M  V30 7850 C 736.561 0.895705 1.35945 0
M  V30 7851 O 737.75 1.17376 1.34481 0
M  V30 7852 C 734.85 2.3016 2.48756 0
M  V30 7853 C 734.023 3.61444 2.46327 0
M  V30 7854 C 733.082 3.80244 3.63732 0
M  V30 7855 O 732.108 4.52024 3.45924 0
M  V30 7856 N 733.31 3.2132 4.8346 0
M  V30 7857 H 736.075 2.89456 0.776862 0
M  V30 7858 H 733.636 1.59505 0.277428 0
M  V30 7859 H 735.628 2.39925 3.25911 0
M  V30 7860 H 734.198 1.459 2.76464 0
M  V30 7861 H 733.418 3.62588 1.54673 0
M  V30 7862 H 734.706 4.47678 2.41789 0
M  V30 7863 H 734.104 2.63028 5.00832 0
M  V30 7864 H 732.661 3.3656 5.58185 0
M  V30 7865 N 736.094 -0.359525 1.53444 0
M  V30 7866 C 737.024 -1.44662 1.8329 0
M  V30 7867 C 738.005 -1.55617 0.68683 0
M  V30 7868 O 739.19 -1.70086 0.93725 0
M  V30 7869 C 736.32 -2.81923 2.02822 0
M  V30 7870 C 735.274 -2.85787 3.18606 0
M  V30 7871 C 734.6 -4.25781 3.23442 0
M  V30 7872 C 735.9 -2.52762 4.57065 0
M  V30 7873 H 737.594 -1.19934 2.74329 0
M  V30 7874 H 735.14 -0.575517 1.31999 0
M  V30 7875 H 737.093 -3.58005 2.22285 0
M  V30 7876 H 735.817 -3.08051 1.085 0
M  V30 7877 H 734.476 -2.12157 2.98973 0
M  V30 7878 H 734.124 -4.48994 2.26745 0
M  V30 7879 H 733.824 -4.29281 4.01238 0
M  V30 7880 H 735.348 -5.03727 3.45096 0
M  V30 7881 H 736.762 -3.18557 4.76649 0
M  V30 7882 H 735.159 -2.67569 5.37147 0
M  V30 7883 H 736.229 -1.47993 4.61764 0
M  V30 7884 N 737.572 -1.44907 -0.619662 0
M  V30 7885 C 738.849 -1.38766 -1.37852 0
M  V30 7886 C 739.229 -0.0521393 -2.11036 0
M  V30 7887 O 738.577 0.965613 -2.07095 0
M  V30 7888 C 738.787 -2.59344 -2.33541 0
M  V30 7889 C 740.135 -3.03909 -2.96521 0
M  V30 7890 O 741.159 -2.59631 -2.43865 0
M  V30 7891 O 740.018 -3.80713 -3.92071 0
M  V30 7892 H 737.112 -0.550083 -0.617525 0
M  V30 7893 H 739.658 -1.57015 -0.643759 0
M  V30 7894 H 738.43 -3.48142 -1.78642 0
M  V30 7895 H 738.053 -2.43367 -3.14417 0
M  V30 7896 N 739.05 0.861098 -1.31996 0
M  V30 7897 C 739.997 1.96912 -1.20392 0
M  V30 7898 C 740.967 1.65869 -0.0875899 0
M  V30 7899 O 742.152 1.88992 -0.262011 0
M  V30 7900 C 739.292 3.32435 -0.926335 0
M  V30 7901 C 738.405 3.76018 -2.12684 0
M  V30 7902 C 737.54 5.00301 -1.78529 0
M  V30 7903 C 736.579 5.36357 -2.94937 0
M  V30 7904 N 735.716 6.51818 -2.60917 0
M  V30 7905 H 740.556 2.06169 -2.1517 0
M  V30 7906 H 738.093 1.00917 -1.07024 0
M  V30 7907 H 740.051 4.10478 -0.745917 0
M  V30 7908 H 738.681 3.22796 -0.0153578 0
M  V30 7909 H 737.733 2.93683 -2.41774 0
M  V30 7910 H 739.045 3.98664 -2.99781 0
M  V30 7911 H 738.199 5.86034 -1.57001 0
M  V30 7912 H 736.938 4.79578 -0.886356 0
M  V30 7913 H 735.943 4.49139 -3.17103 0
M  V30 7914 H 737.168 5.59041 -3.85552 0
M  V30 7915 H 735.114 6.32624 -1.73558 0
M  V30 7916 H 735.031 6.7445 -3.41544 0
M  V30 7917 H 736.299 7.4072 -2.42804 0
M  V30 7918 N 740.528 1.15101 1.07655 0
M  V30 7919 C 741.805 0.834578 1.76902 0
M  V30 7920 C 742.185 -0.670431 2.00171 0
M  V30 7921 O 741.533 -1.61378 1.6177 0
M  V30 7922 C 741.743 1.64191 3.07965 0
M  V30 7923 C 743.091 1.84615 3.82364 0
M  V30 7924 O 744.115 1.60941 3.17768 0
M  V30 7925 O 742.974 2.24244 4.98374 0
M  V30 7926 H 740.068 0.306608 0.768063 0
M  V30 7927 H 742.614 1.25663 1.14048 0
M  V30 7928 H 741.386 2.66386 2.86626 0
M  V30 7929 H 741.009 1.216 3.78549 0
M  V30 7930 N 742.006 -1.2595 0.947325 0
M  V30 7931 C 743.231 -1.98083 0.614633 0
M  V30 7932 C 743.656 -1.70013 -0.804815 0
M  V30 7933 O 743.014 -0.95175 -1.54309 0
M  V30 7934 C 743.062 -3.4993 0.870706 0
M  V30 7935 O 742.166 -4.12364 -0.0541451 0
M  V30 7936 H 741.507 -0.621232 0.234451 0
M  V30 7937 H 744.037 -1.60259 1.27193 0
M  V30 7938 H 744.047 -4.00198 0.794051 0
M  V30 7939 H 742.722 -3.69691 1.90529 0
M  V30 7940 H 741.299 -3.72826 0.0740917 0
M  V30 7941 N 743.484 -0.715051 -1.40445 0
M  V30 7942 C 744.447 -0.0708726 -2.2909 0
M  V30 7943 C 745.447 0.687926 -1.45342 0
M  V30 7944 O 746.637 0.519908 -1.66261 0
M  V30 7945 C 743.769 0.909528 -3.28543 0
M  V30 7946 H 744.962 -0.851611 -2.87555 0
M  V30 7947 H 742.515 -0.479674 -1.48758 0
M  V30 7948 H 743.25 1.71734 -2.75096 0
M  V30 7949 H 743.035 0.368318 -3.90366 0
M  V30 7950 H 744.525 1.35744 -3.94922 0
M  V30 7951 N 744.962 1.50701 -0.461195 0
M  V30 7952 C 746.211 2.01458 0.0988277 0
M  V30 7953 C 746.524 1.34863 1.41673 0
M  V30 7954 O 747.73 1.76721 2.06111 0
M  V30 7955 C 746.186 3.59186 0.226648 0
M  V30 7956 C 745.794 4.34732 -1.08223 0
M  V30 7957 C 747.538 4.18015 0.73916 0
M  V30 7958 C 745.445 5.8422 -0.918747 0
M  V30 7959 H 744.375 0.7529 0.040709 0
M  V30 7960 H 747.026 1.736 -0.594589 0
M  V30 7961 H 745.408 3.83589 0.983621 0
M  V30 7962 H 746.582 4.22059 -1.84939 0
M  V30 7963 H 744.897 3.87466 -1.52509 0
M  V30 7964 H 747.494 5.27436 0.878347 0
M  V30 7965 H 747.837 3.78746 1.72793 0
M  V30 7966 H 748.37 3.9778 0.0398469 0
M  V30 7967 H 745.109 6.27944 -1.88059 0
M  V30 7968 H 744.629 5.99493 -0.191801 0
M  V30 7969 H 746.308 6.44382 -0.581405 0
M  V30 7970 N 746.441 0.193421 1.56409 0
M  V30 7971 C 747.687 -0.446449 1.97825 0
M  V30 7972 C 748.02 -1.61386 1.08019 0
M  V30 7973 O 747.295 -1.94053 0.131839 0
M  V30 7974 C 747.578 -0.908199 3.48459 0
M  V30 7975 C 747.431 0.260914 4.49043 0
M  V30 7976 C 748.75 -1.77428 4.0275 0
M  V30 7977 H 745.869 -0.160807 0.719243 0
M  V30 7978 H 748.511 0.284006 1.87865 0
M  V30 7979 H 746.661 -1.53062 3.57077 0
M  V30 7980 H 748.333 0.898548 4.52464 0
M  V30 7981 H 746.576 0.912949 4.24085 0
M  V30 7982 H 747.247 -0.104657 5.51901 0
M  V30 7983 H 749.723 -1.24936 3.96901 0
M  V30 7984 H 748.599 -2.06633 5.08521 0
M  V30 7985 H 748.86 -2.72788 3.47907 0
M  V30 7986 N 747.919 -1.57396 -0.0801906 0
M  V30 7987 C 749.33 -1.75642 -0.633002 0
M  V30 7988 C 749.681 -0.817708 -1.78348 0
M  V30 7989 O 748.806 0.000233743 -2.164 0
M  V30 7990 C 749.401 -3.18502 -1.15507 0
M  V30 7991 C 747.96 -3.38121 -1.65381 0
M  V30 7992 C 747.107 -2.71386 -0.569661 0
M  V30 7993 H 750.058 -1.58027 0.145949 0
M  V30 7994 H 750.079 -3.22198 -2.02408 0
M  V30 7995 H 749.591 -3.86799 -0.317515 0
M  V30 7996 H 747.692 -2.74926 -2.51488 0
M  V30 7997 H 747.805 -4.46521 -1.73654 0
M  V30 7998 H 746.169 -2.33702 -1.0127 0
M  V30 7999 H 746.952 -3.42332 0.257561 0
M  V30 8000 N 749.397 0.351382 -1.53633 0
M  V30 8001 C 750.643 1.09411 -1.70754 0
M  V30 8002 C 750.976 1.88544 -0.465293 0
M  V30 8003 O 750.251 1.86923 0.537608 0
M  V30 8004 C 750.534 2.04173 -2.96623 0
M  V30 8005 C 750.387 1.28556 -4.31038 0
M  V30 8006 C 751.706 3.04102 -3.18136 0
M  V30 8007 H 748.825 0.396373 -0.621335 0
M  V30 8008 H 751.467 0.373464 -1.86293 0
M  V30 8009 H 749.617 2.65625 -2.83506 0
M  V30 8010 H 751.289 0.697786 -4.55992 0
M  V30 8011 H 749.532 0.587498 -4.29803 0
M  V30 8012 H 750.203 1.97989 -5.15271 0
M  V30 8013 H 752.679 2.5276 -3.30532 0
M  V30 8014 H 751.555 3.67616 -4.07615 0
M  V30 8015 H 751.816 3.75053 -2.34068 0
M  V30 8016 N 750.875 1.45233 0.611969 0
M  V30 8017 C 752.105 1.52318 1.39581 0
M  V30 8018 C 752.513 0.153093 1.8858 0
M  V30 8019 O 751.856 -0.854792 1.62601 0
M  V30 8020 C 751.918 2.4426 2.63775 0
M  V30 8021 C 751.582 3.91079 2.36445 0
M  V30 8022 C 752.579 4.81099 1.97079 0
M  V30 8023 C 750.264 4.35958 2.49492 0
M  V30 8024 C 752.258 6.14002 1.71115 0
M  V30 8025 C 749.945 5.68903 2.23142 0
M  V30 8026 C 750.943 6.57744 1.84015 0
M  V30 8027 O 750.631 7.88226 1.5797 0
M  V30 8028 H 750.363 0.518428 0.43383 0
M  V30 8029 H 752.917 1.91067 0.753837 0
M  V30 8030 H 751.147 2.00474 3.30677 0
M  V30 8031 H 752.836 2.42077 3.25812 0
M  V30 8032 H 753.602 4.47692 1.86539 0
M  V30 8033 H 749.481 3.67053 2.78914 0
M  V30 8034 H 753.025 6.83305 1.405 0
M  V30 8035 H 748.922 6.01866 2.33297 0
M  V30 8036 H 749.69 8.00211 1.72058 0
M  V30 8037 N 752.353 -0.854086 1.3245 0
M  V30 8038 C 753.583 -1.63836 1.25862 0
M  V30 8039 C 753.991 -1.88383 -0.175588 0
M  V30 8040 O 753.334 -1.45353 -1.1233 0
M  V30 8041 C 753.396 -3.02068 1.94923 0
M  V30 8042 C 753.06 -3.0056 3.44257 0
M  V30 8043 C 754.057 -2.77368 4.39731 0
M  V30 8044 C 751.742 -3.21177 3.862 0
M  V30 8045 C 753.736 -2.74797 5.75122 0
M  V30 8046 C 751.423 -3.18234 5.217 0
M  V30 8047 C 752.421 -2.95072 6.15972 0
M  V30 8048 O 752.109 -2.92003 7.48992 0
M  V30 8049 H 751.841 -0.517007 0.435523 0
M  V30 8050 H 754.395 -1.07314 1.75137 0
M  V30 8051 H 752.625 -3.60382 1.40219 0
M  V30 8052 H 754.314 -3.62791 1.82037 0
M  V30 8053 H 755.08 -2.61205 4.08653 0
M  V30 8054 H 750.959 -3.38231 3.13243 0
M  V30 8055 H 754.503 -2.56638 6.48678 0
M  V30 8056 H 750.4 -3.33941 5.52407 0
M  V30 8057 H 751.168 -3.07953 7.58358 0
M  V30 8058 N 753.831 -1.1567 -1.07043 0
M  V30 8059 C 755.061 -0.956083 -1.83146 0
M  V30 8060 C 755.469 0.498969 -1.82502 0
M  V30 8061 O 754.812 1.35791 -1.23719 0
M  V30 8062 C 754.874 -1.39704 -3.31245 0
M  V30 8063 C 754.538 -2.87045 -3.55604 0
M  V30 8064 C 755.535 -3.85092 -3.49285 0
M  V30 8065 C 753.22 -3.24787 -3.8317 0
M  V30 8066 C 755.214 -5.18885 -3.70185 0
M  V30 8067 C 752.901 -4.58751 -4.03721 0
M  V30 8068 C 753.899 -5.55609 -3.97224 0
M  V30 8069 O 753.587 -6.87154 -4.17223 0
M  V30 8070 H 753.319 -0.339473 -0.58458 0
M  V30 8071 H 755.873 -1.53922 -1.36005 0
M  V30 8072 H 754.103 -0.757326 -3.79212 0
M  V30 8073 H 755.792 -1.16503 -3.88821 0
M  V30 8074 H 756.558 -3.5728 -3.27988 0
M  V30 8075 H 752.437 -2.49979 -3.87339 0
M  V30 8076 H 755.981 -5.94473 -3.6503 0
M  V30 8077 H 751.878 -4.86277 -4.24505 0
M  V30 8078 H 752.646 -6.93618 -4.34553 0
M  V30 8079 N 755.309 1.25446 -0.953992 0
M  V30 8080 C 756.555 1.9343 -0.60933 0
M  V30 8081 C 756.888 1.74542 0.851388 0
M  V30 8082 O 756.163 1.09014 1.61078 0
M  V30 8083 C 756.446 3.46844 -0.968041 0
M  V30 8084 C 756.299 3.74961 -2.48444 0
M  V30 8085 C 757.618 4.37334 -0.492641 0
M  V30 8086 H 754.737 0.702502 -0.222844 0
M  V30 8087 H 757.379 1.48076 -1.19053 0
M  V30 8088 H 755.529 3.85604 -0.473465 0
M  V30 8089 H 757.201 3.45841 -3.05273 0
M  V30 8090 H 755.444 3.20589 -2.92241 0
M  V30 8091 H 756.115 4.82246 -2.68594 0
M  V30 8092 H 758.591 4.05873 -0.916878 0
M  V30 8093 H 757.467 5.43439 -0.772331 0
M  V30 8094 H 757.728 4.37908 0.607403 0
M  V30 8095 N 756.787 0.722489 1.40064 0
M  V30 8096 C 757.735 0.063329 2.32514 0
M  V30 8097 C 758.729 -0.73953 1.52405 0
M  V30 8098 O 759.935 -0.642122 1.68157 0
M  V30 8099 H 756.31 0.00167692 0.751998 0
M  V30 8100 H 758.281 0.859656 2.85749 0
M  V30 8101 C 757.03 -0.839219 3.3742 0
M  V30 8102 H 756.353 -0.230836 3.99133 0
M  V30 8103 H 757.793 -1.26827 4.04587 0
M  V30 8104 C 756.252 -1.96783 2.73456 0
M  V30 8105 O 756.782 -3.05933 2.60323 0
M  V30 8106 N 754.988 -1.75351 2.31734 0
M  V30 8107 H 754.535 -0.865787 2.42615 0
M  V30 8108 H 754.493 -2.51043 1.89275 0
M  V30 8109 N 758.265 -1.50454 0.469181 0
M  V30 8110 C 759.228 -2.2703 -0.314643 0
M  V30 8111 C 760.228 -1.31734 -0.922111 0
M  V30 8112 O 761.418 -1.55176 -0.791588 0
M  V30 8113 C 758.55 -3.08616 -1.44806 0
M  V30 8114 H 759.743 -2.97769 0.356892 0
M  V30 8115 H 757.296 -1.54698 0.223191 0
M  V30 8116 H 758.031 -2.42369 -2.1547 0
M  V30 8117 H 757.816 -3.78647 -1.01829 0
M  V30 8118 H 759.306 -3.66536 -2.00103 0
M  V30 8119 N 759.743 -0.201713 -1.56304 0
M  V30 8120 C 761.159 0.154025 -1.58855 0
M  V30 8121 C 761.359 1.60516 -1.21807 0
M  V30 8122 O 760.415 2.34193 -0.94393 0
M  V30 8123 C 761.728 -0.154319 -3.00304 0
M  V30 8124 C 763.276 -0.0949578 -3.12856 0
M  V30 8125 C 763.751 -0.376703 -4.56448 0
M  V30 8126 N 765.242 -0.325558 -4.62054 0
M  V30 8127 C 765.977 -0.51732 -5.71062 0
M  V30 8128 N 765.473 -0.769789 -6.8851 0
M  V30 8129 N 767.266 -0.45112 -5.60287 0
M  V30 8130 H 759.417 -1.14858 -1.78666 0
M  V30 8131 H 761.68 -0.458934 -0.829508 0
M  V30 8132 H 761.386 -1.16074 -3.31994 0
M  V30 8133 H 761.26 0.540014 -3.73314 0
M  V30 8134 H 763.647 0.902075 -2.80974 0
M  V30 8135 H 763.728 -0.822468 -2.42217 0
M  V30 8136 H 763.372 -1.37108 -4.89044 0
M  V30 8137 H 763.302 0.371772 -5.25286 0
M  V30 8138 H 765.793 -0.137308 -3.7765 0
M  V30 8139 H 766.106 -0.904744 -7.67486 0
M  V30 8140 H 764.451 -0.806758 -6.90302 0
M  V30 8141 H 767.642 -0.254253 -4.67409 0
M  V30 8142 H 767.815 -0.603982 -6.45179 0
M  V30 8143 N 761.222 1.57436 0.0718424 0
M  V30 8144 C 762.152 2.06724 1.08571 0
M  V30 8145 C 763.133 0.960731 1.40371 0
M  V30 8146 O 764.318 1.23345 1.49999 0
M  V30 8147 C 761.448 2.51112 2.39916 0
M  V30 8148 C 760.402 3.65639 2.22469 0
M  V30 8149 C 759.728 3.96082 3.59198 0
M  V30 8150 C 761.028 4.95687 1.64596 0
M  V30 8151 H 762.722 2.91679 0.675569 0
M  V30 8152 H 760.268 1.40319 0.32352 0
M  V30 8153 H 762.221 2.84206 3.11135 0
M  V30 8154 H 760.945 1.63186 2.8291 0
M  V30 8155 H 759.604 3.32828 1.53691 0
M  V30 8156 H 759.252 3.05287 3.99761 0
M  V30 8157 H 758.952 4.73199 3.48362 0
M  V30 8158 H 760.476 4.31672 4.31847 0
M  V30 8159 H 761.89 5.27011 2.25681 0
M  V30 8160 H 760.287 5.77126 1.64457 0
M  V30 8161 H 761.357 4.8108 0.60744 0
M  V30 8162 N 762.7 -0.34323 1.53817 0
M  V30 8163 C 763.946 -1.08504 1.71332 0
M  V30 8164 C 764.279 -1.88294 0.475285 0
M  V30 8165 O 763.554 -1.87205 -0.527688 0
M  V30 8166 C 763.837 -2.02597 2.97702 0
M  V30 8167 C 763.69 -1.26268 4.31713 0
M  V30 8168 C 765.009 -3.0241 3.19744 0
M  V30 8169 H 762.128 -0.393072 0.623429 0
M  V30 8170 H 764.77 -0.363579 1.86489 0
M  V30 8171 H 762.92 -2.64118 2.8491 0
M  V30 8172 H 764.592 -0.673594 4.56356 0
M  V30 8173 H 762.835 -0.564696 4.30109 0
M  V30 8174 H 763.506 -1.95253 5.16314 0
M  V30 8175 H 765.982 -2.51004 3.31868 0
M  V30 8176 H 764.858 -3.65449 4.09558 0
M  V30 8177 H 765.119 -3.73806 2.36054 0
M  V30 8178 N 764.178 -1.45556 -0.604258 0
M  V30 8179 C 765.125 -1.54482 -1.71476 0
M  V30 8180 C 766.095 -0.390479 -1.61445 0
M  V30 8181 O 767.28 -0.604371 -1.80975 0
M  V30 8182 C 764.42 -1.52064 -3.09791 0
M  V30 8183 C 763.533 -2.78073 -3.30604 0
M  V30 8184 C 762.668 -2.67304 -4.59044 0
M  V30 8185 C 761.707 -3.88352 -4.73127 0
M  V30 8186 N 760.844 -3.76098 -5.9287 0
M  V30 8187 H 765.684 -2.49349 -1.63184 0
M  V30 8188 H 763.221 -1.23725 -0.795641 0
M  V30 8189 H 765.179 -1.48649 -3.89819 0
M  V30 8190 H 763.809 -0.607442 -3.17033 0
M  V30 8191 H 762.861 -2.91561 -2.44329 0
M  V30 8192 H 764.173 -3.67847 -3.36883 0
M  V30 8193 H 763.327 -2.61875 -5.47272 0
M  V30 8194 H 762.066 -1.75135 -4.55169 0
M  V30 8195 H 761.071 -3.94137 -3.83322 0
M  V30 8196 H 762.296 -4.81591 -4.78797 0
M  V30 8197 H 760.242 -2.867 -5.90033 0
M  V30 8198 H 760.159 -4.59509 -6.00323 0
M  V30 8199 H 761.427 -3.74607 -6.83586 0
M  V30 8200 N 765.656 0.84705 -1.32902 0
M  V30 8201 C 767.067 1.41785 -1.21466 0
M  V30 8202 C 767.418 1.95464 0.169767 0
M  V30 8203 O 766.543 1.88157 1.06892 0
M  V30 8204 C 767.138 2.57734 -2.19906 0
M  V30 8205 C 765.697 3.10791 -2.12334 0
M  V30 8206 C 764.844 1.83562 -2.07847 0
M  V30 8207 H 767.795 0.653532 -1.44619 0
M  V30 8208 H 767.816 3.35123 -1.80202 0
M  V30 8209 H 767.328 2.18635 -3.20656 0
M  V30 8210 H 765.429 3.54455 -1.14858 0
M  V30 8211 H 765.542 3.71519 -3.02506 0
M  V30 8212 H 763.906 2.03475 -1.53199 0
M  V30 8213 H 764.689 1.4667 -3.10392 0
M  V30 8214 N 767.134 1.16236 1.06428 0
M  V30 8215 C 768.38 0.954417 1.79617 0
M  V30 8216 C 768.735 -0.512411 1.85451 0
M  V30 8217 O 768.028 -1.37523 1.33409 0
M  V30 8218 C 768.222 1.51396 3.2375 0
M  V30 8219 C 768.051 3.03367 3.31962 0
M  V30 8220 C 766.821 3.71996 3.41975 0
M  V30 8221 C 769.019 4.01075 3.21937 0
M  V30 8222 N 767.001 5.11688 3.39187 0
M  V30 8223 C 768.372 5.27142 3.26376 0
M  V30 8224 C 770.427 3.92917 3.05812 0
M  V30 8225 C 769.13 6.46 3.16348 0
M  V30 8226 C 771.156 5.11344 2.97121 0
M  V30 8227 C 770.518 6.36291 3.02181 0
M  V30 8228 H 766.617 0.403007 0.670156 0
M  V30 8229 H 769.201 1.47605 1.26968 0
M  V30 8230 H 767.372 1.01883 3.74799 0
M  V30 8231 H 769.104 1.2439 3.85109 0
M  V30 8232 H 765.859 3.22623 3.46715 0
M  V30 8233 H 766.283 5.84676 3.41297 0
M  V30 8234 H 770.925 2.97172 3.00746 0
M  V30 8235 H 768.643 7.41968 3.2017 0
M  V30 8236 H 772.229 5.06801 2.85734 0
M  V30 8237 H 771.109 7.26389 2.95513 0
M  V30 8238 N 768.612 -1.24939 0.960631 0
M  V30 8239 C 769.858 -1.93104 0.61958 0
M  V30 8240 C 770.191 -1.74991 -0.84212 0
M  V30 8241 O 769.466 -1.09867 -1.60498 0
M  V30 8242 C 769.749 -3.46326 0.986422 0
M  V30 8243 C 769.602 -3.73638 2.50429 0
M  V30 8244 C 770.921 -4.37067 0.515827 0
M  V30 8245 H 768.04 -0.701311 0.226566 0
M  V30 8246 H 770.682 -1.47442 1.19836 0
M  V30 8247 H 768.832 -3.85348 0.493907 0
M  V30 8248 H 770.504 -3.44217 3.07103 0
M  V30 8249 H 768.747 -3.19035 2.93937 0
M  V30 8250 H 769.418 -4.80815 2.71147 0
M  V30 8251 H 771.894 -4.05381 0.938389 0
M  V30 8252 H 770.77 -5.43022 0.80114 0
M  V30 8253 H 771.031 -4.38224 -0.584171 0
M  V30 8254 N 770.09 -0.729906 -1.39679 0
M  V30 8255 C 771.338 -0.275077 -2.00219 0
M  V30 8256 C 771.659 1.1401 -1.58199 0
M  V30 8257 O 770.929 1.77546 -0.827904 0
M  V30 8258 H 769.509 -0.0987127 -0.740449 0
M  V30 8259 H 772.171 -0.93873 -1.70804 0
M  V30 8260 H 771.267 -0.319446 -3.10461 0
M  V30 8261 N 771.568 1.50203 -0.477153 0
M  V30 8262 C 772.816 2.01959 0.0755889 0
M  V30 8263 C 773.137 1.3608 1.39668 0
M  V30 8264 O 772.407 0.508136 1.89195 0
M  V30 8265 H 770.987 0.74636 0.0309248 0
M  V30 8266 H 773.649 1.84473 -0.628959 0
M  V30 8267 H 772.745 3.11305 0.222683 0
M  V30 8268 N 773.046 0.209999 1.56195 0
M  V30 8269 C 774.276 -0.429373 2.02089 0
M  V30 8270 C 774.684 -1.54703 1.0892 0
M  V30 8271 O 774.027 -1.83485 0.0889535 0
M  V30 8272 C 774.089 -1.03266 3.44349 0
M  V30 8273 C 773.753 -0.0518873 4.56971 0
M  V30 8274 C 774.75 0.744249 5.14545 0
M  V30 8275 C 772.435 0.0635185 5.0226 0
M  V30 8276 C 774.429 1.64261 6.15871 0
M  V30 8277 C 772.116 0.965423 6.03426 0
M  V30 8278 C 773.114 1.75352 6.60106 0
M  V30 8279 O 772.802 2.64029 7.59305 0
M  V30 8280 H 772.534 -0.110604 0.66689 0
M  V30 8281 H 775.088 0.320436 2.02885 0
M  V30 8282 H 773.318 -1.83134 3.40586 0
M  V30 8283 H 775.007 -1.57823 3.73961 0
M  V30 8284 H 775.773 0.665476 4.80413 0
M  V30 8285 H 771.652 -0.539762 4.57829 0
M  V30 8286 H 775.196 2.25819 6.60039 0
M  V30 8287 H 771.093 1.04526 6.36981 0
M  V30 8288 H 771.861 2.57974 7.76783 0
M  V30 8289 N 774.524 -1.57472 -0.0634922 0
M  V30 8290 C 775.752 -1.91887 -0.773767 0
M  V30 8291 C 776.167 -0.806733 -1.70696 0
M  V30 8292 O 775.524 0.219383 -1.81177 0
M  V30 8293 C 775.575 -3.26092 -1.56034 0
M  V30 8294 O 775.296 -4.33029 -0.66464 0
M  V30 8295 C 776.797 -3.74573 -2.37087 0
M  V30 8296 H 774.017 -0.634074 -0.219525 0
M  V30 8297 H 776.561 -2.04476 -0.0312828 0
M  V30 8298 H 774.716 -3.15004 -2.25502 0
M  V30 8299 H 775.13 -5.10291 -1.21258 0
M  V30 8300 H 776.604 -4.71084 -2.87722 0
M  V30 8301 H 777.081 -3.04003 -3.16984 0
M  V30 8302 H 777.687 -3.88631 -1.72759 0
M  V30 8303 N 776.003 0.335068 -1.53997 0
M  V30 8304 C 777.251 1.07223 -1.71312 0
M  V30 8305 C 777.572 1.88911 -0.483486 0
M  V30 8306 O 776.842 1.89344 0.50257 0
M  V30 8307 H 775.422 0.398846 -0.63161 0
M  V30 8308 H 778.084 0.374288 -1.91272 0
M  V30 8309 H 777.18 1.7448 -2.58772 0
M  V30 8310 N 777.481 1.45874 0.596531 0
M  V30 8311 C 778.428 1.55389 1.70655 0
M  V30 8312 C 779.398 0.399036 1.61236 0
M  V30 8313 O 780.583 0.61396 1.80652 0
M  V30 8314 C 777.723 1.53705 3.0898 0
M  V30 8315 C 776.836 2.79823 3.29125 0
M  V30 8316 C 775.971 2.69735 4.5762 0
M  V30 8317 C 775.01 3.90856 4.71061 0
M  V30 8318 N 774.147 3.79237 5.90867 0
M  V30 8319 H 778.987 2.50211 1.61859 0
M  V30 8320 H 776.524 1.24146 0.789069 0
M  V30 8321 H 778.482 1.50715 3.89026 0
M  V30 8322 H 777.112 0.624247 3.16706 0
M  V30 8323 H 776.164 2.92852 2.42779 0
M  V30 8324 H 777.476 3.69628 3.34927 0
M  V30 8325 H 776.63 2.64773 5.45875 0
M  V30 8326 H 775.369 1.77547 4.54234 0
M  V30 8327 H 774.374 3.96164 3.81227 0
M  V30 8328 H 775.599 4.84124 4.76236 0
M  V30 8329 H 773.545 2.89825 5.88504 0
M  V30 8330 H 773.462 4.62686 5.97877 0
M  V30 8331 H 774.73 3.78227 6.8159 0
M  V30 8332 N 778.959 -0.83999 1.33349 0
M  V30 8333 C 780.236 -1.57973 1.15342 0
M  V30 8334 C 780.616 -2.09226 -0.280632 0
M  V30 8335 O 779.964 -1.89317 -1.2795 0
M  V30 8336 C 780.174 -2.71446 2.19359 0
M  V30 8337 C 781.522 -3.40654 2.53456 0
M  V30 8338 O 782.546 -2.81686 2.18017 0
M  V30 8339 O 781.405 -4.47101 3.14266 0
M  V30 8340 H 778.499 -0.6964 0.446044 0
M  V30 8341 H 781.045 -0.882843 1.44927 0
M  V30 8342 H 779.817 -2.31205 3.1569 0
M  V30 8343 H 779.44 -3.488 1.90852 0
M  V30 8344 N 780.437 -1.16799 -1.0581 0
M  V30 8345 C 781.848 -0.95945 -1.60161 0
M  V30 8346 C 782.199 0.49543 -1.89842 0
M  V30 8347 O 781.324 1.36957 -1.67546 0
M  V30 8348 C 781.919 -1.73527 -2.90987 0
M  V30 8349 C 780.478 -1.57158 -3.42021 0
M  V30 8350 C 779.625 -1.74089 -2.15843 0
M  V30 8351 H 782.576 -1.31598 -0.886992 0
M  V30 8352 H 782.597 -1.21397 -3.60615 0
M  V30 8353 H 782.109 -2.79411 -2.69353 0
M  V30 8354 H 780.21 -0.537361 -3.68705 0
M  V30 8355 H 780.323 -2.35858 -4.17022 0
M  V30 8356 H 778.687 -1.16874 -2.26302 0
M  V30 8357 H 779.47 -2.81371 -1.96686 0
M  V30 8358 N 781.915 1.24427 -0.967243 0
M  V30 8359 C 782.845 2.2773 -0.515899 0
M  V30 8360 C 783.826 1.64197 0.444227 0
M  V30 8361 O 785.011 1.91193 0.340451 0
M  V30 8362 C 782.141 3.46751 0.195149 0
M  V30 8363 C 781.095 4.22548 -0.680953 0
M  V30 8364 C 780.421 5.34456 0.161561 0
M  V30 8365 C 781.721 4.83914 -1.96532 0
M  V30 8366 H 783.415 2.65735 -1.37933 0
M  V30 8367 H 780.961 1.27742 -0.664681 0
M  V30 8368 H 782.914 4.18153 0.522117 0
M  V30 8369 H 781.638 3.07771 1.09292 0
M  V30 8370 H 780.297 3.52946 -0.991186 0
M  V30 8371 H 779.945 4.91716 1.05947 0
M  V30 8372 H 779.645 5.86087 -0.421418 0
M  V30 8373 H 781.169 6.08685 0.483211 0
M  V30 8374 H 782.583 5.47392 -1.70396 0
M  V30 8375 H 780.98 5.45775 -2.49499 0
M  V30 8376 H 782.05 4.05393 -2.66053 0
M  V30 8377 N 783.393 0.737304 1.3929 0
M  V30 8378 C 784.67 0.212464 1.94443 0
M  V30 8379 C 785.05 -1.28621 1.67391 0
M  V30 8380 O 784.398 -2.0529 1.00342 0
M  V30 8381 C 784.608 0.548565 3.44662 0
M  V30 8382 C 785.956 0.499177 4.21656 0
M  V30 8383 O 786.98 0.485892 3.5287 0
M  V30 8384 O 785.839 0.495739 5.44247 0
M  V30 8385 H 782.933 0.0395457 0.826054 0
M  V30 8386 H 785.479 0.816319 1.48776 0
M  V30 8387 H 784.251 1.58426 3.57795 0
M  V30 8388 H 783.874 -0.0841399 3.97511 0
M  V30 8389 N 784.871 -1.49948 0.485112 0
M  V30 8390 C 785.819 -2.30449 -0.315609 0
M  V30 8391 C 786.813 -1.38351 -0.977516 0
M  V30 8392 O 788.019 -1.55477 -0.907019 0
M  V30 8393 H 784.394 -0.742262 -0.120629 0
M  V30 8394 H 786.365 -2.95925 0.383552 0
M  V30 8395 C 785.114 -3.19283 -1.37673 0
M  V30 8396 H 784.437 -3.90067 -0.876801 0
M  V30 8397 H 785.877 -3.78579 -1.90929 0
M  V30 8398 C 784.336 -2.37817 -2.38631 0
M  V30 8399 O 784.866 -2.0711 -3.44192 0
M  V30 8400 N 783.072 -2.00135 -2.107 0
M  V30 8401 H 782.619 -2.25307 -1.24878 0
M  V30 8402 H 782.577 -1.45933 -2.7848 0
M  V30 8403 N 786.349 -0.21828 -1.56081 0
M  V30 8404 C 787.598 0.414644 -1.97392 0
M  V30 8405 C 787.911 1.61132 -1.10887 0
M  V30 8406 O 789.117 2.31355 -1.42082 0
M  V30 8407 C 787.573 0.789099 -3.51143 0
M  V30 8408 C 787.181 -0.384578 -4.46346 0
M  V30 8409 C 788.925 1.38781 -4.01173 0
M  V30 8410 C 786.832 0.0121288 -5.91399 0
M  V30 8411 H 785.762 0.158691 -0.737111 0
M  V30 8412 H 788.413 -0.313974 -1.80794 0
M  V30 8413 H 786.795 1.57505 -3.6333 0
M  V30 8414 H 787.969 -1.16212 -4.45905 0
M  V30 8415 H 786.284 -0.896306 -4.06639 0
M  V30 8416 H 788.881 1.69746 -5.07041 0
M  V30 8417 H 789.224 2.30245 -3.46833 0
M  V30 8418 H 789.757 0.665364 -3.92196 0
M  V30 8419 H 786.496 -0.868917 -6.49715 0
M  V30 8420 H 786.016 0.754053 -5.95041 0
M  V30 8421 H 787.695 0.439949 -6.45502 0
M  V30 8422 N 787.827 1.57504 0.0551401 0
M  V30 8423 C 789.057 1.92015 0.762472 0
M  V30 8424 C 789.465 0.814088 1.7079 0
M  V30 8425 O 788.808 -0.220273 1.82375 0
M  V30 8426 C 788.87 3.22132 1.59598 0
M  V30 8427 C 788.534 4.49617 0.818141 0
M  V30 8428 C 789.531 5.19738 0.129933 0
M  V30 8429 C 787.216 4.96201 0.780387 0
M  V30 8430 C 789.21 6.34704 -0.585616 0
M  V30 8431 C 786.897 6.11069 0.0610756 0
M  V30 8432 C 787.895 6.80174 -0.62071 0
M  V30 8433 O 787.583 7.92849 -1.3284 0
M  V30 8434 H 787.315 0.638866 0.220967 0
M  V30 8435 H 789.869 2.05385 0.0246362 0
M  V30 8436 H 788.099 3.05016 2.37701 0
M  V30 8437 H 789.788 3.42166 2.18351 0
M  V30 8438 H 790.554 4.84767 0.150299 0
M  V30 8439 H 786.433 4.42275 1.30054 0
M  V30 8440 H 789.977 6.88578 -1.11833 0
M  V30 8441 H 785.874 6.45488 0.0386945 0
M  V30 8442 H 786.642 8.09062 -1.23938 0
M  V30 8443 N 789.305 -0.326896 1.54172 0
M  V30 8444 C 790.551 -1.06681 1.72473 0
M  V30 8445 C 790.884 -1.87779 0.49523 0
M  V30 8446 O 790.159 -1.87754 -0.507803 0
M  V30 8447 C 790.442 -1.99429 2.99834 0
M  V30 8448 C 790.295 -1.21682 4.33028 0
M  V30 8449 C 791.614 -2.99002 3.22933 0
M  V30 8450 H 788.733 -0.386438 0.627563 0
M  V30 8451 H 791.375 -0.343779 1.86864 0
M  V30 8452 H 789.525 -2.61081 2.87696 0
M  V30 8453 H 791.197 -0.625153 4.57044 0
M  V30 8454 H 789.44 -0.519045 4.30684 0
M  V30 8455 H 790.111 -1.89766 5.18356 0
M  V30 8456 H 792.587 -2.4747 3.34511 0
M  V30 8457 H 791.463 -3.61085 4.13412 0
M  V30 8458 H 791.724 -3.71281 2.40006 0
M  V30 8459 N 790.784 -1.46188 -0.588786 0
M  V30 8460 C 791.731 -1.56292 -1.69828 0
M  V30 8461 C 792.701 -0.407581 -1.61022 0
M  V30 8462 O 793.886 -0.623532 -1.80324 0
M  V30 8463 C 791.026 -1.55341 -3.08161 0
M  V30 8464 C 790.139 -2.81564 -3.27636 0
M  V30 8465 C 789.274 -2.72158 -4.56183 0
M  V30 8466 C 788.313 -3.93348 -4.68981 0
M  V30 8467 N 787.45 -3.82365 -5.88848 0
M  V30 8468 H 792.29 -2.51066 -1.6053 0
M  V30 8469 H 789.827 -1.24562 -0.782474 0
M  V30 8470 H 791.785 -1.52776 -3.88221 0
M  V30 8471 H 790.415 -0.641034 -3.16371 0
M  V30 8472 H 789.467 -2.94136 -2.41223 0
M  V30 8473 H 790.779 -3.714 -3.32962 0
M  V30 8474 H 789.933 -2.67665 -5.44464 0
M  V30 8475 H 788.672 -1.79953 -4.53286 0
M  V30 8476 H 787.677 -3.98181 -3.7912 0
M  V30 8477 H 788.902 -4.86643 -4.73662 0
M  V30 8478 H 786.848 -2.92942 -5.86959 0
M  V30 8479 H 786.765 -4.65851 -5.95415 0
M  V30 8480 H 788.033 -3.81836 -6.79575 0
M  V30 8481 N 792.262 0.832906 -1.33792 0
M  V30 8482 C 793.21 1.96455 -1.24532 0
M  V30 8483 C 794.204 1.68774 -0.145455 0
M  V30 8484 O 795.41 1.77314 -0.309797 0
M  V30 8485 H 791.785 0.645008 -0.386611 0
M  V30 8486 H 793.756 2.01389 -2.20193 0
M  V30 8487 C 792.505 3.32784 -1.00748 0
M  V30 8488 H 791.828 3.54626 -1.84609 0
M  V30 8489 H 793.268 4.12447 -0.98301 0
M  V30 8490 C 791.727 3.35654 0.289475 0
M  V30 8491 O 792.257 3.80281 1.29419 0
M  V30 8492 N 790.463 2.88843 0.3191 0
M  V30 8493 H 790.01 2.52719 -0.499069 0
M  V30 8494 H 789.968 2.91145 1.18667 0
M  V30 8495 N 793.74 1.17359 1.05189 0
M  V30 8496 C 794.67 0.91365 2.14883 0
M  V30 8497 C 795.651 -0.144365 1.69486 0
M  V30 8498 O 796.836 0.00587861 1.94199 0
M  V30 8499 C 793.966 0.426196 3.44675 0
M  V30 8500 C 792.92 1.4234 4.03638 0
M  V30 8501 C 792.246 0.793902 5.28773 0
M  V30 8502 C 793.546 2.7966 4.41121 0
M  V30 8503 H 795.24 1.831 2.36885 0
M  V30 8504 H 792.786 0.881781 1.13845 0
M  V30 8505 H 794.739 0.231767 4.20762 0
M  V30 8506 H 793.463 -0.526693 3.22325 0
M  V30 8507 H 792.122 1.60457 3.2962 0
M  V30 8508 H 791.77 -0.165824 5.02727 0
M  V30 8509 H 791.47 1.45959 5.69183 0
M  V30 8510 H 792.994 0.609747 6.07548 0
M  V30 8511 H 794.408 2.6526 5.08242 0
M  V30 8512 H 792.805 3.42807 4.92548 0
M  V30 8513 H 793.875 3.34068 3.51464 0
M  V30 8514 N 795.218 -1.23913 0.973828 0
M  V30 8515 C 796.448 -1.95911 0.655938 0
M  V30 8516 C 796.856 -1.72375 -0.779967 0
M  V30 8517 O 796.199 -1.00807 -1.5357 0
M  V30 8518 C 796.261 -3.49103 0.858324 0
M  V30 8519 C 795.925 -3.96347 2.27504 0
M  V30 8520 C 796.922 -4.05537 3.25324 0
M  V30 8521 C 794.607 -4.29509 2.60437 0
M  V30 8522 C 796.601 -4.47233 4.5416 0
M  V30 8523 C 794.288 -4.70887 3.89498 0
M  V30 8524 C 795.286 -4.79714 4.86172 0
M  V30 8525 O 794.974 -5.20166 6.1293 0
M  V30 8526 H 794.706 -0.630721 0.243244 0
M  V30 8527 H 797.26 -1.58534 1.30599 0
M  V30 8528 H 795.49 -3.86405 0.151097 0
M  V30 8529 H 797.179 -4.02311 0.538592 0
M  V30 8530 H 797.945 -3.80128 3.0121 0
M  V30 8531 H 793.824 -4.21853 1.85906 0
M  V30 8532 H 797.368 -4.54038 5.29618 0
M  V30 8533 H 793.265 -4.95744 4.1341 0
M  V30 8534 H 794.033 -5.38298 6.16586 0
M  V30 8535 N 796.696 -0.74468 -1.38897 0
M  V30 8536 C 797.945 -0.293716 -1.9955 0
M  V30 8537 C 798.258 1.12831 -1.59777 0
M  V30 8538 O 799.464 1.67929 -2.13336 0
M  V30 8539 C 797.92 -0.474188 -3.56762 0
M  V30 8540 C 797.528 -1.90472 -4.05493 0
M  V30 8541 C 799.272 -0.0854875 -4.24414 0
M  V30 8542 C 797.179 -2.03423 -5.55314 0
M  V30 8543 H 796.109 -0.106066 -0.746502 0
M  V30 8544 H 798.76 -0.919948 -1.58774 0
M  V30 8545 H 797.142 0.221092 -3.95382 0
M  V30 8546 H 798.316 -2.63274 -3.78184 0
M  V30 8547 H 796.631 -2.24752 -3.50536 0
M  V30 8548 H 799.228 -0.161133 -5.34457 0
M  V30 8549 H 799.571 0.96066 -4.05064 0
M  V30 8550 H 800.104 -0.732286 -3.91002 0
M  V30 8551 H 796.843 -3.0626 -5.79556 0
M  V30 8552 H 796.363 -1.3507 -5.84394 0
M  V30 8553 H 798.042 -1.81996 -6.20876 0
M  V30 8554 N 798.174 1.49689 -0.493057 0
M  V30 8555 C 799.423 2.01622 0.0560733 0
M  V30 8556 C 799.736 1.37838 1.3878 0
M  V30 8557 O 800.942 1.81054 2.02316 0
M  V30 8558 C 799.398 3.59586 0.150409 0
M  V30 8559 C 799.006 4.32338 -1.1742 0
M  V30 8560 C 800.75 4.19489 0.650327 0
M  V30 8561 C 798.657 5.8214 -1.04246 0
M  V30 8562 H 797.587 0.753594 0.0247297 0
M  V30 8563 H 800.238 1.723 -0.631279 0
M  V30 8564 H 798.62 3.8559 0.902035 0
M  V30 8565 H 799.794 4.18042 -1.9385 0
M  V30 8566 H 798.109 3.84144 -1.60694 0
M  V30 8567 H 800.706 5.29181 0.766272 0
M  V30 8568 H 801.049 3.82326 1.6472 0
M  V30 8569 H 801.582 3.97775 -0.0445371 0
M  V30 8570 H 798.321 6.23814 -2.01336 0
M  V30 8571 H 797.841 5.98952 -0.31892 0
M  V30 8572 H 799.52 6.43004 -0.717957 0
M  V30 8573 N 799.652 0.226554 1.55963 0
M  V30 8574 C 800.599 -0.681504 2.20509 0
M  V30 8575 C 801.569 -1.1866 1.16229 0
M  V30 8576 O 802.754 -1.24478 1.44602 0
M  V30 8577 C 799.894 -1.88183 2.89277 0
M  V30 8578 C 799.007 -1.41517 4.08163 0
M  V30 8579 C 798.142 -2.57346 4.647 0
M  V30 8580 C 797.181 -2.07441 5.75877 0
M  V30 8581 N 796.318 -3.16561 6.26685 0
M  V30 8582 H 801.158 -0.124372 2.9774 0
M  V30 8583 H 798.695 -0.0496333 1.47016 0
M  V30 8584 H 800.653 -2.58666 3.27335 0
M  V30 8585 H 799.283 -2.41177 2.14555 0
M  V30 8586 H 798.335 -0.605099 3.75557 0
M  V30 8587 H 799.647 -1.00928 4.88482 0
M  V30 8588 H 798.801 -3.35903 5.05227 0
M  V30 8589 H 797.54 -3.01227 3.83554 0
M  V30 8590 H 796.545 -1.27347 5.34848 0
M  V30 8591 H 797.77 -1.64554 6.58862 0
M  V30 8592 H 795.716 -3.59914 5.48451 0
M  V30 8593 H 795.633 -2.80239 7.02141 0
M  V30 8594 H 796.901 -3.95238 6.71868 0
M  V30 8595 N 801.13 -1.57531 -0.0467866 0
M  V30 8596 C 802.08 -2.01845 -1.06031 0
M  V30 8597 C 803.064 -0.904662 -1.33059 0
M  V30 8598 O 804.256 -1.16858 -1.32941 0
M  V30 8599 C 801.385 -2.48673 -2.36679 0
M  V30 8600 C 800.471 -3.66837 -2.12818 0
M  V30 8601 N 800.862 -4.80172 -1.5896 0
M  V30 8602 C 799.16 -3.73869 -2.43183 0
M  V30 8603 C 799.861 -5.61895 -1.50494 0
M  V30 8604 N 798.837 -5.0648 -1.97431 0
M  V30 8605 H 802.639 -2.869 -0.637623 0
M  V30 8606 H 800.153 -1.6041 -0.253427 0
M  V30 8607 H 802.15 -2.78671 -3.10077 0
M  V30 8608 H 800.81 -1.65016 -2.79642 0
M  V30 8609 H 801.821 -5.01967 -1.27474 0
M  V30 8610 H 798.498 -3.00977 -2.89342 0
M  V30 8611 H 799.888 -6.62918 -1.09494 0
M  V30 8612 O 802.647 0.18996 -1.60379 0
M  V30 8613 H 803.338 0.828364 -1.75094 0
M  V30 END ATOM
M  V30 BEGIN BOND
M  V30 END BOND
M  V30 END CTAB
M  END
$$$$
