drugbank_target|P0A716 2-dehydro-3-deoxyphosphooctonate aldolase (DB01819; DB02433; DB03113; DB03936)
 OpenBabel12092119533D

  0  0  0     0  0            999 V3000
M  V30 BEGIN CTAB
M  V30 COUNTS 4361 4401 0 0 0
M  V30 BEGIN ATOM
M  V30 1 H -0.908 1.98254 -0.117106 0
M  V30 2 N 0 1.576 0 0
M  V30 3 C 0.933 2.03868 1.02534 0
M  V30 4 C 1.911 0.928543 1.3348 0
M  V30 5 O 3.095 1.19667 1.45644 0
M  V30 6 C 0.222 2.43627 2.35294 0
M  V30 7 C -0.732 3.65373 2.2001 0
M  V30 8 S 0.101 5.13292 1.52614 0
M  V30 9 C 1.257 5.56322 2.86805 0
M  V30 10 H 1.49 2.90518 0.631377 0
M  V30 11 H -0.977 1.52953 0.210867 0
M  V30 12 H 0.981 2.67203 3.11629 0
M  V30 13 H -0.358 1.57376 2.7183 0
M  V30 14 H -1.165 3.90944 3.18086 0
M  V30 15 H -1.563 3.418 1.51819 0
M  V30 16 H 0.729 5.58782 3.83104 0
M  V30 17 H 1.672 6.56266 2.65933 0
M  V30 18 H 2.08 4.83886 2.90714 0
M  V30 19 N 1.4781 -0.272755 1.55222 0
M  V30 20 C 2.4251 -1.33716 1.88119 0
M  V30 21 C 3.3951 -1.49066 0.73271 0
M  V30 22 O 4.5801 -1.63469 0.984002 0
M  V30 23 C 1.7201 -2.69238 2.15882 0
M  V30 24 C 0.8331 -2.62108 3.43399 0
M  V30 25 C -0.0319 -3.89811 3.60861 0
M  V30 26 C -0.9929 -3.77193 4.8207 0
M  V30 27 N -1.8559 -4.9673 4.96189 0
M  V30 28 H 2.9841 -1.04962 2.78903 0
M  V30 29 H 0.5211 -0.507088 1.38083 0
M  V30 30 H 2.4791 -3.48089 2.29978 0
M  V30 31 H 1.1091 -2.96194 1.28331 0
M  V30 32 H 0.1611 -1.74967 3.37773 0
M  V30 33 H 1.4731 -2.48685 4.32386 0
M  V30 34 H 0.6271 -4.77103 3.74777 0
M  V30 35 H -0.6339 -4.06102 2.7006 0
M  V30 36 H -1.6289 -2.88284 4.68159 0
M  V30 37 H -0.4039 -3.62421 5.74307 0
M  V30 38 H -2.4579 -5.13431 4.08319 0
M  V30 39 H -2.5409 -4.85839 5.79221 0
M  V30 40 H -1.2729 -5.85594 5.1449 0
M  V30 41 N 2.9562 -1.48159 -0.537278 0
M  V30 42 C 3.8882 -1.58218 -1.65831 0
M  V30 43 C 4.9012 -0.466948 -1.5596 0
M  V30 44 O 6.0902 -0.73747 -1.62553 0
M  V30 45 C 3.1902 -1.48906 -3.04434 0
M  V30 46 C 2.3632 -2.75343 -3.3986 0
M  V30 47 C 1.4222 -2.59588 -4.57712 0
M  V30 48 O 0.4482 -3.33457 -4.61297 0
M  V30 49 N 1.6502 -1.68724 -5.55439 0
M  V30 50 H 4.4152 -2.54891 -1.57641 0
M  V30 51 H 1.9762 -1.4479 -0.724386 0
M  V30 52 H 3.9682 -1.36072 -3.81139 0
M  V30 53 H 2.5382 -0.602368 -3.06741 0
M  V30 54 H 1.7582 -3.02795 -2.52406 0
M  V30 55 H 3.0462 -3.5924 -3.60311 0
M  V30 56 H 2.4442 -1.07898 -5.55315 0
M  V30 57 H 1.0012 -1.61832 -6.3139 0
M  V30 58 N 4.4343 0.785586 -1.36625 0
M  V30 59 C 5.3813 1.89838 -1.31264 0
M  V30 60 C 6.3513 1.65115 -0.180633 0
M  V30 61 O 7.5363 1.87222 -0.36777 0
M  V30 62 C 4.6763 3.26706 -1.11163 0
M  V30 63 C 3.7893 3.63476 -2.33472 0
M  V30 64 C 2.9243 4.89481 -2.06353 0
M  V30 65 C 1.9633 5.18941 -3.24602 0
M  V30 66 N 1.1003 6.36131 -2.97123 0
M  V30 67 H 5.9403 1.93756 -2.26413 0
M  V30 68 H 3.4773 0.947454 -1.12524 0
M  V30 69 H 5.4353 4.05639 -0.975337 0
M  V30 70 H 4.0653 3.222 -0.196674 0
M  V30 71 H 3.1173 2.79636 -2.57891 0
M  V30 72 H 4.4293 3.81193 -3.21704 0
M  V30 73 H 3.5833 5.76288 -1.89675 0
M  V30 74 H 2.3223 4.73841 -1.15437 0
M  V30 75 H 1.3273 4.30615 -3.41834 0
M  V30 76 H 2.5523 5.36498 -4.16349 0
M  V30 77 H 0.4983 6.21875 -2.08823 0
M  V30 78 H 0.4153 6.54198 -3.78894 0
M  V30 79 H 1.6833 7.2591 -2.84033 0
M  V30 80 N 5.9124 1.20967 1.01018 0
M  V30 81 C 7.1584 1.02526 1.74975 0
M  V30 82 C 7.4914 -0.4408 1.89131 0
M  V30 83 O 6.7664 -1.32718 1.42184 0
M  V30 84 C 7.0494 1.71699 3.1653 0
M  V30 85 C 6.9024 3.25791 3.10129 0
M  V30 86 C 8.2214 1.45531 4.15342 0
M  V30 87 H 5.3404 0.373863 0.635134 0
M  V30 88 H 7.9824 1.49071 1.17805 0
M  V30 89 H 6.1324 1.32128 3.65341 0
M  V30 90 H 7.8044 3.74697 2.69072 0
M  V30 91 H 6.0474 3.56363 2.47362 0
M  V30 92 H 6.7184 3.69353 4.10222 0
M  V30 93 H 9.1944 1.79872 3.75213 0
M  V30 94 H 8.0704 1.96453 5.1254 0
M  V30 95 H 8.3314 0.384237 4.40427 0
M  V30 96 N 7.3905 -1.2043 1.01659 0
M  V30 97 C 8.6365 -1.90079 0.706963 0
M  V30 98 C 8.9695 -1.78648 -0.761474 0
M  V30 99 O 8.2445 -1.17069 -1.55323 0
M  V30 100 C 8.5275 -3.41469 1.14327 0
M  V30 101 C 8.3805 -3.61833 2.67201 0
M  V30 102 C 9.6995 -4.34261 0.714529 0
M  V30 103 H 6.8185 -0.690254 0.2583 0
M  V30 104 H 9.4605 -1.41826 1.26433 0
M  V30 105 H 7.6105 -3.82696 0.669056 0
M  V30 106 H 9.2825 -3.2986 3.22475 0
M  V30 107 H 7.5255 -3.05304 3.08175 0
M  V30 108 H 8.1965 -4.67955 2.92783 0
M  V30 109 H 10.6725 -4.00682 1.12221 0
M  V30 110 H 9.5485 -5.38806 1.04784 0
M  V30 111 H 9.8095 -4.40431 -0.383799 0
M  V30 112 N 8.8686 -0.792821 -1.36206 0
M  V30 113 C 10.0936 -0.377701 -2.03932 0
M  V30 114 C 10.5186 0.998947 -1.59382 0
M  V30 115 O 9.8766 1.64421 -0.763903 0
M  V30 116 C 9.9246 -0.453635 -3.57735 0
M  V30 117 O 9.0286 0.538151 -4.08874 0
M  V30 118 H 8.3696 -0.159855 -0.644471 0
M  V30 119 H 10.8996 -1.07488 -1.7409 0
M  V30 120 H 10.9096 -0.318464 -4.06755 0
M  V30 121 H 9.5846 -1.45784 -3.89512 0
M  V30 122 H 8.1616 0.364359 -3.71116 0
M  V30 123 N 10.3467 1.47872 -0.545128 0
M  V30 124 C 11.5957 2.01695 -0.0145033 0
M  V30 125 C 11.9087 1.42609 1.33873 0
M  V30 126 O 13.1147 1.88021 1.95858 0
M  V30 127 C 11.5707 3.59892 0.0245068 0
M  V30 128 C 11.1787 4.27966 -1.32475 0
M  V30 129 C 12.9227 4.21507 0.50316 0
M  V30 130 C 10.8297 5.78136 -1.2455 0
M  V30 131 H 9.7597 0.753998 -0.00165172 0
M  V30 132 H 12.4107 1.69985 -0.691175 0
M  V30 133 H 10.7927 3.88509 0.766575 0
M  V30 134 H 11.9667 4.11003 -2.08357 0
M  V30 135 H 10.2817 3.78286 -1.74036 0
M  V30 136 H 12.8787 5.31538 0.580656 0
M  V30 137 H 13.2217 3.87855 1.51243 0
M  V30 138 H 13.7547 3.97376 -0.183681 0
M  V30 139 H 10.4937 6.16388 -2.23039 0
M  V30 140 H 10.0137 5.97469 -0.528282 0
M  V30 141 H 11.6927 6.40099 -0.942488 0
M  V30 142 N 11.8248 0.280983 1.55075 0
M  V30 143 C 13.0728 -0.333455 1.9933 0
M  V30 144 C 13.3938 -1.55937 1.17085 0
M  V30 145 O 12.6638 -1.94143 0.261805 0
M  V30 146 H 11.2438 -0.126197 0.736263 0
M  V30 147 H 13.9058 0.387678 1.91005 0
M  V30 148 H 13.0018 -0.619292 3.05894 0
M  V30 149 N 13.3029 -1.57598 0.00835791 0
M  V30 150 C 14.5799 -1.82172 -0.712235 0
M  V30 151 C 14.9599 -0.887873 -1.9152 0
M  V30 152 O 14.3079 0.06146 -2.28417 0
M  V30 153 C 14.5179 -3.30875 -1.11008 0
M  V30 154 C 15.8659 -3.96826 -1.51044 0
M  V30 155 O 16.8899 -3.35248 -1.20364 0
M  V30 156 O 15.7489 -5.05318 -2.08125 0
M  V30 157 H 12.8429 -0.750435 -0.347529 0
M  V30 158 H 15.3889 -1.69665 0.0344523 0
M  V30 159 H 14.1609 -3.90481 -0.252982 0
M  V30 160 H 13.7839 -3.48412 -1.9156 0
M  V30 161 N 14.781 0.264519 -1.55364 0
M  V30 162 C 16.03 0.992812 -1.75574 0
M  V30 163 C 16.343 1.87142 -0.568979 0
M  V30 164 O 17.549 2.63513 -0.653682 0
M  V30 165 C 16.005 1.81519 -3.10771 0
M  V30 166 C 15.613 0.984839 -4.37041 0
M  V30 167 C 17.357 2.53727 -3.40327 0
M  V30 168 C 15.264 1.80209 -5.63275 0
M  V30 169 H 14.194 0.374412 -0.65447 0
M  V30 170 H 16.845 0.248138 -1.81815 0
M  V30 171 H 15.227 2.60115 -2.98591 0
M  V30 172 H 16.401 0.242455 -4.60162 0
M  V30 173 H 14.716 0.37691 -4.14691 0
M  V30 174 H 17.313 3.15292 -4.3185 0
M  V30 175 H 17.656 3.24447 -2.60845 0
M  V30 176 H 18.189 1.82156 -3.53644 0
M  V30 177 H 14.928 1.13896 -6.45529 0
M  V30 178 H 14.448 2.52022 -5.44284 0
M  V30 179 H 16.127 2.37364 -6.01887 0
M  V30 180 N 16.2591 1.48442 0.529413 0
M  V30 181 C 17.2071 1.63452 1.65487 0
M  V30 182 C 18.2011 0.500955 1.61823 0
M  V30 183 O 19.4071 0.679695 1.66674 0
M  V30 184 H 15.7821 0.514905 0.548066 0
M  V30 185 H 17.7531 2.57975 1.49971 0
M  V30 186 C 16.5021 1.69196 3.03756 0
M  V30 187 H 15.8251 2.55784 3.07269 0
M  V30 188 H 17.2651 1.83743 3.82119 0
M  V30 189 C 15.7241 0.430765 3.34135 0
M  V30 190 O 16.2541 -0.4561 3.99102 0
M  V30 191 N 14.4601 0.302293 2.89023 0
M  V30 192 H 14.0071 1.02496 2.36331 0
M  V30 193 H 13.9651 -0.540546 3.09718 0
M  V30 194 N 17.7372 -0.778329 1.37039 0
M  V30 195 C 18.9832 -1.53892 1.32079 0
M  V30 196 C 19.3162 -1.9396 -0.0965386 0
M  V30 197 O 18.5912 -1.63568 -1.05242 0
M  V30 198 C 18.8742 -2.80847 2.25382 0
M  V30 199 C 18.7272 -2.47076 3.75864 0
M  V30 200 C 20.0462 -3.82741 2.1725 0
M  V30 201 H 17.1652 -0.558303 0.48111 0
M  V30 202 H 19.8072 -0.893397 1.67685 0
M  V30 203 H 17.9572 -3.35931 1.95148 0
M  V30 204 H 19.6292 -1.97957 4.16666 0
M  V30 205 H 17.8722 -1.79863 3.94755 0
M  V30 206 H 18.5432 -3.37798 4.36574 0
M  V30 207 H 21.0192 -3.37133 2.43887 0
M  V30 208 H 19.8952 -4.69303 2.84686 0
M  V30 209 H 20.1562 -4.2652 1.16331 0
M  V30 210 N 19.2153 -1.21501 -1.00376 0
M  V30 211 C 20.1783 -0.976927 -2.07337 0
M  V30 212 C 21.1783 0.0525322 -1.60714 0
M  V30 213 O 22.3683 -0.184869 -1.73216 0
M  V30 214 C 19.5003 -0.473423 -3.37597 0
M  V30 215 H 20.6933 -1.92587 -2.29892 0
M  V30 216 H 18.2463 -1.03217 -1.17371 0
M  V30 217 H 18.9813 0.480379 -3.20722 0
M  V30 218 H 18.7663 -1.216 -3.72768 0
M  V30 219 H 20.2563 -0.32675 -4.1632 0
M  V30 220 N 20.6934 1.19889 -1.02296 0
M  V30 221 C 21.6414 2.24938 -0.592081 0
M  V30 222 C 22.6354 1.65257 0.372357 0
M  V30 223 O 23.8414 1.78371 0.241583 0
M  V30 224 H 20.2164 0.731787 -0.173182 0
M  V30 225 H 22.1874 2.58603 -1.48885 0
M  V30 226 C 20.9364 3.47668 0.047351 0
M  V30 227 H 20.2594 3.93875 -0.685772 0
M  V30 228 H 21.6994 4.22852 0.311862 0
M  V30 229 C 20.1584 3.11136 1.29212 0
M  V30 230 O 20.6884 3.2325 2.38479 0
M  V30 231 N 18.8944 2.65625 1.17863 0
M  V30 232 H 18.4414 2.55968 0.289493 0
M  V30 233 H 18.3994 2.41553 2.01245 0
M  V30 234 N 22.1715 0.800033 1.35784 0
M  V30 235 C 23.4485 0.30088 1.93272 0
M  V30 236 C 23.8285 -1.20857 1.73081 0
M  V30 237 O 23.1765 -2.00502 1.09596 0
M  V30 238 C 23.3865 0.70511 3.41803 0
M  V30 239 C 24.7345 0.690871 4.18942 0
M  V30 240 O 25.7585 0.646244 3.50289 0
M  V30 241 O 24.6175 0.74332 5.41421 0
M  V30 242 H 21.7115 0.0771605 0.823393 0
M  V30 243 H 24.2575 0.88329 1.449 0
M  V30 244 H 23.0295 1.74571 3.50201 0
M  V30 245 H 22.6525 0.0971541 3.97481 0
M  V30 246 N 23.6496 -1.47581 0.552962 0
M  V30 247 C 24.5796 -2.32762 -0.185451 0
M  V30 248 C 25.5606 -1.43527 -0.912905 0
M  V30 249 O 26.7456 -1.72388 -0.894201 0
M  V30 250 C 23.8756 -3.25219 -1.21859 0
M  V30 251 C 22.8296 -4.23661 -0.607864 0
M  V30 252 C 22.1556 -5.05413 -1.74533 0
M  V30 253 C 23.4556 -5.20481 0.435582 0
M  V30 254 H 25.1496 -2.94749 0.525684 0
M  V30 255 H 22.6956 -1.41738 0.254251 0
M  V30 256 H 24.6486 -3.8365 -1.7433 0
M  V30 257 H 23.3726 -2.61279 -1.95961 0
M  V30 258 H 22.0316 -3.66451 -0.104489 0
M  V30 259 H 21.6796 -4.3788 -2.47529 0
M  V30 260 H 21.3796 -5.72059 -1.34249 0
M  V30 261 H 22.9036 -5.66701 -2.27338 0
M  V30 262 H 24.3176 -5.733 -0.00290157 0
M  V30 263 H 22.7146 -5.95305 0.757067 0
M  V30 264 H 23.7846 -4.66217 1.33303 0
M  V30 265 N 25.1277 -0.289203 -1.54924 0
M  V30 266 C 26.5387 0.205791 -1.85562 0
M  V30 267 C 26.8897 1.54351 -1.2112 0
M  V30 268 O 26.0147 2.10435 -0.504601 0
M  V30 269 C 26.6097 0.380177 -3.3666 0
M  V30 270 C 25.1687 0.819395 -3.67373 0
M  V30 271 C 24.3157 -0.079159 -2.77187 0
M  V30 272 H 27.2667 -0.510577 -1.50262 0
M  V30 273 H 27.2877 1.21659 -3.60526 0
M  V30 274 H 26.7997 -0.593589 -3.83534 0
M  V30 275 H 24.9007 1.80413 -3.26009 0
M  V30 276 H 25.0137 0.646957 -4.74712 0
M  V30 277 H 23.3777 0.439565 -2.50878 0
M  V30 278 H 24.1607 -1.04906 -3.26878 0
M  V30 279 N 26.6058 1.57591 -0.0167156 0
M  V30 280 C 27.8528 1.91283 0.664597 0
M  V30 281 C 28.1808 0.891949 1.72842 0
M  V30 282 O 27.4358 -0.100931 1.9544 0
M  V30 283 C 27.7348 3.3172 1.33029 0
M  V30 284 C 27.4008 4.4914 0.398047 0
M  V30 285 C 26.0628 4.80992 0.141421 0
M  V30 286 C 28.4148 5.20634 -0.242825 0
M  V30 287 C 25.7428 5.81703 -0.764092 0
M  V30 288 C 28.0948 6.22311 -1.13632 0
M  V30 289 C 26.7588 6.52611 -1.40196 0
M  V30 290 H 26.0288 0.699956 0.243193 0
M  V30 291 H 28.6758 1.9135 -0.0758267 0
M  V30 292 H 26.9808 3.27856 2.14517 0
M  V30 293 H 28.6778 3.55055 1.86379 0
M  V30 294 H 25.2678 4.24262 0.608238 0
M  V30 295 H 29.4518 4.96267 -0.0576019 0
M  V30 296 H 24.7078 6.03532 -0.977732 0
M  V30 297 H 28.8818 6.76834 -1.63917 0
M  V30 298 H 26.5088 7.30467 -2.10529 0
M  V30 299 N 28.0839 -0.256276 1.55502 0
M  V30 300 C 29.3299 -0.987079 1.77157 0
M  V30 301 C 29.6629 -1.85327 0.580315 0
M  V30 302 O 28.9379 -1.89874 -0.421686 0
M  V30 303 C 29.2209 -1.85553 3.08613 0
M  V30 304 C 29.0739 -1.01816 4.38125 0
M  V30 305 C 30.3929 -2.8397 3.36228 0
M  V30 306 H 27.5119 -0.357428 0.644526 0
M  V30 307 H 30.1539 -0.258239 1.88237 0
M  V30 308 H 28.3039 -2.47695 2.99298 0
M  V30 309 H 29.9759 -0.416159 4.59419 0
M  V30 310 H 28.2189 -0.322178 4.32602 0
M  V30 311 H 28.8899 -1.65939 5.26468 0
M  V30 312 H 31.3659 -2.31964 3.45445 0
M  V30 313 H 30.2419 -3.41864 4.29442 0
M  V30 314 H 30.5029 -3.59955 2.56681 0
M  V30 315 N 29.562 -1.4872 -0.521534 0
M  V30 316 C 30.492 -1.66771 -1.63431 0
M  V30 317 C 31.473 -0.516499 -1.62069 0
M  V30 318 O 32.658 -0.750013 -1.79132 0
M  V30 319 C 29.788 -1.71515 -3.01993 0
M  V30 320 C 28.742 -2.86222 -3.18216 0
M  V30 321 C 28.068 -2.76061 -4.57924 0
M  V30 322 C 29.368 -4.27419 -3.00184 0
M  V30 323 H 31.062 -2.59932 -1.48579 0
M  V30 324 H 28.608 -1.25089 -0.713358 0
M  V30 325 H 30.561 -1.82731 -3.7972 0
M  V30 326 H 29.285 -0.749393 -3.17886 0
M  V30 327 H 27.944 -2.74575 -2.42908 0
M  V30 328 H 27.592 -1.77437 -4.70665 0
M  V30 329 H 27.292 -3.53037 -4.69722 0
M  V30 330 H 28.816 -2.89256 -5.37739 0
M  V30 331 H 30.23 -4.39855 -3.67697 0
M  V30 332 H 28.627 -5.05458 -3.2347 0
M  V30 333 H 29.697 -4.43293 -1.96518 0
M  V30 334 N 31.0401 0.771051 -1.3745 0
M  V30 335 C 32.2871 1.52963 -1.32697 0
M  V30 336 C 32.6151 1.94299 0.0883274 0
M  V30 337 O 31.8701 1.64397 1.0617 0
M  V30 338 C 32.1691 2.80676 -2.2126 0
M  V30 339 C 31.8351 2.58389 -3.69521 0
M  V30 340 C 30.4971 2.52019 -4.09927 0
M  V30 341 C 32.8491 2.38469 -4.63446 0
M  V30 342 C 30.1771 2.23721 -5.42371 0
M  V30 343 C 32.5291 2.11694 -5.96128 0
M  V30 344 C 31.1931 2.03769 -6.35637 0
M  V30 345 H 30.4631 0.559732 -0.485573 0
M  V30 346 H 33.1101 0.888083 -1.69662 0
M  V30 347 H 31.4151 3.49392 -1.77291 0
M  V30 348 H 33.1121 3.38557 -2.14895 0
M  V30 349 H 29.7021 2.6421 -3.37478 0
M  V30 350 H 33.8861 2.4238 -4.33089 0
M  V30 351 H 29.1421 2.16081 -5.71943 0
M  V30 352 H 33.3161 1.9528 -6.6846 0
M  V30 353 H 30.9431 1.81606 -7.38189 0
M  V30 354 N 32.5182 1.22032 0.997298 0
M  V30 355 C 33.7662 1.04016 1.73278 0
M  V30 356 C 34.0872 -0.426255 1.90284 0
M  V30 357 O 33.3572 -1.30694 1.45931 0
M  V30 358 H 31.9372 0.381897 0.642 0
M  V30 359 H 34.5992 1.5347 1.20137 0
M  V30 360 H 33.6952 1.51441 2.72896 0
M  V30 361 N 33.9963 -1.19345 1.0293 0
M  V30 362 C 35.2443 -1.88665 0.724574 0
M  V30 363 C 35.5653 -1.80036 -0.749144 0
M  V30 364 O 34.8353 -1.2111 -1.53978 0
M  V30 365 H 33.4153 -0.698406 0.265025 0
M  V30 366 H 36.0773 -1.44885 1.30362 0
M  V30 367 H 35.1733 -2.94987 1.01926 0
M  V30 368 N 35.4744 -0.807222 -1.35358 0
M  V30 369 C 36.4074 -0.163572 -2.27613 0
M  V30 370 C 37.3854 0.670817 -1.48118 0
M  V30 371 O 38.5694 0.63796 -1.77376 0
M  V30 372 C 35.6964 0.773015 -3.29761 0
M  V30 373 C 34.7424 0.0181653 -4.26496 0
M  V30 374 S 35.5754 -1.31831 -5.19019 0
M  V30 375 C 36.7314 -0.38619 -6.24707 0
M  V30 376 H 36.9644 -0.945757 -2.81856 0
M  V30 377 H 34.4974 -0.602315 -1.42167 0
M  V30 378 H 36.4554 1.30788 -3.89108 0
M  V30 379 H 35.1164 1.52859 -2.74396 0
M  V30 380 H 34.3094 0.729534 -4.98692 0
M  V30 381 H 33.9114 -0.446761 -3.71322 0
M  V30 382 H 36.2034 0.428295 -6.76145 0
M  V30 383 H 37.1464 -1.07736 -6.99856 0
M  V30 384 H 37.5544 0.018398 -5.64497 0
M  V30 385 N 36.9525 1.47285 -0.560781 0
M  V30 386 C 37.9005 2.31756 0.197942 0
M  V30 387 C 38.8945 1.43146 0.905854 0
M  V30 388 O 40.1005 1.59891 0.826733 0
M  V30 389 H 36.4755 0.747438 0.0827049 0
M  V30 390 H 38.4465 2.9359 -0.533629 0
M  V30 391 C 37.1955 3.25874 1.21249 0
M  V30 392 H 36.5185 3.94023 0.67719 0
M  V30 393 H 37.9585 3.87803 1.71419 0
M  V30 394 C 36.4175 2.49651 2.26221 0
M  V30 395 O 36.9475 2.24355 3.33208 0
M  V30 396 N 35.1535 2.10597 2.00243 0
M  V30 397 H 34.7005 2.31369 1.13252 0
M  V30 398 H 34.6585 1.59913 2.70694 0
M  V30 399 N 38.4306 0.297415 1.54768 0
M  V30 400 C 39.6766 -0.313376 2.00364 0
M  V30 401 C 40.0096 -1.53815 1.18553 0
M  V30 402 O 39.2846 -1.92739 0.261103 0
M  V30 403 C 39.5676 -0.673525 3.53745 0
M  V30 404 C 39.4206 0.560133 4.46299 0
M  V30 405 C 40.7396 -1.50143 4.13697 0
M  V30 406 H 37.8586 -0.112428 0.728374 0
M  V30 407 H 40.5006 0.4088 1.8555 0
M  V30 408 H 38.6506 -1.28881 3.665 0
M  V30 409 H 40.3226 1.19863 4.45455 0
M  V30 410 H 38.5656 1.19405 4.17043 0
M  V30 411 H 39.2366 0.26405 5.51368 0
M  V30 412 H 41.7126 -0.981588 4.04356 0
M  V30 413 H 40.5886 -1.72221 5.21182 0
M  V30 414 H 40.8496 -2.48952 3.65343 0
M  V30 415 N 39.9087 -1.5758 0.0250728 0
M  V30 416 C 40.8387 -2.13007 -0.956575 0
M  V30 417 C 41.8197 -1.0452 -1.342 0
M  V30 418 O 43.0047 -1.32332 -1.42133 0
M  V30 419 C 40.1347 -2.65386 -2.24026 0
M  V30 420 C 39.0887 -3.78623 -1.99571 0
M  V30 421 C 38.4147 -4.17414 -3.3417 0
M  V30 422 C 39.7147 -5.04867 -1.33814 0
M  V30 423 H 41.4087 -2.9528 -0.494991 0
M  V30 424 H 38.9547 -1.42042 -0.236651 0
M  V30 425 H 40.9077 -3.02794 -2.93076 0
M  V30 426 H 39.6317 -1.80268 -2.72343 0
M  V30 427 H 38.2907 -3.41646 -1.32941 0
M  V30 428 H 37.9387 -3.29284 -3.80238 0
M  V30 429 H 37.6387 -4.93719 -3.18615 0
M  V30 430 H 39.1627 -4.57402 -4.04495 0
M  V30 431 H 40.5767 -5.39888 -1.92857 0
M  V30 432 H 38.9737 -5.86144 -1.28669 0
M  V30 433 H 40.0437 -4.83904 -0.310561 0
M  V30 434 N 41.3868 0.248026 -1.55636 0
M  V30 435 C 42.2968 1.32859 -1.93354 0
M  V30 436 C 43.3128 1.52719 -0.833838 0
M  V30 437 O 44.4888 1.66363 -1.13513 0
M  V30 438 C 41.5538 2.66337 -2.21958 0
M  V30 439 C 40.6148 2.55008 -3.45354 0
M  V30 440 C 39.8478 3.82121 -3.72584 0
M  V30 441 O 40.0708 4.83951 -3.01907 0
M  V30 442 O 39.0048 3.80822 -4.6611 0
M  V30 443 H 42.8308 1.03862 -2.85388 0
M  V30 444 H 40.4158 0.448686 -1.42503 0
M  V30 445 H 42.2978 3.45216 -2.4167 0
M  V30 446 H 40.9728 2.95068 -1.33103 0
M  V30 447 H 39.8798 1.7442 -3.30951 0
M  V30 448 H 41.2128 2.31222 -4.34508 0
M  V30 449 N 42.8649 1.48995 0.513639 0
M  V30 450 C 44.0899 1.61792 1.29762 0
M  V30 451 C 44.5149 0.284475 1.85936 0
M  V30 452 O 43.8729 -0.746185 1.65232 0
M  V30 453 C 43.9209 2.67993 2.41272 0
M  V30 454 O 43.0249 2.26287 3.44772 0
M  V30 455 H 42.3659 0.541963 0.38363 0
M  V30 456 H 44.8959 1.95097 0.616307 0
M  V30 457 H 44.9059 2.89772 2.87221 0
M  V30 458 H 43.5809 3.64791 1.9975 0
M  V30 459 H 42.1579 2.14788 3.04829 0
M  V30 460 N 44.343 -0.763751 1.37857 0
M  V30 461 C 45.759 -1.06542 1.18832 0
M  V30 462 C 45.959 -2.01478 0.0299722 0
M  V30 463 O 45.015 -2.4458 -0.627447 0
M  V30 464 C 46.328 -1.65525 2.51042 0
M  V30 465 C 47.876 -1.77745 2.57635 0
M  V30 466 C 48.351 -2.4014 3.89996 0
M  V30 467 N 49.842 -2.47582 3.91481 0
M  V30 468 C 50.577 -2.96732 4.9065 0
M  V30 469 N 50.073 -3.45993 6.00217 0
M  V30 470 N 51.866 -2.95679 4.78048 0
M  V30 471 H 44.017 -0.133556 2.1198 0
M  V30 472 H 46.28 -0.121879 0.940133 0
M  V30 473 H 45.986 -1.03236 3.36207 0
M  V30 474 H 45.86 -2.64719 2.68707 0
M  V30 475 H 48.247 -2.39164 1.72872 0
M  V30 476 H 48.328 -0.772836 2.43846 0
M  V30 477 H 47.972 -1.79358 4.75177 0
M  V30 478 H 47.902 -3.41223 4.01092 0
M  V30 479 H 50.393 -2.1273 3.12337 0
M  V30 480 H 50.706 -3.81922 6.7183 0
M  V30 481 H 49.051 -3.44077 6.03851 0
M  V30 482 H 52.242 -2.56499 3.91568 0
M  V30 483 H 52.415 -3.33672 5.55488 0
M  V30 484 N 45.8211 -1.22559 -0.990812 0
M  V30 485 C 47.0981 -0.959875 -1.70428 0
M  V30 486 C 47.4781 0.524455 -2.04481 0
M  V30 487 O 46.8261 1.49302 -1.72977 0
M  V30 488 C 47.0361 -1.85955 -2.95333 0
M  V30 489 C 48.3841 -2.11687 -3.68068 0
M  V30 490 O 49.4081 -1.8342 -3.05345 0
M  V30 491 O 48.2671 -2.59572 -4.80921 0
M  V30 492 H 45.3611 -0.361154 -0.743974 0
M  V30 493 H 47.9071 -1.33554 -1.04697 0
M  V30 494 H 46.6791 -2.86346 -2.66687 0
M  V30 495 H 46.3021 -1.4856 -3.68803 0
M  V30 496 N 47.2992 1.18797 -1.03562 0
M  V30 497 C 48.2292 2.24472 -0.643019 0
M  V30 498 C 49.2102 1.66433 0.351283 0
M  V30 499 O 50.3952 1.92803 0.232505 0
M  V30 500 C 47.5252 3.473 4.24935e-05 0
M  V30 501 C 46.4792 4.18055 -0.917257 0
M  V30 502 C 45.8052 5.34519 -0.138941 0
M  V30 503 C 47.1052 4.72109 -2.23407 0
M  V30 504 H 48.7992 2.57566 -1.52643 0
M  V30 505 H 46.3452 1.23806 -0.735394 0
M  V30 506 H 48.2982 4.20426 0.286383 0
M  V30 507 H 47.0222 3.13424 0.918299 0
M  V30 508 H 45.6812 3.46821 -1.1879 0
M  V30 509 H 45.3292 4.96891 0.781562 0
M  V30 510 H 45.0292 5.82794 -0.750005 0
M  V30 511 H 46.5532 6.10438 0.1405 0
M  V30 512 H 47.9672 5.36955 -2.00879 0
M  V30 513 H 46.3642 5.30897 -2.79765 0
M  V30 514 H 47.4342 3.89807 -2.88407 0
M  V30 515 N 48.7773 0.814389 1.34928 0
M  V30 516 C 49.7403 0.235759 2.27984 0
M  V30 517 C 50.7403 -0.581412 1.49921 0
M  V30 518 O 51.9303 -0.398758 1.69575 0
M  V30 519 C 49.0623 -0.670433 3.34242 0
M  V30 520 H 50.2553 1.05659 2.80671 0
M  V30 521 H 47.8083 0.585614 1.44915 0
M  V30 522 H 48.5433 -1.51466 2.86755 0
M  V30 523 H 48.3283 -0.0860822 3.92005 0
M  V30 524 H 49.8183 -1.06935 4.03676 0
M  V30 525 N 50.2554 -1.46986 0.568584 0
M  V30 526 C 51.1884 -2.27129 -0.220779 0
M  V30 527 C 52.1664 -1.34757 -0.909905 0
M  V30 528 O 53.3504 -1.64152 -0.926622 0
M  V30 529 C 50.4774 -3.12108 -1.31553 0
M  V30 530 C 49.5234 -4.20141 -0.733748 0
M  V30 531 S 50.3564 -5.33783 0.428479 0
M  V30 532 C 51.5124 -6.22327 -0.667811 0
M  V30 533 H 51.7454 -2.93731 0.459267 0
M  V30 534 H 49.2784 -1.5026 0.355154 0
M  V30 535 H 51.2364 -3.61636 -1.94241 0
M  V30 536 H 49.8974 -2.44847 -1.96746 0
M  V30 537 H 49.0904 -4.79373 -1.5562 0
M  V30 538 H 48.6924 -3.73553 -0.182812 0
M  V30 539 H 50.9844 -6.59364 -1.55708 0
M  V30 540 H 51.9274 -7.0801 -0.11258 0
M  V30 541 H 52.3354 -5.5618 -0.965601 0
M  V30 542 N 51.7335 -0.305618 -1.54608 0
M  V30 543 C 53.1495 0.0476228 -1.59529 0
M  V30 544 C 53.3495 1.52025 -1.32252 0
M  V30 545 O 52.4055 2.27368 -1.09818 0
M  V30 546 C 53.7185 -0.354471 -2.98603 0
M  V30 547 C 55.2665 -0.303622 -3.11524 0
M  V30 548 C 55.7415 -0.680608 -4.52915 0
M  V30 549 N 57.2325 -0.63332 -4.5885 0
M  V30 550 C 57.9675 -0.897432 -5.66334 0
M  V30 551 N 57.4635 -1.22775 -6.81834 0
M  V30 552 N 59.2565 -0.824186 -5.56025 0
M  V30 553 H 51.4075 -1.2653 -1.70599 0
M  V30 554 H 53.6705 -0.513291 -0.797017 0
M  V30 555 H 53.3765 -1.3798 -3.23503 0
M  V30 556 H 53.2505 0.289568 -3.76087 0
M  V30 557 H 55.6375 0.712472 -2.8637 0
M  V30 558 H 55.7185 -0.982348 -2.36185 0
M  V30 559 H 55.3625 -1.69453 -4.78799 0
M  V30 560 H 55.2925 0.0202385 -5.26596 0
M  V30 561 H 57.7835 -0.389138 -3.75891 0
M  V30 562 H 58.0965 -1.41513 -7.59733 0
M  V30 563 H 56.4415 -1.26583 -6.83375 0
M  V30 564 H 59.6325 -0.565748 -4.64669 0
M  V30 565 H 59.8055 -1.03338 -6.39707 0
M  V30 566 N 53.2116 1.57565 -0.0334293 0
M  V30 567 C 54.4606 1.91155 0.643639 0
M  V30 568 C 54.7736 0.91192 1.73042 0
M  V30 569 O 55.9796 1.13923 2.46442 0
M  V30 570 C 54.4356 3.39443 1.1961 0
M  V30 571 C 54.0436 4.47774 0.142381 0
M  V30 572 C 55.7876 3.82094 1.84944 0
M  V30 573 C 53.6946 5.87162 0.706727 0
M  V30 574 H 52.6246 0.713368 0.244176 0
M  V30 575 H 55.2756 1.8323 -0.0994323 0
M  V30 576 H 53.6576 3.42313 1.99092 0
M  V30 577 H 54.8316 4.56469 -0.630296 0
M  V30 578 H 53.1466 4.14352 -0.412446 0
M  V30 579 H 55.7436 4.83591 2.2813 0
M  V30 580 H 56.0866 3.17386 2.69392 0
M  V30 581 H 56.6196 3.81665 1.12145 0
M  V30 582 H 53.3586 6.55424 -0.0997178 0
M  V30 583 H 52.8786 5.82064 1.44779 0
M  V30 584 H 54.5576 6.35866 1.19514 0
M  V30 585 N 54.6897 -0.239769 1.55765 0
M  V30 586 C 55.9297 -0.974076 1.79697 0
M  V30 587 C 56.2937 -1.82249 0.604088 0
M  V30 588 O 57.4947 -2.58913 0.722324 0
M  V30 589 C 55.7657 -1.80595 3.08416 0
M  V30 590 S 57.3247 -2.59838 3.53596 0
M  V30 591 H 54.1427 -0.327524 0.63107 0
M  V30 592 H 56.7447 -0.241277 1.94005 0
M  V30 593 H 55.4487 -1.17249 3.93295 0
M  V30 594 H 54.9797 -2.58137 2.96865 0
M  V30 595 H 56.9947 -3.82987 3.15492 0
M  V30 596 N 56.1678 -1.49265 -0.50573 0
M  V30 597 C 57.0778 -1.68312 -1.63427 0
M  V30 598 C 58.0938 -0.565682 -1.64548 0
M  V30 599 O 59.2698 -0.839801 -1.83055 0
M  V30 600 C 56.3348 -1.74107 -2.99813 0
M  V30 601 C 55.3958 -2.97653 -3.09356 0
M  V30 602 C 54.6288 -3.03163 -4.39236 0
M  V30 603 O 54.8518 -2.16396 -5.27758 0
M  V30 604 O 53.7858 -3.9558 -4.53652 0
M  V30 605 H 57.6118 -2.63907 -1.50289 0
M  V30 606 H 55.1968 -1.32951 -0.681502 0
M  V30 607 H 57.0788 -1.803 -3.80881 0
M  V30 608 H 55.7538 -0.816901 -3.13223 0
M  V30 609 H 54.6608 -2.96981 -2.27493 0
M  V30 610 H 55.9938 -3.89535 -3.00871 0
M  V30 611 N 57.6459 0.756429 -1.3826 0
M  V30 612 C 58.5959 1.86069 -1.31766 0
M  V30 613 C 59.5799 1.59621 -0.202483 0
M  V30 614 O 60.7719 1.7149 -0.438211 0
M  V30 615 C 57.9009 3.23742 -1.1422 0
M  V30 616 C 56.9869 3.56091 -2.30348 0
M  V30 617 N 57.3779 3.59517 -3.55783 0
M  V30 618 C 55.6759 3.86341 -2.22838 0
M  V30 619 C 56.3769 3.89052 -4.32451 0
M  V30 620 N 55.3529 4.05736 -3.61772 0
M  V30 621 H 59.1549 1.86992 -2.26741 0
M  V30 622 H 56.6689 0.953643 -1.31451 0
M  V30 623 H 58.6659 4.02761 -1.07652 0
M  V30 624 H 57.3259 3.24073 -0.201763 0
M  V30 625 H 58.3369 3.41347 -3.89491 0
M  V30 626 H 55.0139 3.94404 -1.36937 0
M  V30 627 H 56.4039 3.98349 -5.4108 0
M  V30 628 N 59.124 1.23083 0.984299 0
M  V30 629 C 60.354 1.08556 1.75781 0
M  V30 630 C 60.762 -0.366171 1.85623 0
M  V30 631 O 60.105 -1.26524 1.33182 0
M  V30 632 C 60.167 1.63208 3.20318 0
M  V30 633 C 59.831 3.11922 3.33997 0
M  V30 634 C 60.828 4.09259 3.2063 0
M  V30 635 C 58.513 3.51552 3.58771 0
M  V30 636 C 60.507 5.4421 3.31835 0
M  V30 637 C 58.194 4.86649 3.69616 0
M  V30 638 C 59.192 5.82787 3.56157 0
M  V30 639 O 58.88 7.15431 3.66626 0
M  V30 640 H 58.612 0.380713 0.5586 0
M  V30 641 H 61.166 1.63321 1.2456 0
M  V30 642 H 59.396 1.0286 3.72769 0
M  V30 643 H 61.085 1.44216 3.79416 0
M  V30 644 H 61.851 3.79984 3.01392 0
M  V30 645 H 57.73 2.77239 3.6832 0
M  V30 646 H 61.274 6.1923 3.21247 0
M  V30 647 H 57.171 5.15601 3.88363 0
M  V30 648 H 57.939 7.23127 3.83445 0
M  V30 649 N 60.6021 -1.18246 1.0419 0
M  V30 650 C 61.8481 -1.88536 0.747122 0
M  V30 651 C 62.1811 -1.80223 -0.723409 0
M  V30 652 O 61.4561 -1.20337 -1.52804 0
M  V30 653 C 61.7391 -3.38968 1.21544 0
M  V30 654 C 61.5921 -3.56084 2.74816 0
M  V30 655 C 62.9111 -4.32648 0.806482 0
M  V30 656 H 60.0301 -0.684619 0.272883 0
M  V30 657 H 62.6721 -1.39113 1.29413 0
M  V30 658 H 60.8221 -3.8119 0.750081 0
M  V30 659 H 62.4941 -3.22946 3.29399 0
M  V30 660 H 60.7371 -2.98699 3.14582 0
M  V30 661 H 61.4081 -4.61639 3.02644 0
M  V30 662 H 63.8841 -3.98211 1.20695 0
M  V30 663 H 62.7601 -5.36462 1.1619 0
M  V30 664 H 63.0211 -4.41146 -0.29029 0
M  V30 665 N 62.0802 -0.821533 -1.34494 0
M  V30 666 C 63.3082 -0.421884 -2.02553 0
M  V30 667 C 63.7232 0.971745 -1.61872 0
M  V30 668 O 63.0802 1.62864 -0.823496 0
M  V30 669 C 63.1312 -0.51285 -3.57844 0
M  V30 670 O 62.8522 -1.85155 -3.97051 0
M  V30 671 C 64.3532 -0.107921 -4.43169 0
M  V30 672 H 61.5732 -0.169482 -0.649243 0
M  V30 673 H 64.1172 -1.1093 -1.71798 0
M  V30 674 H 62.2722 0.126474 -3.87193 0
M  V30 675 H 62.6862 -1.82482 -4.91732 0
M  V30 676 H 64.1602 -0.222657 -5.51551 0
M  V30 677 H 64.6372 0.948401 -4.28838 0
M  V30 678 H 65.2432 -0.720989 -4.19144 0
M  V30 679 N 63.5583 1.46682 -0.576371 0
M  V30 680 C 64.8043 2.02712 -0.0596221 0
M  V30 681 C 65.1373 1.44765 1.29448 0
M  V30 682 O 64.4123 0.610355 1.84675 0
M  V30 683 C 64.6953 3.60098 0.0129503 0
M  V30 684 C 64.5483 4.28441 -1.3696 0
M  V30 685 C 65.8673 4.34224 0.71678 0
M  V30 686 H 62.9863 0.736637 -0.0231407 0
M  V30 687 H 65.6283 1.74898 -0.742351 0
M  V30 688 H 63.7783 3.83926 0.594378 0
M  V30 689 H 65.4503 4.15896 -1.9957 0
M  V30 690 H 63.6933 3.8805 -1.93907 0
M  V30 691 H 64.3643 5.3716 -1.27135 0
M  V30 692 H 66.8403 4.15503 0.222908 0
M  V30 693 H 65.7163 5.43936 0.73657 0
M  V30 694 H 65.9773 4.04823 1.77682 0
M  V30 695 N 65.0364 0.313813 1.54444 0
M  V30 696 C 66.2644 -0.293918 2.04802 0
M  V30 697 C 66.6794 -1.46537 1.19047 0
M  V30 698 O 66.0364 -1.81182 0.218939 0
M  V30 699 C 66.0874 -0.737806 3.53891 0
M  V30 700 O 65.8084 0.387038 4.36387 0
M  V30 701 C 67.3094 -1.40936 4.203 0
M  V30 702 H 64.5294 -0.0620057 0.668129 0
M  V30 703 H 67.0734 0.457169 1.99324 0
M  V30 704 H 65.2284 -1.43889 3.59687 0
M  V30 705 H 65.6424 0.0391274 5.24485 0
M  V30 706 H 67.1164 -1.67099 5.26101 0
M  V30 707 H 67.5934 -2.35355 3.70816 0
M  V30 708 H 68.1994 -0.751117 4.18615 0
M  V30 709 N 66.5145 -1.57545 0.0417849 0
M  V30 710 C 67.4465 -2.07904 -0.964799 0
M  V30 711 C 68.4595 -1.00497 -1.28079 0
M  V30 712 O 69.6485 -1.28087 -1.24322 0
M  V30 713 C 66.7485 -2.49928 -2.28887 0
M  V30 714 C 65.9215 -3.80562 -2.15619 0
M  V30 715 C 64.9805 -4.08999 -3.31069 0
M  V30 716 O 64.0065 -4.79061 -3.0739 0
M  V30 717 N 65.2085 -3.6017 -4.55256 0
M  V30 718 H 67.9735 -2.94886 -0.535029 0
M  V30 719 H 65.5345 -1.61252 -0.144681 0
M  V30 720 H 67.5265 -2.66034 -3.04972 0
M  V30 721 H 66.0965 -1.68245 -2.63463 0
M  V30 722 H 65.3165 -3.74129 -1.24183 0
M  V30 723 H 66.6045 -4.66126 -2.03971 0
M  V30 724 H 66.0025 -3.03512 -4.77386 0
M  V30 725 H 64.5595 -3.81532 -5.28466 0
M  V30 726 N 67.9926 0.231505 -1.5589 0
M  V30 727 C 68.9396 1.28682 -1.91598 0
M  V30 728 C 69.9096 1.47071 -0.771974 0
M  V30 729 O 71.0946 1.60802 -1.027 0
M  V30 730 C 68.2346 2.6342 -2.22944 0
M  V30 731 C 67.3476 2.52912 -3.50228 0
M  V30 732 C 66.4826 3.80106 -3.7107 0
M  V30 733 C 65.5216 3.64279 -4.91902 0
M  V30 734 N 64.6586 4.834 -5.09184 0
M  V30 735 H 69.4986 0.975305 -2.81588 0
M  V30 736 H 67.0356 0.470299 -1.39379 0
M  V30 737 H 68.9936 3.41869 -2.39126 0
M  V30 738 H 67.6236 2.92687 -1.36139 0
M  V30 739 H 66.6756 1.6595 -3.42294 0
M  V30 740 H 67.9876 2.37133 -4.38827 0
M  V30 741 H 67.1416 4.66999 -3.87295 0
M  V30 742 H 65.8806 3.98799 -2.80733 0
M  V30 743 H 64.8856 2.7577 -4.75637 0
M  V30 744 H 66.1106 3.47067 -5.83714 0
M  V30 745 H 64.0566 5.02425 -4.21788 0
M  V30 746 H 63.9736 4.70311 -5.91898 0
M  V30 747 H 65.2416 5.71747 -5.29835 0
M  V30 748 N 69.4707 1.49531 0.497807 0
M  V30 749 C 70.4007 1.6935 1.60757 0
M  V30 750 C 71.3817 0.542218 1.61227 0
M  V30 751 O 72.5667 0.778417 1.77917 0
M  V30 752 C 69.6967 1.76298 2.99226 0
M  V30 753 C 68.6507 2.91248 3.13622 0
M  V30 754 C 67.9767 2.83312 4.53474 0
M  V30 755 C 69.2767 4.3214 2.93346 0
M  V30 756 H 70.9707 2.62263 1.44425 0
M  V30 757 H 68.5167 1.26208 0.693367 0
M  V30 758 H 70.4697 1.88749 3.76765 0
M  V30 759 H 69.1937 0.799871 3.16654 0
M  V30 760 H 67.8527 2.78404 2.38509 0
M  V30 761 H 67.5007 1.84902 4.67782 0
M  V30 762 H 67.2007 3.60465 4.64046 0
M  V30 763 H 68.7247 2.97775 5.33069 0
M  V30 764 H 70.1387 4.45649 3.60652 0
M  V30 765 H 68.5357 5.1054 3.15387 0
M  V30 766 H 69.6057 4.46363 1.89441 0
M  V30 767 N 70.9488 -0.749086 1.3866 0
M  V30 768 C 72.1968 -1.50535 1.34847 0
M  V30 769 C 72.5178 -1.94909 -0.0595016 0
M  V30 770 O 71.7878 -1.67973 -1.00806 0
M  V30 771 H 70.3678 -0.558395 0.49619 0
M  V30 772 H 73.0298 -0.890165 1.73384 0
M  V30 773 H 72.1258 -2.39413 2.00219 0
M  V30 774 N 72.4269 -1.23603 -0.977757 0
M  V30 775 C 73.6759 -1.06377 -1.71368 0
M  V30 776 C 73.9889 0.399062 -1.91486 0
M  V30 777 O 75.1949 0.691312 -2.62551 0
M  V30 778 C 73.6509 -1.85512 -3.08404 0
M  V30 779 C 73.2589 -3.36141 -2.96164 0
M  V30 780 C 75.0029 -1.76783 -3.85938 0
M  V30 781 C 72.9099 -4.07659 -4.28449 0
M  V30 782 H 71.8399 -0.394452 -0.642591 0
M  V30 783 H 74.4909 -1.47594 -1.09034 0
M  V30 784 H 72.8729 -1.37103 -3.71509 0
M  V30 785 H 74.0469 -3.92056 -2.42133 0
M  V30 786 H 72.3619 -3.45712 -2.32104 0
M  V30 787 H 74.9589 -2.27526 -4.83876 0
M  V30 788 H 75.3019 -0.731116 -4.0983 0
M  V30 789 H 75.8349 -2.22818 -3.2954 0
M  V30 790 H 72.5739 -5.11648 -4.09752 0
M  V30 791 H 72.0939 -3.5653 -4.82334 0
M  V30 792 H 73.7729 -4.141 -4.97122 0
M  V30 793 N 73.905 1.17692 -1.04816 0
M  V30 794 C 75.316 1.69501 -0.782698 0
M  V30 795 C 75.667 1.83456 0.695577 0
M  V30 796 O 74.792 1.51942 1.54086 0
M  V30 797 C 75.387 3.07874 -1.41419 0
M  V30 798 C 73.946 3.56864 -1.19686 0
M  V30 799 C 73.093 2.3322 -1.50012 0
M  V30 800 H 76.044 1.02262 -1.2136 0
M  V30 801 H 76.065 3.71528 -0.821428 0
M  V30 802 H 75.577 2.97685 -2.49009 0
M  V30 803 H 73.678 3.72337 -0.140043 0
M  V30 804 H 73.791 4.39851 -1.89916 0
M  V30 805 H 72.155 2.37501 -0.920071 0
M  V30 806 H 72.938 2.25644 -2.58727 0
M  V30 807 N 75.3831 0.828654 1.34056 0
M  V30 808 C 76.6131 0.431993 2.02033 0
M  V30 809 C 77.0211 -0.96844 1.62536 0
M  V30 810 O 76.3641 -1.6391 0.829408 0
M  V30 811 C 76.4261 0.461224 3.56529 0
M  V30 812 C 76.0901 1.81599 4.1937 0
M  V30 813 C 77.0871 2.7777 4.39477 0
M  V30 814 C 74.7721 2.10604 4.56017 0
M  V30 815 C 76.7661 4.01115 4.95364 0
M  V30 816 C 74.4531 3.34207 5.11614 0
M  V30 817 C 75.4511 4.2928 5.31232 0
M  V30 818 O 75.1391 5.50699 5.8565 0
M  V30 819 H 74.8711 0.170943 0.654029 0
M  V30 820 H 77.4251 1.11988 1.72185 0
M  V30 821 H 75.6551 -0.283388 3.8566 0
M  V30 822 H 77.3441 0.0838149 4.05813 0
M  V30 823 H 78.1101 2.56659 4.11523 0
M  V30 824 H 73.9891 1.37402 4.40047 0
M  V30 825 H 77.5331 4.75333 5.10592 0
M  V30 826 H 73.4301 3.55179 5.38997 0
M  V30 827 H 74.1981 5.52298 6.04077 0
M  V30 828 N 76.8612 -1.46375 0.584142 0
M  V30 829 C 78.1072 -2.02678 0.0703716 0
M  V30 830 C 78.4402 -1.4545 -1.28678 0
M  V30 831 O 77.7152 -0.62014 -1.84349 0
M  V30 832 C 77.9982 -3.60099 0.00614674 0
M  V30 833 C 77.8512 -4.27709 1.3923 0
M  V30 834 C 79.1702 -4.34598 -0.693742 0
M  V30 835 H 76.2892 -0.736504 0.027047 0
M  V30 836 H 78.9312 -1.74501 0.751615 0
M  V30 837 H 77.0812 -3.84236 -0.574009 0
M  V30 838 H 78.7532 -4.14832 2.01773 0
M  V30 839 H 76.9962 -3.87016 1.95962 0
M  V30 840 H 77.6672 -5.36478 1.29982 0
M  V30 841 H 80.1432 -4.15615 -0.200869 0
M  V30 842 H 79.0192 -5.44318 -0.707714 0
M  V30 843 H 79.2802 -4.05759 -1.75533 0
M  V30 844 N 78.3393 -0.321999 -1.54275 0
M  V30 845 C 79.5863 0.281044 -2.0054 0
M  V30 846 C 79.9143 1.52265 -1.21019 0
M  V30 847 O 79.1693 1.93687 -0.279982 0
M  V30 848 C 79.4683 0.661769 -3.5122 0
M  V30 849 C 79.1343 -0.480482 -4.48333 0
M  V30 850 C 77.7963 -0.794005 -4.74604 0
M  V30 851 C 80.1483 -1.24783 -5.06042 0
M  V30 852 C 77.4763 -1.87763 -5.55844 0
M  V30 853 C 79.8283 -2.32153 -5.88462 0
M  V30 854 C 78.4923 -2.64089 -6.13036 0
M  V30 855 H 77.7623 0.102841 -0.733829 0
M  V30 856 H 80.4093 -0.445453 -1.86247 0
M  V30 857 H 78.7143 1.46867 -3.63232 0
M  V30 858 H 80.4113 1.13989 -3.84457 0
M  V30 859 H 77.0013 -0.226039 -4.28004 0
M  V30 860 H 81.1853 -1.01887 -4.85729 0
M  V30 861 H 76.4413 -2.12954 -5.73115 0
M  V30 862 H 80.6153 -2.92057 -6.32199 0
M  V30 863 H 78.2423 -3.48185 -6.75775 0
M  V30 864 N 79.8174 1.5752 -0.0501392 0
M  V30 865 C 80.7644 2.1147 0.924603 0
M  V30 866 C 81.7344 1.02182 1.30951 0
M  V30 867 O 82.9194 1.29723 1.39916 0
M  V30 868 C 80.0594 2.66337 2.19451 0
M  V30 869 C 79.1724 3.89708 1.86418 0
M  V30 870 C 78.3074 4.32893 3.07859 0
M  V30 871 C 77.3464 5.48967 2.70742 0
M  V30 872 N 76.4834 5.87211 3.84874 0
M  V30 873 H 81.3234 2.94465 0.457639 0
M  V30 874 H 78.8604 1.45531 0.214266 0
M  V30 875 H 80.8184 2.96247 2.93758 0
M  V30 876 H 79.4484 1.86141 2.63726 0
M  V30 877 H 78.5004 3.66396 1.02264 0
M  V30 878 H 79.8124 4.74074 1.55096 0
M  V30 879 H 78.9664 4.6435 3.90466 0
M  V30 880 H 77.7054 3.47336 3.42358 0
M  V30 881 H 76.7104 5.17183 1.86551 0
M  V30 882 H 77.9354 6.3624 2.37436 0
M  V30 883 H 75.8814 5.04607 4.19175 0
M  V30 884 H 75.7984 6.66266 3.57247 0
M  V30 885 H 77.0664 6.23282 4.68123 0
M  V30 886 N 81.2955 -0.223234 1.56011 0
M  V30 887 C 82.2585 -1.26014 1.9145 0
M  V30 888 C 83.2585 -1.3989 0.792937 0
M  V30 889 O 84.4485 -1.38184 1.0607 0
M  V30 890 C 81.5805 -2.63422 2.16383 0
M  V30 891 H 82.7735 -0.95796 2.84189 0
M  V30 892 H 80.3265 -0.463576 1.49267 0
M  V30 893 H 81.0615 -2.98741 1.2619 0
M  V30 894 H 80.8465 -2.54728 2.98088 0
M  V30 895 H 82.3365 -3.38249 2.44903 0
M  V30 896 N 82.7736 -1.49793 -0.48987 0
M  V30 897 C 83.9986 -1.63836 -1.27172 0
M  V30 898 C 84.4236 -0.31402 -1.8546 0
M  V30 899 O 83.7816 0.719803 -1.66399 0
M  V30 900 C 83.8296 -2.71797 -2.36978 0
M  V30 901 O 82.9336 -2.31744 -3.41128 0
M  V30 902 H 82.2746 -0.547997 -0.37496 0
M  V30 903 H 84.8046 -1.96053 -0.585191 0
M  V30 904 H 84.8146 -2.94305 -2.82575 0
M  V30 905 H 83.4896 -3.67923 -1.93921 0
M  V30 906 H 82.0666 -2.1961 -3.01373 0
M  V30 907 N 84.2517 0.741722 -1.39055 0
M  V30 908 C 85.4987 1.50114 -1.35912 0
M  V30 909 C 85.8267 1.94443 0.0470937 0
M  V30 910 O 85.0817 1.66612 1.02659 0
M  V30 911 C 85.3807 2.7592 -2.27163 0
M  V30 912 C 85.0467 2.50493 -3.74919 0
M  V30 913 C 83.7087 2.43267 -4.1518 0
M  V30 914 C 86.0607 2.28585 -4.684 0
M  V30 915 C 83.3887 2.12166 -5.46994 0
M  V30 916 C 85.7407 1.99002 -6.00484 0
M  V30 917 C 84.4047 1.90241 -6.39816 0
M  V30 918 H 83.6747 0.549306 -0.497336 0
M  V30 919 H 86.3217 0.851896 -1.71508 0
M  V30 920 H 84.6267 3.45553 -1.84663 0
M  V30 921 H 86.3237 3.33923 -2.22028 0
M  V30 922 H 82.9137 2.56992 -3.43006 0
M  V30 923 H 87.0977 2.33139 -4.38132 0
M  V30 924 H 82.3537 2.03901 -5.76398 0
M  V30 925 H 86.5277 1.81057 -6.72452 0
M  V30 926 H 84.1547 1.65907 -7.41875 0
M  V30 927 N 85.7298 1.2412 0.971189 0
M  V30 928 C 87.0068 0.986867 1.6888 0
M  V30 929 C 87.3868 -0.491857 2.0529 0
M  V30 930 O 86.7348 -1.46531 1.75331 0
M  V30 931 C 86.9448 1.9063 2.92338 0
M  V30 932 C 88.2928 2.17515 3.64654 0
M  V30 933 O 89.3168 1.88254 3.02388 0
M  V30 934 O 88.1758 2.6719 4.7673 0
M  V30 935 H 85.2698 0.372944 0.738134 0
M  V30 936 H 87.8158 1.35203 1.02559 0
M  V30 937 H 86.5878 2.90552 2.62097 0
M  V30 938 H 86.2108 1.54408 3.66393 0
M  V30 939 N 87.2079 -1.17134 1.05439 0
M  V30 940 C 88.1549 -2.21235 0.657539 0
M  V30 941 C 89.1249 -1.62551 -0.341543 0
M  V30 942 O 90.3099 -1.89379 -0.232393 0
M  V30 943 C 87.4499 -3.45076 0.0410575 0
M  V30 944 C 86.5629 -4.18042 1.08927 0
M  V30 945 C 85.6979 -5.29376 0.439848 0
M  V30 946 C 84.7369 -5.94132 1.4722 0
M  V30 947 N 83.8739 -6.96975 0.846756 0
M  V30 948 H 88.7139 -2.54534 1.54972 0
M  V30 949 H 86.2509 -1.25028 0.775006 0
M  V30 950 H 88.2089 -4.15862 -0.33383 0
M  V30 951 H 86.8389 -3.12353 -0.814568 0
M  V30 952 H 85.8909 -3.45945 1.58196 0
M  V30 953 H 87.2029 -4.62306 1.87282 0
M  V30 954 H 86.3569 -6.06699 0.0115125 0
M  V30 955 H 85.0959 -4.86251 -0.375656 0
M  V30 956 H 84.1009 -5.15538 1.91052 0
M  V30 957 H 85.3259 -6.39337 2.28965 0
M  V30 958 H 83.2719 -6.5598 0.0518075 0
M  V30 959 H 83.1889 -7.39565 1.5678 0
M  V30 960 H 84.4569 -7.78239 0.443277 0
M  V30 961 N 88.686 -0.835752 -1.33615 0
M  V30 962 C 89.649 -0.272 -2.2758 0
M  V30 963 C 90.649 0.557487 -1.50827 0
M  V30 964 O 91.839 0.37173 -1.70188 0
M  V30 965 C 88.971 0.617173 -3.35267 0
M  V30 966 H 90.164 -1.10111 -2.78954 0
M  V30 967 H 87.717 -0.608594 -1.43965 0
M  V30 968 H 88.452 1.46884 -2.89129 0
M  V30 969 H 88.237 0.0237066 -3.92093 0
M  V30 970 H 89.727 1.005 -4.05326 0
M  V30 971 N 90.1641 1.46063 -0.591896 0
M  V30 972 C 91.1121 2.32124 0.148739 0
M  V30 973 C 92.1061 1.45035 0.875286 0
M  V30 974 O 93.3121 1.61609 0.792632 0
M  V30 975 H 89.6871 0.749024 0.066832 0
M  V30 976 H 91.6581 2.92392 -0.595783 0
M  V30 977 C 90.4071 3.28373 1.1431 0
M  V30 978 H 89.7301 3.95371 0.59346 0
M  V30 979 H 91.1701 3.91352 1.63155 0
M  V30 980 C 89.6291 2.54393 2.20875 0
M  V30 981 O 90.1591 2.31373 3.28374 0
M  V30 982 N 88.3651 2.14797 1.95731 0
M  V30 983 H 87.9121 2.33719 1.08319 0
M  V30 984 H 87.8701 1.65619 2.67241 0
M  V30 985 N 91.6422 0.330177 1.54103 0
M  V30 986 C 93.0582 -0.0222371 1.59585 0
M  V30 987 C 93.2582 -1.49902 1.34654 0
M  V30 988 O 92.3142 -2.25592 1.13421 0
M  V30 989 C 93.6272 0.401932 2.98002 0
M  V30 990 C 95.1752 0.353145 3.11001 0
M  V30 991 C 95.6502 0.752576 4.51775 0
M  V30 992 N 97.1412 0.706239 4.57784 0
M  V30 993 C 97.8762 0.987417 5.64834 0
M  V30 994 N 97.3722 1.33607 6.79795 0
M  V30 995 N 99.1652 0.91254 5.54643 0
M  V30 996 H 91.3162 1.29228 1.68564 0
M  V30 997 H 93.5792 0.525906 0.78875 0
M  V30 998 H 93.2852 1.4311 3.21267 0
M  V30 999 H 93.1592 -0.229699 3.765 0
M  V30 1000 H 95.5462 -0.666822 2.87467 0
M  V30 1001 H 95.6272 1.0198 2.34593 0
M  V30 1002 H 95.2712 1.77049 4.76042 0
M  V30 1003 H 95.2012 0.0635409 5.26562 0
M  V30 1004 H 97.6922 0.44889 3.75224 0
M  V30 1005 H 98.0052 1.53582 7.57385 0
M  V30 1006 H 96.3502 1.37439 6.81275 0
M  V30 1007 H 99.5412 0.639601 4.6371 0
M  V30 1008 H 99.7142 1.13503 6.37982 0
M  V30 1009 N 93.1203 -1.57491 0.0584922 0
M  V30 1010 C 94.3453 -1.97711 -0.62652 0
M  V30 1011 C 94.7703 -0.936132 -1.63151 0
M  V30 1012 O 94.1283 0.099811 -1.81025 0
M  V30 1013 C 94.1763 -3.36989 -1.28338 0
M  V30 1014 O 93.2803 -3.35433 -2.39913 0
M  V30 1015 H 92.6213 -0.643868 -0.162266 0
M  V30 1016 H 95.1513 -2.04193 0.129064 0
M  V30 1017 H 95.1613 -3.73879 -1.63335 0
M  V30 1018 H 93.8363 -4.12289 -0.546889 0
M  V30 1019 H 92.4133 -3.10298 -2.06809 0
M  V30 1020 N 94.5984 0.214957 -1.56127 0
M  V30 1021 C 95.8234 0.95924 -1.83884 0
M  V30 1022 C 96.2484 1.7689 -0.639644 0
M  V30 1023 O 95.6064 1.76566 0.411601 0
M  V30 1024 C 95.6544 1.84723 -3.09693 0
M  V30 1025 O 94.7584 2.94346 -2.8885 0
M  V30 1026 H 94.0994 0.27125 -0.606069 0
M  V30 1027 H 96.6294 0.226276 -2.03345 0
M  V30 1028 H 96.6394 2.25576 -3.39969 0
M  V30 1029 H 95.3144 1.25218 -3.96602 0
M  V30 1030 H 93.8914 2.57391 -2.69823 0
M  V30 1031 N 96.0765 1.50051 0.48192 0
M  V30 1032 C 97.3255 1.59741 1.23149 0
M  V30 1033 C 97.6385 0.298163 1.93314 0
M  V30 1034 O 98.8445 0.273835 2.70116 0
M  V30 1035 C 97.3005 2.81926 2.23708 0
M  V30 1036 C 96.9085 4.18685 1.59396 0
M  V30 1037 C 98.6525 3.00956 2.99375 0
M  V30 1038 C 96.5595 5.3207 2.58178 0
M  V30 1039 H 95.4895 0.594838 0.46334 0
M  V30 1040 H 98.1405 1.76467 0.503169 0
M  V30 1041 H 96.5225 2.58736 2.99786 0
M  V30 1042 H 97.6965 4.52088 0.891811 0
M  V30 1043 H 96.0115 4.05171 0.960503 0
M  V30 1044 H 98.6085 3.82836 3.73283 0
M  V30 1045 H 98.9515 2.12258 3.58123 0
M  V30 1046 H 99.4845 3.24277 2.30411 0
M  V30 1047 H 96.2235 6.22888 2.04184 0
M  V30 1048 H 95.7435 5.03098 3.26577 0
M  V30 1049 H 97.4225 5.62196 3.20225 0
M  V30 1050 N 97.5546 -0.734337 1.39446 0
M  V30 1051 C 98.5046 -1.83949 1.34709 0
M  V30 1052 C 99.4886 -1.59279 0.227851 0
M  V30 1053 O 100.681 -1.70771 0.465438 0
M  V30 1054 C 97.8096 -3.21884 1.19356 0
M  V30 1055 C 96.8956 -3.52381 2.35984 0
M  V30 1056 N 97.2866 -3.53811 3.61457 0
M  V30 1057 C 95.5846 -3.82747 2.28956 0
M  V30 1058 C 96.2856 -3.82122 4.38586 0
M  V30 1059 N 95.2616 -3.9993 3.68181 0
M  V30 1060 H 99.0636 -1.83361 2.29687 0
M  V30 1061 H 96.5776 -0.932609 1.32952 0
M  V30 1062 H 98.5746 -4.00998 1.14046 0
M  V30 1063 H 97.2346 -3.23711 0.253295 0
M  V30 1064 H 98.2456 -3.35107 3.94872 0
M  V30 1065 H 94.9226 -3.92175 1.43194 0
M  V30 1066 H 96.3126 -3.89691 5.47349 0
M  V30 1067 N 99.0327 -1.24633 -0.964593 0
M  V30 1068 C 100.258 -1.11596 -1.74818 0
M  V30 1069 C 100.683 0.32723 -1.85232 0
M  V30 1070 O 100.041 1.23695 -1.32549 0
M  V30 1071 C 100.089 -1.76397 -3.1451 0
M  V30 1072 O 99.1927 -1.03685 -3.99153 0
M  V30 1073 H 98.5337 -0.390196 -0.537255 0
M  V30 1074 H 101.064 -1.65002 -1.20977 0
M  V30 1075 H 101.074 -1.8228 -3.65018 0
M  V30 1076 H 99.7487 -2.81401 -3.06246 0
M  V30 1077 H 98.3257 -1.05611 -3.57632 0
M  V30 1078 N 100.511 1.16574 -1.06058 0
M  V30 1079 C 101.741 1.90675 -0.795397 0
M  V30 1080 C 102.149 1.77547 0.653735 0
M  V30 1081 O 101.492 1.11611 1.45907 0
M  V30 1082 C 101.554 3.42011 -1.10764 0
M  V30 1083 C 101.218 3.78924 -2.55471 0
M  V30 1084 C 102.215 3.81042 -3.53699 0
M  V30 1085 C 99.8998 4.09626 -2.90708 0
M  V30 1086 C 101.894 4.13346 -4.85205 0
M  V30 1087 C 99.5808 4.41597 -4.22416 0
M  V30 1088 C 100.579 4.43436 -5.19474 0
M  V30 1089 O 100.267 4.74649 -6.48817 0
M  V30 1090 H 99.9988 0.611554 -0.288058 0
M  V30 1091 H 102.553 1.48711 -1.41683 0
M  V30 1092 H 100.783 3.84312 -0.429128 0
M  V30 1093 H 102.472 3.97384 -0.827077 0
M  V30 1094 H 103.238 3.57437 -3.27817 0
M  V30 1095 H 99.1168 4.07361 -2.15819 0
M  V30 1096 H 102.661 4.14696 -5.60957 0
M  V30 1097 H 98.5578 4.64667 -4.48056 0
M  V30 1098 H 99.3258 4.9247 -6.5377 0
M  V30 1099 N 101.989 0.842826 1.3317 0
M  V30 1100 C 103.405 0.531128 1.50503 0
M  V30 1101 C 103.605 -0.940734 1.78192 0
M  V30 1102 O 102.661 -1.72436 1.84451 0
M  V30 1103 C 103.974 1.40789 2.65705 0
M  V30 1104 C 105.522 1.40708 2.79589 0
M  V30 1105 C 105.997 2.26878 3.97857 0
M  V30 1106 N 107.488 2.24609 4.05099 0
M  V30 1107 C 108.223 2.88019 4.95815 0
M  V30 1108 N 107.719 3.60496 5.9162 0
M  V30 1109 N 109.512 2.77469 4.88843 0
M  V30 1110 H 101.663 1.79557 1.1346 0
M  V30 1111 H 103.926 0.766267 0.558156 0
M  V30 1112 H 103.632 2.454 2.51936 0
M  V30 1113 H 103.506 1.08677 3.61205 0
M  V30 1114 H 105.893 0.368668 2.92788 0
M  V30 1115 H 105.974 1.76829 1.84838 0
M  V30 1116 H 105.618 3.3078 3.85418 0
M  V30 1117 H 105.548 1.88096 4.91861 0
M  V30 1118 H 108.039 1.71906 3.36536 0
M  V30 1119 H 108.352 4.06076 6.57512 0
M  V30 1120 H 106.697 3.64604 5.91683 0
M  V30 1121 H 109.888 2.20406 4.12963 0
M  V30 1122 H 110.061 3.2717 5.59342 0
M  V30 1123 N 103.467 -1.45747 0.599634 0
M  V30 1124 C 104.715 -2.01893 0.0915472 0
M  V30 1125 C 105.036 -1.47155 -1.27946 0
M  V30 1126 O 104.306 -0.66273 -1.84349 0
M  V30 1127 H 102.886 -0.746363 0.0308524 0
M  V30 1128 H 105.548 -1.78645 0.779237 0
M  V30 1129 H 104.644 -3.1208 0.0353086 0
M  V30 1130 N 104.945 -0.338344 -1.53925 0
M  V30 1131 C 106.356 0.146651 -1.86123 0
M  V30 1132 C 106.707 1.5042 -1.2597 0
M  V30 1133 O 105.832 2.08723 -0.571294 0
M  V30 1134 C 106.427 0.272879 -3.37699 0
M  V30 1135 C 104.986 0.702103 -3.69794 0
M  V30 1136 C 104.133 -0.167304 -2.76795 0
M  V30 1137 H 107.084 -0.558123 -1.48562 0
M  V30 1138 H 107.105 1.10128 -3.64214 0
M  V30 1139 H 106.617 -0.715307 -3.81451 0
M  V30 1140 H 104.718 1.6995 -3.31584 0
M  V30 1141 H 104.831 0.495604 -4.7653 0
M  V30 1142 H 103.195 0.359527 -2.5215 0
M  V30 1143 H 103.978 -1.15253 -3.23375 0
M  V30 1144 N 106.423 1.57458 -0.0668435 0
M  V30 1145 C 107.671 1.92919 0.602214 0
M  V30 1146 C 107.992 0.947215 1.70449 0
M  V30 1147 O 107.262 -0.00544117 1.95899 0
M  V30 1148 H 105.842 0.71217 0.22544 0
M  V30 1149 H 108.504 1.94508 -0.123535 0
M  V30 1150 H 107.6 2.94589 1.03073 0
M  V30 1151 N 107.901 -0.206675 1.56239 0
M  V30 1152 C 108.831 -1.25909 1.96645 0
M  V30 1153 C 109.812 -1.48097 0.836734 0
M  V30 1154 O 110.997 -1.6003 1.10019 0
M  V30 1155 C 108.127 -2.6058 2.29599 0
M  V30 1156 C 107.081 -2.53024 3.452 0
M  V30 1157 C 106.407 -3.91861 3.63798 0
M  V30 1158 C 107.707 -2.06524 4.79734 0
M  V30 1159 H 109.401 -0.923369 2.84806 0
M  V30 1160 H 106.947 -0.442735 1.37025 0
M  V30 1161 H 108.9 -3.34375 2.56459 0
M  V30 1162 H 107.624 -2.95869 1.38307 0
M  V30 1163 H 106.283 -1.81684 3.18412 0
M  V30 1164 H 105.931 -4.24483 2.69857 0
M  V30 1165 H 105.631 -3.87683 4.4156 0
M  V30 1166 H 107.155 -4.67296 3.93022 0
M  V30 1167 H 108.569 -2.70072 5.05702 0
M  V30 1168 H 106.966 -2.13374 5.60885 0
M  V30 1169 H 108.036 -1.01802 4.74093 0
M  V30 1170 N 109.379 -1.50304 -0.473955 0
M  V30 1171 C 110.289 -1.7174 -1.5982 0
M  V30 1172 C 111.305 -0.600457 -1.63311 0
M  V30 1173 O 112.481 -0.878441 -1.81233 0
M  V30 1174 C 109.546 -1.80427 -2.96052 0
M  V30 1175 C 108.607 -3.04148 -3.02972 0
M  V30 1176 C 107.84 -3.12411 -4.32706 0
M  V30 1177 O 108.063 -2.27542 -5.23049 0
M  V30 1178 O 106.997 -4.05113 -4.45159 0
M  V30 1179 H 110.823 -2.67035 -1.44657 0
M  V30 1180 H 108.408 -1.34366 -0.653148 0
M  V30 1181 H 110.29 -1.88338 -3.7697 0
M  V30 1182 H 108.965 -0.883156 -3.11419 0
M  V30 1183 H 107.872 -3.0174 -2.21142 0
M  V30 1184 H 109.205 -3.95829 -2.92541 0
M  V30 1185 N 110.857 0.726932 -1.39834 0
M  V30 1186 C 111.767 1.87131 -1.41489 0
M  V30 1187 C 112.783 1.71239 -0.308757 0
M  V30 1188 O 113.959 1.93701 -0.551529 0
M  V30 1189 C 111.024 3.22811 -1.26468 0
M  V30 1190 C 110.085 3.51039 -2.47124 0
M  V30 1191 C 109.318 4.80245 -2.3281 0
M  V30 1192 O 109.541 5.54537 -1.33585 0
M  V30 1193 O 108.475 5.08554 -3.21957 0
M  V30 1194 H 112.301 1.8869 -2.3797 0
M  V30 1195 H 109.886 0.875837 -1.21035 0
M  V30 1196 H 111.768 4.03877 -1.20255 0
M  V30 1197 H 110.443 3.22005 -0.330862 0
M  V30 1198 H 109.35 2.70027 -2.58914 0
M  V30 1199 H 110.683 3.56632 -3.39227 0
M  V30 1200 N 112.336 1.25143 0.95797 0
M  V30 1201 C 113.584 1.09476 1.69881 0
M  V30 1202 C 113.905 -0.365502 1.91544 0
M  V30 1203 O 113.175 -1.25985 1.50015 0
M  V30 1204 H 111.755 0.402128 0.629525 0
M  V30 1205 H 114.417 1.57214 1.15194 0
M  V30 1206 H 113.513 1.60046 2.6794 0
M  V30 1207 N 113.814 -1.1601 1.06675 0
M  V30 1208 C 114.747 -2.1947 0.625168 0
M  V30 1209 C 115.725 -1.58699 -0.354041 0
M  V30 1210 O 116.909 -1.86669 -0.262098 0
M  V30 1211 C 114.036 -3.38598 -0.0829593 0
M  V30 1212 C 113.082 -4.1787 0.853611 0
M  V30 1213 S 113.915 -4.81135 2.35094 0
M  V30 1214 C 115.071 -6.03639 1.65441 0
M  V30 1215 H 115.304 -2.56587 1.50168 0
M  V30 1216 H 112.837 -1.26862 0.880078 0
M  V30 1217 H 114.795 -4.07621 -0.485288 0
M  V30 1218 H 113.456 -2.99839 -0.935716 0
M  V30 1219 H 112.649 -5.03078 0.304755 0
M  V30 1220 H 112.251 -3.54361 1.196 0
M  V30 1221 H 114.543 -6.70632 0.962201 0
M  V30 1222 H 115.486 -6.63081 2.48454 0
M  V30 1223 H 115.894 -5.52965 1.13534 0
M  V30 1224 N 115.292 -0.849877 -1.32721 0
M  V30 1225 C 116.239 -0.289033 -2.28983 0
M  V30 1226 C 117.209 0.601324 -1.54833 0
M  V30 1227 O 118.394 0.537253 -1.8308 0
M  V30 1228 C 115.534 0.520623 -3.4115 0
M  V30 1229 C 114.647 -0.394989 -4.3019 0
M  V30 1230 C 113.782 0.426834 -5.29482 0
M  V30 1231 C 112.821 -0.486476 -6.10164 0
M  V30 1232 N 111.958 0.297879 -7.01468 0
M  V30 1233 H 116.798 -1.11519 -2.76347 0
M  V30 1234 H 114.335 -0.56138 -1.35967 0
M  V30 1235 H 116.293 1.00563 -4.04899 0
M  V30 1236 H 114.923 1.31165 -2.9495 0
M  V30 1237 H 113.975 -0.99836 -3.67065 0
M  V30 1238 H 115.287 -1.09612 -4.86607 0
M  V30 1239 H 114.441 0.975205 -5.98811 0
M  V30 1240 H 113.18 1.16136 -4.73671 0
M  V30 1241 H 112.185 -1.04677 -5.39743 0
M  V30 1242 H 113.41 -1.21953 -6.6806 0
M  V30 1243 H 111.356 1.01558 -6.48091 0
M  V30 1244 H 111.273 -0.344318 -7.55216 0
M  V30 1245 H 112.541 0.828131 -7.75089 0
M  V30 1246 N 116.77 1.45427 -0.607355 0
M  V30 1247 C 118.019 2.01452 -0.100036 0
M  V30 1248 C 118.332 1.48159 1.27704 0
M  V30 1249 O 119.538 1.96159 1.87707 0
M  V30 1250 C 117.994 3.59672 -0.128158 0
M  V30 1251 C 117.602 4.21962 -1.50507 0
M  V30 1252 C 119.346 4.23262 0.323932 0
M  V30 1253 C 117.253 5.72333 -1.48959 0
M  V30 1254 H 116.183 0.75325 -0.0336299 0
M  V30 1255 H 118.834 1.66901 -0.76265 0
M  V30 1256 H 117.216 3.91411 0.601105 0
M  V30 1257 H 118.39 4.01796 -2.25602 0
M  V30 1258 H 116.705 3.70565 -1.89923 0
M  V30 1259 H 119.302 5.33522 0.354691 0
M  V30 1260 H 119.645 3.93921 1.34656 0
M  V30 1261 H 120.178 3.96239 -0.352056 0
M  V30 1262 H 116.917 6.06373 -2.48981 0
M  V30 1263 H 116.437 5.94691 -0.781214 0
M  V30 1264 H 118.116 6.35525 -1.21313 0
M  V30 1265 N 118.248 0.346503 1.53744 0
M  V30 1266 C 119.495 -0.249104 2.00962 0
M  V30 1267 C 119.823 -1.5032 1.23426 0
M  V30 1268 O 119.078 -1.93217 0.310761 0
M  V30 1269 C 119.377 -0.605809 3.52228 0
M  V30 1270 C 119.043 0.551747 4.47512 0
M  V30 1271 C 117.705 0.86941 4.73281 0
M  V30 1272 C 120.057 1.32818 5.03993 0
M  V30 1273 C 117.385 1.96582 5.52786 0
M  V30 1274 C 119.737 2.41486 5.84694 0
M  V30 1275 C 118.401 2.73808 6.08757 0
M  V30 1276 H 117.671 -0.0911538 0.735372 0
M  V30 1277 H 120.318 0.475027 1.85515 0
M  V30 1278 H 118.623 -1.4107 3.65522 0
M  V30 1279 H 120.32 -1.07858 3.86222 0
M  V30 1280 H 116.91 0.294102 4.2759 0
M  V30 1281 H 121.094 1.09602 4.84047 0
M  V30 1282 H 116.35 2.22045 5.69654 0
M  V30 1283 H 120.524 3.02078 6.27473 0
M  V30 1284 H 118.151 3.58892 6.7015 0
M  V30 1285 N 119.726 -1.57421 0.075193 0
M  V30 1286 C 120.658 -2.09904 -0.920483 0
M  V30 1287 C 121.671 -1.03191 -1.25918 0
M  V30 1288 O 122.86 -1.30695 -1.21577 0
M  V30 1289 C 119.96 -2.54726 -2.23534 0
M  V30 1290 C 119.133 -3.8505 -2.07498 0
M  V30 1291 C 118.192 -4.15929 -3.22319 0
M  V30 1292 O 117.218 -4.85474 -2.9716 0
M  V30 1293 N 118.42 -3.69745 -4.47514 0
M  V30 1294 H 121.185 -2.95954 -0.472359 0
M  V30 1295 H 118.746 -1.61523 -0.110444 0
M  V30 1296 H 120.738 -2.72443 -2.9926 0
M  V30 1297 H 119.308 -1.73795 -2.59835 0
M  V30 1298 H 118.528 -3.76679 -1.16219 0
M  V30 1299 H 119.816 -4.70348 -1.94038 0
M  V30 1300 H 119.214 -3.13569 -4.7084 0
M  V30 1301 H 117.771 -3.92655 -5.20255 0
M  V30 1302 N 121.204 0.198386 -1.56346 0
M  V30 1303 C 122.114 1.2664 -1.97483 0
M  V30 1304 C 123.13 1.49989 -0.882002 0
M  V30 1305 O 124.306 1.62668 -1.18748 0
M  V30 1306 C 121.371 2.59141 -2.30319 0
M  V30 1307 C 120.432 2.43892 -3.53292 0
M  V30 1308 C 119.665 3.70074 -3.84553 0
M  V30 1309 O 119.888 4.74101 -3.1715 0
M  V30 1310 O 118.822 3.658 -4.7799 0
M  V30 1311 H 122.648 0.947304 -2.88548 0
M  V30 1312 H 120.233 0.403123 -1.43859 0
M  V30 1313 H 122.115 3.37352 -2.5253 0
M  V30 1314 H 120.79 2.90684 -1.42423 0
M  V30 1315 H 119.697 1.63803 -3.36332 0
M  V30 1316 H 121.03 2.17282 -4.41644 0
M  V30 1317 N 122.682 1.50554 0.465978 0
M  V30 1318 C 123.612 1.72722 1.57128 0
M  V30 1319 C 124.593 0.576294 1.6004 0
M  V30 1320 O 125.778 0.81598 1.76225 0
M  V30 1321 C 122.908 1.82605 2.95419 0
M  V30 1322 C 121.862 2.97835 3.07373 0
M  V30 1323 C 121.188 2.92867 4.47363 0
M  V30 1324 C 122.488 4.38265 2.84114 0
M  V30 1325 H 124.182 2.65267 1.38829 0
M  V30 1326 H 121.728 1.2765 0.666441 0
M  V30 1327 H 123.681 1.96698 3.72677 0
M  V30 1328 H 122.405 0.866858 3.14886 0
M  V30 1329 H 121.064 2.83401 2.3255 0
M  V30 1330 H 120.712 1.94783 4.63755 0
M  V30 1331 H 120.412 3.70227 4.56296 0
M  V30 1332 H 121.936 3.09015 5.26633 0
M  V30 1333 H 123.35 4.53198 3.51118 0
M  V30 1334 H 121.747 5.17115 3.04487 0
M  V30 1335 H 122.817 4.50281 1.7993 0
M  V30 1336 N 124.16 -0.719506 1.40217 0
M  V30 1337 C 125.107 -1.83359 1.40172 0
M  V30 1338 C 126.077 -1.64065 0.259206 0
M  V30 1339 O 127.262 -1.85254 0.456677 0
M  V30 1340 C 124.402 -3.2103 1.26624 0
M  V30 1341 C 123.515 -3.51923 2.50548 0
M  V30 1342 C 122.65 -4.79079 2.29471 0
M  V30 1343 C 121.689 -5.02863 3.48992 0
M  V30 1344 N 120.826 -6.2123 3.27135 0
M  V30 1345 H 125.666 -1.82733 2.35399 0
M  V30 1346 H 123.203 -0.892688 1.16917 0
M  V30 1347 H 125.161 -4.00524 1.16776 0
M  V30 1348 H 123.791 -3.20895 0.350176 0
M  V30 1349 H 122.843 -2.67014 2.70939 0
M  V30 1350 H 124.155 -3.6541 3.39525 0
M  V30 1351 H 123.309 -5.66582 2.16955 0
M  V30 1352 H 122.048 -4.67794 1.37913 0
M  V30 1353 H 121.053 -4.13816 3.6199 0
M  V30 1354 H 122.278 -5.16023 4.41472 0
M  V30 1355 H 120.224 -6.11204 2.38256 0
M  V30 1356 H 120.141 -6.35375 4.09675 0
M  V30 1357 H 121.409 -7.11532 3.18344 0
M  V30 1358 N 125.638 -1.25649 -0.95132 0
M  V30 1359 C 126.57 -1.02112 -2.05197 0
M  V30 1360 C 127.583 0.0150571 -1.62793 0
M  V30 1361 O 128.772 -0.223874 -1.77091 0
M  V30 1362 C 125.872 -0.522361 -3.3485 0
M  V30 1363 C 125.045 -1.62546 -4.06076 0
M  V30 1364 C 124.104 -1.12649 -5.14001 0
M  V30 1365 O 123.13 -1.82156 -5.39266 0
M  V30 1366 N 124.332 0.03047 -5.80492 0
M  V30 1367 H 127.097 -1.96885 -2.25957 0
M  V30 1368 H 124.658 -1.16899 -1.1201 0
M  V30 1369 H 126.65 -0.172961 -4.0433 0
M  V30 1370 H 125.22 0.33151 -3.10837 0
M  V30 1371 H 124.44 -2.14628 -3.30649 0
M  V30 1372 H 125.728 -2.36644 -4.50419 0
M  V30 1373 H 125.126 0.611169 -5.62389 0
M  V30 1374 H 123.683 0.320875 -6.5101 0
M  V30 1375 N 127.117 1.15442 -1.07289 0
M  V30 1376 C 128.345 1.90096 -0.81676 0
M  V30 1377 C 128.76 1.7798 0.629966 0
M  V30 1378 O 128.117 1.1313 1.43206 0
M  V30 1379 C 128.168 3.40466 -1.21512 0
M  V30 1380 O 127.889 3.52232 -2.60508 0
M  V30 1381 C 129.39 4.32145 -0.988198 0
M  V30 1382 H 126.61 0.602495 -0.295366 0
M  V30 1383 H 129.154 1.4627 -1.42918 0
M  V30 1384 H 127.309 3.81958 -0.647039 0
M  V30 1385 H 127.723 4.45549 -2.76742 0
M  V30 1386 H 129.197 5.36072 -1.31645 0
M  V30 1387 H 129.674 4.39135 0.0755063 0
M  V30 1388 H 130.28 3.96395 -1.54115 0
M  V30 1389 N 128.595 0.856903 1.32268 0
M  V30 1390 C 129.842 0.461386 1.97174 0
M  V30 1391 C 130.17 -0.983491 1.67803 0
M  V30 1392 O 129.425 -1.70541 0.959903 0
M  V30 1393 C 129.724 0.649919 3.51441 0
M  V30 1394 C 129.39 2.0656 4.00804 0
M  V30 1395 C 128.052 2.45279 4.13995 0
M  V30 1396 C 130.404 2.98947 4.26943 0
M  V30 1397 C 127.732 3.75653 4.50668 0
M  V30 1398 C 130.084 4.28822 4.65075 0
M  V30 1399 C 128.748 4.67472 4.76472 0
M  V30 1400 H 128.018 0.168833 0.72151 0
M  V30 1401 H 130.665 1.08739 1.57633 0
M  V30 1402 H 128.97 -0.0593018 3.91755 0
M  V30 1403 H 130.667 0.32391 3.9969 0
M  V30 1404 H 127.257 1.75495 3.91024 0
M  V30 1405 H 131.441 2.70265 4.16258 0
M  V30 1406 H 126.697 4.05379 4.57688 0
M  V30 1407 H 130.871 5.0047 4.84255 0
M  V30 1408 H 128.498 5.68539 5.04646 0
M  V30 1409 N 130.073 -1.45103 0.615059 0
M  V30 1410 C 131.321 -2.01784 0.112955 0
M  V30 1411 C 131.642 -1.48504 -1.26378 0
M  V30 1412 O 130.912 -0.682245 -1.83636 0
M  V30 1413 H 129.492 -0.745993 0.0387668 0
M  V30 1414 H 132.154 -1.77808 0.798141 0
M  V30 1415 H 131.25 -3.12025 0.0684069 0
M  V30 1416 N 131.551 -0.354651 -1.53558 0
M  V30 1417 C 132.797 0.238797 -2.01389 0
M  V30 1418 C 133.13 1.49309 -1.2418 0
M  V30 1419 O 132.405 1.91638 -0.332457 0
M  V30 1420 C 132.688 0.541771 -3.56001 0
M  V30 1421 C 132.541 -0.725388 -4.43912 0
M  V30 1422 C 133.86 1.34685 -4.18984 0
M  V30 1423 H 130.979 0.0853177 -0.732045 0
M  V30 1424 H 133.621 -0.477384 -1.83905 0
M  V30 1425 H 131.771 1.15189 -3.71031 0
M  V30 1426 H 133.443 -1.36313 -4.407 0
M  V30 1427 H 131.686 -1.34801 -4.12324 0
M  V30 1428 H 132.357 -0.468505 -5.50008 0
M  V30 1429 H 134.833 0.830837 -4.07721 0
M  V30 1430 H 133.709 1.52759 -5.27215 0
M  V30 1431 H 133.97 2.35221 -3.74331 0
M  V30 1432 N 133.029 1.57378 -0.0835403 0
M  V30 1433 C 133.976 2.13384 0.879539 0
M  V30 1434 C 134.946 1.04936 1.28754 0
M  V30 1435 O 136.131 1.32662 1.37133 0
M  V30 1436 C 133.271 2.70932 2.13752 0
M  V30 1437 C 132.384 3.93575 1.7811 0
M  V30 1438 C 131.519 4.39326 2.98607 0
M  V30 1439 C 130.558 5.54587 2.59037 0
M  V30 1440 N 129.695 5.95243 3.72331 0
M  V30 1441 H 134.535 2.9537 0.395076 0
M  V30 1442 H 132.072 1.45953 0.183349 0
M  V30 1443 H 134.03 3.02411 2.87408 0
M  V30 1444 H 132.66 1.91693 2.59718 0
M  V30 1445 H 131.712 3.68483 0.94469 0
M  V30 1446 H 133.024 4.77258 1.45005 0
M  V30 1447 H 132.178 4.72528 3.80529 0
M  V30 1448 H 130.917 3.5452 3.34913 0
M  V30 1449 H 129.922 5.21024 1.75539 0
M  V30 1450 H 131.147 6.41133 2.23887 0
M  V30 1451 H 129.093 5.13385 4.08378 0
M  V30 1452 H 129.01 6.73694 3.43034 0
M  V30 1453 H 130.278 6.33072 4.54797 0
M  V30 1454 N 134.507 -0.190092 1.56449 0
M  V30 1455 C 135.756 -0.907912 1.80111 0
M  V30 1456 C 136.069 -1.84214 0.657619 0
M  V30 1457 O 137.275 -2.60094 0.778663 0
M  V30 1458 C 135.731 -1.66485 3.19078 0
M  V30 1459 C 135.339 -0.7752 4.41242 0
M  V30 1460 C 137.083 -2.37201 3.52045 0
M  V30 1461 C 134.99 -1.53129 5.71231 0
M  V30 1462 H 133.92 -0.34276 0.671589 0
M  V30 1463 H 136.571 -0.161109 1.82791 0
M  V30 1464 H 134.953 -2.45572 3.10661 0
M  V30 1465 H 136.127 -0.0226298 4.60794 0
M  V30 1466 H 134.442 -0.178627 4.16017 0
M  V30 1467 H 137.039 -2.94329 4.46402 0
M  V30 1468 H 137.382 -3.11632 2.76028 0
M  V30 1469 H 137.915 -1.65075 3.61932 0
M  V30 1470 H 134.654 -0.82967 6.50228 0
M  V30 1471 H 134.174 -2.25767 5.55688 0
M  V30 1472 H 135.853 -2.08377 6.12526 0
M  V30 1473 N 135.985 -1.50799 -0.457987 0
M  V30 1474 C 137.234 -1.6168 -1.20593 0
M  V30 1475 C 137.547 -0.32888 -1.92815 0
M  V30 1476 O 138.753 -0.316773 -2.69646 0
M  V30 1477 C 137.209 -2.8545 -2.19195 0
M  V30 1478 C 136.817 -4.21168 -1.52715 0
M  V30 1479 C 138.561 -3.05681 -2.94549 0
M  V30 1480 C 136.468 -5.3611 -2.4968 0
M  V30 1481 H 135.398 -0.602134 -0.453818 0
M  V30 1482 H 138.049 -1.77245 -0.475031 0
M  V30 1483 H 136.431 -2.63472 -2.95632 0
M  V30 1484 H 137.605 -4.53449 -0.819775 0
M  V30 1485 H 135.92 -4.06648 -0.895922 0
M  V30 1486 H 138.517 -3.88727 -3.67145 0
M  V30 1487 H 138.86 -2.17929 -3.54701 0
M  V30 1488 H 139.393 -3.27901 -2.25223 0
M  V30 1489 H 136.132 -6.26057 -1.94249 0
M  V30 1490 H 135.652 -5.0823 -3.18532 0
M  V30 1491 H 137.331 -5.6722 -3.11241 0
M  V30 1492 N 137.463 0.71206 -1.40597 0
M  V30 1493 C 138.691 1.50111 -1.42388 0
M  V30 1494 C 139.106 1.88784 -0.0245395 0
M  V30 1495 O 138.463 1.55681 0.952351 0
M  V30 1496 C 138.514 2.7742 -2.31776 0
M  V30 1497 O 138.235 2.40382 -3.66262 0
M  V30 1498 C 139.736 3.7129 -2.42196 0
M  V30 1499 H 136.956 0.46314 -0.485533 0
M  V30 1500 H 139.5 0.878068 -1.8469 0
M  V30 1501 H 137.655 3.36001 -1.92827 0
M  V30 1502 H 138.069 3.22324 -4.13772 0
M  V30 1503 H 139.543 4.57448 -3.08943 0
M  V30 1504 H 140.02 4.14641 -1.44809 0
M  V30 1505 H 140.626 3.18619 -2.81712 0
M  V30 1506 N 138.941 1.26152 0.944643 0
M  V30 1507 C 140.218 1.02247 1.66748 0
M  V30 1508 C 140.598 -0.448202 2.06287 0
M  V30 1509 O 139.946 -1.42779 1.78399 0
M  V30 1510 C 140.156 1.96788 2.88228 0
M  V30 1511 C 141.504 2.25201 3.59958 0
M  V30 1512 O 142.528 1.94626 2.98327 0
M  V30 1513 O 141.387 2.77242 4.70956 0
M  V30 1514 H 138.481 0.388517 0.730057 0
M  V30 1515 H 141.027 1.37348 0.99668 0
M  V30 1516 H 139.799 2.96047 2.55875 0
M  V30 1517 H 139.422 1.62145 3.63035 0
M  V30 1518 N 140.419 -1.14872 1.07899 0
M  V30 1519 C 141.665 -1.86064 0.806725 0
M  V30 1520 C 141.998 -1.82434 -0.665706 0
M  V30 1521 O 141.273 -1.25138 -1.48899 0
M  V30 1522 C 141.556 -3.34929 1.32267 0
M  V30 1523 C 141.409 -3.47161 2.86006 0
M  V30 1524 C 142.728 -4.29863 0.943717 0
M  V30 1525 H 139.847 -0.675591 0.294526 0
M  V30 1526 H 142.489 -1.34925 1.33773 0
M  V30 1527 H 140.639 -3.78611 0.870974 0
M  V30 1528 H 142.311 -3.12302 3.39507 0
M  V30 1529 H 140.554 -2.88539 3.23925 0
M  V30 1530 H 141.225 -4.51777 3.17177 0
M  V30 1531 H 143.701 -3.9417 1.33302 0
M  V30 1532 H 142.577 -5.32494 1.33198 0
M  V30 1533 H 142.838 -4.41846 -0.149796 0
M  V30 1534 N 141.898 -0.863906 -1.31812 0
M  V30 1535 C 142.848 -0.286898 -2.26188 0
M  V30 1536 C 143.832 0.572577 -1.50367 0
M  V30 1537 O 145.024 0.420447 -1.71934 0
M  V30 1538 C 142.153 0.515849 -3.39402 0
M  V30 1539 C 141.239 -0.356531 -4.22599 0
M  V30 1540 N 141.63 -1.44716 -4.84656 0
M  V30 1541 C 139.928 -0.147898 -4.45755 0
M  V30 1542 C 140.629 -1.98462 -5.46798 0
M  V30 1543 N 139.605 -1.28247 -5.28255 0
M  V30 1544 H 143.407 -1.12055 -2.717 0
M  V30 1545 H 140.921 -0.711012 -1.46008 0
M  V30 1546 H 142.918 0.945701 -4.06032 0
M  V30 1547 H 141.578 1.34718 -2.95434 0
M  V30 1548 H 142.589 -1.83008 -4.84488 0
M  V30 1549 H 139.266 0.647973 -4.12441 0
M  V30 1550 H 140.656 -2.89932 -6.06126 0
M  V30 1551 N 143.376 1.44774 -0.622745 0
M  V30 1552 C 144.286 2.34433 0.0886031 0
M  V30 1553 C 145.302 1.52131 0.844529 0
M  V30 1554 O 146.478 1.84886 0.798691 0
M  V30 1555 C 143.543 3.29986 1.0635 0
M  V30 1556 C 142.604 4.28195 0.307873 0
M  V30 1557 C 141.837 5.19183 1.23633 0
M  V30 1558 O 142.06 5.13918 2.47476 0
M  V30 1559 O 140.994 5.97515 0.725189 0
M  V30 1560 H 144.82 2.96693 -0.648599 0
M  V30 1561 H 142.405 1.44408 -0.382957 0
M  V30 1562 H 144.287 3.88825 1.6246 0
M  V30 1563 H 142.962 2.70269 1.78146 0
M  V30 1564 H 141.869 3.72927 -0.296064 0
M  V30 1565 H 143.202 4.90808 -0.3699 0
M  V30 1566 N 144.854 0.36279 1.53368 0
M  V30 1567 C 146.265 -0.117022 1.86333 0
M  V30 1568 C 146.616 -1.48397 1.28347 0
M  V30 1569 O 145.741 -2.07787 0.604428 0
M  V30 1570 C 146.336 -0.21912 3.38091 0
M  V30 1571 C 144.895 -0.643184 3.70864 0
M  V30 1572 C 144.042 0.211318 2.76494 0
M  V30 1573 H 146.993 0.581687 1.47655 0
M  V30 1574 H 147.014 -1.04319 3.6592 0
M  V30 1575 H 146.526 0.775902 3.80265 0
M  V30 1576 H 144.627 -1.64654 3.34245 0
M  V30 1577 H 144.74 -0.41973 4.77258 0
M  V30 1578 H 143.104 -0.319367 2.5269 0
M  V30 1579 H 143.887 1.20383 3.21501 0
M  V30 1580 N 146.332 -1.57332 0.0918853 0
M  V30 1581 C 147.557 -1.98995 -0.584442 0
M  V30 1582 C 147.982 -0.970528 -1.61128 0
M  V30 1583 O 147.34 0.0613904 -1.81196 0
M  V30 1584 C 147.388 -3.39636 -1.21161 0
M  V30 1585 O 146.492 -3.40447 -2.32744 0
M  V30 1586 H 145.833 -0.647165 -0.148572 0
M  V30 1587 H 148.363 -2.03873 0.172347 0
M  V30 1588 H 148.373 -3.7726 -1.55367 0
M  V30 1589 H 147.048 -4.13356 -0.459313 0
M  V30 1590 H 145.625 -3.14614 -2.0018 0
M  V30 1591 N 147.81 0.181792 -1.56548 0
M  V30 1592 C 148.742 1.24956 -1.92142 0
M  V30 1593 C 149.755 1.41022 -0.813422 0
M  V30 1594 O 150.944 1.41212 -1.09186 0
M  V30 1595 C 148.044 2.61981 -2.14987 0
M  V30 1596 C 147.217 2.6735 -3.46183 0
M  V30 1597 C 146.276 3.85664 -3.5798 0
M  V30 1598 O 145.302 3.72148 -4.30691 0
M  V30 1599 N 146.504 5.01683 -2.92053 0
M  V30 1600 H 149.269 0.947329 -2.84334 0
M  V30 1601 H 146.83 0.371629 -1.57577 0
M  V30 1602 H 148.822 3.3958 -2.20154 0
M  V30 1603 H 147.392 2.84637 -1.2923 0
M  V30 1604 H 146.612 1.75925 -3.52766 0
M  V30 1605 H 147.9 2.67939 -4.32534 0
M  V30 1606 H 147.298 5.15564 -2.32832 0
M  V30 1607 H 145.855 5.77181 -3.0283 0
M  V30 1608 N 149.288 1.51039 0.449983 0
M  V30 1609 C 150.251 1.70863 1.5277 0
M  V30 1610 C 151.251 0.578846 1.5002 0
M  V30 1611 O 152.441 0.846213 1.52266 0
M  V30 1612 C 149.573 1.75341 2.9235 0
M  V30 1613 H 150.766 2.67034 1.36502 0
M  V30 1614 H 148.319 1.40838 0.677812 0
M  V30 1615 H 149.054 0.809383 3.14037 0
M  V30 1616 H 148.839 2.57436 2.95752 0
M  V30 1617 H 150.329 1.92559 3.70555 0
M  V30 1618 N 150.766 -0.704594 1.40972 0
M  V30 1619 C 151.698 -1.82974 1.38033 0
M  V30 1620 C 152.711 -1.60305 0.283931 0
M  V30 1621 O 153.9 -1.69975 0.545042 0
M  V30 1622 C 151 -3.19578 1.12795 0
M  V30 1623 C 150.173 -3.69352 2.34302 0
M  V30 1624 C 149.232 -4.84601 2.05058 0
M  V30 1625 O 148.258 -4.96682 2.7802 0
M  V30 1626 N 149.46 -5.71194 1.03528 0
M  V30 1627 H 152.225 -1.85991 2.35005 0
M  V30 1628 H 149.786 -0.886567 1.35468 0
M  V30 1629 H 151.778 -3.9429 0.911987 0
M  V30 1630 H 150.348 -3.11642 0.24452 0
M  V30 1631 H 149.568 -2.85649 2.71659 0
M  V30 1632 H 150.856 -3.99345 3.1528 0
M  V30 1633 H 150.254 -5.64054 0.431217 0
M  V30 1634 H 148.811 -6.45843 0.879205 0
M  V30 1635 N 152.244 -1.26651 -0.937939 0
M  V30 1636 C 153.655 -1.1125 -1.49934 0
M  V30 1637 C 154.006 0.306077 -1.93798 0
M  V30 1638 O 153.131 1.19792 -1.80219 0
M  V30 1639 C 153.726 -2.01339 -2.72485 0
M  V30 1640 C 152.285 -1.90074 -3.24883 0
M  V30 1641 C 151.432 -1.94498 -1.97651 0
M  V30 1642 H 154.383 -1.39693 -0.753091 0
M  V30 1643 H 154.404 -1.56319 -3.46907 0
M  V30 1644 H 153.916 -3.04577 -2.40529 0
M  V30 1645 H 152.017 -0.897827 -3.61621 0
M  V30 1646 H 152.13 -2.75778 -3.9177 0
M  V30 1647 H 150.494 -1.38591 -2.13693 0
M  V30 1648 H 151.277 -2.99372 -1.68022 0
M  V30 1649 N 153.722 1.14298 -1.08507 0
M  V30 1650 C 154.968 1.85633 -0.816581 0
M  V30 1651 C 155.301 1.82784 0.656021 0
M  V30 1652 O 154.576 1.25926 1.48233 0
M  V30 1653 C 154.859 3.34223 -1.34041 0
M  V30 1654 C 154.712 3.45639 -2.87843 0
M  V30 1655 C 156.031 4.29356 -0.9665 0
M  V30 1656 H 153.15 0.67402 -0.298104 0
M  V30 1657 H 155.792 1.34214 -1.34487 0
M  V30 1658 H 153.942 3.78144 -0.89104 0
M  V30 1659 H 155.614 3.10498 -3.41158 0
M  V30 1660 H 153.857 2.86817 -3.25451 0
M  V30 1661 H 154.528 4.50089 -3.19569 0
M  V30 1662 H 157.004 3.93457 -1.35391 0
M  V30 1663 H 155.88 5.3178 -1.3602 0
M  V30 1664 H 156.141 4.41919 0.126362 0
M  V30 1665 N 155.201 0.870884 1.31352 0
M  V30 1666 C 156.164 0.332243 2.26779 0
M  V30 1667 C 157.164 -0.517302 1.52252 0
M  V30 1668 O 158.354 -0.326477 1.71113 0
M  V30 1669 C 155.486 -0.528066 3.36785 0
M  V30 1670 H 156.679 1.17469 2.75937 0
M  V30 1671 H 154.232 0.64655 1.423 0
M  V30 1672 H 154.967 -1.39167 2.92922 0
M  V30 1673 H 154.752 0.0802582 3.92018 0
M  V30 1674 H 156.242 -0.897179 4.07849 0
M  V30 1675 N 156.679 -1.44442 0.630414 0
M  V30 1676 C 157.956 -1.9549 0.0655657 0
M  V30 1677 C 158.336 -1.5724 -1.40851 0
M  V30 1678 O 157.684 -0.846116 -2.12257 0
M  V30 1679 C 157.894 -3.47812 0.287691 0
M  V30 1680 C 159.242 -4.24216 0.180513 0
M  V30 1681 O 160.266 -3.55526 0.219019 0
M  V30 1682 O 159.125 -5.46434 0.0848493 0
M  V30 1683 H 156.219 -0.826688 -0.0227177 0
M  V30 1684 H 158.765 -1.54496 0.702068 0
M  V30 1685 H 157.537 -3.687 1.31056 0
M  V30 1686 H 157.16 -3.95751 -0.382984 0
M  V30 1687 N 158.157 -0.370918 -1.53173 0
M  V30 1688 C 159.403 0.217423 -2.01631 0
M  V30 1689 C 159.736 1.47983 -1.25756 0
M  V30 1690 O 159.011 1.91274 -0.352764 0
M  V30 1691 C 159.294 0.503982 -3.56556 0
M  V30 1692 C 159.147 -0.77243 -4.43118 0
M  V30 1693 C 160.466 1.30234 -4.20389 0
M  V30 1694 H 157.585 0.0775486 -0.732909 0
M  V30 1695 H 160.227 -0.496863 -1.83388 0
M  V30 1696 H 158.377 1.11248 -3.72231 0
M  V30 1697 H 160.049 -1.4098 -4.39229 0
M  V30 1698 H 158.292 -1.39167 -4.10871 0
M  V30 1699 H 158.963 -0.526815 -5.4948 0
M  V30 1700 H 161.439 0.787546 -4.08579 0
M  V30 1701 H 160.315 1.47158 -5.28806 0
M  V30 1702 H 160.576 2.31237 -3.76805 0
M  V30 1703 N 159.635 1.57281 -0.100228 0
M  V30 1704 C 160.881 1.94826 0.563101 0
M  V30 1705 C 161.214 0.982475 1.67514 0
M  V30 1706 O 160.489 0.0164069 1.94493 0
M  V30 1707 C 160.772 3.42453 1.11346 0
M  V30 1708 C 160.625 4.498 0.00612081 0
M  V30 1709 C 161.944 3.91506 2.01024 0
M  V30 1710 H 159.063 0.708428 0.203221 0
M  V30 1711 H 161.705 1.8922 -0.171979 0
M  V30 1712 H 159.855 3.47361 1.7399 0
M  V30 1713 H 161.527 4.57 -0.628357 0
M  V30 1714 H 159.77 4.28756 -0.659581 0
M  V30 1715 H 160.441 5.50306 0.432109 0
M  V30 1716 H 162.917 3.88784 1.48278 0
M  V30 1717 H 161.793 4.95358 2.36457 0
M  V30 1718 H 162.054 3.31099 2.92961 0
M  V30 1719 N 161.113 -0.173488 1.56642 0
M  V30 1720 C 162.39 -0.917617 1.7274 0
M  V30 1721 C 162.77 -2.00484 0.661027 0
M  V30 1722 O 162.118 -2.26184 -0.32453 0
M  V30 1723 C 162.328 -1.48433 3.15862 0
M  V30 1724 C 163.676 -1.95809 3.76754 0
M  V30 1725 O 164.7 -1.58231 3.19126 0
M  V30 1726 O 163.559 -2.65024 4.77938 0
M  V30 1727 H 160.653 -0.431772 0.705338 0
M  V30 1728 H 163.199 -0.161487 1.6893 0
M  V30 1729 H 161.971 -0.701715 3.84957 0
M  V30 1730 H 161.594 -2.30471 3.23989 0
M  V30 1731 N 162.591 -1.51276 -0.441967 0
M  V30 1732 C 163.837 -1.63958 -1.19355 0
M  V30 1733 C 164.17 -0.352543 -1.90973 0
M  V30 1734 O 163.445 0.647627 -1.83401 0
M  V30 1735 C 163.728 -2.83979 -2.21422 0
M  V30 1736 C 163.581 -4.22646 -1.53918 0
M  V30 1737 C 164.9 -2.99521 -3.22451 0
M  V30 1738 H 162.019 -0.596709 -0.432559 0
M  V30 1739 H 164.661 -1.83748 -0.483398 0
M  V30 1740 H 162.811 -2.67237 -2.81987 0
M  V30 1741 H 164.483 -4.51045 -0.967256 0
M  V30 1742 H 162.726 -4.25558 -0.841615 0
M  V30 1743 H 163.397 -5.02609 -2.28229 0
M  V30 1744 H 165.873 -3.14944 -2.71937 0
M  V30 1745 H 164.749 -3.85072 -3.91166 0
M  V30 1746 H 165.01 -2.11391 -3.88287 0
M  V30 1747 N 164.069 0.697108 -1.41344 0
M  V30 1748 C 165.318 1.45279 -1.39918 0
M  V30 1749 C 165.631 1.95597 -0.0109624 0
M  V30 1750 O 166.837 2.71208 0.125919 0
M  V30 1751 C 165.293 2.62695 -2.46007 0
M  V30 1752 C 164.901 2.19169 -3.90729 0
M  V30 1753 C 166.645 3.40336 -2.53715 0
M  V30 1754 C 164.552 3.33535 -4.88373 0
M  V30 1755 H 163.482 0.545692 -0.520323 0
M  V30 1756 H 166.133 0.756929 -1.67161 0
M  V30 1757 H 164.515 3.34541 -2.11892 0
M  V30 1758 H 165.689 1.54623 -4.34083 0
M  V30 1759 H 164.004 1.54525 -3.86666 0
M  V30 1760 H 166.601 4.2547 -3.2385 0
M  V30 1761 H 166.944 3.85418 -1.5735 0
M  V30 1762 H 167.477 2.75546 -2.86913 0
M  V30 1763 H 164.216 2.93468 -5.86137 0
M  V30 1764 H 163.736 3.96936 -4.49668 0
M  V30 1765 H 165.415 3.99335 -5.09059 0
M  V30 1766 N 165.547 1.27147 0.931209 0
M  V30 1767 C 166.479 1.05364 2.03546 0
M  V30 1768 C 167.492 0.0108438 1.62796 0
M  V30 1769 O 168.681 0.25202 1.76712 0
M  V30 1770 C 165.781 0.575566 3.33977 0
M  V30 1771 C 164.954 1.68985 4.03439 0
M  V30 1772 C 164.013 1.20813 5.12143 0
M  V30 1773 O 163.039 1.90712 5.363 0
M  V30 1774 N 164.241 0.0618851 5.80467 0
M  V30 1775 H 167.006 2.00454 2.22796 0
M  V30 1776 H 164.567 1.18666 1.10136 0
M  V30 1777 H 166.559 0.237264 4.04004 0
M  V30 1778 H 165.129 -0.282016 3.11325 0
M  V30 1779 H 164.349 2.19861 3.27192 0
M  V30 1780 H 165.637 2.4378 4.46597 0
M  V30 1781 H 165.035 -0.521621 5.6329 0
M  V30 1782 H 163.592 -0.217264 6.51438 0
M  V30 1783 N 167.025 -1.13721 1.09112 0
M  V30 1784 C 167.955 -2.21148 0.749385 0
M  V30 1785 C 168.936 -1.6792 -0.271475 0
M  V30 1786 O 170.121 -1.93693 -0.140251 0
M  V30 1787 C 167.251 -3.46905 0.165659 0
M  V30 1788 C 166.205 -4.13203 1.11567 0
M  V30 1789 C 165.531 -5.33248 0.393809 0
M  V30 1790 C 166.831 -4.60912 2.45678 0
M  V30 1791 H 168.525 -2.4999 1.64758 0
M  V30 1792 H 166.071 -1.20156 0.793626 0
M  V30 1793 H 168.024 -4.21313 -0.085466 0
M  V30 1794 H 166.748 -3.17449 -0.767714 0
M  V30 1795 H 165.407 -3.40758 1.35202 0
M  V30 1796 H 165.055 -5.00054 -0.543599 0
M  V30 1797 H 164.755 -5.78552 1.02721 0
M  V30 1798 H 166.279 -6.10413 0.150908 0
M  V30 1799 H 167.693 -5.26759 2.26269 0
M  V30 1800 H 166.09 -5.16944 3.04776 0
M  V30 1801 H 167.16 -3.75603 3.06677 0
M  V30 1802 N 168.503 -0.877838 -1.30888 0
M  V30 1803 C 169.914 -0.544193 -1.78593 0
M  V30 1804 C 170.265 0.939301 -1.72254 0
M  V30 1805 O 169.39 1.7337 -1.29505 0
M  V30 1806 C 169.985 -0.98105 -3.24285 0
M  V30 1807 C 168.544 -0.698935 -3.69854 0
M  V30 1808 C 167.691 -1.168 -2.51502 0
M  V30 1809 H 170.642 -1.06278 -1.17859 0
M  V30 1810 H 170.663 -0.307009 -3.79259 0
M  V30 1811 H 170.175 -2.06079 -3.28866 0
M  V30 1812 H 168.276 0.369112 -3.70767 0
M  V30 1813 H 168.389 -1.28148 -4.61644 0
M  V30 1814 H 166.753 -0.587535 -2.47831 0
M  V30 1815 H 167.536 -2.25533 -2.58824 0
M  V30 1816 N 169.982 1.44106 -0.638065 0
M  V30 1817 C 170.945 2.29138 0.0531013 0
M  V30 1818 C 171.945 1.41409 0.765506 0
M  V30 1819 O 173.135 1.63206 0.609046 0
M  V30 1820 C 170.267 3.23144 1.08584 0
M  V30 1821 H 171.46 2.91739 -0.694883 0
M  V30 1822 H 169.013 1.51134 -0.398538 0
M  V30 1823 H 169.748 2.65408 1.86357 0
M  V30 1824 H 169.533 3.87804 0.578852 0
M  V30 1825 H 171.023 3.87004 1.56899 0
M  V30 1826 N 171.46 0.379036 1.52974 0
M  V30 1827 C 172.707 -0.206421 2.01445 0
M  V30 1828 C 173.035 -1.47668 1.26587 0
M  V30 1829 O 172.29 -1.92514 0.351675 0
M  V30 1830 C 172.589 -0.53096 3.53434 0
M  V30 1831 C 172.255 0.646546 4.46241 0
M  V30 1832 C 170.917 0.969604 4.7133 0
M  V30 1833 C 173.269 1.43479 5.01062 0
M  V30 1834 C 170.597 2.08263 5.48492 0
M  V30 1835 C 172.949 2.53834 5.7944 0
M  V30 1836 C 171.613 2.86659 6.02812 0
M  V30 1837 H 170.883 -0.0755349 0.73714 0
M  V30 1838 H 173.53 0.514271 1.84465 0
M  V30 1839 H 171.835 -1.33285 3.68432 0
M  V30 1840 H 173.532 -0.996417 3.88423 0
M  V30 1841 H 170.122 0.384734 4.2687 0
M  V30 1842 H 174.306 1.19844 4.81613 0
M  V30 1843 H 169.562 2.34078 5.64816 0
M  V30 1844 H 173.736 3.15319 6.20924 0
M  V30 1845 H 171.363 3.73026 6.62387 0
M  V30 1846 N 172.938 -1.57226 0.108567 0
M  V30 1847 C 173.868 -2.17778 -0.84232 0
M  V30 1848 C 174.849 -1.11487 -1.2847 0
M  V30 1849 O 176.034 -1.39681 -1.34918 0
M  V30 1850 C 173.164 -2.76888 -2.09644 0
M  V30 1851 C 172.118 -3.88669 -1.79221 0
M  V30 1852 C 171.444 -4.34541 -3.11574 0
M  V30 1853 C 172.744 -5.11251 -1.06864 0
M  V30 1854 H 174.438 -2.97489 -0.337774 0
M  V30 1855 H 171.984 -1.43097 -0.161025 0
M  V30 1856 H 173.937 -3.17904 -2.76614 0
M  V30 1857 H 172.661 -1.94451 -2.62405 0
M  V30 1858 H 171.32 -3.48213 -1.14644 0
M  V30 1859 H 170.968 -3.48977 -3.62249 0
M  V30 1860 H 170.668 -5.09914 -2.91996 0
M  V30 1861 H 172.192 -4.782 -3.7968 0
M  V30 1862 H 173.606 -5.49352 -1.63968 0
M  V30 1863 H 172.003 -5.9214 -0.974178 0
M  V30 1864 H 173.073 -4.8487 -0.0536168 0
M  V30 1865 N 174.416 0.165178 -1.56732 0
M  V30 1866 C 175.379 1.18822 -1.95995 0
M  V30 1867 C 176.379 1.3685 -0.84431 0
M  V30 1868 O 177.569 1.34152 -1.11126 0
M  V30 1869 C 174.701 2.5521 -2.26011 0
M  V30 1870 H 175.894 0.851825 -2.87548 0
M  V30 1871 H 173.447 0.407857 -1.50885 0
M  V30 1872 H 174.182 2.93852 -1.37191 0
M  V30 1873 H 173.967 2.43489 -3.07336 0
M  V30 1874 H 175.457 3.28927 -2.57288 0
M  V30 1875 N 175.894 1.51508 0.433938 0
M  V30 1876 C 177.31 1.39759 0.770682 0
M  V30 1877 C 177.51 0.482594 1.95636 0
M  V30 1878 O 176.566 -0.0609691 2.52426 0
M  V30 1879 C 177.879 2.81851 1.04787 0
M  V30 1880 C 179.427 2.91025 1.1521 0
M  V30 1881 C 179.902 4.34032 1.46219 0
M  V30 1882 N 181.393 4.37154 1.53136 0
M  V30 1883 C 182.128 5.4484 1.78709 0
M  V30 1884 N 181.624 6.62682 2.02051 0
M  V30 1885 N 183.417 5.32324 1.80519 0
M  V30 1886 H 175.568 2.09548 -0.346892 0
M  V30 1887 H 177.831 0.943446 -0.0928074 0
M  V30 1888 H 177.537 3.50815 0.249304 0
M  V30 1889 H 177.411 3.21386 1.97461 0
M  V30 1890 H 179.798 2.22257 1.94128 0
M  V30 1891 H 179.879 2.54983 0.204281 0
M  V30 1892 H 179.523 5.03351 0.678274 0
M  V30 1893 H 179.453 4.6759 2.42212 0
M  V30 1894 H 181.944 3.52197 1.36987 0
M  V30 1895 H 182.257 7.40543 2.20943 0
M  V30 1896 H 180.602 6.65791 1.99366 0
M  V30 1897 H 183.793 4.39246 1.61805 0
M  V30 1898 H 183.966 6.16328 2.00111 0
M  V30 1899 N 177.372 -0.689602 1.41712 0
M  V30 1900 C 178.304 -1.815 1.39966 0
M  V30 1901 C 179.317 -1.59995 0.300917 0
M  V30 1902 O 180.506 -1.69387 0.563039 0
M  V30 1903 C 177.606 -3.18364 1.16179 0
M  V30 1904 C 176.779 -3.66847 2.38206 0
M  V30 1905 C 175.838 -4.82398 2.10186 0
M  V30 1906 O 174.864 -4.93706 2.83272 0
M  V30 1907 N 176.066 -5.70064 1.0958 0
M  V30 1908 H 178.831 -1.83488 2.36965 0
M  V30 1909 H 176.392 -0.872149 1.36401 0
M  V30 1910 H 178.384 -3.93301 0.953756 0
M  V30 1911 H 176.954 -3.11365 0.27756 0
M  V30 1912 H 176.174 -2.82751 2.74673 0
M  V30 1913 H 177.462 -3.95978 3.19498 0
M  V30 1914 H 176.86 -5.63565 0.491019 0
M  V30 1915 H 175.417 -6.44874 0.947656 0
M  V30 1916 N 178.85 -1.27639 -0.924453 0
M  V30 1917 C 180.078 -1.16989 -1.70649 0
M  V30 1918 C 180.493 0.272869 -1.86818 0
M  V30 1919 O 179.85 1.18549 -1.38753 0
M  V30 1920 C 179.901 -1.85229 -3.10439 0
M  V30 1921 O 179.622 -3.23868 -2.95028 0
M  V30 1922 C 181.123 -1.80746 -4.04779 0
M  V30 1923 H 178.343 -0.406595 -0.53378 0
M  V30 1924 H 180.887 -1.68569 -1.15778 0
M  V30 1925 H 179.042 -1.37545 -3.6216 0
M  V30 1926 H 179.456 -3.57889 -3.83426 0
M  V30 1927 H 180.93 -2.33101 -5.00368 0
M  V30 1928 H 181.407 -0.777499 -4.32263 0
M  V30 1929 H 182.013 -2.28059 -3.58984 0
M  V30 1930 N 180.328 1.1314 -1.09713 0
M  V30 1931 C 181.605 1.80762 -0.747302 0
M  V30 1932 C 181.985 1.96663 0.767265 0
M  V30 1933 O 181.333 1.53706 1.69076 0
M  V30 1934 C 181.543 3.15606 -1.48975 0
M  V30 1935 C 182.891 3.90914 -1.65746 0
M  V30 1936 O 183.915 3.25239 -1.45251 0
M  V30 1937 O 182.774 5.08718 -1.9967 0
M  V30 1938 H 179.868 0.782103 -0.268782 0
M  V30 1939 H 182.414 1.20041 -1.19951 0
M  V30 1940 H 181.186 2.99278 -2.52088 0
M  V30 1941 H 180.809 3.84029 -1.02991 0
M  V30 1942 N 181.806 0.884767 1.30421 0
M  V30 1943 C 182.736 0.367574 2.30589 0
M  V30 1944 C 183.717 -0.549464 1.60981 0
M  V30 1945 O 184.902 -0.46336 1.88591 0
M  V30 1946 C 182.032 -0.418944 3.44764 0
M  V30 1947 C 180.986 0.406316 4.26067 0
M  V30 1948 C 180.312 -0.506793 5.32293 0
M  V30 1949 C 181.612 1.64832 4.95608 0
M  V30 1950 H 183.306 1.20462 2.74097 0
M  V30 1951 H 180.852 0.580695 1.31772 0
M  V30 1952 H 182.805 -0.791395 4.13902 0
M  V30 1953 H 181.529 -1.28964 3.0006 0
M  V30 1954 H 180.188 0.760903 3.58617 0
M  V30 1955 H 179.836 -1.37519 4.83836 0
M  V30 1956 H 179.536 0.0415828 5.87585 0
M  V30 1957 H 181.06 -0.875764 6.04287 0
M  V30 1958 H 182.474 1.34646 5.57264 0
M  V30 1959 H 180.871 2.13688 5.60765 0
M  V30 1960 H 181.941 2.39284 4.21748 0
M  V30 1961 N 183.284 -1.43765 0.645699 0
M  V30 1962 C 184.53 -2.02197 0.156271 0
M  V30 1963 C 184.863 -1.50776 -1.22393 0
M  V30 1964 O 184.138 -0.697771 -1.81553 0
M  V30 1965 C 184.421 -3.59749 0.158872 0
M  V30 1966 C 184.274 -4.21419 1.57245 0
M  V30 1967 C 185.593 -4.37149 -0.50879 0
M  V30 1968 H 182.712 -0.734694 0.0582602 0
M  V30 1969 H 185.354 -1.71157 0.824951 0
M  V30 1970 H 183.504 -3.86325 -0.410525 0
M  V30 1971 H 185.176 -4.059 2.19186 0
M  V30 1972 H 183.419 -3.78356 2.122 0
M  V30 1973 H 184.09 -5.30482 1.52619 0
M  V30 1974 H 186.566 -4.16093 -0.024412 0
M  V30 1975 H 185.442 -5.4683 -0.476213 0
M  V30 1976 H 185.703 -4.12839 -1.58165 0
M  V30 1977 N 184.763 -0.387143 -1.52771 0
M  V30 1978 C 185.673 0.456442 -2.30117 0
M  V30 1979 C 186.689 1.07342 -1.36944 0
M  V30 1980 O 187.865 1.07971 -1.70013 0
M  V30 1981 C 184.93 1.56957 -3.09136 0
M  V30 1982 C 183.991 0.977916 -4.18014 0
M  V30 1983 C 183.224 2.038 -4.93256 0
M  V30 1984 O 183.447 3.25271 -4.68567 0
M  V30 1985 O 182.381 1.6565 -5.78657 0
M  V30 1986 H 186.207 -0.17359 -3.03203 0
M  V30 1987 H 183.792 -0.150919 -1.48636 0
M  V30 1988 H 185.674 2.21628 -3.58412 0
M  V30 1989 H 184.349 2.18461 -2.38865 0
M  V30 1990 H 183.256 0.294525 -3.72939 0
M  V30 1991 H 184.589 0.407128 -4.90513 0
M  V30 1992 N 186.241 1.57166 -0.116904 0
M  V30 1993 C 187.204 2.14039 0.819742 0
M  V30 1994 C 188.204 1.07477 1.19605 0
M  V30 1995 O 189.394 1.33263 1.1219 0
M  V30 1996 C 186.526 2.67891 2.10826 0
M  V30 1997 H 187.719 2.98128 0.325511 0
M  V30 1998 H 185.272 1.55739 0.132312 0
M  V30 1999 H 186.007 1.87384 2.64685 0
M  V30 2000 H 185.792 3.45823 1.84793 0
M  V30 2001 H 187.282 3.11809 2.77785 0
M  V30 2002 N 187.719 -0.156864 1.56817 0
M  V30 2003 C 188.652 -1.22316 1.9265 0
M  V30 2004 C 189.63 -1.42059 0.791076 0
M  V30 2005 O 190.814 -1.56831 1.04576 0
M  V30 2006 C 187.941 -2.58375 2.18998 0
M  V30 2007 C 186.987 -2.55284 3.41661 0
M  V30 2008 S 187.82 -2.02946 4.95553 0
M  V30 2009 C 188.976 -3.40753 5.25013 0
M  V30 2010 H 189.209 -0.917403 2.82791 0
M  V30 2011 H 186.742 -0.362059 1.50095 0
M  V30 2012 H 188.7 -3.36677 2.34859 0
M  V30 2013 H 187.361 -2.86145 1.29538 0
M  V30 2014 H 186.554 -3.55418 3.57343 0
M  V30 2015 H 186.156 -1.85086 3.24991 0
M  V30 2016 H 188.448 -4.36819 5.17876 0
M  V30 2017 H 189.391 -3.29933 6.26538 0
M  V30 2018 H 189.799 -3.37433 4.52548 0
M  V30 2019 N 189.197 -1.51736 -0.425897 0
M  V30 2020 C 190.16 -1.73271 -1.50032 0
M  V30 2021 C 191.16 -0.602639 -1.4908 0
M  V30 2022 O 192.35 -0.87033 -1.509 0
M  V30 2023 C 189.482 -1.79969 -2.89523 0
M  V30 2024 H 190.675 -2.69172 -1.32237 0
M  V30 2025 H 188.228 -1.41899 -0.65532 0
M  V30 2026 H 188.963 -0.859241 -3.1271 0
M  V30 2027 H 188.748 -2.62109 -2.91619 0
M  V30 2028 H 190.238 -1.9843 -3.67444 0
M  V30 2029 N 190.675 0.682077 -1.42076 0
M  V30 2030 C 191.622 1.79578 -1.44984 0
M  V30 2031 C 192.592 1.6332 -0.302614 0
M  V30 2032 O 193.777 1.83978 -0.505633 0
M  V30 2033 C 190.917 3.1756 -1.35091 0
M  V30 2034 C 190.03 3.45156 -2.59791 0
M  V30 2035 C 189.165 4.72826 -2.42093 0
M  V30 2036 C 188.204 4.93433 -3.62202 0
M  V30 2037 N 187.341 6.12338 -3.43491 0
M  V30 2038 H 192.181 1.76427 -2.40161 0
M  V30 2039 H 189.718 0.861376 -1.19242 0
M  V30 2040 H 191.676 3.97287 -1.27354 0
M  V30 2041 H 190.306 3.19854 -0.435133 0
M  V30 2042 H 189.358 2.59736 -2.77923 0
M  V30 2043 H 190.67 3.5628 -3.49094 0
M  V30 2044 H 189.824 5.60631 -2.319 0
M  V30 2045 H 188.563 4.63973 -1.50268 0
M  V30 2046 H 187.568 4.04073 -3.72834 0
M  V30 2047 H 188.793 5.04136 -4.54998 0
M  V30 2048 H 186.739 6.04672 -2.54377 0
M  V30 2049 H 186.656 6.2429 -4.26377 0
M  V30 2050 H 187.924 7.02841 -3.37097 0
M  V30 2051 N 192.153 1.28127 0.917671 0
M  V30 2052 C 193.381 1.17892 1.70026 0
M  V30 2053 C 193.796 -0.262958 1.8696 0
M  V30 2054 O 193.153 -1.17811 1.3938 0
M  V30 2055 C 193.204 1.86872 3.09453 0
M  V30 2056 O 192.925 3.25428 2.93306 0
M  V30 2057 C 194.426 1.8289 4.03815 0
M  V30 2058 H 191.646 0.40942 0.531617 0
M  V30 2059 H 194.19 1.69181 1.14883 0
M  V30 2060 H 192.345 1.39464 3.61426 0
M  V30 2061 H 192.759 3.59918 3.81523 0
M  V30 2062 H 194.233 2.35751 4.99125 0
M  V30 2063 H 194.71 0.800412 4.31845 0
M  V30 2064 H 195.316 2.29959 3.57769 0
M  V30 2065 N 193.631 -1.12557 1.10312 0
M  V30 2066 C 194.879 -1.83675 0.843091 0
M  V30 2067 C 195.2 -1.84435 -0.633131 0
M  V30 2068 O 194.47 -1.30657 -1.45964 0
M  V30 2069 H 193.05 -0.680138 0.308904 0
M  V30 2070 H 195.712 -1.36301 1.39313 0
M  V30 2071 H 194.808 -2.87908 1.2048 0
M  V30 2072 N 195.109 -0.891671 -1.2995 0
M  V30 2073 C 196.072 -0.36828 -2.26222 0
M  V30 2074 C 197.072 0.493014 -1.53056 0
M  V30 2075 O 198.262 0.299213 -1.71611 0
M  V30 2076 C 195.394 0.47442 -3.37583 0
M  V30 2077 H 196.587 -1.21844 -2.74033 0
M  V30 2078 H 194.14 -0.669107 -1.41254 0
M  V30 2079 H 194.875 1.34489 -2.95099 0
M  V30 2080 H 194.66 -0.142615 -3.91841 0
M  V30 2081 H 196.15 0.83218 -4.09224 0
M  V30 2082 N 196.587 1.43421 -0.653314 0
M  V30 2083 C 197.833 2.02111 -0.166992 0
M  V30 2084 C 198.166 1.51423 1.21592 0
M  V30 2085 O 197.441 0.707389 1.8118 0
M  V30 2086 C 197.724 3.5966 -0.177948 0
M  V30 2087 C 197.577 4.20579 -1.59478 0
M  V30 2088 C 198.896 4.37413 0.4856 0
M  V30 2089 H 196.015 0.734374 -0.0621557 0
M  V30 2090 H 198.657 1.70717 -0.834016 0
M  V30 2091 H 196.807 3.86537 0.390032 0
M  V30 2092 H 198.479 4.04732 -2.21336 0
M  V30 2093 H 196.722 3.77226 -2.14204 0
M  V30 2094 H 197.393 5.29665 -1.5543 0
M  V30 2095 H 199.869 4.161 0.00234528 0
M  V30 2096 H 198.745 5.47075 0.447207 0
M  V30 2097 H 199.006 4.13672 1.55974 0
M  V30 2098 N 198.065 0.39524 1.52563 0
M  V30 2099 C 199.314 -0.186321 2.00838 0
M  V30 2100 C 199.627 -1.47402 1.28577 0
M  V30 2101 O 200.833 -2.13599 1.67593 0
M  V30 2102 C 199.289 -0.382595 3.57861 0
M  V30 2103 C 198.897 0.892202 4.39026 0
M  V30 2104 C 200.641 -0.9202 4.14406 0
M  V30 2105 C 198.548 0.66388 5.87662 0
M  V30 2106 H 197.478 -0.0734041 0.750418 0
M  V30 2107 H 200.129 0.518552 1.76021 0
M  V30 2108 H 198.511 -1.14946 3.7895 0
M  V30 2109 H 199.685 1.66414 4.29701 0
M  V30 2110 H 198 1.35519 3.9373 0
M  V30 2111 H 200.597 -1.10683 5.23119 0
M  V30 2112 H 200.94 -1.89096 3.70875 0
M  V30 2113 H 201.473 -0.212751 3.97231 0
M  V30 2114 H 198.212 1.6058 6.35527 0
M  V30 2115 H 197.732 -0.0690193 5.9976 0
M  V30 2116 H 199.411 0.300699 6.46301 0
M  V30 2117 N 199.544 -1.57102 0.125237 0
M  V30 2118 C 200.492 -2.16905 -0.839927 0
M  V30 2119 C 201.486 -1.11998 -1.27094 0
M  V30 2120 O 202.692 -1.3029 -1.24195 0
M  V30 2121 H 199.067 -0.694252 -0.288995 0
M  V30 2122 H 201.038 -2.96774 -0.311115 0
M  V30 2123 C 199.787 -2.78795 -2.07771 0
M  V30 2124 H 199.11 -3.59221 -1.755 0
M  V30 2125 H 200.55 -3.2417 -2.73295 0
M  V30 2126 C 199.009 -1.76193 -2.87155 0
M  V30 2127 O 199.539 -1.21909 -3.82755 0
M  V30 2128 N 197.745 -1.45991 -2.51267 0
M  V30 2129 H 197.292 -1.90325 -1.73592 0
M  V30 2130 H 197.25 -0.775844 -3.04677 0
M  V30 2131 N 201.022 0.148545 -1.56898 0
M  V30 2132 C 202.268 0.862694 -1.83536 0
M  V30 2133 C 202.601 1.80889 -0.706604 0
M  V30 2134 O 201.876 1.92328 0.289885 0
M  V30 2135 C 202.159 1.63853 -3.20662 0
M  V30 2136 C 202.012 0.713925 -4.44098 0
M  V30 2137 C 203.331 2.60133 -3.54991 0
M  V30 2138 H 200.45 0.312179 -0.667618 0
M  V30 2139 H 203.092 0.127953 -1.89569 0
M  V30 2140 H 201.242 2.26489 -3.1565 0
M  V30 2141 H 202.914 0.098686 -4.61194 0
M  V30 2142 H 201.157 0.0234019 -4.33794 0
M  V30 2143 H 201.828 1.29278 -5.36648 0
M  V30 2144 H 204.304 2.07616 -3.60603 0
M  V30 2145 H 203.18 3.11468 -4.51972 0
M  V30 2146 H 203.441 3.41417 -2.80868 0
M  V30 2147 N 202.5 1.5196 0.417844 0
M  V30 2148 C 203.447 1.74678 1.50852 0
M  V30 2149 C 204.417 0.588947 1.55308 0
M  V30 2150 O 205.602 0.825544 1.72016 0
M  V30 2151 C 202.742 1.89544 2.88387 0
M  V30 2152 C 201.855 3.17166 2.93309 0
M  V30 2153 C 200.99 3.22513 4.22088 0
M  V30 2154 C 200.029 4.44372 4.20951 0
M  V30 2155 N 199.166 4.47161 5.41287 0
M  V30 2156 H 204.006 2.67768 1.30783 0
M  V30 2157 H 201.543 1.32689 0.63498 0
M  V30 2158 H 203.501 1.96146 3.68216 0
M  V30 2159 H 202.131 0.998424 3.06971 0
M  V30 2160 H 201.183 3.19778 2.06024 0
M  V30 2161 H 202.495 4.07021 2.88332 0
M  V30 2162 H 201.649 3.28139 5.10303 0
M  V30 2163 H 200.388 2.30581 4.29748 0
M  V30 2164 H 199.393 4.38902 3.31127 0
M  V30 2165 H 200.618 5.3759 4.14938 0
M  V30 2166 H 198.564 3.58108 5.49632 0
M  V30 2167 H 198.481 5.3085 5.3827 0
M  V30 2168 H 199.749 4.57005 6.3148 0
M  V30 2169 N 203.978 -0.674533 1.42435 0
M  V30 2170 C 204.925 -1.78807 1.45934 0
M  V30 2171 C 205.895 -1.63157 0.311271 0
M  V30 2172 O 207.08 -1.83707 0.515383 0
M  V30 2173 C 204.22 -3.16839 1.36773 0
M  V30 2174 C 203.333 -3.43774 2.61617 0
M  V30 2175 C 202.468 -4.71536 2.44597 0
M  V30 2176 C 201.507 -4.91505 3.64814 0
M  V30 2177 N 200.644 -6.10508 3.46734 0
M  V30 2178 H 205.484 -1.75151 2.41093 0
M  V30 2179 H 203.021 -0.85504 1.19697 0
M  V30 2180 H 204.979 -3.96606 1.29459 0
M  V30 2181 H 203.609 -3.19619 0.452089 0
M  V30 2182 H 202.661 -2.58259 2.79297 0
M  V30 2183 H 203.973 -3.54423 3.50978 0
M  V30 2184 H 203.127 -5.59393 2.3487 0
M  V30 2185 H 201.866 -4.6317 1.52726 0
M  V30 2186 H 200.871 -4.0209 3.74972 0
M  V30 2187 H 202.096 -5.01716 4.57665 0
M  V30 2188 H 200.042 -6.03315 2.5758 0
M  V30 2189 H 199.959 -6.2202 4.29682 0
M  V30 2190 H 201.227 -7.01044 3.40819 0
M  V30 2191 N 205.456 -1.28612 -0.910864 0
M  V30 2192 C 206.867 -1.14406 -1.47541 0
M  V30 2193 C 207.218 0.264901 -1.94403 0
M  V30 2194 O 206.343 1.15942 -1.82719 0
M  V30 2195 C 206.938 -2.07073 -2.68153 0
M  V30 2196 C 205.497 -1.96923 -3.20778 0
M  V30 2197 C 204.644 -1.98646 -1.93481 0
M  V30 2198 H 207.595 -1.41259 -0.723291 0
M  V30 2199 H 207.616 -1.63642 -3.43514 0
M  V30 2200 H 207.128 -3.09611 -2.34015 0
M  V30 2201 H 205.229 -0.97433 -3.59635 0
M  V30 2202 H 205.342 -2.84026 -3.85832 0
M  V30 2203 H 203.706 -1.43093 -2.10705 0
M  V30 2204 H 204.489 -3.02868 -1.61634 0
M  V30 2205 N 206.934 1.1197 -1.10907 0
M  V30 2206 C 207.866 2.17592 -0.720175 0
M  V30 2207 C 208.879 1.60938 0.245495 0
M  V30 2208 O 210.068 1.78476 0.0292245 0
M  V30 2209 C 207.168 3.38873 -0.0427917 0
M  V30 2210 C 206.341 4.25006 -1.03388 0
M  V30 2211 C 205.4 5.24774 -0.387075 0
M  V30 2212 O 204.426 5.59631 -1.03934 0
M  V30 2213 N 205.628 5.74208 0.852407 0
M  V30 2214 H 208.393 2.51567 -1.62893 0
M  V30 2215 H 205.954 1.27439 -0.998543 0
M  V30 2216 H 207.946 4.02703 0.401501 0
M  V30 2217 H 206.516 3.03007 0.768456 0
M  V30 2218 H 205.736 3.57716 -1.65629 0
M  V30 2219 H 207.024 4.79397 -1.70458 0
M  V30 2220 H 206.422 5.48062 1.40161 0
M  V30 2221 H 204.979 6.39901 1.23977 0
M  V30 2222 N 208.412 0.89855 1.29475 0
M  V30 2223 C 209.659 0.523882 1.95606 0
M  V30 2224 C 209.987 -0.929608 1.70847 0
M  V30 2225 O 209.242 -1.67401 1.01367 0
M  V30 2226 C 209.541 0.761398 3.49195 0
M  V30 2227 C 209.207 2.19207 3.94029 0
M  V30 2228 C 207.869 2.58326 4.05982 0
M  V30 2229 C 210.221 3.12379 4.17216 0
M  V30 2230 C 207.549 3.898 4.38489 0
M  V30 2231 C 209.901 4.43401 4.51197 0
M  V30 2232 C 208.565 4.82394 4.61359 0
M  V30 2233 H 207.835 0.191702 0.715773 0
M  V30 2234 H 210.482 1.13699 1.54094 0
M  V30 2235 H 208.787 0.0653622 3.91745 0
M  V30 2236 H 210.484 0.450904 3.98457 0
M  V30 2237 H 207.074 1.87846 3.85242 0
M  V30 2238 H 211.258 2.83371 4.07449 0
M  V30 2239 H 206.514 4.19734 4.44559 0
M  V30 2240 H 210.688 5.15623 4.68087 0
M  V30 2241 H 208.315 5.84306 4.86303 0
M  V30 2242 N 209.89 -1.43072 0.660911 0
M  V30 2243 C 211.136 -2.0202 0.177708 0
M  V30 2244 C 211.469 -1.52066 -1.20787 0
M  V30 2245 O 210.744 -0.716987 -1.80802 0
M  V30 2246 C 211.027 -3.59561 0.197019 0
M  V30 2247 C 210.88 -4.19727 1.61706 0
M  V30 2248 C 212.199 -4.37664 -0.462396 0
M  V30 2249 H 209.318 -0.734034 0.0660494 0
M  V30 2250 H 211.96 -1.70272 0.843058 0
M  V30 2251 H 210.11 -3.86739 -0.369527 0
M  V30 2252 H 211.782 -4.03553 2.23479 0
M  V30 2253 H 210.025 -3.76084 2.16201 0
M  V30 2254 H 210.696 -5.28834 1.58237 0
M  V30 2255 H 213.172 -4.16095 0.0197215 0
M  V30 2256 H 212.048 -5.47305 -0.418188 0
M  V30 2257 H 212.309 -4.14493 -1.53778 0
M  V30 2258 N 211.368 -0.403325 -1.52352 0
M  V30 2259 C 212.593 0.176499 -2.06648 0
M  V30 2260 C 213.018 1.38577 -1.27193 0
M  V30 2261 O 212.376 1.7879 -0.300637 0
M  V30 2262 C 212.424 0.511061 -3.5696 0
M  V30 2263 O 211.528 1.60294 -3.79973 0
M  V30 2264 H 210.869 0.0167337 -0.663789 0
M  V30 2265 H 213.399 -0.574848 -1.96359 0
M  V30 2266 H 213.409 0.771362 -4.00642 0
M  V30 2267 H 212.084 -0.37296 -4.14224 0
M  V30 2268 H 210.661 1.33526 -3.48174 0
M  V30 2269 N 212.846 1.57033 -0.133567 0
M  V30 2270 C 214.257 1.82593 0.389464 0
M  V30 2271 C 214.608 1.05156 1.6564 0
M  V30 2272 O 213.733 0.292644 2.14412 0
M  V30 2273 C 214.328 3.31204 0.713377 0
M  V30 2274 C 212.887 3.57393 1.18098 0
M  V30 2275 C 212.034 2.76598 0.197126 0
M  V30 2276 H 214.985 1.54598 -0.358481 0
M  V30 2277 H 215.006 3.46627 1.56939 0
M  V30 2278 H 214.518 3.87537 -0.2089 0
M  V30 2279 H 212.619 3.06433 2.11966 0
M  V30 2280 H 212.732 4.65915 1.11624 0
M  V30 2281 H 211.096 2.45257 0.687088 0
M  V30 2282 H 211.879 3.35697 -0.718504 0
M  V30 2283 N 214.325 -0.140222 1.56975 0
M  V30 2284 C 215.573 -0.850005 1.83356 0
M  V30 2285 C 215.894 -1.81399 0.71551 0
M  V30 2286 O 215.164 -1.94136 -0.262294 0
M  V30 2287 H 213.744 -0.316886 0.676456 0
M  V30 2288 H 216.406 -0.132608 1.94448 0
M  V30 2289 H 215.502 -1.40814 2.78528 0
M  V30 2290 N 215.803 -1.52179 -0.40978 0
M  V30 2291 C 216.735 -1.71703 -1.51825 0
M  V30 2292 C 217.748 -0.597445 -1.51441 0
M  V30 2293 O 218.937 -0.872582 -1.55719 0
M  V30 2294 C 216.037 -1.74171 -2.90719 0
M  V30 2295 C 215.21 -3.03156 -3.15302 0
M  V30 2296 C 214.269 -2.97445 -4.34065 0
M  V30 2297 O 213.295 -3.71352 -4.31377 0
M  V30 2298 N 214.497 -2.15191 -5.39141 0
M  V30 2299 H 217.262 -2.67334 -1.35472 0
M  V30 2300 H 214.823 -1.50409 -0.599069 0
M  V30 2301 H 216.815 -1.67884 -3.68235 0
M  V30 2302 H 215.385 -0.860166 -3.00533 0
M  V30 2303 H 214.605 -3.23097 -2.25836 0
M  V30 2304 H 215.893 -3.88484 -3.28569 0
M  V30 2305 H 215.291 -1.54573 -5.44173 0
M  V30 2306 H 213.848 -2.1476 -6.15403 0
M  V30 2307 N 217.281 0.66697 -1.42791 0
M  V30 2308 C 218.214 1.79177 -1.41318 0
M  V30 2309 C 219.192 1.60234 -0.276401 0
M  V30 2310 O 220.376 1.82602 -0.46785 0
M  V30 2311 C 217.503 3.16289 -1.21157 0
M  V30 2312 C 216.549 3.53964 -2.37932 0
M  V30 2313 S 217.382 3.55501 -4.00474 0
M  V30 2314 C 218.538 4.95292 -3.8267 0
M  V30 2315 H 218.771 1.80153 -2.365 0
M  V30 2316 H 216.304 0.838357 -1.29657 0
M  V30 2317 H 218.262 3.95428 -1.10212 0
M  V30 2318 H 216.923 3.1289 -0.275481 0
M  V30 2319 H 216.116 4.53646 -2.19594 0
M  V30 2320 H 215.718 2.82204 -2.45432 0
M  V30 2321 H 218.01 5.83584 -3.44145 0
M  V30 2322 H 218.953 5.18679 -4.82055 0
M  V30 2323 H 219.361 4.68179 -3.15386 0
M  V30 2324 N 218.759 1.29093 0.90403 0
M  V30 2325 C 220.007 1.16583 1.65085 0
M  V30 2326 C 220.328 -0.283933 1.92922 0
M  V30 2327 O 219.598 -1.19509 1.55224 0
M  V30 2328 H 218.178 0.428467 0.611903 0
M  V30 2329 H 220.84 1.61959 1.08422 0
M  V30 2330 H 219.936 1.71266 2.6091 0
M  V30 2331 N 220.237 -1.11381 1.11499 0
M  V30 2332 C 221.185 -2.19522 0.768956 0
M  V30 2333 C 222.179 -1.67693 -0.239857 0
M  V30 2334 O 223.385 -1.79727 -0.0990755 0
M  V30 2335 H 219.76 -0.715711 0.230786 0
M  V30 2336 H 221.731 -2.45954 1.68964 0
M  V30 2337 C 220.48 -3.46945 0.229073 0
M  V30 2338 H 219.803 -3.8718 0.996596 0
M  V30 2339 H 221.243 -4.23993 0.0251441 0
M  V30 2340 C 219.702 -3.2042 -1.04079 0
M  V30 2341 O 220.232 -3.41178 -2.12038 0
M  V30 2342 N 218.438 -2.74151 -0.963823 0
M  V30 2343 H 217.985 -2.57459 -0.0851722 0
M  V30 2344 H 217.943 -2.56781 -1.81414 0
M  V30 2345 N 221.715 -0.905404 -1.28997 0
M  V30 2346 C 222.964 -0.530191 -1.94607 0
M  V30 2347 C 223.277 0.929185 -1.72121 0
M  V30 2348 O 224.483 1.41218 -2.31883 0
M  V30 2349 C 222.939 -0.897333 -3.48534 0
M  V30 2350 C 222.547 -2.37587 -3.79811 0
M  V30 2351 C 224.291 -0.592304 -4.20347 0
M  V30 2352 C 222.198 -2.68357 -5.27009 0
M  V30 2353 H 221.128 -0.194558 -0.728466 0
M  V30 2354 H 223.779 -1.10318 -1.46636 0
M  V30 2355 H 222.161 -0.253214 -3.9519 0
M  V30 2356 H 223.335 -3.06602 -3.43994 0
M  V30 2357 H 221.65 -2.6505 -3.2115 0
M  V30 2358 H 224.247 -0.798975 -5.28697 0
M  V30 2359 H 224.59 0.469474 -4.13644 0
M  V30 2360 H 225.123 -1.19452 -3.79442 0
M  V30 2361 H 221.862 -3.73355 -5.38782 0
M  V30 2362 H 221.382 -2.03971 -5.64053 0
M  V30 2363 H 223.061 -2.54922 -5.94663 0
M  V30 2364 N 223.193 1.4272 -0.668489 0
M  V30 2365 C 224.439 2.01923 -0.188419 0
M  V30 2366 C 224.772 1.52704 1.19979 0
M  V30 2367 O 224.047 0.726566 1.8042 0
M  V30 2368 C 224.33 3.59451 -0.216085 0
M  V30 2369 C 224.183 4.18864 -1.6393 0
M  V30 2370 C 225.502 4.37903 0.439179 0
M  V30 2371 H 222.621 0.733674 -0.0699412 0
M  V30 2372 H 225.263 1.69822 -0.852076 0
M  V30 2373 H 223.413 3.86929 0.349012 0
M  V30 2374 H 225.085 4.02362 -2.25616 0
M  V30 2375 H 223.328 3.74933 -2.18193 0
M  V30 2376 H 223.999 5.27987 -1.61039 0
M  V30 2377 H 226.475 4.16079 -0.0417878 0
M  V30 2378 H 225.351 5.47519 0.389157 0
M  V30 2379 H 225.612 4.15303 1.51577 0
M  V30 2380 N 224.671 0.411399 1.52136 0
M  V30 2381 C 225.948 -0.222308 1.94333 0
M  V30 2382 C 226.328 -1.6242 1.34844 0
M  V30 2383 O 225.676 -2.22384 0.525145 0
M  V30 2384 C 225.886 -0.226345 3.48265 0
M  V30 2385 C 227.234 -0.444592 4.22266 0
M  V30 2386 O 228.258 -0.305602 3.54887 0
M  V30 2387 O 227.117 -0.718749 5.41753 0
M  V30 2388 H 224.211 -0.143907 0.814383 0
M  V30 2389 H 226.757 0.467506 1.63133 0
M  V30 2390 H 225.529 0.75475 3.83952 0
M  V30 2391 H 225.152 -0.960163 3.85832 0
M  V30 2392 N 226.149 -1.5696 0.141893 0
M  V30 2393 C 227.096 -2.16501 -0.799737 0
M  V30 2394 C 228.066 -1.09643 -1.24771 0
M  V30 2395 O 229.251 -1.3766 -1.32115 0
M  V30 2396 C 226.391 -2.78679 -2.03549 0
M  V30 2397 C 225.504 -3.99914 -1.6338 0
M  V30 2398 C 224.639 -4.50106 -2.82096 0
M  V30 2399 C 223.678 -5.63819 -2.38275 0
M  V30 2400 N 222.815 -6.08651 -3.49983 0
M  V30 2401 H 227.655 -2.96632 -0.285179 0
M  V30 2402 H 225.192 -1.46533 -0.129053 0
M  V30 2403 H 227.15 -3.1287 -2.75986 0
M  V30 2404 H 225.78 -2.012 -2.52425 0
M  V30 2405 H 224.832 -3.71735 -0.807279 0
M  V30 2406 H 226.144 -4.82311 -1.27192 0
M  V30 2407 H 225.298 -4.86325 -3.62729 0
M  V30 2408 H 224.037 -3.66706 -3.21525 0
M  V30 2409 H 223.042 -5.2718 -1.56081 0
M  V30 2410 H 224.267 -6.49 -1.99938 0
M  V30 2411 H 222.213 -5.28188 -3.89042 0
M  V30 2412 H 222.13 -6.85961 -3.17794 0
M  V30 2413 H 223.398 -6.49515 -4.30988 0
M  V30 2414 N 227.627 0.131896 -1.57047 0
M  V30 2415 C 228.874 0.841932 -1.84168 0
M  V30 2416 C 229.202 1.8048 -0.725066 0
M  V30 2417 O 228.457 1.93618 0.284692 0
M  V30 2418 C 228.756 1.63703 -3.17704 0
M  V30 2419 C 228.422 0.81961 -4.43388 0
M  V30 2420 C 227.084 0.594148 -4.77518 0
M  V30 2421 C 229.436 0.248977 -5.20605 0
M  V30 2422 C 226.764 -0.212409 -5.86315 0
M  V30 2423 C 229.116 -0.544701 -6.30251 0
M  V30 2424 C 227.78 -0.780599 -6.6292 0
M  V30 2425 H 227.05 0.308085 -0.673917 0
M  V30 2426 H 229.697 0.104867 -1.91213 0
M  V30 2427 H 228.002 2.44464 -3.06177 0
M  V30 2428 H 229.699 2.19015 -3.35907 0
M  V30 2429 H 226.289 1.00542 -4.16641 0
M  V30 2430 H 230.473 0.410408 -4.946 0
M  V30 2431 H 225.729 -0.404524 -6.1006 0
M  V30 2432 H 229.903 -0.993922 -6.89271 0
M  V30 2433 H 227.53 -1.40742 -7.47058 0
M  V30 2434 N 229.106 1.52395 0.401703 0
M  V30 2435 C 230.053 1.76268 1.48991 0
M  V30 2436 C 231.023 0.605386 1.54675 0
M  V30 2437 O 232.208 0.843742 1.7113 0
M  V30 2438 C 229.348 1.92592 2.86361 0
M  V30 2439 C 228.461 3.20259 2.89928 0
M  V30 2440 C 227.596 3.26972 4.18644 0
M  V30 2441 C 226.635 4.48812 4.16214 0
M  V30 2442 N 225.772 4.52877 5.36514 0
M  V30 2443 H 230.612 2.6914 1.27935 0
M  V30 2444 H 228.149 1.33355 0.620871 0
M  V30 2445 H 230.107 2.0004 3.66115 0
M  V30 2446 H 228.737 1.03093 3.05895 0
M  V30 2447 H 227.789 3.21945 2.02621 0
M  V30 2448 H 229.101 4.10056 2.83999 0
M  V30 2449 H 228.255 3.33533 5.06794 0
M  V30 2450 H 226.994 2.35126 4.27278 0
M  V30 2451 H 225.999 4.4239 3.26453 0
M  V30 2452 H 227.224 5.41961 4.09213 0
M  V30 2453 H 225.17 3.63917 5.45802 0
M  V30 2454 H 225.087 5.36529 5.32609 0
M  V30 2455 H 226.355 4.63676 6.26597 0
M  V30 2456 N 230.584 -0.659388 1.43143 0
M  V30 2457 C 231.494 -1.80167 1.50256 0
M  V30 2458 C 232.51 -1.69571 0.390106 0
M  V30 2459 O 233.686 -1.90849 0.643319 0
M  V30 2460 C 230.751 -3.16409 1.41725 0
M  V30 2461 C 229.812 -3.38848 2.63591 0
M  V30 2462 C 229.045 -4.68591 2.55458 0
M  V30 2463 O 229.268 -5.47532 1.59891 0
M  V30 2464 O 228.202 -4.92614 3.45854 0
M  V30 2465 H 232.028 -1.77121 2.46702 0
M  V30 2466 H 229.613 -0.817092 1.25076 0
M  V30 2467 H 231.495 -3.9768 1.39387 0
M  V30 2468 H 230.17 -3.20059 0.484118 0
M  V30 2469 H 229.077 -2.57366 2.71502 0
M  V30 2470 H 230.41 -3.4004 3.55856 0
M  V30 2471 N 232.062 -1.29571 -0.897171 0
M  V30 2472 C 233.31 -1.17456 -1.64464 0
M  V30 2473 C 233.631 0.273698 -1.9307 0
M  V30 2474 O 232.901 1.18684 -1.55855 0
M  V30 2475 H 231.481 -0.431706 -0.609622 0
M  V30 2476 H 234.143 -1.62531 -1.07562 0
M  V30 2477 H 233.239 -1.72648 -2.59998 0
M  V30 2478 N 233.54 1.10788 -1.12088 0
M  V30 2479 C 234.788 1.8231 -0.872205 0
M  V30 2480 C 235.109 1.85419 0.603709 0
M  V30 2481 O 234.379 1.32963 1.43867 0
M  V30 2482 H 232.959 0.675137 -0.319686 0
M  V30 2483 H 235.621 1.34068 -1.41463 0
M  V30 2484 H 234.717 2.85955 -1.25045 0
M  V30 2485 N 235.018 0.912232 1.28515 0
M  V30 2486 C 235.966 0.389597 2.29314 0
M  V30 2487 C 236.96 -0.517915 1.61289 0
M  V30 2488 O 238.166 -0.399328 1.75515 0
M  V30 2489 H 234.541 0.107386 0.744293 0
M  V30 2490 H 236.512 1.25286 2.70825 0
M  V30 2491 C 235.261 -0.356496 3.45868 0
M  V30 2492 H 234.584 0.332608 3.98414 0
M  V30 2493 H 236.024 -0.686851 4.184 0
M  V30 2494 C 234.483 -1.56383 2.98406 0
M  V30 2495 O 235.013 -2.66294 3.00749 0
M  V30 2496 N 233.219 -1.41029 2.54085 0
M  V30 2497 H 232.766 -0.516089 2.52377 0
M  V30 2498 H 232.724 -2.21939 2.22689 0
M  V30 2499 N 236.496 -1.42363 0.676048 0
M  V30 2500 C 237.406 -2.346 -0.00153389 0
M  V30 2501 C 238.422 -1.5516 -0.787485 0
M  V30 2502 O 239.598 -1.87723 -0.729521 0
M  V30 2503 C 236.663 -3.33705 -0.940298 0
M  V30 2504 C 235.724 -4.29042 -0.148739 0
M  V30 2505 C 234.957 -5.23413 -1.04279 0
M  V30 2506 O 235.18 -5.22749 -2.28232 0
M  V30 2507 O 234.114 -5.99795 -0.502925 0
M  V30 2508 H 237.94 -2.94082 0.758268 0
M  V30 2509 H 235.525 -1.42888 0.436289 0
M  V30 2510 H 237.407 -3.94586 -1.47917 0
M  V30 2511 H 236.082 -2.76695 -1.67993 0
M  V30 2512 H 234.989 -3.71571 0.43427 0
M  V30 2513 H 236.322 -4.89097 0.551805 0
M  V30 2514 N 237.974 -0.419461 -1.51915 0
M  V30 2515 C 238.921 0.400927 -2.27291 0
M  V30 2516 C 239.891 1.03224 -1.30131 0
M  V30 2517 O 241.076 1.05455 -1.59009 0
M  V30 2518 C 238.216 1.50603 -3.10504 0
M  V30 2519 C 237.329 0.89462 -4.22635 0
M  V30 2520 C 236.464 1.97328 -4.93189 0
M  V30 2521 C 235.503 1.33935 -5.97267 0
M  V30 2522 N 234.64 2.3586 -6.61298 0
M  V30 2523 H 239.48 -0.248251 -2.96964 0
M  V30 2524 H 237.017 -0.134266 -1.46486 0
M  V30 2525 H 238.975 2.15783 -3.57062 0
M  V30 2526 H 237.605 2.12509 -2.42981 0
M  V30 2527 H 236.657 0.131583 -3.80172 0
M  V30 2528 H 237.969 0.391641 -4.9726 0
M  V30 2529 H 237.123 2.70211 -5.43204 0
M  V30 2530 H 235.862 2.50994 -4.18155 0
M  V30 2531 H 234.867 0.595896 -5.46561 0
M  V30 2532 H 236.092 0.810252 -6.74249 0
M  V30 2533 H 234.038 2.88639 -5.89087 0
M  V30 2534 H 233.955 1.90403 -7.3163 0
M  V30 2535 H 235.223 3.08282 -7.15949 0
M  V30 2536 N 239.452 1.56882 -0.150215 0
M  V30 2537 C 240.698 1.96518 0.500834 0
M  V30 2538 C 241.031 1.03527 1.64304 0
M  V30 2539 O 240.306 0.0782751 1.94342 0
M  V30 2540 C 240.589 3.45822 1.00395 0
M  V30 2541 C 240.442 4.49591 -0.136983 0
M  V30 2542 C 241.761 3.97704 1.88467 0
M  V30 2543 H 238.88 0.714535 0.18058 0
M  V30 2544 H 241.522 1.88577 -0.232091 0
M  V30 2545 H 239.672 3.5272 1.62851 0
M  V30 2546 H 241.344 4.5477 -0.77343 0
M  V30 2547 H 239.587 4.26441 -0.795652 0
M  V30 2548 H 240.258 5.51402 0.256815 0
M  V30 2549 H 242.734 3.93304 1.35834 0
M  V30 2550 H 241.61 5.0263 2.20578 0
M  V30 2551 H 241.871 3.40252 2.82279 0
M  V30 2552 N 240.93 -0.123565 1.57115 0
M  V30 2553 C 242.179 -0.830704 1.83799 0
M  V30 2554 C 242.492 -1.81259 0.735158 0
M  V30 2555 O 243.698 -2.56558 0.888278 0
M  V30 2556 C 242.154 -1.52802 3.25852 0
M  V30 2557 C 241.762 -0.587356 4.44133 0
M  V30 2558 C 243.506 -2.22056 3.61789 0
M  V30 2559 C 241.413 -1.28764 5.77212 0
M  V30 2560 H 240.343 -0.313967 0.685522 0
M  V30 2561 H 242.994 -0.0834359 1.8331 0
M  V30 2562 H 241.376 -2.32175 3.20797 0
M  V30 2563 H 242.55 0.172829 4.60476 0
M  V30 2564 H 240.865 -0.00201892 4.164 0
M  V30 2565 H 243.462 -2.75131 4.58483 0
M  V30 2566 H 243.805 -2.99644 2.88997 0
M  V30 2567 H 244.338 -1.49576 3.68608 0
M  V30 2568 H 241.077 -0.55314 6.53162 0
M  V30 2569 H 240.597 -2.01995 5.64764 0
M  V30 2570 H 242.276 -1.8221 6.20813 0
M  V30 2571 N 242.408 -1.52605 -0.393616 0
M  V30 2572 C 243.338 -1.80022 -1.48709 0
M  V30 2573 C 244.319 -0.651995 -1.57108 0
M  V30 2574 O 245.504 -0.89913 -1.72132 0
M  V30 2575 C 242.634 -1.96492 -2.86371 0
M  V30 2576 C 241.588 -3.12161 -2.92813 0
M  V30 2577 C 240.914 -3.13877 -4.3288 0
M  V30 2578 C 242.214 -4.51322 -2.6288 0
M  V30 2579 H 243.908 -2.71589 -1.26015 0
M  V30 2580 H 241.454 -1.30684 -0.604778 0
M  V30 2581 H 243.407 -2.14255 -3.62867 0
M  V30 2582 H 242.131 -1.01611 -3.10391 0
M  V30 2583 H 240.79 -2.94173 -2.18764 0
M  V30 2584 H 240.438 -2.16687 -4.53933 0
M  V30 2585 H 240.138 -3.91576 -4.38112 0
M  V30 2586 H 241.662 -3.33789 -5.1129 0
M  V30 2587 H 243.076 -4.69435 -3.29096 0
M  V30 2588 H 241.473 -5.31053 -2.79468 0
M  V30 2589 H 242.543 -4.58353 -1.58242 0
M  V30 2590 N 243.887 0.651787 -1.4349 0
M  V30 2591 C 245.127 1.42345 -1.46688 0
M  V30 2592 C 245.491 1.91793 -0.0891023 0
M  V30 2593 O 246.692 2.688 0.00423594 0
M  V30 2594 C 244.963 2.57221 -2.48137 0
M  V30 2595 S 246.522 3.45725 -2.70221 0
M  V30 2596 H 243.34 0.485878 -0.51908 0
M  V30 2597 H 245.942 0.756578 -1.80267 0
M  V30 2598 H 244.646 2.1917 -3.46976 0
M  V30 2599 H 244.177 3.28757 -2.16061 0
M  V30 2600 H 246.192 4.53996 -2.00255 0
M  V30 2601 N 245.365 1.30045 0.890287 0
M  V30 2602 C 246.642 1.09227 1.62262 0
M  V30 2603 C 247.022 -0.360305 2.08002 0
M  V30 2604 O 246.37 -1.35084 1.84295 0
M  V30 2605 C 246.58 2.08835 2.79623 0
M  V30 2606 C 247.928 2.40266 3.50082 0
M  V30 2607 O 248.952 2.07104 2.89804 0
M  V30 2608 O 247.811 2.96967 4.58773 0
M  V30 2609 H 244.905 0.419132 0.712922 0
M  V30 2610 H 247.451 1.41451 0.937529 0
M  V30 2611 H 246.223 3.06633 2.43089 0
M  V30 2612 H 245.846 1.77397 3.55832 0
M  V30 2613 N 246.843 -1.10192 1.12674 0
M  V30 2614 C 248.259 -1.34235 0.863317 0
M  V30 2615 C 248.459 -1.95062 -0.505277 0
M  V30 2616 O 247.515 -2.19192 -1.25345 0
M  V30 2617 C 248.828 -2.2616 1.98172 0
M  V30 2618 C 250.376 -2.3969 2.0129 0
M  V30 2619 C 250.851 -3.34946 3.1237 0
M  V30 2620 N 252.342 -3.42515 3.11829 0
M  V30 2621 C 253.077 -4.16199 3.94419 0
M  V30 2622 N 252.573 -4.92747 4.87004 0
M  V30 2623 N 254.366 -4.11843 3.82547 0
M  V30 2624 H 246.517 -0.690798 2.00853 0
M  V30 2625 H 248.78 -0.366774 0.874174 0
M  V30 2626 H 248.486 -1.8868 2.96804 0
M  V30 2627 H 248.36 -3.26488 1.88906 0
M  V30 2628 H 250.747 -2.76438 1.03276 0
M  V30 2629 H 250.828 -1.39169 2.14629 0
M  V30 2630 H 250.472 -2.98923 4.10619 0
M  V30 2631 H 250.402 -4.35353 2.96269 0
M  V30 2632 H 252.893 -2.87926 2.44759 0
M  V30 2633 H 253.206 -5.46376 5.46528 0
M  V30 2634 H 251.551 -4.91862 4.91016 0
M  V30 2635 H 254.742 -3.51136 3.0955 0
M  V30 2636 H 254.915 -4.69007 4.47142 0
M  V30 2637 N 248.321 -0.919034 -1.28029 0
M  V30 2638 C 249.569 -0.553838 -1.94363 0
M  V30 2639 C 249.89 0.906357 -1.72656 0
M  V30 2640 O 249.16 1.64143 -1.0693 0
M  V30 2641 H 247.74 -0.201834 -0.719216 0
M  V30 2642 H 250.402 -1.16954 -1.55909 0
M  V30 2643 H 249.498 -0.752758 -3.02886 0
M  V30 2644 N 249.799 1.42003 -0.683588 0
M  V30 2645 C 250.762 2.29191 -0.0198243 0
M  V30 2646 C 251.762 1.43773 0.72013 0
M  V30 2647 O 252.952 1.65061 0.556815 0
M  V30 2648 C 250.084 3.26435 0.982487 0
M  V30 2649 H 251.277 2.8938 -0.787345 0
M  V30 2650 H 248.83 1.49789 -0.446418 0
M  V30 2651 H 249.565 2.71203 1.77819 0
M  V30 2652 H 249.35 3.89449 0.455182 0
M  V30 2653 H 250.84 3.918 1.44508 0
M  V30 2654 N 251.277 0.427512 1.51691 0
M  V30 2655 C 252.225 -0.403359 2.29076 0
M  V30 2656 C 253.219 -1.02962 1.34518 0
M  V30 2657 O 254.425 -0.965715 1.51901 0
M  V30 2658 H 250.8 -0.148879 0.737115 0
M  V30 2659 H 252.771 0.270295 2.97173 0
M  V30 2660 C 251.52 -1.49763 3.13794 0
M  V30 2661 H 250.843 -1.02508 3.86435 0
M  V30 2662 H 252.283 -2.05244 3.71014 0
M  V30 2663 C 250.742 -2.47536 2.28533 0
M  V30 2664 O 251.272 -3.51848 1.93819 0
M  V30 2665 N 249.478 -2.18187 1.91945 0
M  V30 2666 H 249.025 -1.33389 2.20375 0
M  V30 2667 H 248.983 -2.83848 1.35195 0
M  V30 2668 N 252.755 -1.56801 0.158532 0
M  V30 2669 C 254.002 -1.9649 -0.489679 0
M  V30 2670 C 254.33 -1.04394 -1.6411 0
M  V30 2671 O 253.585 -0.0754401 -1.95555 0
M  V30 2672 C 253.884 -3.4235 -1.02623 0
M  V30 2673 C 253.55 -4.50899 0.00794526 0
M  V30 2674 C 252.212 -4.80312 0.292207 0
M  V30 2675 C 254.564 -5.16333 0.710584 0
M  V30 2676 C 251.892 -5.72461 1.28472 0
M  V30 2677 C 254.244 -6.09553 1.69199 0
M  V30 2678 C 252.908 -6.37339 1.98383 0
M  V30 2679 H 252.178 -0.719009 -0.179186 0
M  V30 2680 H 254.825 -1.8989 0.247798 0
M  V30 2681 H 253.13 -3.45838 -1.84128 0
M  V30 2682 H 254.827 -3.70393 -1.53656 0
M  V30 2683 H 251.417 -4.28015 -0.22379 0
M  V30 2684 H 255.601 -4.93732 0.504174 0
M  V30 2685 H 250.857 -5.92278 1.51714 0
M  V30 2686 H 255.031 -6.59327 2.24189 0
M  V30 2687 H 252.658 -7.08546 2.7544 0
M  V30 2688 N 254.233 0.115231 -1.57178 0
M  V30 2689 C 255.481 0.820727 -1.84685 0
M  V30 2690 C 255.802 1.80237 -0.744279 0
M  V30 2691 O 255.072 1.94529 0.231375 0
M  V30 2692 H 253.652 0.306084 -0.681411 0
M  V30 2693 H 256.314 0.101656 -1.94635 0
M  V30 2694 H 255.41 1.36366 -2.80733 0
M  V30 2695 N 255.711 1.52812 0.385517 0
M  V30 2696 C 256.941 1.71658 1.14966 0
M  V30 2697 C 257.349 0.436253 1.84102 0
M  V30 2698 O 256.692 -0.599313 1.73649 0
M  V30 2699 C 256.754 2.81309 2.23843 0
M  V30 2700 C 256.418 4.22313 1.74644 0
M  V30 2701 C 257.415 5.05352 1.22129 0
M  V30 2702 C 255.1 4.68648 1.80761 0
M  V30 2703 C 257.094 6.32807 0.763838 0
M  V30 2704 C 254.781 5.96086 1.34627 0
M  V30 2705 C 255.779 6.77996 0.825264 0
M  V30 2706 O 255.467 8.03045 0.370669 0
M  V30 2707 H 255.199 0.578022 0.350523 0
M  V30 2708 H 257.753 2.00263 0.456509 0
M  V30 2709 H 255.983 2.48133 2.96592 0
M  V30 2710 H 257.672 2.88524 2.85497 0
M  V30 2711 H 258.438 4.70736 1.16758 0
M  V30 2712 H 254.317 4.04979 2.20256 0
M  V30 2713 H 257.861 6.96689 0.356494 0
M  V30 2714 H 253.758 6.30205 1.39686 0
M  V30 2715 H 254.526 8.17021 0.491829 0
M  V30 2716 N 257.189 -0.644168 1.43834 0
M  V30 2717 C 258.466 -1.40188 1.36406 0
M  V30 2718 C 258.846 -2.11094 0.0163124 0
M  V30 2719 O 258.194 -2.05426 -1.00062 0
M  V30 2720 C 258.404 -2.3791 2.55343 0
M  V30 2721 C 259.752 -3.01637 2.98832 0
M  V30 2722 O 260.776 -2.48237 2.55455 0
M  V30 2723 O 259.635 -3.98477 3.74003 0
M  V30 2724 H 256.729 -0.626773 0.539523 0
M  V30 2725 H 259.275 -0.670317 1.559 0
M  V30 2726 H 258.047 -1.84525 3.4506 0
M  V30 2727 H 257.67 -3.18503 2.37995 0
M  V30 2728 N 258.668 -1.30515 -0.883378 0
M  V30 2729 C 259.616 -1.16941 -2.01066 0
M  V30 2730 C 260.61 -0.0809148 -1.69207 0
M  V30 2731 O 261.816 -0.241877 -1.78367 0
M  V30 2732 H 258.191 -0.361705 -0.659298 0
M  V30 2733 H 260.162 -2.12344 -2.09649 0
M  V30 2734 C 258.911 -0.879694 -3.36388 0
M  V30 2735 H 258.234 -1.70936 -3.61415 0
M  V30 2736 H 259.674 -0.82483 -4.159 0
M  V30 2737 C 258.133 0.417409 -3.34304 0
M  V30 2738 O 258.663 1.43843 -3.75063 0
M  V30 2739 N 256.869 0.429141 -2.87414 0
M  V30 2740 H 256.416 -0.402222 -2.5444 0
M  V30 2741 H 256.374 1.29696 -2.86403 0
M  V30 2742 N 260.146 1.09593 -1.13257 0
M  V30 2743 C 261.076 2.18214 -0.830946 0
M  V30 2744 C 262.057 1.68812 0.208966 0
M  V30 2745 O 263.242 1.9408 0.0682666 0
M  V30 2746 C 260.372 3.46051 -0.294296 0
M  V30 2747 C 259.326 4.08778 -1.26826 0
M  V30 2748 C 258.652 5.31419 -0.591449 0
M  V30 2749 C 259.952 4.51476 -2.62615 0
M  V30 2750 H 261.646 2.43703 -1.73923 0
M  V30 2751 H 259.192 1.17128 -0.837675 0
M  V30 2752 H 261.145 4.2134 -0.0709606 0
M  V30 2753 H 259.869 3.20079 0.649366 0
M  V30 2754 H 258.528 3.35505 -1.47756 0
M  V30 2755 H 258.176 5.01727 0.357633 0
M  V30 2756 H 257.876 5.74341 -1.24123 0
M  V30 2757 H 259.4 6.09433 -0.377355 0
M  V30 2758 H 260.814 5.17999 -2.45663 0
M  V30 2759 H 259.211 5.05277 -3.23752 0
M  V30 2760 H 260.281 3.63962 -3.20406 0
M  V30 2761 N 261.624 0.925811 1.2754 0
M  V30 2762 C 262.87 0.566092 1.94739 0
M  V30 2763 C 263.203 -0.890057 1.72603 0
M  V30 2764 O 262.478 -1.63467 1.05399 0
M  V30 2765 C 262.761 0.89054 3.48915 0
M  V30 2766 C 262.614 2.4003 3.80402 0
M  V30 2767 C 263.933 0.395101 4.38323 0
M  V30 2768 H 261.052 0.20714 0.707292 0
M  V30 2769 H 263.694 1.15725 1.50691 0
M  V30 2770 H 261.844 0.387452 3.86563 0
M  V30 2771 H 263.516 2.97494 3.52555 0
M  V30 2772 H 261.759 2.85028 3.2702 0
M  V30 2773 H 262.43 2.57785 4.8811 0
M  V30 2774 H 264.906 0.826241 4.07814 0
M  V30 2775 H 263.782 0.651086 5.45025 0
M  V30 2776 H 264.043 -0.704798 4.36446 0
M  V30 2777 N 263.102 -1.41638 0.69111 0
M  V30 2778 C 264.348 -2.01598 0.220519 0
M  V30 2779 C 264.681 -1.54594 -1.17535 0
M  V30 2780 O 263.956 -0.755177 -1.79241 0
M  V30 2781 C 264.239 -3.59062 0.273243 0
M  V30 2782 C 264.092 -4.16203 1.70573 0
M  V30 2783 C 265.411 -4.38546 -0.369457 0
M  V30 2784 H 262.53 -0.732468 0.0816045 0
M  V30 2785 H 265.172 -1.68445 0.878986 0
M  V30 2786 H 263.322 -3.87435 -0.287411 0
M  V30 2787 H 264.994 -3.98722 2.31989 0
M  V30 2788 H 263.237 -3.71414 2.2413 0
M  V30 2789 H 263.908 -5.25358 1.69419 0
M  V30 2790 H 266.384 -4.1596 0.107977 0
M  V30 2791 H 265.26 -5.48069 -0.302002 0
M  V30 2792 H 265.521 -4.17662 -1.44951 0
M  V30 2793 N 264.58 -0.43555 -1.51462 0
M  V30 2794 C 265.857 0.191364 -1.94662 0
M  V30 2795 C 266.237 1.60254 -1.37411 0
M  V30 2796 O 265.585 2.2152 -0.560458 0
M  V30 2797 C 265.795 0.17091 -3.48581 0
M  V30 2798 C 267.143 0.377357 -4.2292 0
M  V30 2799 O 268.167 0.249104 -3.55328 0
M  V30 2800 O 267.026 0.63247 -5.42828 0
M  V30 2801 H 264.12 0.130932 -0.816569 0
M  V30 2802 H 266.666 -0.4934 -1.62369 0
M  V30 2803 H 265.438 -0.815738 -3.82703 0
M  V30 2804 H 265.061 0.898659 -3.87311 0
M  V30 2805 N 266.058 1.56714 -0.166846 0
M  V30 2806 C 266.991 2.13577 0.80375 0
M  V30 2807 C 267.969 1.06464 1.22899 0
M  V30 2808 O 269.153 1.34413 1.32157 0
M  V30 2809 C 266.28 2.67168 2.0818 0
M  V30 2810 C 265.326 3.86612 1.80093 0
M  V30 2811 S 266.159 5.26565 0.97416 0
M  V30 2812 C 267.315 5.83558 2.26297 0
M  V30 2813 H 267.548 2.9557 0.320267 0
M  V30 2814 H 265.081 1.54326 0.0477555 0
M  V30 2815 H 267.039 2.98692 2.8159 0
M  V30 2816 H 265.7 1.85269 2.53642 0
M  V30 2817 H 264.893 4.22422 2.7491 0
M  V30 2818 H 264.495 3.55951 1.14781 0
M  V30 2819 H 266.787 5.962 3.21795 0
M  V30 2820 H 267.73 6.80731 1.94962 0
M  V30 2821 H 268.138 5.11944 2.37853 0
M  V30 2822 N 267.536 -0.106894 1.57237 0
M  V30 2823 C 268.466 -1.13148 2.04254 0
M  V30 2824 C 269.447 -1.42476 0.929224 0
M  V30 2825 O 270.632 -1.52709 1.19973 0
M  V30 2826 C 267.762 -2.4545 2.45706 0
M  V30 2827 C 266.716 -2.30558 3.60592 0
M  V30 2828 C 266.042 -3.67931 3.87983 0
M  V30 2829 C 267.342 -1.75597 4.91897 0
M  V30 2830 H 269.036 -0.740374 2.90101 0
M  V30 2831 H 266.582 -0.354696 1.39563 0
M  V30 2832 H 268.535 -3.17389 2.77205 0
M  V30 2833 H 267.259 -2.86475 1.56843 0
M  V30 2834 H 265.918 -1.61067 3.29322 0
M  V30 2835 H 265.566 -4.06462 2.96306 0
M  V30 2836 H 265.266 -3.58817 4.65322 0
M  V30 2837 H 266.79 -4.41356 4.21945 0
M  V30 2838 H 268.204 -2.37364 5.21854 0
M  V30 2839 H 266.601 -1.77272 5.73319 0
M  V30 2840 H 267.671 -0.714451 4.79608 0
M  V30 2841 N 269.014 -1.53014 -0.377408 0
M  V30 2842 C 270.262 -1.6829 -1.11906 0
M  V30 2843 C 270.583 -0.431206 -1.90173 0
M  V30 2844 O 269.853 0.554595 -1.87886 0
M  V30 2845 H 268.433 -0.620371 -0.416112 0
M  V30 2846 H 271.095 -1.90167 -0.426893 0
M  V30 2847 H 270.191 -2.53862 -1.8155 0
M  V30 2848 N 270.492 0.636531 -1.44174 0
M  V30 2849 C 271.739 1.39619 -1.46672 0
M  V30 2850 C 272.067 1.94257 -0.0972691 0
M  V30 2851 O 271.322 1.73768 0.900175 0
M  V30 2852 C 271.621 2.58309 -2.47005 0
M  V30 2853 C 271.287 2.21992 -3.92467 0
M  V30 2854 C 269.949 2.118 -4.32081 0
M  V30 2855 C 272.301 1.9321 -4.84065 0
M  V30 2856 C 269.629 1.71007 -5.61225 0
M  V30 2857 C 271.981 1.53911 -6.13591 0
M  V30 2858 C 270.645 1.42257 -6.52165 0
M  V30 2859 H 269.915 0.510902 -0.536712 0
M  V30 2860 H 272.562 0.722328 -1.77355 0
M  V30 2861 H 270.867 3.30903 -2.09786 0
M  V30 2862 H 272.564 3.16533 -2.46186 0
M  V30 2863 H 269.154 2.30841 -3.61124 0
M  V30 2864 H 273.338 1.99997 -4.54219 0
M  V30 2865 H 268.594 1.60583 -5.89935 0
M  V30 2866 H 272.768 1.30677 -6.8403 0
M  V30 2867 H 270.395 1.10419 -7.52138 0
M  V30 2868 N 271.97 1.30982 0.876444 0
M  V30 2869 C 273.195 1.23373 1.66715 0
M  V30 2870 C 273.62 -0.19885 1.87046 0
M  V30 2871 O 272.978 -1.1427 1.40756 0
M  V30 2872 C 273.026 1.97644 3.01611 0
M  V30 2873 O 272.13 1.30935 3.91062 0
M  V30 2874 H 271.471 0.426279 0.509099 0
M  V30 2875 H 274.001 1.72944 1.09323 0
M  V30 2876 H 274.011 2.06992 3.51594 0
M  V30 2877 H 272.686 3.01829 2.86133 0
M  V30 2878 H 271.263 1.29996 3.49507 0
M  V30 2879 N 273.449 -1.08991 1.13837 0
M  V30 2880 C 274.698 -1.80631 0.897509 0
M  V30 2881 C 275.011 -1.86872 -0.57777 0
M  V30 2882 O 276.217 -2.54866 -0.935701 0
M  V30 2883 C 274.673 -3.24517 1.55618 0
M  V30 2884 C 274.281 -3.26529 3.0673 0
M  V30 2885 C 276.025 -4.00882 1.3962 0
M  V30 2886 C 273.932 -4.64965 3.65461 0
M  V30 2887 H 272.862 -0.67691 0.332129 0
M  V30 2888 H 275.513 -1.2246 1.3666 0
M  V30 2889 H 273.895 -3.82778 1.01476 0
M  V30 2890 H 275.069 -2.78008 3.67489 0
M  V30 2891 H 273.384 -2.63656 3.22296 0
M  V30 2892 H 275.981 -5.03167 1.80906 0
M  V30 2893 H 276.324 -4.14896 0.341578 0
M  V30 2894 H 276.857 -3.49075 1.90766 0
M  V30 2895 H 273.596 -4.56153 4.70749 0
M  V30 2896 H 273.116 -5.13792 3.09481 0
M  V30 2897 H 274.795 -5.3394 3.654 0
M  V30 2898 N 274.927 -0.932562 -1.27047 0
M  V30 2899 C 275.86 -0.379774 -2.25018 0
M  V30 2900 C 276.838 0.526587 -1.53837 0
M  V30 2901 O 278.022 0.465992 -1.82649 0
M  V30 2902 C 275.149 0.455187 -3.35627 0
M  V30 2903 C 274.195 -0.388428 -4.24728 0
M  V30 2904 S 275.028 -1.80701 -5.04091 0
M  V30 2905 C 276.184 -0.979865 -6.18182 0
M  V30 2906 H 276.417 -1.2101 -2.71558 0
M  V30 2907 H 273.95 -0.735078 -1.35779 0
M  V30 2908 H 275.908 0.931052 -3.99802 0
M  V30 2909 H 274.569 1.26009 -2.87716 0
M  V30 2910 H 273.762 0.25089 -5.03375 0
M  V30 2911 H 273.364 -0.798649 -3.65373 0
M  V30 2912 H 275.656 -0.218115 -6.77149 0
M  V30 2913 H 276.599 -1.73951 -6.86401 0
M  V30 2914 H 277.007 -0.51973 -5.62102 0
M  V30 2915 N 276.405 1.4127 -0.698611 0
M  V30 2916 C 277.352 2.30773 -0.0352094 0
M  V30 2917 C 278.322 1.47273 0.768111 0
M  V30 2918 O 279.507 1.76053 0.735524 0
M  V30 2919 C 276.647 3.33346 0.893 0
M  V30 2920 C 275.76 4.31924 0.0809695 0
M  V30 2921 C 274.895 5.21566 1.0071 0
M  V30 2922 C 273.934 6.11811 0.188155 0
M  V30 2923 N 273.071 6.93926 1.06825 0
M  V30 2924 H 277.911 2.86943 -0.804207 0
M  V30 2925 H 275.448 1.4132 -0.408294 0
M  V30 2926 H 277.406 3.91368 1.44523 0
M  V30 2927 H 276.036 2.78719 1.62836 0
M  V30 2928 H 275.088 3.75825 -0.588224 0
M  V30 2929 H 276.4 4.95716 -0.553801 0
M  V30 2930 H 275.554 5.84437 1.62845 0
M  V30 2931 H 274.293 4.58008 1.67572 0
M  V30 2932 H 273.298 5.47986 -0.446254 0
M  V30 2933 H 274.523 6.77425 -0.476716 0
M  V30 2934 H 272.469 6.32973 1.72283 0
M  V30 2935 H 272.386 7.54416 0.489123 0
M  V30 2936 H 273.654 7.61262 1.67632 0
M  V30 2937 N 277.883 0.443576 1.51229 0
M  V30 2938 C 278.83 -0.364716 2.279 0
M  V30 2939 C 279.8 -1.0114 1.31757 0
M  V30 2940 O 280.985 -1.02912 1.60667 0
M  V30 2941 C 278.125 -1.45644 3.12861 0
M  V30 2942 C 277.238 -0.827269 4.24005 0
M  V30 2943 C 276.373 -1.89456 4.96266 0
M  V30 2944 C 275.412 -1.24416 5.99322 0
M  V30 2945 N 274.549 -2.25309 6.64966 0
M  V30 2946 H 279.389 0.295464 2.96532 0
M  V30 2947 H 276.926 0.157554 1.46254 0
M  V30 2948 H 278.884 -2.10076 3.6045 0
M  V30 2949 H 277.514 -2.08616 2.46331 0
M  V30 2950 H 276.566 -0.0710839 3.80334 0
M  V30 2951 H 277.878 -0.312481 4.9782 0
M  V30 2952 H 277.032 -2.61535 5.47434 0
M  V30 2953 H 275.771 -2.4431 4.22095 0
M  V30 2954 H 274.776 -0.508868 5.4744 0
M  V30 2955 H 276.001 -0.702882 6.75453 0
M  V30 2956 H 273.947 -2.79231 5.93604 0
M  V30 2957 H 273.864 -1.78739 7.34567 0
M  V30 2958 H 275.132 -2.96853 7.20763 0
M  V30 2959 N 279.361 -1.56624 0.175154 0
M  V30 2960 C 280.607 -1.9729 -0.469506 0
M  V30 2961 C 280.94 -1.06128 -1.62636 0
M  V30 2962 O 280.215 -0.109183 -1.94193 0
M  V30 2963 C 280.498 -3.47375 -0.948804 0
M  V30 2964 C 280.351 -4.49317 0.208491 0
M  V30 2965 C 281.67 -4.00652 -1.82116 0
M  V30 2966 H 278.789 -0.717317 -0.16919 0
M  V30 2967 H 281.431 -1.88184 0.262062 0
M  V30 2968 H 279.581 -3.55267 -1.57219 0
M  V30 2969 H 281.253 -4.53482 0.845682 0
M  V30 2970 H 279.496 -4.25121 0.863395 0
M  V30 2971 H 280.167 -5.51741 -0.169059 0
M  V30 2972 H 282.643 -3.95416 -1.2956 0
M  V30 2973 H 281.519 -5.06075 -2.12554 0
M  V30 2974 H 281.78 -3.44699 -2.7683 0
M  V30 2975 N 280.839 0.0985539 -1.57292 0
M  V30 2976 C 282.064 0.820196 -1.90493 0
M  V30 2977 C 282.489 1.71658 -0.769094 0
M  V30 2978 O 281.847 1.79133 0.279495 0
M  V30 2979 C 281.895 1.61242 -3.22542 0
M  V30 2980 O 280.999 2.72108 -3.09888 0
M  V30 2981 H 280.34 0.225547 -0.62452 0
M  V30 2982 H 282.87 0.0748159 -2.04463 0
M  V30 2983 H 282.88 1.99737 -3.55766 0
M  V30 2984 H 281.555 0.954535 -4.04798 0
M  V30 2985 H 280.132 2.36667 -2.88172 0
M  V30 2986 N 282.317 1.53212 0.369288 0
M  V30 2987 C 283.565 1.68881 1.11012 0
M  V30 2988 C 283.886 0.441285 1.89941 0
M  V30 2989 O 283.156 -0.544623 1.88177 0
M  V30 2990 H 281.736 0.622569 0.412816 0
M  V30 2991 H 284.398 1.90391 0.416802 0
M  V30 2992 H 283.494 2.54822 1.80201 0
M  V30 2993 N 283.795 -0.628877 1.44509 0
M  V30 2994 C 284.743 -1.76193 1.51852 0
M  V30 2995 C 285.737 -1.64849 0.390042 0
M  V30 2996 O 286.943 -1.709 0.565082 0
M  V30 2997 H 283.318 -0.581728 0.476547 0
M  V30 2998 H 285.289 -1.67123 2.47209 0
M  V30 2999 C 284.038 -3.14533 1.48204 0
M  V30 3000 H 283.361 -3.23911 2.34354 0
M  V30 3001 H 284.801 -3.93701 1.57402 0
M  V30 3002 C 283.26 -3.36287 0.203142 0
M  V30 3003 O 283.79 -3.9509 -0.725745 0
M  V30 3004 N 281.996 -2.90408 0.105563 0
M  V30 3005 H 281.543 -2.42739 0.862301 0
M  V30 3006 H 281.501 -3.05339 -0.749371 0
M  V30 3007 N 285.273 -1.31445 -0.869486 0
M  V30 3008 C 286.498 -1.24256 -1.66058 0
M  V30 3009 C 286.923 0.188928 -1.87149 0
M  V30 3010 O 286.281 1.13522 -1.4136 0
M  V30 3011 C 286.329 -1.9924 -3.00559 0
M  V30 3012 O 285.433 -1.33007 -3.90362 0
M  V30 3013 H 284.774 -0.428973 -0.506831 0
M  V30 3014 H 287.304 -1.73521 -1.08404 0
M  V30 3015 H 287.314 -2.08854 -3.50491 0
M  V30 3016 H 285.989 -3.03342 -2.84528 0
M  V30 3017 H 284.566 -1.31848 -3.48813 0
M  V30 3018 N 286.751 1.08385 -1.14413 0
M  V30 3019 C 288.162 1.62258 -0.923535 0
M  V30 3020 C 288.513 1.88691 0.537595 0
M  V30 3021 O 287.638 1.64454 1.40655 0
M  V30 3022 C 288.233 2.94781 -1.67002 0
M  V30 3023 C 286.792 3.45437 -1.495 0
M  V30 3024 C 285.939 2.19668 -1.69238 0
M  V30 3025 H 288.89 0.916086 -1.2959 0
M  V30 3026 H 288.911 3.63229 -1.13334 0
M  V30 3027 H 288.423 2.7551 -2.73342 0
M  V30 3028 H 286.524 3.6981 -0.455097 0
M  V30 3029 H 286.637 4.22173 -2.2651 0
M  V30 3030 H 285.001 2.28849 -1.11804 0
M  V30 3031 H 285.784 2.02905 -2.7692 0
M  V30 3032 N 288.23 0.939286 1.26551 0
M  V30 3033 C 289.476 0.586715 1.94128 0
M  V30 3034 C 289.809 -0.8717 1.73537 0
M  V30 3035 O 289.084 -1.62339 1.07127 0
M  V30 3036 C 289.367 0.927497 3.4795 0
M  V30 3037 C 289.22 2.44052 3.77834 0
M  V30 3038 C 290.539 0.441569 4.37879 0
M  V30 3039 H 287.658 0.21463 0.705055 0
M  V30 3040 H 290.3 1.17316 1.49455 0
M  V30 3041 H 288.45 0.428431 3.8613 0
M  V30 3042 H 290.122 3.01216 3.4938 0
M  V30 3043 H 288.365 2.8848 3.23978 0
M  V30 3044 H 289.036 2.62947 4.85348 0
M  V30 3045 H 291.512 0.869448 4.06915 0
M  V30 3046 H 290.388 0.708856 5.44304 0
M  V30 3047 H 290.649 -0.658467 4.37169 0
M  V30 3048 N 289.708 -1.40897 0.706093 0
M  V30 3049 C 290.957 -2.00284 0.238574 0
M  V30 3050 C 291.27 -1.56604 -1.17194 0
M  V30 3051 O 292.476 -2.08624 -1.73748 0
M  V30 3052 C 290.932 -3.57934 0.375623 0
M  V30 3053 C 290.54 -4.10591 1.79217 0
M  V30 3054 C 292.284 -4.24488 -0.0315857 0
M  V30 3055 C 290.191 -5.60712 1.88032 0
M  V30 3056 H 289.121 -0.749144 0.0854398 0
M  V30 3057 H 291.772 -1.61251 0.875813 0
M  V30 3058 H 290.154 -3.94622 -0.330042 0
M  V30 3059 H 291.328 -3.85301 2.52745 0
M  V30 3060 H 289.643 -3.56601 2.15 0
M  V30 3061 H 292.24 -5.34698 0.0136842 0
M  V30 3062 H 292.583 -4.02261 -1.072 0
M  V30 3063 H 293.116 -3.92873 0.624181 0
M  V30 3064 H 289.855 -5.87781 2.90161 0
M  V30 3065 H 289.375 -5.87896 1.18903 0
M  V30 3066 H 291.054 -6.25658 1.64805 0
M  V30 3067 N 291.186 -0.45159 -1.50991 0
M  V30 3068 C 292.433 0.110074 -2.02201 0
M  V30 3069 C 292.761 1.4146 -1.33489 0
M  V30 3070 O 292.016 1.90617 -0.443125 0
M  V30 3071 C 292.315 0.361728 -3.55565 0
M  V30 3072 C 291.981 -0.858717 -4.42648 0
M  V30 3073 C 290.643 -1.19338 -4.66167 0
M  V30 3074 C 292.995 -1.67221 -4.93646 0
M  V30 3075 C 290.323 -2.34195 -5.37931 0
M  V30 3076 C 292.675 -2.8119 -5.6667 0
M  V30 3077 C 291.339 -3.15094 -5.88449 0
M  V30 3078 H 290.609 0.040279 -0.739904 0
M  V30 3079 H 293.256 -0.601696 -1.81802 0
M  V30 3080 H 291.561 1.15554 -3.74372 0
M  V30 3081 H 293.258 0.80996 -3.92735 0
M  V30 3082 H 289.848 -0.58796 -4.24548 0
M  V30 3083 H 294.032 -1.42686 -4.75347 0
M  V30 3084 H 289.288 -2.6076 -5.53005 0
M  V30 3085 H 293.462 -3.44585 -6.05173 0
M  V30 3086 H 291.089 -4.04204 -6.43835 0
M  V30 3087 N 292.664 1.56529 -0.183458 0
M  V30 3088 C 293.941 1.88959 0.50536 0
M  V30 3089 C 294.321 1.09523 1.80466 0
M  V30 3090 O 293.669 0.19278 2.27685 0
M  V30 3091 C 293.879 3.41162 0.73547 0
M  V30 3092 C 295.227 4.11155 1.06005 0
M  V30 3093 O 296.251 3.46548 0.823594 0
M  V30 3094 O 295.11 5.25318 1.50675 0
M  V30 3095 H 292.204 0.78441 0.261973 0
M  V30 3096 H 294.75 1.68231 -0.222802 0
M  V30 3097 H 293.522 3.90874 -0.182561 0
M  V30 3098 H 293.145 3.67543 1.51651 0
M  V30 3099 N 294.142 -0.090211 1.57342 0
M  V30 3100 C 295.388 -0.793982 1.86611 0
M  V30 3101 C 295.721 -1.78142 0.773252 0
M  V30 3102 O 294.996 -1.93271 -0.218304 0
M  V30 3103 C 295.279 -1.51839 3.26523 0
M  V30 3104 C 295.132 -0.548609 4.46442 0
M  V30 3105 C 296.451 -2.46779 3.64401 0
M  V30 3106 H 293.57 -0.287186 0.678744 0
M  V30 3107 H 296.212 -0.0575076 1.89913 0
M  V30 3108 H 294.362 -2.14617 3.23839 0
M  V30 3109 H 296.034 0.0725513 4.61243 0
M  V30 3110 H 294.277 0.137614 4.33582 0
M  V30 3111 H 294.948 -1.09271 5.41076 0
M  V30 3112 H 297.424 -1.94089 3.68061 0
M  V30 3113 H 296.3 -2.94479 4.63221 0
M  V30 3114 H 296.561 -3.30758 2.93346 0
M  V30 3115 N 295.62 -1.53406 -0.361157 0
M  V30 3116 C 296.848 -1.73717 -1.12383 0
M  V30 3117 C 297.263 -0.468161 -1.82904 0
M  V30 3118 O 296.62 0.559198 -1.73722 0
M  V30 3119 C 296.671 -2.90558 -2.15078 0
M  V30 3120 O 296.392 -4.12549 -1.47428 0
M  V30 3121 C 297.893 -3.22777 -3.03858 0
M  V30 3122 H 295.113 -0.580896 -0.335858 0
M  V30 3123 H 297.657 -2.00167 -0.418728 0
M  V30 3124 H 295.812 -2.66489 -2.8118 0
M  V30 3125 H 296.226 -4.78009 -2.15887 0
M  V30 3126 H 297.7 -4.07927 -3.71887 0
M  V30 3127 H 298.177 -2.38329 -3.68912 0
M  V30 3128 H 298.783 -3.48787 -2.43367 0
M  V30 3129 N 297.098 0.621204 -1.44841 0
M  V30 3130 C 298.048 1.72663 -1.48901 0
M  V30 3131 C 299.032 1.56964 -0.353702 0
M  V30 3132 O 300.224 1.66532 -0.599669 0
M  V30 3133 C 297.353 3.11381 -1.44557 0
M  V30 3134 C 296.439 3.32514 -2.6324 0
M  V30 3135 N 296.83 3.23969 -3.8843 0
M  V30 3136 C 295.128 3.63343 -2.58647 0
M  V30 3137 C 295.829 3.46062 -4.67564 0
M  V30 3138 N 294.805 3.69407 -3.98797 0
M  V30 3139 H 298.607 1.64529 -2.43531 0
M  V30 3140 H 296.121 0.82401 -1.39942 0
M  V30 3141 H 298.118 3.90667 -1.4555 0
M  V30 3142 H 296.778 3.20674 -0.509731 0
M  V30 3143 H 297.789 3.02669 -4.20252 0
M  V30 3144 H 294.466 3.79556 -1.73906 0
M  V30 3145 H 295.856 3.44963 -5.76585 0
M  V30 3146 N 298.576 1.31904 0.862503 0
M  V30 3147 C 299.539 1.20131 1.95195 0
M  V30 3148 C 300.539 0.126409 1.60302 0
M  V30 3149 O 301.729 0.376234 1.70089 0
M  V30 3150 C 298.861 0.845691 3.30244 0
M  V30 3151 H 300.054 2.16943 2.07064 0
M  V30 3152 H 297.607 1.15622 1.05172 0
M  V30 3153 H 298.342 -0.120957 3.24074 0
M  V30 3154 H 298.127 1.62276 3.56944 0
M  V30 3155 H 299.617 0.787418 4.10109 0
M  V30 3156 N 300.054 -1.07777 1.14986 0
M  V30 3157 C 300.984 -2.16865 0.865557 0
M  V30 3158 C 301.965 -1.69123 -0.182083 0
M  V30 3159 O 303.15 -1.94164 -0.0373815 0
M  V30 3160 C 300.28 -3.45539 0.349313 0
M  V30 3161 C 299.234 -4.06708 1.33313 0
M  V30 3162 C 298.56 -5.30411 0.675918 0
M  V30 3163 C 299.86 -4.47241 2.69764 0
M  V30 3164 H 301.554 -2.40905 1.77778 0
M  V30 3165 H 299.1 -1.15781 0.856203 0
M  V30 3166 H 301.053 -4.21174 0.137983 0
M  V30 3167 H 299.777 -3.21072 -0.598362 0
M  V30 3168 H 298.436 -3.33112 1.53075 0
M  V30 3169 H 298.084 -5.02232 -0.277767 0
M  V30 3170 H 297.784 -5.72293 1.33244 0
M  V30 3171 H 299.308 -6.08755 0.474262 0
M  V30 3172 H 300.722 -5.14025 2.53873 0
M  V30 3173 H 299.119 -5.00062 3.3175 0
M  V30 3174 H 300.189 -3.58818 3.26156 0
M  V30 3175 N 301.532 -0.945985 -1.26051 0
M  V30 3176 C 302.464 -0.416662 -2.25381 0
M  V30 3177 C 303.477 0.462712 -1.56086 0
M  V30 3178 O 304.666 0.272383 -1.7641 0
M  V30 3179 C 301.766 0.419812 -3.3629 0
M  V30 3180 C 300.939 -0.444531 -4.35135 0
M  V30 3181 C 299.998 0.332305 -5.2515 0
M  V30 3182 O 299.024 -0.266324 -5.68577 0
M  V30 3183 N 300.226 1.62763 -5.57215 0
M  V30 3184 H 302.991 -1.27059 -2.71433 0
M  V30 3185 H 300.552 -0.815392 -1.39868 0
M  V30 3186 H 302.544 0.947013 -3.93464 0
M  V30 3187 H 301.114 1.17456 -2.89694 0
M  V30 3188 H 300.334 -1.15291 -3.76964 0
M  V30 3189 H 301.622 -1.03478 -4.98166 0
M  V30 3190 H 301.02 2.13603 -5.23823 0
M  V30 3191 H 299.577 2.10097 -6.17011 0
M  V30 3192 N 303.011 1.40521 -0.713556 0
M  V30 3193 C 304.251 2.02783 -0.256584 0
M  V30 3194 C 304.615 1.55352 1.12827 0
M  V30 3195 O 305.816 2.09663 1.68211 0
M  V30 3196 C 304.087 3.5586 -0.331414 0
M  V30 3197 S 305.646 4.38773 0.0488703 0
M  V30 3198 H 302.464 0.703655 -0.101934 0
M  V30 3199 H 305.066 1.71674 -0.935325 0
M  V30 3200 H 303.77 3.87874 -1.34098 0
M  V30 3201 H 303.301 3.91695 0.365873 0
M  V30 3202 H 305.316 4.79633 1.2715 0
M  V30 3203 N 304.489 0.459591 1.5075 0
M  V30 3204 C 305.905 0.113092 1.59199 0
M  V30 3205 C 306.105 -1.37951 1.46874 0
M  V30 3206 O 305.161 -2.15168 1.32132 0
M  V30 3207 C 306.474 0.653043 2.93523 0
M  V30 3208 C 308.022 0.615449 3.0689 0
M  V30 3209 C 308.497 1.13275 4.43771 0
M  V30 3210 N 309.988 1.09167 4.50152 0
M  V30 3211 C 310.723 1.46256 5.54434 0
M  V30 3212 N 310.219 1.90739 6.66026 0
M  V30 3213 N 312.012 1.37932 5.44914 0
M  V30 3214 H 304.163 1.43049 1.57005 0
M  V30 3215 H 306.426 0.590861 0.741341 0
M  V30 3216 H 306.132 1.69822 3.07983 0
M  V30 3217 H 306.006 0.0902132 3.77092 0
M  V30 3218 H 308.393 -0.420793 2.92084 0
M  V30 3219 H 308.474 1.21495 2.25106 0
M  V30 3220 H 308.118 2.16757 4.59324 0
M  V30 3221 H 308.048 0.509576 5.24129 0
M  V30 3222 H 310.539 0.76528 3.7007 0
M  V30 3223 H 310.852 2.17218 7.41644 0
M  V30 3224 H 309.197 1.94683 6.67176 0
M  V30 3225 H 312.388 1.0303 4.56621 0
M  V30 3226 H 312.561 1.67164 6.26067 0
M  V30 3227 N 305.967 -1.56429 0.191757 0
M  V30 3228 C 307.244 -1.89224 -0.495332 0
M  V30 3229 C 307.624 -1.10478 -1.79883 0
M  V30 3230 O 306.972 -0.204852 -2.2758 0
M  V30 3231 C 307.182 -3.41548 -0.717367 0
M  V30 3232 C 308.53 -4.11711 -1.03823 0
M  V30 3233 O 309.554 -3.4698 -0.805204 0
M  V30 3234 O 308.413 -5.2611 -1.47887 0
M  V30 3235 H 305.507 -0.785788 -0.25781 0
M  V30 3236 H 308.053 -1.68111 0.231721 0
M  V30 3237 H 306.825 -3.90772 0.203287 0
M  V30 3238 H 306.448 -3.68342 -1.497 0
M  V30 3239 N 307.445 0.0818655 -1.57387 0
M  V30 3240 C 308.856 0.634871 -1.75574 0
M  V30 3241 C 309.207 1.78435 -0.815809 0
M  V30 3242 O 308.332 2.164 0.0025366 0
M  V30 3243 C 308.927 1.15845 -3.18379 0
M  V30 3244 C 307.486 1.65741 -3.37945 0
M  V30 3245 C 306.633 0.572549 -2.71325 0
M  V30 3246 H 309.584 -0.144268 -1.58043 0
M  V30 3247 H 309.605 2.02751 -3.21982 0
M  V30 3248 H 309.117 0.321631 -3.86765 0
M  V30 3249 H 307.218 2.51781 -2.74658 0
M  V30 3250 H 307.331 1.74129 -4.46336 0
M  V30 3251 H 305.695 1.01518 -2.33594 0
M  V30 3252 H 306.478 -0.253918 -3.4236 0
M  V30 3253 N 308.923 1.53595 0.353017 0
M  V30 3254 C 310.17 1.70385 1.09431 0
M  V30 3255 C 310.498 0.462113 1.88931 0
M  V30 3256 O 309.753 -0.556074 1.87633 0
M  V30 3257 C 310.052 2.91313 2.07054 0
M  V30 3258 C 309.718 4.27308 1.43939 0
M  V30 3259 C 308.38 4.64287 1.26454 0
M  V30 3260 C 310.732 5.11829 0.983883 0
M  V30 3261 C 308.06 5.83412 0.620226 0
M  V30 3262 C 310.412 6.31611 0.353516 0
M  V30 3263 C 309.076 6.67293 0.166272 0
M  V30 3264 H 308.346 0.623484 0.400436 0
M  V30 3265 H 310.993 1.87799 0.374655 0
M  V30 3266 H 309.298 2.68463 2.85368 0
M  V30 3267 H 310.995 3.01497 2.64387 0
M  V30 3268 H 307.585 3.98198 1.58543 0
M  V30 3269 H 311.769 4.838 1.10685 0
M  V30 3270 H 307.025 6.09639 0.463681 0
M  V30 3271 H 311.199 6.964 -0.00757555 0
M  V30 3272 H 308.826 7.59461 -0.335047 0
M  V30 3273 N 310.401 -0.613514 1.45168 0
M  V30 3274 C 311.649 -1.36997 1.48581 0
M  V30 3275 C 311.97 -1.94589 0.126545 0
M  V30 3276 O 311.24 -1.76816 -0.843372 0
M  V30 3277 H 309.82 -0.508558 0.547154 0
M  V30 3278 H 312.482 -0.720853 1.81079 0
M  V30 3279 H 311.578 -2.1924 2.22127 0
M  V30 3280 N 311.879 -1.3236 -0.855495 0
M  V30 3281 C 312.842 -1.21164 -1.94556 0
M  V30 3282 C 313.842 -0.134908 -1.60233 0
M  V30 3283 O 315.032 -0.385249 -1.69887 0
M  V30 3284 C 312.164 -0.863192 -3.29791 0
M  V30 3285 H 313.357 -2.18038 -2.05911 0
M  V30 3286 H 310.91 -1.16179 -1.04557 0
M  V30 3287 H 311.645 0.103769 -3.24134 0
M  V30 3288 H 311.43 -1.64166 -3.56078 0
M  V30 3289 H 312.92 -0.809156 -4.09686 0
M  V30 3290 N 313.357 1.07166 -1.15556 0
M  V30 3291 C 314.32 2.12589 -0.856644 0
M  V30 3292 C 315.32 1.6015 0.14444 0
M  V30 3293 O 316.51 1.7399 -0.0854163 0
M  V30 3294 C 313.642 3.39753 -0.279405 0
M  V30 3295 H 314.835 2.40539 -1.79112 0
M  V30 3296 H 312.388 1.23086 -0.963298 0
M  V30 3297 H 313.123 3.17447 0.663174 0
M  V30 3298 H 312.908 3.79117 -1.00063 0
M  V30 3299 H 314.398 4.17507 -0.0879113 0
M  V30 3300 N 314.835 0.952656 1.25548 0
M  V30 3301 C 316.06 0.623025 1.97821 0
M  V30 3302 C 316.485 -0.7976 1.70352 0
M  V30 3303 O 315.843 -1.53905 0.958283 0
M  V30 3304 C 315.891 0.885532 3.49558 0
M  V30 3305 O 314.995 -0.0366641 4.12384 0
M  V30 3306 H 314.336 0.237082 0.620232 0
M  V30 3307 H 316.866 1.27871 1.59719 0
M  V30 3308 H 316.876 0.811009 3.99858 0
M  V30 3309 H 315.551 1.92094 3.6888 0
M  V30 3310 H 314.128 0.0898954 3.72792 0
M  V30 3311 N 316.313 -1.40141 0.720998 0
M  V30 3312 C 317.561 -2.0039 0.262323 0
M  V30 3313 C 317.882 -1.57469 -1.15015 0
M  V30 3314 O 317.152 -0.816582 -1.78069 0
M  V30 3315 H 315.732 -0.741063 0.093996 0
M  V30 3316 H 318.394 -1.71398 0.927835 0
M  V30 3317 H 317.49 -3.10658 0.299671 0
M  V30 3318 N 317.792 -0.46758 -1.50504 0
M  V30 3319 C 319.04 0.0884469 -2.01906 0
M  V30 3320 C 319.361 1.40532 -1.35188 0
M  V30 3321 O 318.631 1.89515 -0.496079 0
M  V30 3322 H 317.211 0.0356765 -0.746148 0
M  V30 3323 H 319.873 -0.6172 -1.84869 0
M  V30 3324 H 318.969 0.2425 -3.11156 0
M  V30 3325 N 319.27 1.56325 -0.20005 0
M  V30 3326 C 320.686 1.58839 0.155716 0
M  V30 3327 C 320.886 1.21636 1.60645 0
M  V30 3328 O 319.942 0.941437 2.34293 0
M  V30 3329 C 321.255 3.0032 -0.151124 0
M  V30 3330 C 322.803 3.12866 -0.0916284 0
M  V30 3331 C 323.278 4.56488 -0.371845 0
M  V30 3332 N 324.769 4.62089 -0.320641 0
M  V30 3333 C 325.504 5.71116 -0.511243 0
M  V30 3334 N 325 6.88592 -0.762461 0
M  V30 3335 N 326.793 5.60335 -0.445157 0
M  V30 3336 H 318.944 1.78788 -1.14668 0
M  V30 3337 H 321.207 0.829996 -0.458051 0
M  V30 3338 H 320.913 3.32117 -1.15721 0
M  V30 3339 H 320.787 3.73257 0.543986 0
M  V30 3340 H 323.174 2.80878 0.905065 0
M  V30 3341 H 323.255 2.42304 -0.81989 0
M  V30 3342 H 322.899 4.89189 -1.36588 0
M  V30 3343 H 322.829 5.25246 0.377362 0
M  V30 3344 H 325.32 3.77665 -0.13329 0
M  V30 3345 H 325.633 7.67581 -0.896576 0
M  V30 3346 H 323.978 6.90387 -0.799412 0
M  V30 3347 H 327.169 4.67436 -0.249278 0
M  V30 3348 H 327.342 6.45243 -0.597116 0
M  V30 3349 N 320.748 -0.0735177 1.57428 0
M  V30 3350 C 322.164 -0.428264 1.53747 0
M  V30 3351 C 322.364 -1.79272 0.91998 0
M  V30 3352 O 321.42 -2.47051 0.521745 0
M  V30 3353 C 322.733 -0.370914 2.98404 0
M  V30 3354 C 324.281 -0.451224 3.0973 0
M  V30 3355 C 324.756 -0.4238 4.56035 0
M  V30 3356 N 326.247 -0.483925 4.60665 0
M  V30 3357 C 326.982 -0.484891 5.71346 0
M  V30 3358 N 326.478 -0.440775 6.91396 0
M  V30 3359 N 328.271 -0.531319 5.59583 0
M  V30 3360 H 320.422 0.819949 1.95935 0
M  V30 3361 H 322.685 0.307493 0.896745 0
M  V30 3362 H 322.391 0.564956 3.47133 0
M  V30 3363 H 322.265 -1.18176 3.5821 0
M  V30 3364 H 324.652 -1.37752 2.60976 0
M  V30 3365 H 324.733 0.388167 2.52838 0
M  V30 3366 H 324.377 0.498638 5.05446 0
M  V30 3367 H 324.307 -1.2807 5.10789 0
M  V30 3368 H 326.798 -0.522338 3.74273 0
M  V30 3369 H 327.111 -0.44539 7.71515 0
M  V30 3370 H 325.456 -0.40749 6.93804 0
M  V30 3371 H 328.647 -0.563464 4.64696 0
M  V30 3372 H 328.82 -0.528603 6.4584 0
M  V30 3373 N 322.226 -1.5378 -0.344866 0
M  V30 3374 C 323.189 -1.80981 -1.40637 0
M  V30 3375 C 324.189 -0.680816 -1.45676 0
M  V30 3376 O 325.379 -0.949095 -1.46075 0
M  V30 3377 C 322.511 -1.95063 -2.79577 0
M  V30 3378 H 323.704 -2.75803 -1.17783 0
M  V30 3379 H 321.257 -1.45173 -0.579181 0
M  V30 3380 H 321.992 -1.02379 -3.07716 0
M  V30 3381 H 321.777 -2.77198 -2.77315 0
M  V30 3382 H 323.267 -2.17629 -3.56409 0
M  V30 3383 N 323.704 0.605807 -1.45491 0
M  V30 3384 C 324.636 1.73031 -1.5031 0
M  V30 3385 C 325.649 1.57968 -0.393687 0
M  V30 3386 O 326.838 1.65817 -0.660839 0
M  V30 3387 C 323.938 3.11049 -1.34543 0
M  V30 3388 C 323.111 3.52334 -2.59189 0
M  V30 3389 C 322.17 4.69323 -2.37954 0
M  V30 3390 O 321.196 4.7635 -3.11575 0
M  V30 3391 N 322.398 5.62705 -1.4263 0
M  V30 3392 H 325.163 1.6936 -2.4726 0
M  V30 3393 H 322.724 0.79114 -1.41254 0
M  V30 3394 H 324.716 3.87071 -1.18144 0
M  V30 3395 H 323.286 3.09217 -0.458623 0
M  V30 3396 H 322.506 2.66256 -2.90691 0
M  V30 3397 H 323.794 3.76677 -3.42041 0
M  V30 3398 H 323.192 5.59744 -0.818758 0
M  V30 3399 H 321.749 6.38252 -1.32202 0
M  V30 3400 N 325.182 1.32811 0.848464 0
M  V30 3401 C 326.428 1.23907 1.60546 0
M  V30 3402 C 326.761 -0.197161 1.93197 0
M  V30 3403 O 326.036 -1.13596 1.5788 0
M  V30 3404 C 326.319 2.10489 2.92175 0
M  V30 3405 C 326.172 3.62522 2.66266 0
M  V30 3406 C 327.491 1.97075 3.93509 0
M  V30 3407 H 324.61 0.451459 0.58254 0
M  V30 3408 H 327.252 1.62818 0.979296 0
M  V30 3409 H 325.402 1.77434 3.45614 0
M  V30 3410 H 327.074 4.05821 2.19334 0
M  V30 3411 H 325.317 3.84879 2.00126 0
M  V30 3412 H 325.988 4.18437 3.6002 0
M  V30 3413 H 328.464 2.26045 3.49346 0
M  V30 3414 H 327.34 2.59923 4.83457 0
M  V30 3415 H 327.601 0.940186 4.31987 0
M  V30 3416 N 326.66 -1.06551 1.16123 0
M  V30 3417 C 327.623 -2.12132 0.867906 0
M  V30 3418 C 328.623 -1.60224 -0.135944 0
M  V30 3419 O 329.813 -1.73943 0.0946422 0
M  V30 3420 C 326.945 -3.396 0.297419 0
M  V30 3421 H 328.138 -2.39586 1.80385 0
M  V30 3422 H 325.691 -1.22574 0.969812 0
M  V30 3423 H 326.426 -3.17794 -0.64633 0
M  V30 3424 H 326.211 -3.78581 1.02073 0
M  V30 3425 H 327.701 -4.17455 0.110052 0
M  V30 3426 N 328.138 -0.959301 -1.25041 0
M  V30 3427 C 329.048 -0.489994 -2.29426 0
M  V30 3428 C 330.064 0.444944 -1.68215 0
M  V30 3429 O 331.24 0.320046 -1.98841 0
M  V30 3430 C 328.305 0.220309 -3.45999 0
M  V30 3431 C 327.366 -0.753418 -4.22637 0
M  V30 3432 C 326.599 -0.076918 -5.33645 0
M  V30 3433 O 326.822 1.13649 -5.58963 0
M  V30 3434 O 325.756 -0.764824 -5.97021 0
M  V30 3435 H 329.582 -1.35755 -2.71669 0
M  V30 3436 H 327.167 -0.725961 -1.30576 0
M  V30 3437 H 329.049 0.619677 -4.16819 0
M  V30 3438 H 327.724 1.06296 -3.0575 0
M  V30 3439 H 326.631 -1.20308 -3.54227 0
M  V30 3440 H 327.964 -1.56423 -4.66683 0
M  V30 3441 N 329.616 1.39756 -0.72842 0
M  V30 3442 C 330.546 2.33289 -0.0991354 0
M  V30 3443 C 331.527 1.53568 0.731489 0
M  V30 3444 O 332.712 1.81987 0.677807 0
M  V30 3445 C 329.842 3.3763 0.813834 0
M  V30 3446 C 328.796 4.2791 0.0878663 0
M  V30 3447 C 328.122 5.22894 1.11741 0
M  V30 3448 C 329.422 5.11314 -1.06563 0
M  V30 3449 H 331.116 2.86163 -0.880408 0
M  V30 3450 H 328.662 1.37591 -0.424819 0
M  V30 3451 H 330.615 4.0201 1.26355 0
M  V30 3452 H 329.339 2.83181 1.62715 0
M  V30 3453 H 327.998 3.65 -0.342159 0
M  V30 3454 H 327.646 4.64744 1.92412 0
M  V30 3455 H 327.346 5.84143 0.636477 0
M  V30 3456 H 328.87 5.90151 1.56697 0
M  V30 3457 H 330.284 5.69076 -0.694671 0
M  V30 3458 H 328.681 5.81671 -1.47577 0
M  V30 3459 H 329.751 4.46534 -1.89038 0
M  V30 3460 N 331.094 0.475555 1.50254 0
M  V30 3461 C 332.057 -0.305016 2.27161 0
M  V30 3462 C 333.057 -0.916519 1.32123 0
M  V30 3463 O 334.247 -0.785003 1.5551 0
M  V30 3464 C 331.379 -1.43496 3.09227 0
M  V30 3465 H 332.572 0.369511 2.97615 0
M  V30 3466 H 330.125 0.229747 1.54602 0
M  V30 3467 H 330.86 -2.14441 2.43281 0
M  V30 3468 H 330.645 -1.00223 3.79075 0
M  V30 3469 H 332.135 -1.98548 3.67381 0
M  V30 3470 N 332.573 -1.56217 0.208337 0
M  V30 3471 C 333.989 -1.58919 -0.14729 0
M  V30 3472 C 334.189 -1.22486 -1.59998 0
M  V30 3473 O 333.245 -0.953849 -2.3379 0
M  V30 3474 C 334.558 -3.00236 0.167048 0
M  V30 3475 C 336.106 -3.12813 0.108219 0
M  V30 3476 C 336.581 -4.56284 0.396049 0
M  V30 3477 N 338.072 -4.61912 0.345142 0
M  V30 3478 C 338.807 -5.70837 0.541523 0
M  V30 3479 N 338.303 -6.88178 0.798968 0
M  V30 3480 N 340.096 -5.60091 0.474867 0
M  V30 3481 H 332.247 -1.78177 1.15614 0
M  V30 3482 H 334.51 -0.827555 0.462446 0
M  V30 3483 H 334.216 -3.31499 1.1748 0
M  V30 3484 H 334.09 -3.7354 -0.524184 0
M  V30 3485 H 336.477 -2.81354 -0.890157 0
M  V30 3486 H 336.558 -2.41866 0.832729 0
M  V30 3487 H 336.202 -4.88458 1.3918 0
M  V30 3488 H 336.132 -5.25439 -0.349502 0
M  V30 3489 H 338.623 -3.77589 0.153316 0
M  V30 3490 H 338.936 -7.67095 0.93727 0
M  V30 3491 H 337.281 -6.89953 0.836013 0
M  V30 3492 H 340.472 -4.67297 0.274064 0
M  V30 3493 H 340.645 -6.44917 0.631326 0
M  V30 3494 N 334.051 0.0651679 -1.57465 0
M  V30 3495 C 335.014 1.06117 -2.03155 0
M  V30 3496 C 336.014 1.31204 -0.929632 0
M  V30 3497 O 337.204 1.26813 -1.19432 0
M  V30 3498 C 334.336 2.4032 -2.41783 0
M  V30 3499 H 335.529 0.667231 -2.92383 0
M  V30 3500 H 333.082 0.311075 -1.53173 0
M  V30 3501 H 333.817 2.84532 -1.55601 0
M  V30 3502 H 333.602 2.23451 -3.22199 0
M  V30 3503 H 335.092 3.11898 -2.77685 0
M  V30 3504 N 335.529 1.53961 0.336706 0
M  V30 3505 C 336.777 1.71197 1.07405 0
M  V30 3506 C 337.098 0.481475 1.88962 0
M  V30 3507 O 336.368 -0.504585 1.8929 0
M  V30 3508 H 334.948 0.631185 0.399517 0
M  V30 3509 H 337.61 1.91232 0.376323 0
M  V30 3510 H 336.706 2.58587 1.74755 0
M  V30 3511 N 337.007 -0.598083 1.45811 0
M  V30 3512 C 337.94 -1.7223 1.49706 0
M  V30 3513 C 338.918 -1.58732 0.352535 0
M  V30 3514 O 340.102 -1.80162 0.554438 0
M  V30 3515 C 337.229 -3.10148 1.3611 0
M  V30 3516 C 336.275 -3.42209 2.54549 0
M  V30 3517 S 337.108 -3.35989 4.16979 0
M  V30 3518 C 338.264 -4.76471 4.05865 0
M  V30 3519 H 338.497 -1.68665 2.44826 0
M  V30 3520 H 336.03 -0.775541 1.33509 0
M  V30 3521 H 337.988 -3.8972 1.28953 0
M  V30 3522 H 336.649 -3.11219 0.424451 0
M  V30 3523 H 335.842 -4.42652 2.40988 0
M  V30 3524 H 335.444 -2.70173 2.58617 0
M  V30 3525 H 337.736 -5.665 3.71596 0
M  V30 3526 H 338.679 -4.95089 5.06253 0
M  V30 3527 H 339.087 -4.52599 3.37364 0
M  V30 3528 N 338.485 -1.33259 -0.841409 0
M  V30 3529 C 339.448 -1.23221 -1.9326 0
M  V30 3530 C 340.448 -0.151895 -1.60081 0
M  V30 3531 O 341.638 -0.403246 -1.69468 0
M  V30 3532 C 338.77 -0.898123 -3.28856 0
M  V30 3533 H 339.963 -2.2021 -2.03587 0
M  V30 3534 H 337.516 -1.17281 -1.03319 0
M  V30 3535 H 338.251 0.0693841 -3.24226 0
M  V30 3536 H 338.036 -1.67934 -3.54317 0
M  V30 3537 H 339.526 -0.852563 -4.08805 0
M  V30 3538 N 339.963 1.05934 -1.16686 0
M  V30 3539 C 341.209 1.79065 -0.95203 0
M  V30 3540 C 341.542 1.87147 0.518629 0
M  V30 3541 O 340.817 1.36574 1.38484 0
M  V30 3542 C 341.1 3.23359 -1.58464 0
M  V30 3543 C 340.953 3.23336 -3.12689 0
M  V30 3544 C 342.272 4.21004 -1.28232 0
M  V30 3545 H 339.391 0.65005 -0.34728 0
M  V30 3546 H 342.033 1.23868 -1.44072 0
M  V30 3547 H 340.183 3.70493 -1.16908 0
M  V30 3548 H 341.855 2.84336 -3.6325 0
M  V30 3549 H 340.098 2.61886 -3.4583 0
M  V30 3550 H 340.769 4.25144 -3.52075 0
M  V30 3551 H 343.245 3.8233 -1.64203 0
M  V30 3552 H 342.121 5.20225 -1.75092 0
M  V30 3553 H 342.382 4.41639 -0.201791 0
M  V30 3554 N 341.441 0.965919 1.2453 0
M  V30 3555 C 342.689 0.625593 1.92174 0
M  V30 3556 C 343.01 -0.841652 1.75901 0
M  V30 3557 O 342.28 -1.60061 1.12948 0
M  V30 3558 H 340.86 0.228388 0.71123 0
M  V30 3559 H 343.522 1.2266 1.51461 0
M  V30 3560 H 342.618 0.864653 2.99884 0
M  V30 3561 N 342.919 -1.39368 0.735821 0
M  V30 3562 C 343.849 -2.33234 0.111506 0
M  V30 3563 C 344.83 -1.53954 -0.723334 0
M  V30 3564 O 346.015 -1.82344 -0.668147 0
M  V30 3565 C 343.145 -3.38057 -0.795917 0
M  V30 3566 C 342.099 -4.2795 -0.065172 0
M  V30 3567 C 341.425 -5.23479 -1.08967 0
M  V30 3568 C 342.725 -5.10741 1.09273 0
M  V30 3569 H 344.419 -2.85692 0.895571 0
M  V30 3570 H 341.965 -1.37364 0.432109 0
M  V30 3571 H 343.918 -4.02675 -1.24221 0
M  V30 3572 H 342.642 -2.8404 -1.61211 0
M  V30 3573 H 341.301 -3.64813 0.361511 0
M  V30 3574 H 340.949 -4.65758 -1.89944 0
M  V30 3575 H 340.649 -5.84472 -0.605489 0
M  V30 3576 H 342.173 -5.90974 -1.53565 0
M  V30 3577 H 343.587 -5.68699 0.724841 0
M  V30 3578 H 341.984 -5.8088 1.50659 0
M  V30 3579 H 343.054 -4.45525 1.91404 0
M  V30 3580 N 344.397 -0.483516 -1.5 0
M  V30 3581 C 345.36 0.292965 -2.2732 0
M  V30 3582 C 346.36 0.909499 -1.32608 0
M  V30 3583 O 347.55 0.776745 -1.55924 0
M  V30 3584 C 344.682 1.41854 -3.09984 0
M  V30 3585 H 345.875 -0.385289 -2.97415 0
M  V30 3586 H 343.428 -0.237942 -1.54478 0
M  V30 3587 H 344.163 2.13148 -2.44414 0
M  V30 3588 H 343.948 0.982114 -3.79601 0
M  V30 3589 H 345.438 1.96597 -3.68429 0
M  V30 3590 N 345.875 1.56104 -0.216619 0
M  V30 3591 C 347.123 1.97781 0.415593 0
M  V30 3592 C 347.444 1.10536 1.60645 0
M  V30 3593 O 346.714 0.181303 1.95059 0
M  V30 3594 H 345.294 0.730415 0.156534 0
M  V30 3595 H 347.956 1.92445 -0.308366 0
M  V30 3596 H 347.052 3.03072 0.74525 0
M  V30 3597 N 347.353 -0.0568162 1.57498 0
M  V30 3598 C 348.283 -1.06593 2.0775 0
M  V30 3599 C 349.264 -1.39448 0.974082 0
M  V30 3600 O 350.449 -1.48815 1.24771 0
M  V30 3601 C 347.579 -2.37509 2.5339 0
M  V30 3602 C 346.533 -2.1897 3.67745 0
M  V30 3603 C 345.859 -3.55402 3.99492 0
M  V30 3604 C 347.159 -1.59859 4.97235 0
M  V30 3605 H 348.853 -0.647706 2.9231 0
M  V30 3606 H 346.399 -0.310116 1.40621 0
M  V30 3607 H 348.352 -3.08409 2.87162 0
M  V30 3608 H 347.076 -2.8134 1.65878 0
M  V30 3609 H 345.735 -1.50508 3.3428 0
M  V30 3610 H 345.383 -3.9683 3.09088 0
M  V30 3611 H 345.083 -3.43831 4.76502 0
M  V30 3612 H 346.607 -4.27708 4.35773 0
M  V30 3613 H 348.021 -2.20642 5.29141 0
M  V30 3614 H 346.418 -1.58942 5.78669 0
M  V30 3615 H 347.488 -0.561506 4.81638 0
M  V30 3616 N 348.832 -1.54138 -0.328536 0
M  V30 3617 C 350.079 -1.72105 -1.06706 0
M  V30 3618 C 350.407 -0.492111 -1.88171 0
M  V30 3619 O 349.662 0.526153 -1.88494 0
M  V30 3620 C 349.961 -2.9457 -2.02393 0
M  V30 3621 C 349.627 -4.29544 -1.37122 0
M  V30 3622 C 348.289 -4.6624 -1.19052 0
M  V30 3623 C 350.641 -5.1333 -0.902331 0
M  V30 3624 C 347.969 -5.84325 -0.527331 0
M  V30 3625 C 350.321 -6.32094 -0.252988 0
M  V30 3626 C 348.985 -6.67473 -0.0600901 0
M  V30 3627 H 348.255 -0.629775 -0.390466 0
M  V30 3628 H 350.902 -1.88372 -0.34473 0
M  V30 3629 H 349.207 -2.72969 -2.81061 0
M  V30 3630 H 350.904 -3.05665 -2.59557 0
M  V30 3631 H 347.494 -4.0067 -1.52188 0
M  V30 3632 H 351.678 -4.855 -1.02974 0
M  V30 3633 H 346.934 -6.103 -0.366634 0
M  V30 3634 H 351.108 -6.96299 0.118366 0
M  V30 3635 H 348.735 -7.58832 0.455828 0
M  V30 3636 N 350.31 0.590341 -1.46126 0
M  V30 3637 C 351.559 1.34499 -1.50309 0
M  V30 3638 C 351.872 1.94977 -0.156021 0
M  V30 3639 O 353.078 2.71395 -0.0756037 0
M  V30 3640 C 351.534 2.43723 -2.64815 0
M  V30 3641 C 351.142 1.89582 -4.0591 0
M  V30 3642 C 352.886 3.20579 -2.78262 0
M  V30 3643 C 350.793 2.9639 -5.11769 0
M  V30 3644 H 349.723 0.505593 -0.559368 0
M  V30 3645 H 352.374 0.630848 -1.72315 0
M  V30 3646 H 350.756 3.17902 -2.36124 0
M  V30 3647 H 351.93 1.21997 -4.44357 0
M  V30 3648 H 350.245 1.25418 -3.97063 0
M  V30 3649 H 352.842 4.00276 -3.54519 0
M  V30 3650 H 353.185 3.72684 -1.85505 0
M  V30 3651 H 353.718 2.53505 -3.06562 0
M  V30 3652 H 350.457 2.49181 -6.06291 0
M  V30 3653 H 349.977 3.62487 -4.77873 0
M  V30 3654 H 351.656 3.60474 -5.37278 0
M  V30 3655 N 351.788 1.33704 0.83433 0
M  V30 3656 C 352.698 1.26382 1.97648 0
M  V30 3657 C 353.714 0.173548 1.73132 0
M  V30 3658 O 354.89 0.397962 1.97429 0
M  V30 3659 C 351.955 1.00769 3.31733 0
M  V30 3660 C 351.016 2.1884 3.69334 0
M  V30 3661 C 350.249 1.9444 4.9702 0
M  V30 3662 O 350.472 0.896961 5.63303 0
M  V30 3663 O 349.406 2.81093 5.32231 0
M  V30 3664 H 353.232 2.22444 2.06767 0
M  V30 3665 H 350.817 1.13795 0.968037 0
M  V30 3666 H 352.699 0.882186 4.12062 0
M  V30 3667 H 351.374 0.0773783 3.23608 0
M  V30 3668 H 350.281 2.36946 2.89495 0
M  V30 3669 H 351.614 3.10221 3.82131 0
M  V30 3670 N 353.266 -1.05314 1.17247 0
M  V30 3671 C 354.229 -2.112 0.890357 0
M  V30 3672 C 355.229 -1.60359 -0.118943 0
M  V30 3673 O 356.419 -1.73833 0.113086 0
M  V30 3674 C 353.551 -3.39266 0.333422 0
M  V30 3675 H 354.744 -2.37659 1.82916 0
M  V30 3676 H 352.297 -1.21538 0.982758 0
M  V30 3677 H 353.032 -3.18462 -0.612587 0
M  V30 3678 H 352.817 -3.77477 1.06082 0
M  V30 3679 H 354.307 -4.17315 0.154322 0
M  V30 3680 N 354.744 -0.972509 -1.24016 0
M  V30 3681 C 355.694 -0.477561 -2.22942 0
M  V30 3682 C 356.678 0.44308 -1.54679 0
M  V30 3683 O 357.87 0.273219 -1.74879 0
M  V30 3684 C 354.999 0.226348 -3.42553 0
M  V30 3685 C 354.085 -0.713403 -4.18057 0
M  V30 3686 N 354.476 -1.8527 -4.70647 0
M  V30 3687 C 352.774 -0.525145 -4.42898 0
M  V30 3688 C 353.475 -2.44089 -5.28011 0
M  V30 3689 N 352.451 -1.72556 -5.15486 0
M  V30 3690 H 356.253 -1.34678 -2.61226 0
M  V30 3691 H 353.767 -0.832196 -1.39457 0
M  V30 3692 H 355.764 0.598184 -4.12586 0
M  V30 3693 H 354.424 1.09195 -3.05788 0
M  V30 3694 H 355.435 -2.2341 -4.67235 0
M  V30 3695 H 352.112 0.296096 -4.16449 0
M  V30 3696 H 353.502 -3.40259 -5.79374 0
M  V30 3697 N 356.222 1.38976 -0.743202 0
M  V30 3698 C 357.633 1.83123 -0.363732 0
M  V30 3699 C 357.984 1.6205 1.10609 0
M  V30 3700 O 357.109 1.11606 1.854 0
M  V30 3701 C 357.704 3.32439 -0.653408 0
M  V30 3702 C 356.263 3.74974 -0.327338 0
M  V30 3703 C 355.41 2.61878 -0.911875 0
M  V30 3704 H 358.361 1.27852 -0.940191 0
M  V30 3705 H 358.382 3.80432 0.0720031 0
M  V30 3706 H 357.894 3.47745 -1.72323 0
M  V30 3707 H 355.995 3.65252 0.736314 0
M  V30 3708 H 356.108 4.72106 -0.815631 0
M  V30 3709 H 354.472 2.52448 -0.337944 0
M  V30 3710 H 355.255 2.79987 -1.98651 0
M  V30 3711 N 357.7 0.491464 1.49741 0
M  V30 3712 C 358.977 -0.118984 1.95238 0
M  V30 3713 C 359.357 -1.55044 1.43264 0
M  V30 3714 O 358.705 -2.19287 0.642287 0
M  V30 3715 C 358.915 -0.0414187 3.48975 0
M  V30 3716 C 360.263 -0.220133 4.24029 0
M  V30 3717 O 361.287 -0.117055 3.56008 0
M  V30 3718 O 360.146 -0.430567 5.44801 0
M  V30 3719 H 357.24 -0.100536 0.820866 0
M  V30 3720 H 359.786 0.553322 1.60426 0
M  V30 3721 H 358.558 0.957214 3.79412 0
M  V30 3722 H 358.181 -0.754292 3.9038 0
M  V30 3723 N 359.178 -1.55987 0.224894 0
M  V30 3724 C 360.589 -1.84553 -0.282345 0
M  V30 3725 C 360.94 -1.14634 -1.59227 0
M  V30 3726 O 360.065 -0.417155 -2.12341 0
M  V30 3727 C 360.66 -3.348 -0.519062 0
M  V30 3728 C 359.219 -3.63671 -0.970604 0
M  V30 3729 C 358.366 -2.77277 -0.0355261 0
M  V30 3730 H 361.317 -1.52245 0.448006 0
M  V30 3731 H 361.338 -3.55187 -1.36463 0
M  V30 3732 H 360.85 -3.8566 0.43449 0
M  V30 3733 H 358.951 -3.1827 -1.9374 0
M  V30 3734 H 359.064 -4.71631 -0.842698 0
M  V30 3735 H 357.428 -2.48846 -0.542927 0
M  V30 3736 H 358.211 -3.30937 0.913003 0
M  V30 3737 N 360.656 0.0484629 -1.57525 0
M  V30 3738 C 361.566 1.07241 -2.08654 0
M  V30 3739 C 362.582 1.409 -1.02095 0
M  V30 3740 O 363.758 1.50609 -1.33712 0
M  V30 3741 C 360.823 2.36008 -2.5397 0
M  V30 3742 C 359.884 2.09108 -3.7493 0
M  V30 3743 C 359.117 3.31736 -4.18075 0
M  V30 3744 O 359.34 4.41714 -3.60895 0
M  V30 3745 O 358.274 3.18576 -5.10679 0
M  V30 3746 H 362.1 0.667965 -2.96263 0
M  V30 3747 H 359.685 0.26417 -1.47046 0
M  V30 3748 H 361.567 3.11747 -2.83535 0
M  V30 3749 H 360.242 2.75786 -1.69481 0
M  V30 3750 H 359.149 1.31 -3.50414 0
M  V30 3751 H 360.482 1.74198 -4.60343 0
M  V30 3752 N 362.134 1.5431 0.320358 0
M  V30 3753 C 363.084 1.803 1.39556 0
M  V30 3754 C 364.068 0.659166 1.46778 0
M  V30 3755 O 365.26 0.91926 1.51257 0
M  V30 3756 C 362.389 2.03665 2.76361 0
M  V30 3757 C 361.475 3.24178 2.73439 0
M  V30 3758 N 361.866 4.4516 2.40137 0
M  V30 3759 C 360.164 3.25816 3.04565 0
M  V30 3760 C 360.865 5.27109 2.4603 0
M  V30 3761 N 359.841 4.64368 2.82601 0
M  V30 3762 H 363.643 2.71416 1.12742 0
M  V30 3763 H 361.157 1.53548 0.528856 0
M  V30 3764 H 363.154 2.20425 3.53862 0
M  V30 3765 H 361.814 1.13805 3.04103 0
M  V30 3766 H 362.825 4.72104 2.12927 0
M  V30 3767 H 359.502 2.46001 3.37328 0
M  V30 3768 H 360.892 6.33728 2.23246 0
M  V30 3769 N 363.613 -0.582584 1.46437 0
M  V30 3770 C 364.576 -1.67366 1.56592 0
M  V30 3771 C 365.576 -1.54575 0.443072 0
M  V30 3772 O 366.766 -1.59191 0.707381 0
M  V30 3773 C 363.898 -3.06791 1.48634 0
M  V30 3774 H 365.091 -1.5972 2.5383 0
M  V30 3775 H 362.644 -0.800432 1.34249 0
M  V30 3776 H 363.379 -3.19993 0.526763 0
M  V30 3777 H 363.164 -3.17484 2.30101 0
M  V30 3778 H 364.654 -3.86218 1.58826 0
M  V30 3779 N 365.091 -1.34144 -0.827227 0
M  V30 3780 C 366.038 -1.25364 -1.93785 0
M  V30 3781 C 367.008 -0.129774 -1.65592 0
M  V30 3782 O 368.193 -0.310024 -1.88264 0
M  V30 3783 C 365.333 -1.01064 -3.2997 0
M  V30 3784 C 364.446 -2.22185 -3.70484 0
M  V30 3785 C 363.581 -1.91203 -4.95595 0
M  V30 3786 C 362.62 -3.08491 -5.28677 0
M  V30 3787 N 361.757 -2.77421 -6.44967 0
M  V30 3788 H 366.597 -2.20347 -2.00627 0
M  V30 3789 H 364.134 -1.09558 -0.981608 0
M  V30 3790 H 366.092 -0.850139 -4.08446 0
M  V30 3791 H 364.722 -0.0975026 -3.22653 0
M  V30 3792 H 363.774 -2.4917 -2.87434 0
M  V30 3793 H 365.086 -3.0983 -3.90905 0
M  V30 3794 H 364.24 -1.71864 -5.81848 0
M  V30 3795 H 362.979 -1.00812 -4.77167 0
M  V30 3796 H 361.984 -3.28431 -4.40923 0
M  V30 3797 H 363.209 -3.99655 -5.49047 0
M  V30 3798 H 361.155 -1.89601 -6.28003 0
M  V30 3799 H 361.072 -3.58598 -6.6554 0
M  V30 3800 H 362.34 -2.61577 -7.34301 0
M  V30 3801 N 366.569 1.04691 -1.17803 0
M  V30 3802 C 367.809 1.79352 -0.980423 0
M  V30 3803 C 368.173 1.85853 0.481958 0
M  V30 3804 O 369.374 2.56656 0.798809 0
M  V30 3805 C 367.645 3.19088 -1.6099 0
M  V30 3806 S 369.204 4.10164 -1.55918 0
M  V30 3807 H 366.022 0.617631 -0.352211 0
M  V30 3808 H 368.624 1.25575 -1.49837 0
M  V30 3809 H 367.328 3.11962 -2.66661 0
M  V30 3810 H 366.859 3.77941 -1.09197 0
M  V30 3811 H 368.874 4.92907 -0.570685 0
M  V30 3812 N 368.047 0.979072 1.23499 0
M  V30 3813 C 369.324 0.563674 1.87302 0
M  V30 3814 C 369.704 -0.959199 1.88049 0
M  V30 3815 O 369.052 -1.83535 1.36114 0
M  V30 3816 C 369.262 1.16822 3.28867 0
M  V30 3817 C 370.61 1.26014 4.0547 0
M  V30 3818 O 371.634 1.12158 3.38082 0
M  V30 3819 O 370.493 1.48044 5.26066 0
M  V30 3820 H 367.587 0.189602 0.804972 0
M  V30 3821 H 370.133 1.07407 1.31384 0
M  V30 3822 H 368.905 2.21049 3.22883 0
M  V30 3823 H 368.528 0.642564 3.92373 0
M  V30 3824 N 369.525 -1.3858 0.750561 0
M  V30 3825 C 370.773 -1.99789 0.30477 0
M  V30 3826 C 371.094 -1.59874 -1.11649 0
M  V30 3827 O 370.364 -0.85417 -1.76297 0
M  V30 3828 H 368.944 -0.738902 0.109694 0
M  V30 3829 H 371.606 -1.69391 0.963983 0
M  V30 3830 H 370.702 -3.09952 0.365499 0
M  V30 3831 N 371.003 -0.499398 -1.49478 0
M  V30 3832 C 372.414 -0.051215 -1.8663 0
M  V30 3833 C 372.765 1.36238 -1.41186 0
M  V30 3834 O 371.89 2.01502 -0.789051 0
M  V30 3835 C 372.485 -0.0861651 -3.3869 0
M  V30 3836 C 371.044 0.30667 -3.75149 0
M  V30 3837 C 370.191 -0.459397 -2.73468 0
M  V30 3838 H 373.142 -0.712264 -1.41818 0
M  V30 3839 H 373.163 0.709507 -3.73826 0
M  V30 3840 H 372.675 -1.11512 -3.71735 0
M  V30 3841 H 370.776 1.33892 -3.47712 0
M  V30 3842 H 370.889 -0.0116669 -4.79099 0
M  V30 3843 H 369.253 0.0905645 -2.54539 0
M  V30 3844 H 370.036 -1.4884 -3.09357 0
M  V30 3845 N 372.481 1.55866 -0.233164 0
M  V30 3846 C 373.706 2.03449 0.402906 0
M  V30 3847 C 374.131 1.11166 1.51736 0
M  V30 3848 O 373.489 0.101996 1.81013 0
M  V30 3849 C 373.537 3.49165 0.9009 0
M  V30 3850 O 372.641 3.60019 2.01147 0
M  V30 3851 H 371.982 0.657913 0.0897025 0
M  V30 3852 H 374.512 2.01493 -0.355201 0
M  V30 3853 H 374.522 3.89716 1.2077 0
M  V30 3854 H 373.197 4.15813 0.0852889 0
M  V30 3855 H 371.774 3.3136 1.71042 0
M  V30 3856 N 373.959 -0.0401083 1.57549 0
M  V30 3857 C 374.922 -1.02871 2.04817 0
M  V30 3858 C 375.922 -1.29708 0.950388 0
M  V30 3859 O 377.112 -1.24897 1.21435 0
M  V30 3860 C 374.244 -2.36443 2.45576 0
M  V30 3861 H 375.437 -0.620631 2.93408 0
M  V30 3862 H 372.99 -0.286667 1.53649 0
M  V30 3863 H 373.725 -2.82021 1.60108 0
M  V30 3864 H 373.51 -2.18296 3.25713 0
M  V30 3865 H 375 -3.07441 2.82612 0
M  V30 3866 N 375.437 -1.54477 -0.31217 0
M  V30 3867 C 376.367 -1.87652 -1.38957 0
M  V30 3868 C 377.348 -0.734358 -1.53431 0
M  V30 3869 O 378.533 -0.98911 -1.67123 0
M  V30 3870 C 375.663 -2.11396 -2.75552 0
M  V30 3871 C 374.617 -3.27243 -2.75855 0
M  V30 3872 C 373.943 -3.36382 -4.15633 0
M  V30 3873 C 375.243 -4.64622 -2.38587 0
M  V30 3874 H 376.937 -2.77887 -1.11442 0
M  V30 3875 H 374.483 -1.33707 -0.534655 0
M  V30 3876 H 376.436 -2.33189 -3.51 0
M  V30 3877 H 375.16 -1.17921 -3.04569 0
M  V30 3878 H 373.819 -3.05356 -2.02863 0
M  V30 3879 H 373.467 -2.40445 -4.41809 0
M  V30 3880 H 373.167 -4.14249 -4.1674 0
M  V30 3881 H 374.691 -3.60422 -4.92877 0
M  V30 3882 H 376.105 -4.86219 -3.03749 0
M  V30 3883 H 374.502 -5.45121 -2.50925 0
M  V30 3884 H 375.572 -4.66097 -1.33723 0
M  V30 3885 N 376.915 0.57481 -1.46744 0
M  V30 3886 C 378.326 1.15695 -1.46532 0
M  V30 3887 C 378.677 1.95068 -0.210425 0
M  V30 3888 O 377.802 2.05241 0.685944 0
M  V30 3889 C 378.397 2.1048 -2.65487 0
M  V30 3890 C 376.956 2.64002 -2.68291 0
M  V30 3891 C 376.103 1.40026 -2.39349 0
M  V30 3892 H 379.054 0.362325 -1.54509 0
M  V30 3893 H 379.075 2.94074 -2.41455 0
M  V30 3894 H 378.587 1.52683 -3.56805 0
M  V30 3895 H 376.688 3.25646 -1.81067 0
M  V30 3896 H 376.801 3.06197 -3.68483 0
M  V30 3897 H 375.165 1.70106 -1.89568 0
M  V30 3898 H 375.948 0.840485 -3.32852 0
M  V30 3899 N 378.394 1.34581 0.820102 0
M  V30 3900 C 379.324 1.29038 1.94606 0
M  V30 3901 C 380.305 0.1673 1.69275 0
M  V30 3902 O 381.49 0.360112 1.90832 0
M  V30 3903 C 378.62 1.04793 3.31113 0
M  V30 3904 C 377.574 2.13597 3.70891 0
M  V30 3905 C 376.9 1.74537 5.05412 0
M  V30 3906 C 378.2 3.55451 3.8269 0
M  V30 3907 H 379.894 2.23248 1.99501 0
M  V30 3908 H 377.44 1.0747 0.958449 0
M  V30 3909 H 379.393 0.995592 4.0947 0
M  V30 3910 H 378.117 0.0702565 3.26524 0
M  V30 3911 H 376.776 2.17905 2.9481 0
M  V30 3912 H 376.424 0.754226 4.97313 0
M  V30 3913 H 376.124 2.47361 5.32997 0
M  V30 3914 H 377.648 1.70803 5.86224 0
M  V30 3915 H 379.062 3.5354 4.51312 0
M  V30 3916 H 377.459 4.26922 4.21732 0
M  V30 3917 H 378.529 3.92587 2.84611 0
M  V30 3918 N 379.872 -1.04064 1.18357 0
M  V30 3919 C 380.835 -2.10243 0.912707 0
M  V30 3920 C 381.835 -1.60477 -0.101928 0
M  V30 3921 O 383.025 -1.73703 0.131517 0
M  V30 3922 C 380.157 -3.38893 0.369387 0
M  V30 3923 H 381.35 -2.35706 1.85426 0
M  V30 3924 H 378.903 -1.20489 0.995594 0
M  V30 3925 H 379.638 -3.19094 -0.578776 0
M  V30 3926 H 379.423 -3.76331 1.1008 0
M  V30 3927 H 380.913 -4.17128 0.198575 0
M  V30 3928 N 381.35 -0.985608 -1.22978 0
M  V30 3929 C 382.297 -0.529825 -2.24636 0
M  V30 3930 C 383.267 0.434028 -1.60329 0
M  V30 3931 O 384.452 0.340414 -1.87739 0
M  V30 3932 C 381.592 0.156533 -3.44745 0
M  V30 3933 C 380.705 -0.848197 -4.23591 0
M  V30 3934 C 379.84 -0.136109 -5.31026 0
M  V30 3935 C 378.879 -1.1297 -6.01585 0
M  V30 3936 N 378.016 -0.446415 -7.00679 0
M  V30 3937 H 382.856 -1.40148 -2.62988 0
M  V30 3938 H 380.393 -0.702168 -1.29259 0
M  V30 3939 H 382.351 0.571324 -4.1327 0
M  V30 3940 H 380.981 0.992025 -3.07179 0
M  V30 3941 H 380.033 -1.38135 -3.54433 0
M  V30 3942 H 381.345 -1.60512 -4.72268 0
M  V30 3943 H 380.499 0.335784 -6.0577 0
M  V30 3944 H 379.238 0.653373 -4.83304 0
M  V30 3945 H 378.243 -1.6123 -5.25628 0
M  V30 3946 H 379.468 -1.91993 -6.51395 0
M  V30 3947 H 377.414 0.323763 -6.55201 0
M  V30 3948 H 377.331 -1.1419 -7.47326 0
M  V30 3949 H 378.599 0.00291697 -7.795 0
M  V30 3950 N 382.828 1.3818 -0.7579 0
M  V30 3951 C 383.758 2.33027 -0.148597 0
M  V30 3952 C 384.739 1.55085 0.69875 0
M  V30 3953 O 385.924 1.83384 0.639053 0
M  V30 3954 C 383.054 3.3928 0.742034 0
M  V30 3955 C 382.008 4.28 -0.00291946 0
M  V30 3956 C 381.334 5.25146 1.00625 0
M  V30 3957 C 382.634 5.08938 -1.17385 0
M  V30 3958 H 384.328 2.84231 -0.940909 0
M  V30 3959 H 381.874 1.36659 -0.453908 0
M  V30 3960 H 383.827 4.046 1.17799 0
M  V30 3961 H 382.551 2.86569 1.56671 0
M  V30 3962 H 381.21 3.64192 -0.419504 0
M  V30 3963 H 380.858 4.68721 1.8251 0
M  V30 3964 H 380.558 5.85361 0.512428 0
M  V30 3965 H 382.082 5.93342 1.44143 0
M  V30 3966 H 383.496 5.67474 -0.815224 0
M  V30 3967 H 381.893 5.7841 -1.59882 0
M  V30 3968 H 382.963 4.42424 -1.98468 0
M  V30 3969 N 384.306 0.507319 1.49211 0
M  V30 3970 C 385.216 -0.272136 2.33016 0
M  V30 3971 C 386.232 -0.961206 1.45041 0
M  V30 3972 O 387.408 -0.941191 1.78055 0
M  V30 3973 C 384.473 -1.31895 3.20631 0
M  V30 3974 C 383.534 -0.642648 4.24463 0
M  V30 3975 C 382.767 -1.63959 5.07891 0
M  V30 3976 O 382.99 -2.87007 4.92933 0
M  V30 3977 O 381.924 -1.19143 5.8999 0
M  V30 3978 H 385.75 0.413982 3.00865 0
M  V30 3979 H 383.335 0.268556 1.46966 0
M  V30 3980 H 385.217 -1.92446 3.7489 0
M  V30 3981 H 383.892 -1.98788 2.5547 0
M  V30 3982 H 382.799 0.00276252 3.741 0
M  V30 3983 H 384.132 -0.0160534 4.92197 0
M  V30 3984 N 385.784 -1.5574 0.241426 0
M  V30 3985 C 387.195 -1.84842 -0.262755 0
M  V30 3986 C 387.546 -1.16317 -1.58003 0
M  V30 3987 O 386.671 -0.439653 -2.11887 0
M  V30 3988 C 387.266 -3.35332 -0.483523 0
M  V30 3989 C 385.825 -3.6468 -0.931977 0
M  V30 3990 C 384.972 -2.77299 -0.0061151 0
M  V30 3991 H 387.923 -1.51761 0.464129 0
M  V30 3992 H 387.944 -3.56615 -1.32688 0
M  V30 3993 H 387.456 -3.85178 0.47537 0
M  V30 3994 H 385.557 -3.20307 -1.90353 0
M  V30 3995 H 385.67 -4.72498 -0.792628 0
M  V30 3996 H 384.034 -2.49408 -0.516503 0
M  V30 3997 H 384.817 -3.2995 0.948052 0
M  V30 3998 N 387.262 0.0317525 -1.57568 0
M  V30 3999 C 388.509 0.723104 -1.89149 0
M  V30 4000 C 388.837 1.75504 -0.838377 0
M  V30 4001 O 388.092 1.95037 0.160982 0
M  V30 4002 C 388.391 1.43167 -3.27472 0
M  V30 4003 C 388.057 0.535972 -4.47703 0
M  V30 4004 C 386.719 0.289262 -4.8033 0
M  V30 4005 C 389.071 -0.0826125 -5.21135 0
M  V30 4006 C 386.399 -0.584853 -5.83778 0
M  V30 4007 C 388.751 -0.944414 -6.25511 0
M  V30 4008 C 387.415 -1.20061 -6.56614 0
M  V30 4009 H 386.685 0.264602 -0.692146 0
M  V30 4010 H 389.332 -0.0169496 -1.91492 0
M  V30 4011 H 387.637 2.24497 -3.21105 0
M  V30 4012 H 389.334 1.97209 -3.49155 0
M  V30 4013 H 385.924 0.738414 -4.22191 0
M  V30 4014 H 390.108 0.0950302 -4.96209 0
M  V30 4015 H 385.364 -0.79168 -6.06253 0
M  V30 4016 H 389.538 -1.43026 -6.81554 0
M  V30 4017 H 387.165 -1.87967 -7.36595 0
M  V30 4018 N 388.74 1.54641 0.303973 0
M  V30 4019 C 389.67 1.88386 1.3796 0
M  V30 4020 C 390.651 0.742485 1.5304 0
M  V30 4021 O 391.836 0.997959 1.66597 0
M  V30 4022 C 388.966 2.12854 2.74427 0
M  V30 4023 C 387.92 3.28702 2.74115 0
M  V30 4024 C 387.246 3.38582 4.13844 0
M  V30 4025 C 388.546 4.65881 2.3612 0
M  V30 4026 H 390.24 2.78474 1.09966 0
M  V30 4027 H 387.786 1.33988 0.527556 0
M  V30 4028 H 389.739 2.35047 3.49758 0
M  V30 4029 H 388.463 1.19535 3.03939 0
M  V30 4030 H 387.122 3.06428 2.0124 0
M  V30 4031 H 386.77 2.42784 4.40528 0
M  V30 4032 H 386.47 4.16453 4.14537 0
M  V30 4033 H 387.994 3.63031 4.90959 0
M  V30 4034 H 389.408 4.87823 3.01167 0
M  V30 4035 H 387.805 5.46444 2.48031 0
M  V30 4036 H 388.875 4.66799 1.3125 0
M  V30 4037 N 390.218 -0.567019 1.47046 0
M  V30 4038 C 391.165 -1.67489 1.58796 0
M  V30 4039 C 392.135 -1.60399 0.43144 0
M  V30 4040 O 393.32 -1.79378 0.650233 0
M  V30 4041 C 390.46 -3.05821 1.59899 0
M  V30 4042 C 389.573 -3.2342 2.86397 0
M  V30 4043 C 388.708 -4.52093 2.789 0
M  V30 4044 C 387.747 -4.6309 4.00267 0
M  V30 4045 N 386.884 -5.83106 3.91064 0
M  V30 4046 H 391.724 -1.56785 2.53422 0
M  V30 4047 H 389.261 -0.763896 1.2571 0
M  V30 4048 H 391.219 -3.8591 1.58522 0
M  V30 4049 H 389.849 -3.15384 0.687929 0
M  V30 4050 H 388.901 -2.3683 2.97684 0
M  V30 4051 H 390.213 -3.27412 3.76301 0
M  V30 4052 H 389.367 -5.4043 2.75718 0
M  V30 4053 H 388.106 -4.50565 1.86662 0
M  V30 4054 H 387.111 -3.73168 4.03765 0
M  V30 4055 H 388.336 -4.66386 4.93621 0
M  V30 4056 H 386.282 -5.82546 3.01623 0
M  V30 4057 H 386.199 -5.88434 4.74638 0
M  V30 4058 H 387.467 -6.73831 3.91882 0
M  V30 4059 N 391.696 -1.35014 -0.812953 0
M  V30 4060 C 392.628 -1.23262 -1.93233 0
M  V30 4061 C 393.641 -0.157371 -1.62038 0
M  V30 4062 O 394.83 -0.410096 -1.73725 0
M  V30 4063 C 391.93 -0.87392 -3.27438 0
M  V30 4064 C 391.103 -2.04622 -3.86586 0
M  V30 4065 C 390.162 -1.66432 -4.99186 0
M  V30 4066 O 389.188 -2.38222 -5.16951 0
M  V30 4067 N 390.39 -0.584248 -5.77552 0
M  V30 4068 H 393.155 -2.19699 -2.03844 0
M  V30 4069 H 390.716 -1.281 -0.99005 0
M  V30 4070 H 392.708 -0.600039 -4.00227 0
M  V30 4071 H 391.278 0.00057392 -3.126 0
M  V30 4072 H 390.498 -2.48427 -3.06068 0
M  V30 4073 H 391.786 -2.82999 -4.22835 0
M  V30 4074 H 391.184 0.0123526 -5.65699 0
M  V30 4075 H 389.741 -0.37013 -6.50748 0
M  V30 4076 N 393.175 1.03435 -1.18907 0
M  V30 4077 C 394.108 2.11162 -0.86521 0
M  V30 4078 C 395.086 1.6165 0.175473 0
M  V30 4079 O 396.27 1.88425 0.0530129 0
M  V30 4080 C 393.397 3.37423 -0.293868 0
M  V30 4081 C 392.443 4.05795 -1.31274 0
M  V30 4082 S 393.276 4.52027 -2.8711 0
M  V30 4083 C 394.432 5.81513 -2.31504 0
M  V30 4084 H 394.665 2.38308 -1.77754 0
M  V30 4085 H 392.198 1.16295 -1.01562 0
M  V30 4086 H 394.156 4.1049 0.0292572 0
M  V30 4087 H 392.817 3.0838 0.596682 0
M  V30 4088 H 392.01 4.96574 -0.86198 0
M  V30 4089 H 391.612 3.38874 -1.58242 0
M  V30 4090 H 393.904 6.55784 -1.70157 0
M  V30 4091 H 394.847 6.3136 -3.20608 0
M  V30 4092 H 395.255 5.36921 -1.74286 0
M  V30 4093 N 394.653 0.992116 1.22453 0
M  V30 4094 C 395.6 0.541731 2.24352 0
M  V30 4095 C 396.57 -0.425519 1.60557 0
M  V30 4096 O 397.755 -0.330453 1.87917 0
M  V30 4097 C 394.895 -0.138248 3.44823 0
M  V30 4098 C 394.008 0.870649 4.23136 0
M  V30 4099 C 393.143 0.164269 5.30946 0
M  V30 4100 C 392.182 1.16159 6.00977 0
M  V30 4101 N 391.319 0.483568 7.00433 0
M  V30 4102 H 396.159 1.41541 2.62241 0
M  V30 4103 H 393.696 0.709013 1.28885 0
M  V30 4104 H 395.654 -0.5494 4.13567 0
M  V30 4105 H 394.284 -0.975721 3.077 0
M  V30 4106 H 393.336 1.40013 3.53696 0
M  V30 4107 H 394.648 1.63014 4.7141 0
M  V30 4108 H 393.802 -0.303653 6.0594 0
M  V30 4109 H 392.541 -0.627733 4.83643 0
M  V30 4110 H 391.546 1.64015 5.24766 0
M  V30 4111 H 392.771 1.95445 6.50368 0
M  V30 4112 H 390.717 -0.289012 6.55363 0
M  V30 4113 H 390.634 1.18152 7.4671 0
M  V30 4114 H 391.902 0.0384219 7.79491 0
M  V30 4115 N 396.131 -1.37776 0.765217 0
M  V30 4116 C 397.094 -2.28686 0.153416 0
M  V30 4117 C 398.094 -1.47727 -0.635081 0
M  V30 4118 O 399.284 -1.68027 -0.459632 0
M  V30 4119 C 396.416 -3.31608 -0.790495 0
M  V30 4120 H 397.609 -2.84297 0.954723 0
M  V30 4121 H 395.162 -1.46932 0.53299 0
M  V30 4122 H 395.897 -2.81109 -1.61705 0
M  V30 4123 H 395.682 -3.9144 -0.227348 0
M  V30 4124 H 397.172 -3.99559 -1.21419 0
M  V30 4125 N 397.609 -0.515225 -1.4894 0
M  V30 4126 C 398.858 0.0261361 -2.01683 0
M  V30 4127 C 399.171 1.36719 -1.39883 0
M  V30 4128 O 400.377 1.99606 -1.84037 0
M  V30 4129 C 398.833 0.0970111 -3.59769 0
M  V30 4130 C 398.441 -1.23825 -4.30548 0
M  V30 4131 C 400.185 0.587981 -4.20408 0
M  V30 4132 C 398.092 -1.12877 -5.80528 0
M  V30 4133 H 397.022 0.0135398 -0.753878 0
M  V30 4134 H 399.673 -0.656787 -1.71343 0
M  V30 4135 H 398.055 0.844694 -3.86886 0
M  V30 4136 H 399.229 -2.00034 -4.15118 0
M  V30 4137 H 397.544 -1.66379 -3.81716 0
M  V30 4138 H 400.141 0.68763 -5.3026 0
M  V30 4139 H 400.484 1.59026 -3.84729 0
M  V30 4140 H 401.017 -0.103582 -3.97665 0
M  V30 4141 H 397.756 -2.10575 -6.20756 0
M  V30 4142 H 397.276 -0.407799 -5.98412 0
M  V30 4143 H 398.955 -0.813332 -6.41868 0
M  V30 4144 N 399.087 1.5561 -0.249682 0
M  V30 4145 C 400.364 1.90932 0.424761 0
M  V30 4146 C 400.744 1.17078 1.75658 0
M  V30 4147 O 400.092 0.289176 2.26663 0
M  V30 4148 C 400.302 3.43975 0.590109 0
M  V30 4149 C 401.65 4.15281 0.884714 0
M  V30 4150 O 402.674 3.49729 0.67587 0
M  V30 4151 O 401.533 5.31236 1.28259 0
M  V30 4152 H 398.627 0.794815 0.228468 0
M  V30 4153 H 401.173 1.67135 -0.293954 0
M  V30 4154 H 399.945 3.89748 -0.34818 0
M  V30 4155 H 399.568 3.73644 1.35926 0
M  V30 4156 N 400.565 -0.0233959 1.57583 0
M  V30 4157 C 401.842 -0.748794 1.807 0
M  V30 4158 C 402.222 -1.9327 0.849106 0
M  V30 4159 O 401.57 -2.28247 -0.107468 0
M  V30 4160 C 401.78 -1.17651 3.28571 0
M  V30 4161 C 403.128 -1.59008 3.93702 0
M  V30 4162 O 404.152 -1.27094 3.32755 0
M  V30 4163 O 403.011 -2.18264 5.01022 0
M  V30 4164 H 400.105 -0.362578 0.743281 0
M  V30 4165 H 402.651 0.000261958 1.697 0
M  V30 4166 H 401.423 -0.331603 3.89892 0
M  V30 4167 H 401.046 -1.98541 3.44481 0
M  V30 4168 N 402.043 -1.548 -0.295768 0
M  V30 4169 C 402.973 -1.89115 -1.36959 0
M  V30 4170 C 403.954 -0.75059 -1.52644 0
M  V30 4171 O 405.139 -1.00678 -1.66065 0
M  V30 4172 C 402.269 -2.14307 -2.73295 0
M  V30 4173 C 401.223 -3.30151 -2.72368 0
M  V30 4174 C 400.549 -3.40772 -4.12042 0
M  V30 4175 C 401.849 -4.67126 -2.33646 0
M  V30 4176 H 403.543 -2.79053 -1.08488 0
M  V30 4177 H 401.089 -1.34266 -0.520443 0
M  V30 4178 H 403.042 -2.36898 -3.48507 0
M  V30 4179 H 401.766 -1.21145 -3.03301 0
M  V30 4180 H 400.425 -3.0749 -1.99613 0
M  V30 4181 H 400.073 -2.45117 -4.39234 0
M  V30 4182 H 399.773 -4.18645 -4.12322 0
M  V30 4183 H 401.297 -3.6563 -4.89027 0
M  V30 4184 H 402.711 -4.89414 -2.98575 0
M  V30 4185 H 401.108 -5.47751 -2.45129 0
M  V30 4186 H 402.178 -4.67489 -1.28772 0
M  V30 4187 N 403.521 0.559213 -1.47345 0
M  V30 4188 C 404.767 1.31843 -1.54095 0
M  V30 4189 C 405.1 1.93149 -0.201726 0
M  V30 4190 O 404.375 1.77759 0.789428 0
M  V30 4191 C 404.658 2.43006 -2.65744 0
M  V30 4192 C 404.511 1.86581 -4.09277 0
M  V30 4193 C 405.83 3.44943 -2.73318 0
M  V30 4194 H 402.949 0.478012 -0.560957 0
M  V30 4195 H 405.591 0.625977 -1.79392 0
M  V30 4196 H 403.741 3.02072 -2.44305 0
M  V30 4197 H 405.413 1.31792 -4.42073 0
M  V30 4198 H 403.656 1.17268 -4.17649 0
M  V30 4199 H 404.327 2.66933 -4.83168 0
M  V30 4200 H 406.803 2.95793 -2.92653 0
M  V30 4201 H 405.679 4.20153 -3.53218 0
M  V30 4202 H 405.94 4.03665 -1.80296 0
M  V30 4203 N 404.999 1.35443 0.805782 0
M  V30 4204 C 405.946 1.28431 1.91766 0
M  V30 4205 C 406.916 0.156102 1.65365 0
M  V30 4206 O 408.101 0.339936 1.87747 0
M  V30 4207 C 405.241 1.06301 3.2832 0
M  V30 4208 C 404.354 2.2805 3.66902 0
M  V30 4209 C 403.489 1.99064 4.92491 0
M  V30 4210 C 402.528 3.16863 5.23703 0
M  V30 4211 N 401.665 2.87647 6.40471 0
M  V30 4212 H 406.505 2.23511 1.97096 0
M  V30 4213 H 404.042 1.11105 0.964054 0
M  V30 4214 H 406 0.915012 4.07042 0
M  V30 4215 H 404.63 0.148822 3.22457 0
M  V30 4216 H 403.682 2.53711 2.83434 0
M  V30 4217 H 404.994 3.1601 3.85927 0
M  V30 4218 H 404.148 1.81099 5.7904 0
M  V30 4219 H 402.887 1.0839 4.75503 0
M  V30 4220 H 401.892 3.35404 4.35642 0
M  V30 4221 H 403.117 4.08339 5.4262 0
M  V30 4222 H 401.063 1.99568 6.24907 0
M  V30 4223 H 400.98 3.69141 6.59751 0
M  V30 4224 H 402.248 2.73226 7.30047 0
M  V30 4225 N 406.477 -1.02803 1.19454 0
M  V30 4226 C 407.725 -1.75869 0.995722 0
M  V30 4227 C 408.046 -1.89138 -0.474543 0
M  V30 4228 O 407.316 -1.42558 -1.34366 0
M  V30 4229 H 405.896 -0.651511 0.365435 0
M  V30 4230 H 408.558 -1.24004 1.50363 0
M  V30 4231 H 407.654 -2.76661 1.44447 0
M  V30 4232 N 407.956 -0.998596 -1.21925 0
M  V30 4233 C 409.203 -0.677663 -1.90824 0
M  V30 4234 C 409.531 0.790905 -1.77693 0
M  V30 4235 O 408.786 1.58817 -1.14349 0
M  V30 4236 C 409.085 -1.03648 -3.42041 0
M  V30 4237 C 408.751 -2.49825 -3.75364 0
M  V30 4238 C 407.413 -2.8977 -3.8417 0
M  V30 4239 C 409.765 -3.44545 -3.91073 0
M  V30 4240 C 407.093 -4.23412 -4.06127 0
M  V30 4241 C 409.445 -4.77853 -4.14535 0
M  V30 4242 C 408.109 -5.17531 -4.21566 0
M  V30 4243 H 407.379 -0.247975 -0.698276 0
M  V30 4244 H 410.026 -1.25584 -1.44571 0
M  V30 4245 H 408.331 -0.376457 -3.89987 0
M  V30 4246 H 410.028 -0.766113 -3.93614 0
M  V30 4247 H 406.618 -2.17866 -3.69097 0
M  V30 4248 H 410.802 -3.14853 -3.83642 0
M  V30 4249 H 406.058 -4.53734 -4.09799 0
M  V30 4250 H 410.232 -5.51189 -4.25633 0
M  V30 4251 H 407.859 -6.21102 -4.38333 0
M  V30 4252 N 409.434 1.37368 -0.772513 0
M  V30 4253 C 410.344 2.34053 -0.160081 0
M  V30 4254 C 411.36 1.60216 0.678728 0
M  V30 4255 O 412.536 1.92303 0.59847 0
M  V30 4256 C 409.601 3.3939 0.708182 0
M  V30 4257 C 408.662 4.29048 -0.147172 0
M  V30 4258 C 407.895 5.29354 0.679744 0
M  V30 4259 O 408.118 5.3723 1.91678 0
M  V30 4260 O 407.052 6.01835 0.0885444 0
M  V30 4261 H 410.878 2.88159 -0.959053 0
M  V30 4262 H 408.463 1.39543 -0.533685 0
M  V30 4263 H 410.345 4.03839 1.20384 0
M  V30 4264 H 409.02 2.8761 1.48533 0
M  V30 4265 H 407.927 3.67697 -0.689205 0
M  V30 4266 H 409.26 4.84134 -0.887423 0
M  V30 4267 N 410.912 0.523116 1.48665 0
M  V30 4268 C 411.822 -0.247406 2.33292 0
M  V30 4269 C 412.838 -0.945769 1.46052 0
M  V30 4270 O 414.014 -0.922253 1.79043 0
M  V30 4271 C 411.079 -1.28487 3.22012 0
M  V30 4272 C 410.14 -0.597592 4.2512 0
M  V30 4273 C 409.373 -1.58563 5.09601 0
M  V30 4274 O 409.596 -2.81763 4.95949 0
M  V30 4275 O 408.53 -1.12879 5.91221 0
M  V30 4276 H 412.356 0.445869 3.00409 0
M  V30 4277 H 409.941 0.284128 1.46673 0
M  V30 4278 H 411.823 -1.88459 3.7691 0
M  V30 4279 H 410.498 -1.96068 2.57564 0
M  V30 4280 H 409.405 0.0424407 3.74076 0
M  V30 4281 H 410.738 0.0361517 4.92187 0
M  V30 4282 N 412.39 -1.55475 0.257931 0
M  V30 4283 C 413.32 -2.24815 -0.630912 0
M  V30 4284 C 414.301 -1.23224 -1.17259 0
M  V30 4285 O 415.486 -1.51904 -1.20991 0
M  V30 4286 C 412.616 -2.95609 -1.82298 0
M  V30 4287 C 411.57 -4.03982 -1.41359 0
M  V30 4288 C 410.896 -4.6226 -2.68738 0
M  V30 4289 C 412.196 -5.19109 -0.57648 0
M  V30 4290 H 413.89 -2.99354 -0.0526878 0
M  V30 4291 H 411.436 -1.4398 -0.023901 0
M  V30 4292 H 413.389 -3.42822 -2.45054 0
M  V30 4293 H 412.113 -2.18577 -2.42676 0
M  V30 4294 H 410.772 -3.57555 -0.809324 0
M  V30 4295 H 410.42 -3.81915 -3.27338 0
M  V30 4296 H 410.12 -5.35424 -2.42065 0
M  V30 4297 H 411.644 -5.12212 -3.32372 0
M  V30 4298 H 413.058 -5.62479 -1.10861 0
M  V30 4299 H 411.455 -5.98729 -0.405351 0
M  V30 4300 H 412.525 -4.83174 0.408776 0
M  V30 4301 N 413.868 0.0150385 -1.57593 0
M  V30 4302 C 415.145 0.7392 -1.81094 0
M  V30 4303 C 415.525 1.92817 -0.859344 0
M  V30 4304 O 414.873 2.28301 0.095362 0
M  V30 4305 C 415.083 1.15907 -3.29191 0
M  V30 4306 C 416.431 1.56918 -3.9454 0
M  V30 4307 O 417.455 1.25328 -3.33424 0
M  V30 4308 O 416.314 2.15604 -5.02173 0
M  V30 4309 H 413.408 0.358631 -0.745193 0
M  V30 4310 H 415.954 -0.00926156 -1.69697 0
M  V30 4311 H 414.726 0.310921 -3.90063 0
M  V30 4312 H 414.349 1.96711 -3.45529 0
M  V30 4313 N 415.346 1.54954 0.287554 0
M  V30 4314 C 416.574 1.78881 1.03967 0
M  V30 4315 C 416.989 0.554894 1.80462 0
M  V30 4316 O 416.346 -0.475676 1.76192 0
M  V30 4317 C 416.397 3.00488 2.0097 0
M  V30 4318 O 416.118 4.19113 1.27577 0
M  V30 4319 C 417.619 3.36907 2.88112 0
M  V30 4320 H 414.839 0.596259 0.307761 0
M  V30 4321 H 417.383 2.01937 0.322749 0
M  V30 4322 H 415.538 2.79601 2.68145 0
M  V30 4323 H 415.952 4.87765 1.92835 0
M  V30 4324 H 417.426 4.25205 3.52001 0
M  V30 4325 H 417.903 2.55659 3.57121 0
M  V30 4326 H 418.509 3.60001 2.26449 0
M  V30 4327 N 416.824 -0.551391 1.4764 0
M  V30 4328 C 418.049 -1.33837 1.58437 0
M  V30 4329 C 418.474 -1.866 0.237063 0
M  V30 4330 O 417.832 -1.6328 -0.787994 0
M  V30 4331 C 417.88 -2.48014 2.61766 0
M  V30 4332 O 416.984 -3.50419 2.1744 0
M  V30 4333 H 416.325 -0.397299 0.532024 0
M  V30 4334 H 418.855 -0.665759 1.93465 0
M  V30 4335 H 418.865 -2.94503 2.82369 0
M  V30 4336 H 417.54 -2.08969 3.5959 0
M  V30 4337 H 416.117 -3.10196 2.06961 0
M  V30 4338 N 418.302 -1.35869 -0.798587 0
M  V30 4339 C 419.249 -1.29446 -1.91082 0
M  V30 4340 C 420.219 -0.16487 -1.6528 0
M  V30 4341 O 421.404 -0.349888 -1.87564 0
M  V30 4342 C 418.544 -1.0804 -3.27752 0
M  V30 4343 C 417.657 -2.29993 -3.65687 0
M  V30 4344 C 416.792 -2.01673 -4.91428 0
M  V30 4345 C 415.831 -3.19636 -5.22015 0
M  V30 4346 N 414.968 -2.91039 -6.38937 0
M  V30 4347 H 419.808 -2.24553 -1.95907 0
M  V30 4348 H 417.345 -1.11615 -0.958148 0
M  V30 4349 H 419.303 -0.936586 -4.06551 0
M  V30 4350 H 417.933 -0.16592 -3.22373 0
M  V30 4351 H 416.985 -2.55211 -2.82085 0
M  V30 4352 H 418.297 -3.18052 -3.84245 0
M  V30 4353 H 417.451 -1.84168 -5.78072 0
M  V30 4354 H 416.19 -1.10911 -4.74921 0
M  V30 4355 H 415.195 -3.37709 -4.33858 0
M  V30 4356 H 416.42 -4.11211 -5.40447 0
M  V30 4357 H 414.366 -2.0288 -6.2384 0
M  V30 4358 H 414.283 -3.72635 -6.57784 0
M  V30 4359 H 415.551 -2.77093 -7.28587 0
M  V30 4360 O 419.819 0.937816 -1.31481 0
M  V30 4361 H 420.51 1.56832 -1.13682 0
M  V30 END ATOM
M  V30 BEGIN BOND
M  V30 END BOND
M  V30 END CTAB
M  END
$$$$
