drugbank_target|Q9Y286 Sialic acid-binding Ig-like lectin 7 (DB03740)
 OpenBabel12092119573D

  0  0  0     0  0            999 V3000
M  V30 BEGIN CTAB
M  V30 COUNTS 7115 7199 0 0 0
M  V30 BEGIN ATOM
M  V30 1 H -0.908 1.98254 -0.117106 0
M  V30 2 N 0 1.576 0 0
M  V30 3 C 0.933 2.03868 1.02534 0
M  V30 4 C 1.911 0.928543 1.3348 0
M  V30 5 O 3.095 1.19667 1.45644 0
M  V30 6 C 0.222 2.43627 2.35294 0
M  V30 7 C -0.732 3.65373 2.2001 0
M  V30 8 S 0.101 5.13292 1.52614 0
M  V30 9 C 1.257 5.56322 2.86805 0
M  V30 10 H 1.49 2.90518 0.631377 0
M  V30 11 H -0.977 1.52953 0.210867 0
M  V30 12 H 0.981 2.67203 3.11629 0
M  V30 13 H -0.358 1.57376 2.7183 0
M  V30 14 H -1.165 3.90944 3.18086 0
M  V30 15 H -1.563 3.418 1.51819 0
M  V30 16 H 0.729 5.58782 3.83104 0
M  V30 17 H 1.672 6.56266 2.65933 0
M  V30 18 H 2.08 4.83886 2.90714 0
M  V30 19 N 1.4781 -0.272755 1.55222 0
M  V30 20 C 2.4081 -1.34136 1.91127 0
M  V30 21 C 3.3891 -1.51513 0.773168 0
M  V30 22 O 4.5741 -1.64552 1.03132 0
M  V30 23 C 1.7041 -2.70083 2.1834 0
M  V30 24 C 0.6581 -2.67437 3.34158 0
M  V30 25 C -0.0159 -4.06938 3.46851 0
M  V30 26 C 1.2841 -2.26686 4.70543 0
M  V30 27 H 2.9781 -1.04333 2.80633 0
M  V30 28 H 0.5241 -0.500454 1.35024 0
M  V30 29 H 2.4771 -3.44952 2.42046 0
M  V30 30 H 1.2011 -3.01469 1.25634 0
M  V30 31 H -0.1399 -1.95026 3.1042 0
M  V30 32 H -0.4919 -4.35547 2.51611 0
M  V30 33 H -0.7919 -4.06062 4.2472 0
M  V30 34 H 0.7321 -4.83545 3.72849 0
M  V30 35 H 2.1461 -2.91277 4.93792 0
M  V30 36 H 0.5431 -2.36971 5.5133 0
M  V30 37 H 1.6131 -1.21818 4.69349 0
M  V30 38 N 2.9562 -1.48159 -0.537278 0
M  V30 39 C 3.8862 -1.65029 -1.6519 0
M  V30 40 C 4.8672 -0.499281 -1.62607 0
M  V30 41 O 6.0522 -0.730972 -1.79918 0
M  V30 42 C 3.1822 -1.68303 -3.03795 0
M  V30 43 C 2.1362 -2.8283 -3.21234 0
M  V30 44 C 1.4622 -2.71189 -4.60826 0
M  V30 45 C 2.7622 -4.24211 -3.04701 0
M  V30 46 H 4.4562 -2.58341 -1.51328 0
M  V30 47 H 2.0022 -1.24325 -0.726585 0
M  V30 48 H 3.9552 -1.78693 -3.81637 0
M  V30 49 H 2.6792 -0.715635 -3.18663 0
M  V30 50 H 1.3382 -2.71983 -2.45807 0
M  V30 51 H 0.9862 -1.72435 -4.7252 0
M  V30 52 H 0.6862 -3.48035 -4.7344 0
M  V30 53 H 2.2102 -2.83537 -5.40777 0
M  V30 54 H 3.6242 -4.3593 -3.72341 0
M  V30 55 H 2.0212 -5.01998 -3.28813 0
M  V30 56 H 3.0912 -4.41184 -2.01209 0
M  V30 57 N 4.4343 0.785586 -1.36625 0
M  V30 58 C 5.3643 1.91259 -1.33949 0
M  V30 59 C 6.3453 1.68795 -0.210325 0
M  V30 60 O 7.5303 1.89854 -0.408561 0
M  V30 61 C 4.6603 3.28339 -1.13186 0
M  V30 62 C 3.6143 3.65335 -2.22967 0
M  V30 63 C 2.9403 5.00806 -1.87342 0
M  V30 64 C 4.2403 3.7352 -3.65075 0
M  V30 65 H 5.9343 1.93755 -2.28253 0
M  V30 66 H 3.4803 0.930788 -1.09874 0
M  V30 67 H 5.4333 4.06804 -1.09948 0
M  V30 68 H 4.1573 3.2624 -0.153332 0
M  V30 69 H 2.8163 2.89169 -2.25337 0
M  V30 70 H 2.4643 4.95233 -0.880545 0
M  V30 71 H 2.1643 5.26529 -2.60846 0
M  V30 72 H 3.6883 5.81687 -1.85667 0
M  V30 73 H 5.1023 4.42168 -3.64911 0
M  V30 74 H 3.4993 4.10731 -4.37516 0
M  V30 75 H 4.5693 2.74527 -3.99703 0
M  V30 76 N 5.9124 1.20967 1.01018 0
M  V30 77 C 6.8424 0.988272 2.11555 0
M  V30 78 C 7.8234 -0.0849778 1.69888 0
M  V30 79 O 9.0084 0.0738202 1.9406 0
M  V30 80 C 6.1384 0.546528 3.42973 0
M  V30 81 C 5.0924 1.56375 3.9841 0
M  V30 82 C 4.4184 0.97842 5.25672 0
M  V30 83 C 5.7184 2.94922 4.31066 0
M  V30 84 H 7.4124 1.91276 2.30334 0
M  V30 85 H 4.9584 0.921073 1.1069 0
M  V30 86 H 6.9114 0.378839 4.19694 0
M  V30 87 H 5.6354 -0.413598 3.23971 0
M  V30 88 H 4.2944 1.71891 3.23804 0
M  V30 89 H 3.9424 0.0101688 5.02999 0
M  V30 90 H 3.6424 1.65784 5.63728 0
M  V30 91 H 5.1664 0.821939 6.05043 0
M  V30 92 H 6.5804 2.8288 4.9865 0
M  V30 93 H 4.9774 3.5983 4.80253 0
M  V30 94 H 6.0474 3.4616 3.39561 0
M  V30 95 N 7.3905 -1.2043 1.01659 0
M  V30 96 C 8.3205 -2.25466 0.607226 0
M  V30 97 C 9.3015 -1.65853 -0.377716 0
M  V30 98 O 10.4865 -1.92409 -0.263149 0
M  V30 99 C 7.6165 -3.47256 -0.0552949 0
M  V30 100 C 6.5705 -4.19462 0.850632 0
M  V30 101 C 5.8965 -5.34673 0.0538859 0
M  V30 102 C 7.1965 -4.75603 2.15868 0
M  V30 103 H 8.8905 -2.59962 1.48526 0
M  V30 104 H 6.4365 -1.2496 0.715605 0
M  V30 105 H 8.3895 -4.19917 -0.353233 0
M  V30 106 H 7.1135 -3.11924 -0.968045 0
M  V30 107 H 5.7725 -3.48667 1.13257 0
M  V30 108 H 5.4205 -4.95585 -0.860514 0
M  V30 109 H 5.1205 -5.83913 0.657192 0
M  V30 110 H 6.6445 -6.10138 -0.237598 0
M  V30 111 H 8.0585 -5.40083 1.92311 0
M  V30 112 H 6.4555 -5.3528 2.71284 0
M  V30 113 H 7.5255 -3.94346 2.82169 0
M  V30 114 N 8.8686 -0.792821 -1.36206 0
M  V30 115 C 9.7986 -0.207853 -2.32573 0
M  V30 116 C 10.7796 0.659055 -1.56813 0
M  V30 117 O 11.9646 0.592176 -1.84951 0
M  V30 118 C 9.0946 0.655449 -3.41059 0
M  V30 119 C 8.0486 -0.111842 -4.27854 0
M  V30 120 C 7.3746 0.872274 -5.27537 0
M  V30 121 C 8.6746 -1.30299 -5.05786 0
M  V30 122 H 10.3686 -1.01294 -2.81744 0
M  V30 123 H 7.9146 -0.48854 -1.3546 0
M  V30 124 H 9.8676 1.07464 -4.07467 0
M  V30 125 H 8.5916 1.49328 -2.90463 0
M  V30 126 H 7.2506 -0.512053 -3.63006 0
M  V30 127 H 6.8986 1.70523 -4.73214 0
M  V30 128 H 6.5986 0.363291 -5.86476 0
M  V30 129 H 8.1226 1.28996 -5.96818 0
M  V30 130 H 9.5366 -0.959379 -5.65216 0
M  V30 131 H 7.9336 -1.7455 -5.74154 0
M  V30 132 H 9.0036 -2.09663 -4.37229 0
M  V30 133 N 10.3467 1.47872 -0.545128 0
M  V30 134 C 11.7577 1.86384 -0.108581 0
M  V30 135 C 12.1087 1.45309 1.31832 0
M  V30 136 O 11.2337 0.850641 1.9898 0
M  V30 137 C 11.8287 3.38265 -0.190274 0
M  V30 138 C 10.3877 3.75914 0.191164 0
M  V30 139 C 9.5347 2.71926 -0.543273 0
M  V30 140 H 12.4857 1.39561 -0.755537 0
M  V30 141 H 12.5067 3.75831 0.594217 0
M  V30 142 H 12.0187 3.6813 -1.2289 0
M  V30 143 H 10.1197 3.51665 1.23136 0
M  V30 144 H 10.2327 4.78836 -0.158987 0
M  V30 145 H 8.5967 2.54697 0.0122495 0
M  V30 146 H 9.3797 3.04634 -1.58282 0
M  V30 147 N 11.8248 0.280983 1.55075 0
M  V30 148 C 12.7548 -0.597469 2.25727 0
M  V30 149 C 13.7358 -1.15417 1.24952 0
M  V30 150 O 14.9208 -1.18722 1.53684 0
M  V30 151 C 12.0508 -1.7789 2.98283 0
M  V30 152 C 11.0048 -1.35347 4.06036 0
M  V30 153 C 10.3308 -2.61846 4.66198 0
M  V30 154 C 11.6308 -0.499354 5.19907 0
M  V30 155 H 13.3248 -0.00824265 2.99399 0
M  V30 156 H 10.8708 -0.0025244 1.44 0
M  V30 157 H 12.8238 -2.39937 3.46422 0
M  V30 158 H 11.5478 -2.39405 2.22155 0
M  V30 159 H 10.2068 -0.756156 3.58717 0
M  V30 160 H 9.8548 -3.21632 3.86732 0
M  V30 161 H 9.5548 -2.3409 5.38958 0
M  V30 162 H 11.0788 -3.24732 5.1709 0
M  V30 163 H 12.4928 -1.02498 5.64063 0
M  V30 164 H 10.8898 -0.316424 5.99265 0
M  V30 165 H 11.9598 0.480459 4.82514 0
M  V30 166 N 13.3029 -1.57598 0.00835791 0
M  V30 167 C 14.2329 -2.1198 -0.979113 0
M  V30 168 C 15.2139 -1.03091 -1.35301 0
M  V30 169 O 16.3989 -1.30818 -1.43528 0
M  V30 170 C 13.5289 -2.62995 -2.26828 0
M  V30 171 C 12.4829 -3.76485 -2.03576 0
M  V30 172 C 11.8089 -4.13846 -3.38579 0
M  V30 173 C 13.1089 -5.0342 -1.39161 0
M  V30 174 H 14.8029 -2.94738 -0.526281 0
M  V30 175 H 12.3489 -1.41783 -0.251704 0
M  V30 176 H 14.3019 -2.99669 -2.96271 0
M  V30 177 H 13.0259 -1.7737 -2.7424 0
M  V30 178 H 11.6849 -3.40217 -1.36557 0
M  V30 179 H 11.3329 -3.25232 -3.83709 0
M  V30 180 H 11.0329 -4.90312 -3.23834 0
M  V30 181 H 12.5569 -4.53086 -4.09323 0
M  V30 182 H 13.9709 -5.37812 -1.98573 0
M  V30 183 H 12.3679 -5.84746 -1.34878 0
M  V30 184 H 13.4379 -4.83548 -0.361868 0
M  V30 185 N 14.781 0.264519 -1.55364 0
M  V30 186 C 16.027 0.992314 -1.77552 0
M  V30 187 C 16.382 1.83626 -0.574379 0
M  V30 188 O 15.675 1.86648 0.432782 0
M  V30 189 C 15.869 1.9004 -3.02687 0
M  V30 190 C 15.698 1.14583 -4.34857 0
M  V30 191 C 14.468 0.858068 -4.97961 0
M  V30 192 C 16.666 0.532069 -5.1154 0
M  V30 193 N 14.648 0.0775974 -6.13851 0
M  V30 194 C 16.019 -0.113823 -6.19896 0
M  V30 195 C 18.074 0.440763 -4.95945 0
M  V30 196 C 16.777 -0.842231 -7.14352 0
M  V30 197 C 18.803 -0.274072 -5.90765 0
M  V30 198 C 18.165 -0.90867 -6.98515 0
M  V30 199 H 14.264 0.344811 -0.701875 0
M  V30 200 H 16.848 0.267141 -1.92859 0
M  V30 201 H 15.019 2.59775 -2.88741 0
M  V30 202 H 16.751 2.56243 -3.13243 0
M  V30 203 H 13.506 1.16547 -4.59036 0
M  V30 204 H 13.93 -0.300216 -6.76334 0
M  V30 205 H 18.572 0.917064 -4.12735 0
M  V30 206 H 16.29 -1.33019 -7.97077 0
M  V30 207 H 19.876 -0.345151 -5.80775 0
M  V30 208 H 18.756 -1.45299 -7.70622 0
M  V30 209 N 16.2591 1.48442 0.529413 0
M  V30 210 C 17.5071 1.56179 1.28267 0
M  V30 211 C 17.8281 0.237721 1.93546 0
M  V30 212 O 17.0981 -0.740779 1.81354 0
M  V30 213 H 15.6781 0.575367 0.476405 0
M  V30 214 H 18.3401 1.84909 0.61602 0
M  V30 215 H 17.4361 2.34312 2.06165 0
M  V30 216 N 17.7372 -0.778329 1.37039 0
M  V30 217 C 19.1532 -1.07796 1.17695 0
M  V30 218 C 19.3532 -2.01498 0.00860115 0
M  V30 219 O 18.4092 -2.43901 -0.653352 0
M  V30 220 C 19.7222 -1.68178 2.49272 0
M  V30 221 C 21.2702 -1.80467 2.55735 0
M  V30 222 C 21.7452 -2.44263 3.87427 0
M  V30 223 N 23.2362 -2.51721 3.88833 0
M  V30 224 C 23.9712 -3.01919 4.87476 0
M  V30 225 N 23.4672 -3.5234 5.96513 0
M  V30 226 N 25.2602 -3.00733 4.74885 0
M  V30 227 H 17.4112 -0.156032 2.11826 0
M  V30 228 H 19.6742 -0.131844 0.938787 0
M  V30 229 H 19.3802 -1.06796 3.35093 0
M  V30 230 H 19.2542 -2.67554 2.65885 0
M  V30 231 H 21.6412 -2.40984 1.70325 0
M  V30 232 H 21.7222 -0.798656 2.43013 0
M  V30 233 H 21.3662 -1.84388 4.73248 0
M  V30 234 H 21.2962 -3.45458 3.9745 0
M  V30 235 H 23.7872 -2.1603 3.10063 0
M  V30 236 H 24.1002 -3.89027 6.67741 0
M  V30 237 H 22.4452 -3.50462 6.00168 0
M  V30 238 H 25.6362 -2.60638 3.88826 0
M  V30 239 H 25.8092 -3.39545 5.51918 0
M  V30 240 N 19.2153 -1.21501 -1.00376 0
M  V30 241 C 20.1253 -0.991447 -2.12621 0
M  V30 242 C 21.1413 0.0568446 -1.73907 0
M  V30 243 O 22.3173 -0.13348 -2.00957 0
M  V30 244 C 19.3823 -0.560312 -3.42142 0
M  V30 245 C 18.4433 -1.68096 -3.95022 0
M  V30 246 C 17.6763 -1.2703 -5.18362 0
M  V30 247 O 17.8993 -0.144438 -5.70217 0
M  V30 248 O 16.8333 -2.08269 -5.64719 0
M  V30 249 H 20.6593 -1.93158 -2.34358 0
M  V30 250 H 18.2443 -0.999999 -1.10997 0
M  V30 251 H 20.1263 -0.329724 -4.20108 0
M  V30 252 H 18.8013 0.351089 -3.2179 0
M  V30 253 H 17.7083 -1.96597 -3.18278 0
M  V30 254 H 19.0413 -2.56983 -4.19786 0
M  V30 255 N 20.6934 1.19889 -1.02296 0
M  V30 256 C 22.1094 1.41462 -0.738954 0
M  V30 257 C 22.3094 1.89721 0.678846 0
M  V30 258 O 21.3654 2.07016 1.4457 0
M  V30 259 C 22.6784 2.43083 -1.77005 0
M  V30 260 C 24.2264 2.5684 -1.78892 0
M  V30 261 C 24.7014 3.61709 -2.80945 0
M  V30 262 N 26.1924 3.69199 -2.79725 0
M  V30 263 C 26.9274 4.50019 -3.55345 0
M  V30 264 N 26.4234 5.34592 -4.40662 0
M  V30 265 N 28.2164 4.44612 -3.43914 0
M  V30 266 H 20.3674 0.868827 -1.93817 0
M  V30 267 H 22.6304 0.44399 -0.837602 0
M  V30 268 H 22.3364 2.14636 -2.78612 0
M  V30 269 H 22.2104 3.4217 -1.58744 0
M  V30 270 H 24.5974 2.84614 -0.779674 0
M  V30 271 H 24.6784 1.57927 -2.01228 0
M  V30 272 H 24.3224 3.34678 -3.82038 0
M  V30 273 H 24.2524 4.60259 -2.5587 0
M  V30 274 H 26.7434 3.08794 -2.17842 0
M  V30 275 H 27.0564 5.93363 -4.95116 0
M  V30 276 H 25.4014 5.34073 -4.44737 0
M  V30 277 H 28.5924 3.7758 -2.76679 0
M  V30 278 H 28.7654 5.0736 -4.031 0
M  V30 279 N 22.1715 0.800033 1.35784 0
M  V30 280 C 23.4175 0.377901 1.99248 0
M  V30 281 C 23.7505 -1.05052 1.63333 0
M  V30 282 O 23.0255 -1.72768 0.893385 0
M  V30 283 C 23.3085 0.553922 3.55814 0
M  V30 284 C 23.1615 2.0268 4.01548 0
M  V30 285 C 24.4805 -0.0244802 4.40093 0
M  V30 286 H 21.5995 0.138782 0.723815 0
M  V30 287 H 24.2415 1.00835 1.61035 0
M  V30 288 H 22.3915 0.0172398 3.88496 0
M  V30 289 H 24.0635 2.62536 3.79305 0
M  V30 290 H 22.3065 2.5256 3.52698 0
M  V30 291 H 22.9775 2.10087 5.10458 0
M  V30 292 H 25.4535 0.433775 4.13833 0
M  V30 293 H 24.3295 0.128637 5.48749 0
M  V30 294 H 24.5905 -1.11758 4.27741 0
M  V30 295 N 23.6496 -1.47581 0.552962 0
M  V30 296 C 24.5596 -2.33743 -0.200353 0
M  V30 297 C 25.5756 -1.47928 -0.916151 0
M  V30 298 O 26.7516 -1.80865 -0.885993 0
M  V30 299 C 23.8166 -3.24536 -1.21973 0
M  V30 300 C 22.8776 -4.26238 -0.511819 0
M  V30 301 C 22.1106 -5.12693 -1.48263 0
M  V30 302 O 22.3336 -5.01525 -2.71714 0
M  V30 303 O 21.2676 -5.93375 -1.00945 0
M  V30 304 H 25.0936 -2.9945 0.506304 0
M  V30 305 H 22.6786 -1.46071 0.313622 0
M  V30 306 H 24.5606 -3.80631 -1.80827 0
M  V30 307 H 23.2356 -2.61462 -1.90839 0
M  V30 308 H 22.1426 -3.73914 0.117799 0
M  V30 309 H 23.4756 -4.92014 0.135308 0
M  V30 310 N 25.1277 -0.289203 -1.54924 0
M  V30 311 C 26.3757 0.322879 -1.99504 0
M  V30 312 C 26.6967 1.55313 -1.1791 0
M  V30 313 O 25.9667 1.94001 -0.272097 0
M  V30 314 H 24.5467 0.122291 -0.736922 0
M  V30 315 H 27.2087 -0.397802 -1.90797 0
M  V30 316 H 26.3047 0.603061 -3.06218 0
M  V30 317 N 26.6058 1.57591 -0.0167156 0
M  V30 318 C 27.5378 2.06343 0.997753 0
M  V30 319 C 28.5508 0.984469 1.29661 0
M  V30 320 O 29.7398 1.26093 1.26344 0
M  V30 321 C 26.8398 2.46255 2.32834 0
M  V30 322 C 26.0128 3.77083 2.21646 0
M  V30 323 C 25.0718 4.0368 3.37534 0
M  V30 324 O 24.0978 4.7411 3.14973 0
M  V30 325 N 25.2998 3.52881 4.60929 0
M  V30 326 H 28.0648 2.93997 0.581875 0
M  V30 327 H 25.6258 1.61002 0.170316 0
M  V30 328 H 27.6178 2.61149 3.09166 0
M  V30 329 H 26.1878 1.64032 2.66106 0
M  V30 330 H 25.4078 3.72106 1.30119 0
M  V30 331 H 26.6958 4.62822 2.11361 0
M  V30 332 H 26.0938 2.95878 4.82154 0
M  V30 333 H 24.6508 3.73076 5.34469 0
M  V30 334 N 28.0839 -0.256276 1.55502 0
M  V30 335 C 29.0309 -1.31714 1.89526 0
M  V30 336 C 30.0009 -1.4828 0.748479 0
M  V30 337 O 31.1859 -1.62416 1.00128 0
M  V30 338 C 28.3259 -2.66933 2.18725 0
M  V30 339 C 27.4389 -2.58452 3.4616 0
M  V30 340 C 26.5739 -3.85961 3.64976 0
M  V30 341 C 25.6129 -3.72059 4.86044 0
M  V30 342 N 24.7499 -4.9144 5.01429 0
M  V30 343 H 29.5899 -1.01998 2.80001 0
M  V30 344 H 27.1269 -0.492413 1.38613 0
M  V30 345 H 29.0849 -3.4563 2.33657 0
M  V30 346 H 27.7149 -2.94816 1.31466 0
M  V30 347 H 26.7669 -1.71374 3.3961 0
M  V30 348 H 28.0789 -2.44085 4.34999 0
M  V30 349 H 27.2329 -4.73101 3.79816 0
M  V30 350 H 25.9719 -4.03215 2.74353 0
M  V30 351 H 24.9769 -2.83302 4.7119 0
M  V30 352 H 26.2019 -3.56309 5.78118 0
M  V30 353 H 24.1479 -5.09072 4.13741 0
M  V30 354 H 24.0649 -4.79668 5.84341 0
M  V30 355 H 25.3329 -5.80104 5.20672 0
M  V30 356 N 29.562 -1.4872 -0.521534 0
M  V30 357 C 30.787 -1.61101 -1.30618 0
M  V30 358 C 31.212 -0.274611 -1.86085 0
M  V30 359 O 30.57 0.754937 -1.64834 0
M  V30 360 C 30.618 -2.66709 -2.4269 0
M  V30 361 O 29.722 -2.24456 -3.45967 0
M  V30 362 H 29.063 -0.539921 -0.386499 0
M  V30 363 H 31.593 -1.94767 -0.626645 0
M  V30 364 H 31.603 -2.88245 -2.88754 0
M  V30 365 H 30.278 -3.63727 -2.01682 0
M  V30 366 H 28.855 -2.13168 -3.05964 0
M  V30 367 N 31.0401 0.771051 -1.3745 0
M  V30 368 C 31.9881 1.90574 -1.33358 0
M  V30 369 C 32.9821 1.67936 -0.22224 0
M  V30 370 O 34.1881 1.75717 -0.390304 0
M  V30 371 H 30.5631 0.626714 -0.415612 0
M  V30 372 H 32.5341 1.91142 -2.29144 0
M  V30 373 C 31.2831 3.27845 -1.15813 0
M  V30 374 H 30.6061 3.45842 -2.00583 0
M  V30 375 H 32.0461 4.07538 -1.17 0
M  V30 376 C 30.5051 3.36625 0.136165 0
M  V30 377 O 31.0351 3.85785 1.11949 0
M  V30 378 N 29.2411 2.89997 0.187099 0
M  V30 379 H 28.7881 2.50182 -0.613753 0
M  V30 380 H 28.7461 2.96252 1.05272 0
M  V30 381 N 32.5182 1.22032 0.997298 0
M  V30 382 C 33.9342 0.979326 1.26021 0
M  V30 383 C 34.1342 -0.32972 1.98784 0
M  V30 384 O 33.1902 -1.05345 2.29475 0
M  V30 385 C 34.5032 2.17509 2.07631 0
M  V30 386 C 36.0512 2.21817 2.2083 0
M  V30 387 C 36.5262 3.40933 3.05825 0
M  V30 388 N 38.0172 3.41067 3.13412 0
M  V30 389 C 38.7522 4.29885 3.79455 0
M  V30 390 N 38.2482 5.28914 4.47462 0
M  V30 391 N 40.0412 4.17673 3.76173 0
M  V30 392 H 32.1922 2.06202 0.509352 0
M  V30 393 H 34.4552 0.90334 0.287541 0
M  V30 394 H 34.1612 3.12415 1.61524 0
M  V30 395 H 34.0352 2.17206 3.08385 0
M  V30 396 H 36.4222 1.27462 2.66153 0
M  V30 397 H 36.5032 2.2616 1.1952 0
M  V30 398 H 36.1472 4.35586 2.61203 0
M  V30 399 H 36.0772 3.33829 4.07266 0
M  V30 400 H 38.5682 2.69406 2.65007 0
M  V30 401 H 38.8812 5.92973 4.95583 0
M  V30 402 H 37.2262 5.32831 4.46224 0
M  V30 403 H 40.4172 3.39564 3.22202 0
M  V30 404 H 40.5902 4.87098 4.27363 0
M  V30 405 N 33.9963 -1.19345 1.0293 0
M  V30 406 C 34.9433 -2.2258 0.610464 0
M  V30 407 C 35.9133 -1.6179 -0.375946 0
M  V30 408 O 37.0983 -1.88844 -0.272511 0
M  V30 409 C 34.2383 -3.45085 -0.0321473 0
M  V30 410 C 33.3513 -4.20258 1.00035 0
M  V30 411 C 32.4863 -5.3019 0.32746 0
M  V30 412 C 31.5253 -5.97121 1.34584 0
M  V30 413 N 30.6623 -6.98615 0.698726 0
M  V30 414 H 35.5023 -2.57764 1.49538 0
M  V30 415 H 33.0393 -1.26644 0.748311 0
M  V30 416 H 34.9973 -4.15061 -0.421966 0
M  V30 417 H 33.6273 -3.10555 -0.88064 0
M  V30 418 H 32.6793 -3.49223 1.50823 0
M  V30 419 H 33.9913 -4.66175 1.77433 0
M  V30 420 H 33.1453 -6.06587 -0.11718 0
M  V30 421 H 31.8843 -4.85345 -0.478713 0
M  V30 422 H 30.8893 -5.19474 1.80074 0
M  V30 423 H 32.1143 -6.4405 2.15352 0
M  V30 424 H 30.0603 -6.55942 -0.0873471 0
M  V30 425 H 29.9773 -7.42724 1.41058 0
M  V30 426 H 31.2453 -7.79004 0.278102 0
M  V30 427 N 35.4744 -0.807222 -1.35358 0
M  V30 428 C 36.7514 -0.311126 -1.9311 0
M  V30 429 C 37.1314 1.19937 -1.73719 0
M  V30 430 O 36.4794 1.99918 -1.10657 0
M  V30 431 C 36.6894 -0.723226 -3.41424 0
M  V30 432 C 38.0374 -0.713078 -4.18569 0
M  V30 433 O 39.0614 -0.664811 -3.49941 0
M  V30 434 O 37.9204 -0.772022 -5.41019 0
M  V30 435 H 35.0144 -0.081526 -0.822972 0
M  V30 436 H 37.5604 -0.890962 -1.4443 0
M  V30 437 H 36.3324 -1.76426 -3.4927 0
M  V30 438 H 35.9554 -0.118232 -3.97424 0
M  V30 439 N 36.9525 1.47285 -0.560781 0
M  V30 440 C 38.1825 2.06555 -0.0429638 0
M  V30 441 C 38.5905 1.41339 1.25777 0
M  V30 442 O 37.9335 0.505182 1.76617 0
M  V30 443 C 37.9955 3.58827 0.219887 0
M  V30 444 C 37.6595 4.46105 -0.991944 0
M  V30 445 C 38.6565 4.84 -1.89843 0
M  V30 446 C 36.3415 4.87567 -1.20762 0
M  V30 447 C 38.3355 5.6216 -3.00425 0
M  V30 448 C 36.0225 5.65491 -2.31653 0
M  V30 449 C 37.0205 6.02699 -3.21315 0
M  V30 450 O 36.7085 6.79052 -4.30283 0
M  V30 451 H 36.4405 0.674537 -0.0444468 0
M  V30 452 H 38.9945 1.90225 -0.774818 0
M  V30 453 H 37.2245 3.73383 1.00609 0
M  V30 454 H 38.9135 4.00103 0.683522 0
M  V30 455 H 39.6795 4.52564 -1.74387 0
M  V30 456 H 35.5585 4.5807 -0.518893 0
M  V30 457 H 39.1025 5.9112 -3.70436 0
M  V30 458 H 34.9995 5.9634 -2.47081 0
M  V30 459 H 35.7675 6.9745 -4.28376 0
M  V30 460 N 38.4306 0.297415 1.54768 0
M  V30 461 C 39.6556 -0.318435 2.04941 0
M  V30 462 C 40.0806 -1.4701 1.17345 0
M  V30 463 O 39.4386 -1.80436 0.176758 0
M  V30 464 C 39.4866 -0.755749 3.52592 0
M  V30 465 O 38.5906 -1.86088 3.68028 0
M  V30 466 H 37.9316 -0.062421 0.661059 0
M  V30 467 H 40.4616 0.438215 1.99852 0
M  V30 468 H 40.4716 -1.04552 3.94376 0
M  V30 469 H 39.1466 0.0867233 4.1581 0
M  V30 470 H 37.7236 -1.57193 3.38149 0
M  V30 471 N 39.9087 -1.5758 0.0250728 0
M  V30 472 C 40.8387 -2.13007 -0.956575 0
M  V30 473 C 41.8197 -1.0452 -1.342 0
M  V30 474 O 43.0047 -1.32332 -1.42133 0
M  V30 475 C 40.1347 -2.65386 -2.24026 0
M  V30 476 C 39.0887 -3.78623 -1.99571 0
M  V30 477 C 38.4147 -4.17414 -3.3417 0
M  V30 478 C 39.7147 -5.04867 -1.33814 0
M  V30 479 H 41.4087 -2.9528 -0.494991 0
M  V30 480 H 38.9547 -1.42042 -0.236651 0
M  V30 481 H 40.9077 -3.02794 -2.93076 0
M  V30 482 H 39.6317 -1.80268 -2.72343 0
M  V30 483 H 38.2907 -3.41646 -1.32941 0
M  V30 484 H 37.9387 -3.29284 -3.80238 0
M  V30 485 H 37.6387 -4.93719 -3.18615 0
M  V30 486 H 39.1627 -4.57402 -4.04495 0
M  V30 487 H 40.5767 -5.39888 -1.92857 0
M  V30 488 H 38.9737 -5.86144 -1.28669 0
M  V30 489 H 40.0437 -4.83904 -0.310561 0
M  V30 490 N 41.3868 0.248026 -1.55636 0
M  V30 491 C 42.6148 0.993808 -1.81469 0
M  V30 492 C 43.0298 1.78991 -0.60064 0
M  V30 493 O 42.3868 1.77345 0.430682 0
M  V30 494 C 42.4378 1.93258 -3.05506 0
M  V30 495 O 42.1588 1.16869 -4.22224 0
M  V30 496 C 43.6598 2.79444 -3.4413 0
M  V30 497 H 40.8798 0.292486 -0.603898 0
M  V30 498 H 43.4238 0.271253 -2.02693 0
M  V30 499 H 41.5788 2.60943 -2.86335 0
M  V30 500 H 41.9928 1.80359 -4.92515 0
M  V30 501 H 43.4668 3.41066 -4.34026 0
M  V30 502 H 43.9438 3.50499 -2.64665 0
M  V30 503 H 44.5498 2.17214 -3.65648 0
M  V30 504 N 42.8649 1.48995 0.513639 0
M  V30 505 C 43.7979 1.59319 1.63379 0
M  V30 506 C 44.7759 0.442816 1.56454 0
M  V30 507 O 45.9599 0.656655 1.76693 0
M  V30 508 C 43.0869 1.5364 3.01848 0
M  V30 509 C 42.1329 2.7372 3.27078 0
M  V30 510 S 42.9659 4.35528 3.1157 0
M  V30 511 C 44.1219 4.32473 4.52458 0
M  V30 512 H 44.3549 2.54079 1.54374 0
M  V30 513 H 41.8879 1.3773 0.697849 0
M  V30 514 H 43.8459 1.51049 3.81699 0
M  V30 515 H 42.5069 0.601898 3.08279 0
M  V30 516 H 41.6999 2.6593 4.28132 0
M  V30 517 H 41.3019 2.73657 2.54927 0
M  V30 518 H 43.5939 4.03414 5.44301 0
M  V30 519 H 44.5369 5.33762 4.65299 0
M  V30 520 H 44.9449 3.62718 4.32546 0
M  V30 521 N 44.343 -0.763751 1.37857 0
M  V30 522 C 45.275 -1.88664 1.30148 0
M  V30 523 C 46.288 -1.61365 0.215685 0
M  V30 524 O 47.477 -1.72134 0.472459 0
M  V30 525 C 44.577 -3.24075 0.991396 0
M  V30 526 C 43.75 -3.78958 2.18426 0
M  V30 527 C 42.809 -4.92862 1.8432 0
M  V30 528 O 41.835 -5.08027 2.56704 0
M  V30 529 N 43.037 -5.75071 0.792081 0
M  V30 530 H 45.802 -1.95791 2.26905 0
M  V30 531 H 43.363 -0.943226 1.31586 0
M  V30 532 H 45.355 -3.97804 0.743935 0
M  V30 533 H 43.925 -3.12399 0.112122 0
M  V30 534 H 43.145 -2.96913 2.59299 0
M  V30 535 H 44.433 -4.12357 2.98058 0
M  V30 536 H 43.831 -5.65375 0.191595 0
M  V30 537 H 42.388 -6.48991 0.60449 0
M  V30 538 N 45.8211 -1.22559 -0.990812 0
M  V30 539 C 47.0461 -1.07862 -1.77145 0
M  V30 540 C 47.4711 0.366447 -1.84496 0
M  V30 541 O 46.8291 1.26478 -1.29896 0
M  V30 542 C 46.8771 -1.69686 -3.18181 0
M  V30 543 O 45.9811 -0.951946 -4.01263 0
M  V30 544 H 45.3221 -0.378712 -0.545411 0
M  V30 545 H 47.8521 -1.62399 -1.2445 0
M  V30 546 H 47.8621 -1.74496 -3.68802 0
M  V30 547 H 46.5371 -2.74841 -3.12146 0
M  V30 548 H 45.1141 -0.980011 -3.59792 0
M  V30 549 N 47.2992 1.18797 -1.03562 0
M  V30 550 C 48.5242 1.9314 -0.755764 0
M  V30 551 C 48.9492 1.7537 0.68022 0
M  V30 552 O 48.3072 1.06046 1.47051 0
M  V30 553 C 48.3552 3.42747 -1.12058 0
M  V30 554 O 47.4592 4.11683 -0.243124 0
M  V30 555 H 46.8002 0.602724 -0.278604 0
M  V30 556 H 49.3302 1.50678 -1.3841 0
M  V30 557 H 49.3402 3.93437 -1.08035 0
M  V30 558 H 48.0152 3.55002 -2.16672 0
M  V30 559 H 46.5922 3.71323 -0.342539 0
M  V30 560 N 48.7773 0.814389 1.34928 0
M  V30 561 C 50.0233 0.399013 1.98836 0
M  V30 562 C 50.3563 -1.03314 1.64438 0
M  V30 563 O 49.6313 -1.71811 0.911659 0
M  V30 564 C 49.9143 0.591629 3.55207 0
M  V30 565 C 49.7673 2.06928 3.99376 0
M  V30 566 C 51.0863 0.022199 4.40094 0
M  V30 567 H 48.2053 0.146451 0.722303 0
M  V30 568 H 50.8473 1.02537 1.59957 0
M  V30 569 H 48.9973 0.0584441 3.88456 0
M  V30 570 H 50.6693 2.66544 3.76499 0
M  V30 571 H 48.9123 2.56287 3.49999 0
M  V30 572 H 49.5833 2.1549 5.08201 0
M  V30 573 H 52.0593 0.477643 4.13349 0
M  V30 574 H 50.9353 0.186832 5.48582 0
M  V30 575 H 51.1963 -1.07215 4.28902 0
M  V30 576 N 50.2554 -1.46986 0.568584 0
M  V30 577 C 51.4834 -2.0683 0.0539956 0
M  V30 578 C 51.8984 -1.41953 -1.24478 0
M  V30 579 O 51.2554 -0.519933 -1.74937 0
M  V30 580 C 51.3064 -3.61254 -0.133362 0
M  V30 581 O 51.0274 -4.237 1.11399 0
M  V30 582 C 52.5284 -4.37992 -0.683927 0
M  V30 583 H 49.7484 -0.669058 0.0510141 0
M  V30 584 H 52.2924 -1.88824 0.785234 0
M  V30 585 H 50.4474 -3.78735 -0.81477 0
M  V30 586 H 50.8614 -5.16388 0.91888 0
M  V30 587 H 52.3354 -5.46684 -0.764263 0
M  V30 588 H 52.8124 -4.05058 -1.69778 0
M  V30 589 H 53.4184 -4.25283 -0.0378494 0
M  V30 590 N 51.7335 -0.305618 -1.54608 0
M  V30 591 C 52.9795 0.302746 -2.00528 0
M  V30 592 C 53.3125 1.53184 -1.19367 0
M  V30 593 O 52.5875 1.92598 -0.271321 0
M  V30 594 C 52.8705 0.654756 -3.54097 0
M  V30 595 C 52.7235 -0.583793 -4.45995 0
M  V30 596 C 54.0425 1.47947 -4.14487 0
M  V30 597 H 51.1615 0.108564 -0.72896 0
M  V30 598 H 53.8035 -0.418634 -1.85331 0
M  V30 599 H 51.9535 1.26935 -3.67178 0
M  V30 600 H 53.6255 -1.22224 -4.44814 0
M  V30 601 H 51.8685 -1.21615 -4.16404 0
M  V30 602 H 52.5395 -0.293287 -5.5122 0
M  V30 603 H 55.0155 0.96013 -4.04871 0
M  V30 604 H 53.8915 1.69454 -5.22088 0
M  V30 605 H 54.1525 2.47011 -3.66658 0
M  V30 606 N 53.2116 1.57565 -0.0334293 0
M  V30 607 C 54.1436 2.0739 0.975811 0
M  V30 608 C 55.1566 0.998166 1.2861 0
M  V30 609 O 56.3456 1.27426 1.25 0
M  V30 610 C 53.4456 2.4871 2.30209 0
M  V30 611 C 52.6186 3.79413 2.17634 0
M  V30 612 C 51.6776 4.07237 3.33233 0
M  V30 613 O 50.7036 4.77425 3.09927 0
M  V30 614 N 51.9056 3.5775 4.5716 0
M  V30 615 H 54.6706 2.94598 0.55066 0
M  V30 616 H 52.2316 1.61173 0.15323 0
M  V30 617 H 54.2236 2.64413 3.06378 0
M  V30 618 H 52.7936 1.66845 2.64351 0
M  V30 619 H 52.0136 3.73465 1.26165 0
M  V30 620 H 53.3016 4.65038 2.0644 0
M  V30 621 H 52.6996 3.00976 4.78989 0
M  V30 622 H 51.2566 3.78724 5.30482 0
M  V30 623 N 54.6897 -0.239769 1.55765 0
M  V30 624 C 55.5997 -1.31831 1.94056 0
M  V30 625 C 56.6157 -1.52275 0.841925 0
M  V30 626 O 57.7917 -1.65759 1.14394 0
M  V30 627 C 54.8567 -2.65156 2.23368 0
M  V30 628 C 53.9177 -2.53173 3.46701 0
M  V30 629 C 53.1507 -3.8014 3.74606 0
M  V30 630 O 53.3737 -4.82343 3.04469 0
M  V30 631 O 52.3077 -3.78344 4.68123 0
M  V30 632 H 56.1337 -1.02347 2.85935 0
M  V30 633 H 53.7187 -0.441123 1.42739 0
M  V30 634 H 55.6007 -3.43929 2.43497 0
M  V30 635 H 54.2757 -2.94358 1.34666 0
M  V30 636 H 53.1827 -1.72662 3.31871 0
M  V30 637 H 54.5157 -2.28915 4.35728 0
M  V30 638 N 56.1678 -1.49265 -0.50573 0
M  V30 639 C 57.4158 -1.582 -1.25766 0
M  V30 640 C 57.7368 -0.268482 -1.93143 0
M  V30 641 O 57.0068 0.711833 -1.8251 0
M  V30 642 H 55.5868 -0.582873 -0.467191 0
M  V30 643 H 58.2488 -1.85865 -0.586525 0
M  V30 644 H 57.3448 -2.37563 -2.02412 0
M  V30 645 N 57.6459 0.756429 -1.3826 0
M  V30 646 C 58.5789 1.87802 -1.29637 0
M  V30 647 C 59.5569 1.61667 -0.173939 0
M  V30 648 O 60.7409 1.85208 -0.350775 0
M  V30 649 C 57.8679 3.23354 -1.00797 0
M  V30 650 C 56.9139 3.68379 -2.14939 0
M  V30 651 S 57.7469 3.8025 -3.77054 0
M  V30 652 C 58.9029 5.18626 -3.50396 0
M  V30 653 H 59.1359 1.94829 -2.24564 0
M  V30 654 H 56.6689 0.919117 -1.24063 0
M  V30 655 H 58.6269 4.01637 -0.848413 0
M  V30 656 H 57.2879 3.14008 -0.0759369 0
M  V30 657 H 56.4809 4.66693 -1.90299 0
M  V30 658 H 56.0829 2.97242 -2.26988 0
M  V30 659 H 58.3749 6.04289 -3.06334 0
M  V30 660 H 59.3179 5.48286 -4.48094 0
M  V30 661 H 59.7259 4.87289 -2.84973 0
M  V30 662 N 59.124 1.23083 0.984299 0
M  V30 663 C 60.364 1.07226 1.74017 0
M  V30 664 C 60.728 -0.384766 1.88105 0
M  V30 665 O 61.929 -0.664411 2.60459 0
M  V30 666 C 60.2 1.77348 3.10294 0
M  V30 667 S 61.759 1.77014 4.01512 0
M  V30 668 H 58.577 0.383819 0.598502 0
M  V30 669 H 61.179 1.56158 1.17622 0
M  V30 670 H 59.883 2.82506 2.97689 0
M  V30 671 H 59.414 1.28682 3.71759 0
M  V30 672 H 61.429 0.825956 4.89277 0
M  V30 673 N 60.6021 -1.18246 1.0419 0
M  V30 674 C 61.8481 -1.88536 0.747122 0
M  V30 675 C 62.1811 -1.80223 -0.723409 0
M  V30 676 O 61.4561 -1.20337 -1.52804 0
M  V30 677 C 61.7391 -3.38968 1.21544 0
M  V30 678 C 61.5921 -3.56084 2.74816 0
M  V30 679 C 62.9111 -4.32648 0.806482 0
M  V30 680 H 60.0301 -0.684619 0.272883 0
M  V30 681 H 62.6721 -1.39113 1.29413 0
M  V30 682 H 60.8221 -3.8119 0.750081 0
M  V30 683 H 62.4941 -3.22946 3.29399 0
M  V30 684 H 60.7371 -2.98699 3.14582 0
M  V30 685 H 61.4081 -4.61639 3.02644 0
M  V30 686 H 63.8841 -3.98211 1.20695 0
M  V30 687 H 62.7601 -5.36462 1.1619 0
M  V30 688 H 63.0211 -4.41146 -0.29029 0
M  V30 689 N 62.0802 -0.821533 -1.34494 0
M  V30 690 C 63.0302 -0.214793 -2.26986 0
M  V30 691 C 64.0142 0.620125 -1.4847 0
M  V30 692 O 65.2062 0.474933 -1.70509 0
M  V30 693 C 62.3352 0.623566 -3.37589 0
M  V30 694 C 61.4212 -0.221904 -4.23519 0
M  V30 695 N 61.8122 -1.29223 -4.89014 0
M  V30 696 C 60.1102 -0.00600922 -4.46 0
M  V30 697 C 60.8112 -1.80965 -5.52835 0
M  V30 698 N 59.7872 -1.11376 -5.32068 0
M  V30 699 H 63.5892 -1.03354 -2.75128 0
M  V30 700 H 61.1032 -0.6642 -1.48196 0
M  V30 701 H 63.1002 1.0744 -4.02818 0
M  V30 702 H 61.7602 1.44049 -2.90998 0
M  V30 703 H 62.7712 -1.67502 -4.90065 0
M  V30 704 H 59.4482 0.77886 -4.10171 0
M  V30 705 H 60.8382 -2.70502 -6.15043 0
M  V30 706 N 63.5583 1.46682 -0.576371 0
M  V30 707 C 64.8043 2.02712 -0.0596221 0
M  V30 708 C 65.1373 1.44765 1.29448 0
M  V30 709 O 64.4123 0.610355 1.84675 0
M  V30 710 C 64.6953 3.60098 0.0129503 0
M  V30 711 C 64.5483 4.28441 -1.3696 0
M  V30 712 C 65.8673 4.34224 0.71678 0
M  V30 713 H 62.9863 0.736637 -0.0231407 0
M  V30 714 H 65.6283 1.74898 -0.742351 0
M  V30 715 H 63.7783 3.83926 0.594378 0
M  V30 716 H 65.4503 4.15896 -1.9957 0
M  V30 717 H 63.6933 3.8805 -1.93907 0
M  V30 718 H 64.3643 5.3716 -1.27135 0
M  V30 719 H 66.8403 4.15503 0.222908 0
M  V30 720 H 65.7163 5.43936 0.73657 0
M  V30 721 H 65.9773 4.04823 1.77682 0
M  V30 722 N 65.0364 0.313813 1.54444 0
M  V30 723 C 66.4524 -0.0391619 1.59552 0
M  V30 724 C 66.6524 -1.51322 1.33056 0
M  V30 725 O 65.7084 -2.26782 1.11022 0
M  V30 726 C 67.0214 0.370302 2.98411 0
M  V30 727 C 68.5694 0.320139 3.11358 0
M  V30 728 C 69.0444 0.704617 4.52547 0
M  V30 729 N 70.5354 0.657645 4.58508 0
M  V30 730 C 71.2704 0.927453 5.6585 0
M  V30 731 N 70.7664 1.26389 6.81174 0
M  V30 732 N 72.5594 0.853662 5.5558 0
M  V30 733 H 64.7104 1.27433 1.69925 0
M  V30 734 H 66.9734 0.517511 0.794284 0
M  V30 735 H 66.6794 1.39694 3.22767 0
M  V30 736 H 66.5534 -0.269619 3.76235 0
M  V30 737 H 68.9404 -0.697275 2.86744 0
M  V30 738 H 69.0214 0.99486 2.35661 0
M  V30 739 H 68.6654 1.7199 4.77893 0
M  V30 740 H 68.5954 0.00768843 5.26599 0
M  V30 741 H 71.0864 0.409067 3.75679 0
M  V30 742 H 71.3994 1.4554 7.58972 0
M  V30 743 H 69.7444 1.30206 6.82694 0
M  V30 744 H 72.9354 0.590383 4.64362 0
M  V30 745 H 73.1084 1.0673 6.3915 0
M  V30 746 N 66.5145 -1.57545 0.0417849 0
M  V30 747 C 67.7545 -1.94185 -0.63809 0
M  V30 748 C 68.1185 -0.919339 -1.68559 0
M  V30 749 O 69.3195 -1.17236 -2.41886 0
M  V30 750 C 67.5905 -3.35672 -1.22714 0
M  V30 751 S 69.1495 -3.94256 -1.92633 0
M  V30 752 H 65.9675 -0.679353 -0.209764 0
M  V30 753 H 68.5695 -1.95199 0.108479 0
M  V30 754 H 67.2735 -4.07898 -0.452503 0
M  V30 755 H 66.8045 -3.38132 -2.01073 0
M  V30 756 H 68.8195 -3.7872 -3.20602 0
M  V30 757 N 67.9926 0.231505 -1.5589 0
M  V30 758 C 69.2176 0.978689 -1.82856 0
M  V30 759 C 69.6426 1.77559 -0.620846 0
M  V30 760 O 69.0006 1.76119 0.430305 0
M  V30 761 C 69.0486 1.87997 -3.07716 0
M  V30 762 O 68.1526 2.97393 -2.85712 0
M  V30 763 H 67.4936 0.277663 -0.603158 0
M  V30 764 H 70.0236 0.24783 -2.03093 0
M  V30 765 H 70.0336 2.2917 -3.37558 0
M  V30 766 H 68.7086 1.29417 -3.95252 0
M  V30 767 H 67.2856 2.60238 -2.67078 0
M  V30 768 N 69.4707 1.49531 0.497807 0
M  V30 769 C 70.7177 1.59179 1.25173 0
M  V30 770 C 71.0457 0.279932 1.92475 0
M  V30 771 O 70.3007 -0.732383 1.81479 0
M  V30 772 C 70.5997 2.70252 2.33878 0
M  V30 773 C 70.2657 4.11644 1.84012 0
M  V30 774 C 68.9277 4.50121 1.70132 0
M  V30 775 C 71.2797 5.00121 1.46725 0
M  V30 776 C 68.6077 5.74845 1.17348 0
M  V30 777 C 70.9597 6.25366 0.95392 0
M  V30 778 C 69.6237 6.6267 0.801538 0
M  V30 779 H 68.8937 0.582478 0.45804 0
M  V30 780 H 71.5407 1.83373 0.551948 0
M  V30 781 H 69.8457 2.40041 3.09657 0
M  V30 782 H 71.5427 2.74925 2.9192 0
M  V30 783 H 68.1327 3.81274 1.95775 0
M  V30 784 H 72.3167 4.71048 1.56294 0
M  V30 785 H 67.5727 6.02444 1.04264 0
M  V30 786 H 71.7467 6.93301 0.656225 0
M  V30 787 H 69.3737 7.59197 0.390351 0
M  V30 788 N 70.9488 -0.749086 1.3866 0
M  V30 789 C 72.1738 -1.54344 1.38538 0
M  V30 790 C 72.5988 -1.88088 -0.0216655 0
M  V30 791 O 71.9568 -1.50899 -1.00494 0
M  V30 792 C 72.0048 -2.8164 2.25192 0
M  V30 793 O 71.1088 -3.7698 1.67212 0
M  V30 794 H 70.4498 -0.466654 0.472367 0
M  V30 795 H 72.9798 -0.925355 1.82478 0
M  V30 796 H 72.9898 -3.30519 2.3921 0
M  V30 797 H 71.6648 -2.56411 3.27454 0
M  V30 798 H 70.2418 -3.35699 1.6236 0
M  V30 799 N 72.4269 -1.23603 -0.977757 0
M  V30 800 C 73.6569 -1.09487 -1.75203 0
M  V30 801 C 74.0649 0.356321 -1.85814 0
M  V30 802 O 73.4079 1.25816 -1.33851 0
M  V30 803 C 73.4699 -1.64905 -3.19447 0
M  V30 804 C 73.1339 -3.13688 -3.32338 0
M  V30 805 C 74.1309 -4.10953 -3.18455 0
M  V30 806 C 71.8159 -3.53449 -3.56902 0
M  V30 807 C 73.8099 -5.45962 -3.28944 0
M  V30 808 C 71.4969 -4.88602 -3.6703 0
M  V30 809 C 72.4949 -5.84668 -3.53062 0
M  V30 810 O 72.1829 -7.17365 -3.62826 0
M  V30 811 H 71.9149 -0.38367 -0.556573 0
M  V30 812 H 74.4689 -1.6398 -1.23693 0
M  V30 813 H 72.6989 -1.04835 -3.72218 0
M  V30 814 H 74.3879 -1.46226 -3.78646 0
M  V30 815 H 75.1539 -3.81577 -2.99372 0
M  V30 816 H 71.0329 -2.79188 -3.66844 0
M  V30 817 H 74.5769 -6.20925 -3.17958 0
M  V30 818 H 70.4739 -5.17653 -3.85623 0
M  V30 819 H 71.2419 -7.2515 -3.79605 0
M  V30 820 N 73.905 1.17692 -1.04816 0
M  V30 821 C 75.316 1.69501 -0.782698 0
M  V30 822 C 75.667 1.83456 0.695577 0
M  V30 823 O 74.792 1.51942 1.54086 0
M  V30 824 C 75.387 3.07874 -1.41419 0
M  V30 825 C 73.946 3.56864 -1.19686 0
M  V30 826 C 73.093 2.3322 -1.50012 0
M  V30 827 H 76.044 1.02262 -1.2136 0
M  V30 828 H 76.065 3.71528 -0.821428 0
M  V30 829 H 75.577 2.97685 -2.49009 0
M  V30 830 H 73.678 3.72337 -0.140043 0
M  V30 831 H 73.791 4.39851 -1.89916 0
M  V30 832 H 72.155 2.37501 -0.920071 0
M  V30 833 H 72.938 2.25644 -2.58727 0
M  V30 834 N 75.3831 0.828654 1.34056 0
M  V30 835 C 76.6291 0.42008 1.98402 0
M  V30 836 C 76.9621 -1.01564 1.65525 0
M  V30 837 O 76.2371 -1.70834 0.929831 0
M  V30 838 C 76.5201 0.62927 3.54559 0
M  V30 839 C 76.3731 2.11152 3.97159 0
M  V30 840 C 77.6921 0.0688756 4.40046 0
M  V30 841 H 74.8111 0.154104 0.720709 0
M  V30 842 H 77.4531 1.04228 1.5886 0
M  V30 843 H 75.6031 0.0996418 3.88372 0
M  V30 844 H 77.2751 2.70522 3.73651 0
M  V30 845 H 75.5181 2.59985 3.47261 0
M  V30 846 H 76.1891 2.20868 5.05887 0
M  V30 847 H 78.6651 0.521458 4.1282 0
M  V30 848 H 77.5411 0.245006 5.48353 0
M  V30 849 H 77.8021 -1.0266 4.30015 0
M  V30 850 N 76.8612 -1.46375 0.584142 0
M  V30 851 C 78.1382 -1.956 0.0033388 0
M  V30 852 C 78.5182 -1.52679 -1.45782 0
M  V30 853 O 77.8662 -0.77816 -2.14842 0
M  V30 854 C 78.0762 -3.48551 0.176891 0
M  V30 855 C 79.4242 -4.24576 0.0454609 0
M  V30 856 O 80.4482 -3.56043 0.105801 0
M  V30 857 O 79.3072 -5.46427 -0.0890376 0
M  V30 858 H 76.4012 -0.825547 -0.0490066 0
M  V30 859 H 78.9472 -1.56652 0.65256 0
M  V30 860 H 77.7192 -3.72683 1.1926 0
M  V30 861 H 77.3422 -3.94332 -0.508695 0
M  V30 862 N 78.3393 -0.321999 -1.54275 0
M  V30 863 C 79.5643 0.285791 -2.05422 0
M  V30 864 C 79.9893 1.45124 -1.19669 0
M  V30 865 O 79.3473 1.80132 -0.205441 0
M  V30 866 C 79.3953 0.69956 -3.53749 0
M  V30 867 O 78.4993 1.8021 -3.70942 0
M  V30 868 H 77.8403 0.0518962 -0.661969 0
M  V30 869 H 80.3703 -0.469954 -1.9913 0
M  V30 870 H 80.3803 0.982649 -3.9599 0
M  V30 871 H 79.0553 -0.152864 -4.15619 0
M  V30 872 H 77.6323 1.51794 -3.40607 0
M  V30 873 N 79.8174 1.5752 -0.0501392 0
M  V30 874 C 80.7494 2.08413 0.95376 0
M  V30 875 C 81.7624 1.01175 1.27544 0
M  V30 876 O 82.9514 1.28744 1.23641 0
M  V30 877 C 80.0514 2.51138 2.27559 0
M  V30 878 C 79.2244 3.817 2.13598 0
M  V30 879 C 78.2834 4.10749 3.28895 0
M  V30 880 O 77.3094 4.80685 3.04845 0
M  V30 881 N 78.5114 3.62579 4.5334 0
M  V30 882 H 81.2764 2.95165 0.519383 0
M  V30 883 H 78.8374 1.61327 0.136127 0
M  V30 884 H 80.8294 2.67648 3.03557 0
M  V30 885 H 79.3994 1.6964 2.62567 0
M  V30 886 H 78.6194 3.74782 1.22197 0
M  V30 887 H 79.9074 4.67201 2.01496 0
M  V30 888 H 79.3054 3.06039 4.75769 0
M  V30 889 H 77.8624 3.84329 5.26436 0
M  V30 890 N 81.2955 -0.223234 1.56011 0
M  V30 891 C 82.5235 -0.964812 1.83027 0
M  V30 892 C 82.9385 -1.78013 0.62904 0
M  V30 893 O 82.2955 -1.78008 -0.402414 0
M  V30 894 C 82.3465 -1.88373 3.08542 0
M  V30 895 O 82.0675 -1.10137 4.2403 0
M  V30 896 C 83.5685 -2.73934 3.48533 0
M  V30 897 H 80.7885 -0.282842 0.608475 0
M  V30 898 H 83.3325 -0.238971 2.03099 0
M  V30 899 H 81.4875 -2.56354 2.9045 0
M  V30 900 H 81.9015 -1.72501 4.95322 0
M  V30 901 H 83.3755 -3.34117 4.39397 0
M  V30 902 H 83.8525 -3.46244 2.70207 0
M  V30 903 H 84.4585 -2.11369 3.69057 0
M  V30 904 N 82.7736 -1.49793 -0.48987 0
M  V30 905 C 84.0506 -1.50348 -1.25119 0
M  V30 906 C 84.4306 -0.237466 -2.0976 0
M  V30 907 O 83.7786 0.77981 -2.14782 0
M  V30 908 C 83.9886 -2.78872 -2.09837 0
M  V30 909 C 85.3366 -3.288 -2.68655 0
M  V30 910 O 86.3606 -2.80065 -2.20096 0
M  V30 911 O 85.2196 -4.13707 -3.57083 0
M  V30 912 H 82.3136 -0.602242 -0.566775 0
M  V30 913 H 84.8596 -1.62067 -0.503229 0
M  V30 914 H 83.6316 -3.62499 -1.47343 0
M  V30 915 H 83.2546 -2.70066 -2.91805 0
M  V30 916 N 84.2517 0.741722 -1.39055 0
M  V30 917 C 85.4767 1.53607 -1.39354 0
M  V30 918 C 85.9017 1.88096 0.0116905 0
M  V30 919 O 85.2597 1.5143 0.996924 0
M  V30 920 C 85.3077 2.80441 -2.26682 0
M  V30 921 O 84.4117 3.76088 -1.69208 0
M  V30 922 H 83.7527 0.464142 -0.474835 0
M  V30 923 H 86.2827 0.915665 -1.82967 0
M  V30 924 H 86.2927 3.29246 -2.40959 0
M  V30 925 H 84.9677 2.5467 -3.2881 0
M  V30 926 H 83.5447 3.34833 -1.64138 0
M  V30 927 N 85.7298 1.2412 0.971189 0
M  V30 928 C 87.0068 0.986867 1.6888 0
M  V30 929 C 87.3868 -0.491857 2.0529 0
M  V30 930 O 86.7348 -1.46531 1.75331 0
M  V30 931 C 86.9448 1.9063 2.92338 0
M  V30 932 C 88.2928 2.17515 3.64654 0
M  V30 933 O 89.3168 1.88254 3.02388 0
M  V30 934 O 88.1758 2.6719 4.7673 0
M  V30 935 H 85.2698 0.372944 0.738134 0
M  V30 936 H 87.8158 1.35203 1.02559 0
M  V30 937 H 86.5878 2.90552 2.62097 0
M  V30 938 H 86.2108 1.54408 3.66393 0
M  V30 939 N 87.2079 -1.17134 1.05439 0
M  V30 940 C 88.6189 -1.69084 0.791676 0
M  V30 941 C 88.9699 -1.83822 -0.685839 0
M  V30 942 O 88.0949 -1.52757 -1.53278 0
M  V30 943 C 88.6899 -3.07119 1.4305 0
M  V30 944 C 87.2489 -3.56225 1.21577 0
M  V30 945 C 86.3959 -2.32421 1.51247 0
M  V30 946 H 89.3469 -1.01617 1.219 0
M  V30 947 H 89.3679 -3.71087 0.84112 0
M  V30 948 H 88.8799 -2.9636 2.50584 0
M  V30 949 H 86.9809 -3.72257 0.159787 0
M  V30 950 H 87.0939 -4.38837 1.92246 0
M  V30 951 H 85.4579 -2.3701 0.932653 0
M  V30 952 H 86.2409 -2.24268 2.5992 0
M  V30 953 N 88.686 -0.835752 -1.33615 0
M  V30 954 C 89.932 -0.430596 -1.98176 0
M  V30 955 C 90.265 1.00684 -1.66061 0
M  V30 956 O 89.54 1.70339 -0.938877 0
M  V30 957 C 89.823 -0.648065 -3.5422 0
M  V30 958 C 89.676 -2.13255 -3.96033 0
M  V30 959 C 90.995 -0.0922113 -4.40003 0
M  V30 960 H 88.114 -0.157924 -0.719881 0
M  V30 961 H 90.756 -1.05069 -1.58305 0
M  V30 962 H 88.906 -0.120237 -3.88314 0
M  V30 963 H 90.578 -2.725 -3.72211 0
M  V30 964 H 88.821 -2.61823 -3.45878 0
M  V30 965 H 89.492 -2.23547 -5.04708 0
M  V30 966 H 91.968 -0.543343 -4.12537 0
M  V30 967 H 90.844 -0.274083 -5.48215 0
M  V30 968 H 91.105 1.00378 -4.30554 0
M  V30 969 N 90.1641 1.46063 -0.591896 0
M  V30 970 C 91.1141 2.27458 0.157172 0
M  V30 971 C 92.0981 1.3641 0.853301 0
M  V30 972 O 93.2901 1.60517 0.74588 0
M  V30 973 C 90.4191 3.22956 1.16423 0
M  V30 974 C 89.5051 4.2149 0.469742 0
M  V30 975 N 89.8961 5.03519 -0.479839 0
M  V30 976 C 88.1941 4.40161 0.719319 0
M  V30 977 C 88.8951 5.74904 -0.886591 0
M  V30 978 N 87.8711 5.43097 -0.233731 0
M  V30 979 H 91.6731 2.88272 -0.572392 0
M  V30 980 H 89.1871 1.57024 -0.414375 0
M  V30 981 H 91.1841 3.79986 1.71513 0
M  V30 982 H 89.8441 2.63701 1.89451 0
M  V30 983 H 90.8551 5.1078 -0.855823 0
M  V30 984 H 87.5321 3.92046 1.43548 0
M  V30 985 H 88.9221 6.50844 -1.66888 0
M  V30 986 N 91.6422 0.330177 1.54103 0
M  V30 987 C 92.8902 -0.269871 2.0029 0
M  V30 988 C 93.2112 -1.52133 1.21986 0
M  V30 989 O 92.4812 -1.93212 0.323438 0
M  V30 990 H 91.0612 -0.10271 0.739905 0
M  V30 991 H 93.7232 0.448249 1.89675 0
M  V30 992 H 92.8192 -0.52166 3.07709 0
M  V30 993 N 93.1203 -1.57491 0.0584922 0
M  V30 994 C 94.3503 -1.9701 -0.622134 0
M  V30 995 C 94.7583 -0.935034 -1.6448 0
M  V30 996 O 94.1013 0.0882904 -1.83488 0
M  V30 997 C 94.1633 -3.32794 -1.35972 0
M  V30 998 C 93.8273 -4.54343 -0.492043 0
M  V30 999 C 94.8243 -5.19323 0.244901 0
M  V30 1000 C 92.5093 -5.00534 -0.420821 0
M  V30 1001 C 94.5033 -6.28835 1.04143 0
M  V30 1002 C 92.1903 -6.09921 0.379389 0
M  V30 1003 C 93.1883 -6.73933 1.10919 0
M  V30 1004 O 92.8763 -7.81216 1.89623 0
M  V30 1005 H 92.6083 -0.653127 -0.174359 0
M  V30 1006 H 95.1623 -2.05029 0.123418 0
M  V30 1007 H 93.3923 -3.21351 -2.15105 0
M  V30 1008 H 95.0813 -3.5701 -1.93129 0
M  V30 1009 H 95.8473 -4.8459 0.19939 0
M  V30 1010 H 91.7263 -4.50496 -0.978474 0
M  V30 1011 H 95.2703 -6.7873 1.61157 0
M  V30 1012 H 91.1673 -6.44089 0.426512 0
M  V30 1013 H 91.9353 -7.98029 1.81913 0
M  V30 1014 N 94.5984 0.214957 -1.56127 0
M  V30 1015 C 95.8444 0.935325 -1.80619 0
M  V30 1016 C 96.1994 1.81706 -0.632507 0
M  V30 1017 O 95.4924 1.87931 0.373182 0
M  V30 1018 C 95.6864 1.80314 -3.0858 0
M  V30 1019 C 95.5154 1.00691 -4.38282 0
M  V30 1020 C 94.2854 0.699211 -5.00439 0
M  V30 1021 C 96.4834 0.369057 -5.12974 0
M  V30 1022 N 94.4654 -0.117734 -6.13787 0
M  V30 1023 C 95.8364 -0.310981 -6.1922 0
M  V30 1024 C 97.8914 0.282759 -4.97096 0
M  V30 1025 C 96.5944 -1.06907 -7.11311 0
M  V30 1026 C 98.6204 -0.461881 -5.89594 0
M  V30 1027 C 97.9824 -1.13044 -6.9527 0
M  V30 1028 H 94.0814 0.322307 -0.71249 0
M  V30 1029 H 96.6654 0.205649 -1.93611 0
M  V30 1030 H 94.8364 2.50458 -2.96859 0
M  V30 1031 H 96.5684 2.46148 -3.21237 0
M  V30 1032 H 93.3234 1.01884 -4.62511 0
M  V30 1033 H 93.7474 -0.515235 -6.75037 0
M  V30 1034 H 98.3894 0.785292 -4.15443 0
M  V30 1035 H 96.1074 -1.5831 -7.92442 0
M  V30 1036 H 99.6934 -0.529746 -5.79383 0
M  V30 1037 H 98.5734 -1.69742 -7.65609 0
M  V30 1038 N 96.0765 1.50051 0.48192 0
M  V30 1039 C 97.3235 1.60498 1.23477 0
M  V30 1040 C 97.6515 0.300331 1.92167 0
M  V30 1041 O 96.9065 -0.713094 1.82246 0
M  V30 1042 C 97.2055 2.72717 2.30998 0
M  V30 1043 C 96.8715 4.13572 1.79636 0
M  V30 1044 C 95.5335 4.519 1.65348 0
M  V30 1045 C 97.8855 5.01649 1.41412 0
M  V30 1046 C 95.2135 5.76057 1.11244 0
M  V30 1047 C 97.5655 6.26343 0.887538 0
M  V30 1048 C 96.2295 6.63483 0.731207 0
M  V30 1049 H 95.4995 0.587303 0.451836 0
M  V30 1050 H 98.1465 1.83948 0.532468 0
M  V30 1051 H 96.4515 2.43312 3.07094 0
M  V30 1052 H 98.1485 2.78006 2.88988 0
M  V30 1053 H 94.7385 3.83329 1.91721 0
M  V30 1054 H 98.9225 4.72679 1.51289 0
M  V30 1055 H 94.1785 6.03516 0.978686 0
M  V30 1056 H 98.3525 6.93958 0.582654 0
M  V30 1057 H 95.9795 7.59568 0.309806 0
M  V30 1058 N 97.5546 -0.734337 1.39446 0
M  V30 1059 C 98.9706 -1.03997 1.21065 0
M  V30 1060 C 99.1706 -2.01369 0.0727019 0
M  V30 1061 O 98.2266 -2.45856 -0.575426 0
M  V30 1062 C 99.5396 -1.60163 2.54496 0
M  V30 1063 C 101.088 -1.7224 2.61347 0
M  V30 1064 C 101.563 -2.31814 3.95002 0
M  V30 1065 N 103.054 -2.39223 3.96644 0
M  V30 1066 C 103.789 -2.86258 4.96834 0
M  V30 1067 N 103.285 -3.33184 6.07421 0
M  V30 1068 N 105.078 -2.85473 4.84213 0
M  V30 1069 H 97.2286 -0.0885624 2.12215 0
M  V30 1070 H 99.4916 -0.10191 0.942506 0
M  V30 1071 H 99.1976 -0.960811 3.38321 0
M  V30 1072 H 99.0716 -2.5896 2.74262 0
M  V30 1073 H 101.459 -2.35443 1.77906 0
M  V30 1074 H 101.54 -0.720939 2.4543 0
M  V30 1075 H 101.184 -1.69238 4.78875 0
M  V30 1076 H 101.114 -3.32638 4.08239 0
M  V30 1077 H 103.605 -2.06057 3.16779 0
M  V30 1078 H 103.918 -3.67586 6.7978 0
M  V30 1079 H 102.263 -3.31191 6.11013 0
M  V30 1080 H 105.454 -2.48136 3.96921 0
M  V30 1081 H 105.627 -3.21814 5.62441 0
M  V30 1082 N 99.0327 -1.24633 -0.964593 0
M  V30 1083 C 99.9957 -1.0424 -2.04124 0
M  V30 1084 C 100.996 0.00137563 -1.608 0
M  V30 1085 O 102.186 -0.239883 -1.7254 0
M  V30 1086 C 99.3177 -0.580588 -3.3592 0
M  V30 1087 H 100.511 -1.99803 -2.23649 0
M  V30 1088 H 98.0637 -1.06899 -1.14027 0
M  V30 1089 H 98.7987 0.3781 -3.22088 0
M  V30 1090 H 98.5837 -1.33398 -3.6871 0
M  V30 1091 H 100.074 -0.459034 -4.15069 0
M  V30 1092 N 100.511 1.16574 -1.06058 0
M  V30 1093 C 101.759 1.86677 -0.77434 0
M  V30 1094 C 102.08 1.81959 0.701147 0
M  V30 1095 O 101.35 1.2515 1.50713 0
M  V30 1096 H 99.9298 0.691134 -0.283449 0
M  V30 1097 H 102.592 1.41378 -1.34158 0
M  V30 1098 H 101.688 2.92181 -1.09711 0
M  V30 1099 N 101.989 0.842826 1.3317 0
M  V30 1100 C 102.937 0.267495 2.31057 0
M  V30 1101 C 103.931 -0.602682 1.58316 0
M  V30 1102 O 105.137 -0.491803 1.73151 0
M  V30 1103 H 101.512 0.0677813 0.748939 0
M  V30 1104 H 103.483 1.10754 2.77085 0
M  V30 1105 C 102.232 -0.539331 3.43492 0
M  V30 1106 H 101.555 0.12095 3.99617 0
M  V30 1107 H 102.995 -0.90767 4.14171 0
M  V30 1108 C 101.454 -1.71981 2.89697 0
M  V30 1109 O 101.984 -2.81862 2.86211 0
M  V30 1110 N 100.19 -1.54299 2.46252 0
M  V30 1111 H 99.7369 -0.649143 2.49287 0
M  V30 1112 H 99.6949 -2.33431 2.10612 0
M  V30 1113 N 103.467 -1.45747 0.599634 0
M  V30 1114 C 104.744 -1.95585 0.0240846 0
M  V30 1115 C 105.124 -1.54217 -1.44154 0
M  V30 1116 O 104.472 -0.800903 -2.14004 0
M  V30 1117 C 104.682 -3.48344 0.21385 0
M  V30 1118 C 106.03 -4.24504 0.0904902 0
M  V30 1119 O 107.054 -3.55911 0.143558 0
M  V30 1120 O 105.913 -5.46491 -0.0310766 0
M  V30 1121 H 103.007 -0.82602 -0.0402478 0
M  V30 1122 H 105.553 -1.55951 0.669139 0
M  V30 1123 H 104.325 -3.71397 1.23206 0
M  V30 1124 H 103.948 -3.9485 -0.466842 0
M  V30 1125 N 104.945 -0.338344 -1.53925 0
M  V30 1126 C 106.194 0.260732 -2.00008 0
M  V30 1127 C 106.507 1.52073 -1.23017 0
M  V30 1128 O 107.713 2.19672 -1.5955 0
M  V30 1129 C 106.169 0.51515 -3.56194 0
M  V30 1130 C 105.777 -0.728645 -4.42035 0
M  V30 1131 C 107.521 1.07337 -4.10706 0
M  V30 1132 C 105.428 -0.445315 -5.89721 0
M  V30 1133 H 104.358 0.101205 -0.747177 0
M  V30 1134 H 107.009 -0.452866 -1.77824 0
M  V30 1135 H 105.391 1.28932 -3.74423 0
M  V30 1136 H 106.565 -1.50352 -4.35581 0
M  V30 1137 H 104.88 -1.20813 -3.98489 0
M  V30 1138 H 107.477 1.30022 -5.18651 0
M  V30 1139 H 107.82 2.0273 -3.63602 0
M  V30 1140 H 108.353 0.360034 -3.96167 0
M  V30 1141 H 105.092 -1.36883 -6.41049 0
M  V30 1142 H 104.612 0.291569 -5.99091 0
M  V30 1143 H 106.291 -0.0606218 -6.46972 0
M  V30 1144 N 106.423 1.57458 -0.0668435 0
M  V30 1145 C 107.648 1.9804 0.616027 0
M  V30 1146 C 108.073 0.944771 1.62652 0
M  V30 1147 O 107.431 -0.0902094 1.81075 0
M  V30 1148 C 107.479 3.37665 1.26549 0
M  V30 1149 O 106.583 3.36701 2.38131 0
M  V30 1150 H 105.924 0.644719 0.158849 0
M  V30 1151 H 108.454 2.04121 -0.139891 0
M  V30 1152 H 108.464 3.7474 1.6135 0
M  V30 1153 H 107.139 4.12573 0.525016 0
M  V30 1154 H 105.716 3.1139 2.0516 0
M  V30 1155 N 107.901 -0.206675 1.56239 0
M  V30 1156 C 109.147 -0.925733 1.81113 0
M  V30 1157 C 109.502 -1.81368 0.642135 0
M  V30 1158 O 108.795 -1.88126 -0.363211 0
M  V30 1159 C 108.989 -1.78675 3.09532 0
M  V30 1160 C 108.818 -0.98365 4.3881 0
M  V30 1161 C 107.588 -0.672661 5.00803 0
M  V30 1162 C 109.786 -0.341847 5.13163 0
M  V30 1163 N 107.768 0.150283 6.13716 0
M  V30 1164 C 109.139 0.343815 6.19046 0
M  V30 1165 C 111.194 -0.256392 4.97239 0
M  V30 1166 C 109.897 1.10678 7.10734 0
M  V30 1167 C 111.923 0.493142 5.8934 0
M  V30 1168 C 111.285 1.16729 6.94661 0
M  V30 1169 H 107.384 -0.318524 0.714189 0
M  V30 1170 H 109.968 -0.195378 1.93717 0
M  V30 1171 H 108.139 -2.4888 2.98183 0
M  V30 1172 H 109.871 -2.44441 3.22538 0
M  V30 1173 H 106.626 -0.994294 4.63045 0
M  V30 1174 H 107.05 0.551026 6.74754 0
M  V30 1175 H 111.692 -0.763249 4.15854 0
M  V30 1176 H 109.41 1.6251 7.91591 0
M  V30 1177 H 112.996 0.560465 5.79094 0
M  V30 1178 H 111.876 1.738 7.64698 0
M  V30 1179 N 109.379 -1.50304 -0.473955 0
M  V30 1180 C 110.326 -1.68959 -1.57231 0
M  V30 1181 C 111.296 -0.530899 -1.57387 0
M  V30 1182 O 112.481 -0.761133 -1.74961 0
M  V30 1183 C 109.621 -1.7871 -2.95223 0
M  V30 1184 C 108.734 -3.06061 -3.04878 0
M  V30 1185 C 107.869 -3.06626 -4.33767 0
M  V30 1186 C 106.908 -4.28443 -4.37154 0
M  V30 1187 N 106.045 -4.26763 -5.5751 0
M  V30 1188 H 110.885 -2.6273 -1.40631 0
M  V30 1189 H 108.422 -1.30241 -0.683789 0
M  V30 1190 H 110.38 -1.82344 -3.75242 0
M  V30 1191 H 109.01 -0.883806 -3.10465 0
M  V30 1192 H 108.062 -3.11911 -2.17751 0
M  V30 1193 H 109.374 -3.96039 -3.0324 0
M  V30 1194 H 108.528 -3.08973 -5.22131 0
M  V30 1195 H 107.267 -2.14473 -4.3801 0
M  V30 1196 H 106.272 -4.2631 -3.47188 0
M  V30 1197 H 107.497 -5.2182 -4.34605 0
M  V30 1198 H 105.443 -3.37462 -5.62544 0
M  V30 1199 H 105.36 -5.10507 -5.57601 0
M  V30 1200 H 106.628 -4.33253 -6.48006 0
M  V30 1201 N 110.857 0.726932 -1.39834 0
M  V30 1202 C 111.82 1.82269 -1.38962 0
M  V30 1203 C 112.82 1.58248 -0.285334 0
M  V30 1204 O 114.01 1.65499 -0.54366 0
M  V30 1205 C 111.142 3.20186 -1.17019 0
M  V30 1206 H 112.335 1.84443 -2.36476 0
M  V30 1207 H 109.888 0.931416 -1.25516 0
M  V30 1208 H 110.623 3.23669 -0.202204 0
M  V30 1209 H 110.408 3.3902 -1.96998 0
M  V30 1210 H 111.898 4.00235 -1.1917 0
M  V30 1211 N 112.336 1.25143 0.95797 0
M  V30 1212 C 113.747 1.08851 1.51685 0
M  V30 1213 C 114.098 -0.33687 1.93286 0
M  V30 1214 O 113.223 -1.22644 1.7829 0
M  V30 1215 C 113.818 1.96978 2.75654 0
M  V30 1216 C 112.377 1.84881 3.27866 0
M  V30 1217 C 111.524 1.91329 2.0072 0
M  V30 1218 H 114.475 1.38478 0.77522 0
M  V30 1219 H 114.496 1.5078 3.4935 0
M  V30 1220 H 114.008 3.00712 2.45345 0
M  V30 1221 H 112.109 0.840182 3.63004 0
M  V30 1222 H 112.222 2.6951 3.96107 0
M  V30 1223 H 110.586 1.35174 2.15871 0
M  V30 1224 H 111.369 2.96661 1.72764 0
M  V30 1225 N 113.814 -1.1601 1.06675 0
M  V30 1226 C 115.06 -1.86909 0.786945 0
M  V30 1227 C 115.393 -1.81717 -0.685018 0
M  V30 1228 O 114.668 -1.23551 -1.50218 0
M  V30 1229 C 114.951 -3.36313 1.28707 0
M  V30 1230 C 114.804 -3.50175 2.82308 0
M  V30 1231 C 116.123 -4.3084 0.898071 0
M  V30 1232 H 113.242 -0.678677 0.287343 0
M  V30 1233 H 115.884 -1.36336 1.32334 0
M  V30 1234 H 114.034 -3.79513 0.830768 0
M  V30 1235 H 115.706 -3.15886 3.36175 0
M  V30 1236 H 113.949 -2.91959 3.20847 0
M  V30 1237 H 114.62 -4.55116 3.12368 0
M  V30 1238 H 117.096 -3.95561 1.29114 0
M  V30 1239 H 115.972 -5.33876 1.27543 0
M  V30 1240 H 116.233 -4.41662 -0.196651 0
M  V30 1241 N 115.292 -0.849877 -1.32721 0
M  V30 1242 C 116.255 -0.296122 -2.27279 0
M  V30 1243 C 117.255 0.541458 -1.5141 0
M  V30 1244 O 118.445 0.353658 -1.70572 0
M  V30 1245 C 115.577 0.581579 -3.35902 0
M  V30 1246 H 116.77 -1.13064 -2.77771 0
M  V30 1247 H 114.323 -0.62383 -1.43311 0
M  V30 1248 H 115.058 1.43809 -2.9067 0
M  V30 1249 H 114.843 -0.0178814 -3.92096 0
M  V30 1250 H 116.333 0.961951 -4.0637 0
M  V30 1251 N 116.77 1.45427 -0.607355 0
M  V30 1252 C 117.998 2.06614 -0.108814 0
M  V30 1253 C 118.413 1.45204 1.2067 0
M  V30 1254 O 117.77 0.566132 1.73497 0
M  V30 1255 C 117.821 3.61481 0.0375347 0
M  V30 1256 O 117.542 4.20598 -1.22593 0
M  V30 1257 C 119.043 4.39652 0.567561 0
M  V30 1258 H 116.263 0.66747 -0.0687351 0
M  V30 1259 H 118.807 1.86675 -0.835022 0
M  V30 1260 H 116.962 3.80762 0.714068 0
M  V30 1261 H 117.376 5.1377 -1.05547 0
M  V30 1262 H 118.85 5.48518 0.61905 0
M  V30 1263 H 119.327 4.09417 1.58978 0
M  V30 1264 H 119.933 4.25234 -0.0749202 0
M  V30 1265 N 118.248 0.346503 1.53744 0
M  V30 1266 C 119.196 -0.52422 2.26616 0
M  V30 1267 C 120.19 -1.09948 1.28871 0
M  V30 1268 O 121.396 -1.04488 1.46568 0
M  V30 1269 H 117.771 -0.187743 0.728187 0
M  V30 1270 H 119.742 0.11239 2.98188 0
M  V30 1271 C 118.491 -1.66186 3.05414 0
M  V30 1272 H 117.814 -1.22848 3.80458 0
M  V30 1273 H 119.254 -2.24622 3.59612 0
M  V30 1274 C 117.713 -2.59302 2.1509 0
M  V30 1275 O 118.243 -3.61628 1.74895 0
M  V30 1276 N 116.449 -2.28055 1.8011 0
M  V30 1277 H 115.996 -1.44883 2.12994 0
M  V30 1278 H 115.954 -2.90615 1.19958 0
M  V30 1279 N 119.726 -1.57421 0.075193 0
M  V30 1280 C 120.674 -2.14124 -0.908508 0
M  V30 1281 C 121.668 -1.07898 -1.30592 0
M  V30 1282 O 122.874 -1.26273 -1.28277 0
M  V30 1283 H 119.249 -0.684707 -0.310935 0
M  V30 1284 H 121.22 -2.95634 -0.405374 0
M  V30 1285 C 119.969 -2.72044 -2.16535 0
M  V30 1286 H 119.292 -3.53456 -1.86839 0
M  V30 1287 H 120.732 -3.15311 -2.83469 0
M  V30 1288 C 119.191 -1.66968 -2.92615 0
M  V30 1289 O 119.721 -1.0967 -3.86439 0
M  V30 1290 N 117.927 -1.37923 -2.55784 0
M  V30 1291 H 117.474 -1.84706 -1.79559 0
M  V30 1292 H 117.432 -0.67852 -3.06991 0
M  V30 1293 N 121.204 0.198386 -1.56346 0
M  V30 1294 C 122.615 0.763358 -1.70381 0
M  V30 1295 C 122.966 1.83995 -0.681203 0
M  V30 1296 O 122.091 2.15785 0.16305 0
M  V30 1297 C 122.686 1.39143 -3.08909 0
M  V30 1298 C 121.245 1.90352 -3.2472 0
M  V30 1299 C 120.392 0.772233 -2.6633 0
M  V30 1300 H 123.343 -0.0266377 -1.58678 0
M  V30 1301 H 123.364 2.26076 -3.06055 0
M  V30 1302 H 122.876 0.607638 -3.83314 0
M  V30 1303 H 120.977 2.71461 -2.55225 0
M  V30 1304 H 121.09 2.06757 -4.3219 0
M  V30 1305 H 119.454 1.18566 -2.2542 0
M  V30 1306 H 120.237 0.00073556 -3.433 0
M  V30 1307 N 122.682 1.50554 0.465978 0
M  V30 1308 C 123.645 1.69233 1.54574 0
M  V30 1309 C 124.645 0.562901 1.50626 0
M  V30 1310 O 125.835 0.830016 1.53155 0
M  V30 1311 C 122.967 1.7223 2.94193 0
M  V30 1312 H 124.16 2.65571 1.39327 0
M  V30 1313 H 121.713 1.40111 0.692711 0
M  V30 1314 H 122.448 0.77603 3.14878 0
M  V30 1315 H 122.233 2.54285 2.98466 0
M  V30 1316 H 123.723 1.88618 3.72576 0
M  V30 1317 N 124.16 -0.719506 1.40217 0
M  V30 1318 C 125.406 -1.48034 1.39491 0
M  V30 1319 C 125.761 -1.92399 -0.00443536 0
M  V30 1320 O 125.054 -1.64993 -0.974061 0
M  V30 1321 C 125.248 -2.72271 2.31524 0
M  V30 1322 C 125.077 -2.40055 3.80268 0
M  V30 1323 C 123.847 -2.31588 4.49105 0
M  V30 1324 C 126.045 -2.04581 4.71859 0
M  V30 1325 N 124.027 -1.92006 5.83101 0
M  V30 1326 C 125.398 -1.75568 5.94623 0
M  V30 1327 C 127.453 -1.91183 4.59732 0
M  V30 1328 C 126.156 -1.34505 7.06612 0
M  V30 1329 C 128.182 -1.51524 5.71659 0
M  V30 1330 C 127.544 -1.23406 6.93506 0
M  V30 1331 H 123.643 -0.539927 0.565688 0
M  V30 1332 H 126.227 -0.834764 1.75897 0
M  V30 1333 H 124.398 -3.34584 1.97251 0
M  V30 1334 H 126.13 -3.38584 2.21682 0
M  V30 1335 H 122.885 -2.49199 4.02737 0
M  V30 1336 H 123.309 -1.74764 6.54054 0
M  V30 1337 H 127.951 -2.11584 3.66049 0
M  V30 1338 H 125.669 -1.12846 8.00182 0
M  V30 1339 H 129.255 -1.41741 5.6427 0
M  V30 1340 H 128.135 -0.931788 7.78645 0
M  V30 1341 N 125.638 -1.25649 -0.95132 0
M  V30 1342 C 126.601 -1.06399 -2.03007 0
M  V30 1343 C 127.601 -0.0156794 -1.60792 0
M  V30 1344 O 128.791 -0.25817 -1.72276 0
M  V30 1345 C 125.923 -0.616184 -3.35285 0
M  V30 1346 H 127.116 -2.02164 -2.21517 0
M  V30 1347 H 124.669 -1.08103 -1.12887 0
M  V30 1348 H 125.404 0.343917 -3.22471 0
M  V30 1349 H 125.189 -1.37301 -3.67275 0
M  V30 1350 H 126.679 -0.503032 -4.14559 0
M  V30 1351 N 127.117 1.15442 -1.07289 0
M  V30 1352 C 128.363 1.86489 -0.796846 0
M  V30 1353 C 128.696 1.82078 0.675371 0
M  V30 1354 O 127.971 1.24346 1.4956 0
M  V30 1355 C 128.254 3.35626 -1.30489 0
M  V30 1356 C 128.107 3.48673 -2.84161 0
M  V30 1357 C 129.426 4.30357 -0.920907 0
M  V30 1358 H 126.545 0.677144 -0.290939 0
M  V30 1359 H 129.187 1.35633 -1.33056 0
M  V30 1360 H 127.337 3.79068 -0.850883 0
M  V30 1361 H 129.009 3.14099 -3.37846 0
M  V30 1362 H 127.252 2.90253 -3.22391 0
M  V30 1363 H 127.923 4.53453 -3.14777 0
M  V30 1364 H 130.399 3.94871 -1.3121 0
M  V30 1365 H 129.275 5.33193 -1.30372 0
M  V30 1366 H 129.536 4.4176 0.173226 0
M  V30 1367 N 128.595 0.856903 1.32268 0
M  V30 1368 C 129.527 0.260412 2.27716 0
M  V30 1369 C 130.54 -0.569137 1.52528 0
M  V30 1370 O 131.729 -0.39326 1.74114 0
M  V30 1371 C 128.829 -0.650477 3.32599 0
M  V30 1372 C 128.002 0.14372 4.37164 0
M  V30 1373 C 127.061 -0.69328 5.21613 0
M  V30 1374 O 126.087 -0.12599 5.69061 0
M  V30 1375 N 127.289 -2.00761 5.44679 0
M  V30 1376 H 130.054 1.08059 2.79541 0
M  V30 1377 H 127.615 0.717103 1.45152 0
M  V30 1378 H 129.607 -1.21581 3.86005 0
M  V30 1379 H 128.177 -1.37133 2.80915 0
M  V30 1380 H 127.397 0.890486 3.8401 0
M  V30 1381 H 128.685 0.68915 5.04111 0
M  V30 1382 H 128.083 -2.49181 5.07863 0
M  V30 1383 H 126.64 -2.52103 6.01072 0
M  V30 1384 N 130.073 -1.45103 0.615059 0
M  V30 1385 C 130.983 -2.34382 -0.101034 0
M  V30 1386 C 131.999 -1.51681 -0.852585 0
M  V30 1387 O 133.175 -1.8446 -0.808484 0
M  V30 1388 C 130.24 -3.29417 -1.08099 0
M  V30 1389 C 129.301 -4.28025 -0.330577 0
M  V30 1390 C 128.534 -5.1852 -1.26385 0
M  V30 1391 O 128.757 -5.12598 -2.50198 0
M  V30 1392 O 127.691 -5.97122 -0.756866 0
M  V30 1393 H 131.517 -2.97033 0.632855 0
M  V30 1394 H 129.102 -1.4461 0.375293 0
M  V30 1395 H 130.984 -3.87958 -1.6452 0
M  V30 1396 H 129.659 -2.69321 -1.79577 0
M  V30 1397 H 128.566 -3.73078 0.276283 0
M  V30 1398 H 129.899 -4.90997 0.343866 0
M  V30 1399 N 131.551 -0.354651 -1.53558 0
M  V30 1400 C 132.461 0.50515 -2.29097 0
M  V30 1401 C 133.477 1.10223 -1.34636 0
M  V30 1402 O 134.653 1.11553 -1.67684 0
M  V30 1403 C 131.718 1.63479 -3.05738 0
M  V30 1404 C 130.779 1.06636 -4.15845 0
M  V30 1405 C 130.012 2.14217 -4.88822 0
M  V30 1406 O 130.235 3.35137 -4.61562 0
M  V30 1407 O 129.169 1.77887 -5.75013 0
M  V30 1408 H 132.995 -0.109237 -3.03503 0
M  V30 1409 H 130.58 -0.119357 -1.48922 0
M  V30 1410 H 132.462 2.2918 -3.5363 0
M  V30 1411 H 131.137 2.23478 -2.34178 0
M  V30 1412 H 130.044 0.373565 -3.7223 0
M  V30 1413 H 131.377 0.511081 -4.89539 0
M  V30 1414 N 133.029 1.57378 -0.0835403 0
M  V30 1415 C 134.257 1.98263 0.59157 0
M  V30 1416 C 134.672 0.962302 1.62435 0
M  V30 1417 O 134.029 -0.049581 1.82433 0
M  V30 1418 C 134.08 3.39214 1.24965 0
M  V30 1419 O 133.801 4.37339 0.258186 0
M  V30 1420 C 135.302 3.95038 2.01147 0
M  V30 1421 H 132.522 0.651773 0.159477 0
M  V30 1422 H 135.066 2.03878 -0.159415 0
M  V30 1423 H 133.221 3.34649 1.95164 0
M  V30 1424 H 133.635 5.19371 0.731734 0
M  V30 1425 H 135.109 4.95848 2.42567 0
M  V30 1426 H 135.586 3.32222 2.87272 0
M  V30 1427 H 136.192 4.0304 1.35789 0
M  V30 1428 N 134.507 -0.190092 1.56449 0
M  V30 1429 C 135.923 -0.54113 1.50146 0
M  V30 1430 C 136.123 -1.85603 0.784465 0
M  V30 1431 O 135.179 -2.5024 0.337051 0
M  V30 1432 C 136.492 -0.591241 2.9483 0
M  V30 1433 C 138.04 -0.679732 3.0553 0
M  V30 1434 C 138.515 -0.760908 4.51635 0
M  V30 1435 N 140.006 -0.824302 4.55806 0
M  V30 1436 C 140.741 -0.907365 5.66175 0
M  V30 1437 N 140.237 -0.952422 6.86222 0
M  V30 1438 N 142.03 -0.94494 5.541 0
M  V30 1439 H 134.181 0.67235 2.01478 0
M  V30 1440 H 136.444 0.240127 0.917084 0
M  V30 1441 H 136.15 0.305905 3.50367 0
M  V30 1442 H 136.024 -1.44422 3.48457 0
M  V30 1443 H 138.411 -1.56731 2.50039 0
M  V30 1444 H 138.492 0.199549 2.5502 0
M  V30 1445 H 138.136 0.122336 5.07753 0
M  V30 1446 H 138.066 -1.65606 4.99882 0
M  V30 1447 H 140.557 -0.798526 3.69367 0
M  V30 1448 H 140.87 -1.01645 7.66086 0
M  V30 1449 H 139.215 -0.921014 6.8887 0
M  V30 1450 H 142.406 -0.906612 4.59236 0
M  V30 1451 H 142.579 -1.00622 6.4014 0
M  V30 1452 N 135.985 -1.50799 -0.457987 0
M  V30 1453 C 137.262 -1.52968 -1.21902 0
M  V30 1454 C 137.642 -0.281906 -2.09209 0
M  V30 1455 O 136.99 0.734076 -2.16388 0
M  V30 1456 C 137.2 -2.8326 -2.03875 0
M  V30 1457 C 138.548 -3.34425 -2.6162 0
M  V30 1458 O 139.572 -2.8467 -2.14106 0
M  V30 1459 O 138.431 -4.21188 -3.48228 0
M  V30 1460 H 135.525 -0.614129 -0.553873 0
M  V30 1461 H 138.071 -1.63098 -0.468739 0
M  V30 1462 H 136.843 -3.65543 -1.39621 0
M  V30 1463 H 136.466 -2.76195 -2.8601 0
M  V30 1464 N 137.463 0.71206 -1.40597 0
M  V30 1465 C 138.879 1.02058 -1.22704 0
M  V30 1466 C 139.079 2.01228 -0.104729 0
M  V30 1467 O 138.135 2.4674 0.53624 0
M  V30 1468 C 139.448 1.56094 -2.57012 0
M  V30 1469 C 140.996 1.6806 -2.64054 0
M  V30 1470 C 141.471 2.25501 -3.9864 0
M  V30 1471 N 142.962 2.32882 -4.004 0
M  V30 1472 C 143.697 2.78317 -5.01325 0
M  V30 1473 N 143.193 3.23478 -6.12645 0
M  V30 1474 N 144.986 2.77733 -4.88693 0
M  V30 1475 H 137.137 0.0547896 -2.12329 0
M  V30 1476 H 139.4 0.0869027 -0.944008 0
M  V30 1477 H 139.106 0.906865 -3.39807 0
M  V30 1478 H 138.98 2.54564 -2.78347 0
M  V30 1479 H 141.367 2.32583 -1.81629 0
M  V30 1480 H 141.448 0.681802 -2.46546 0
M  V30 1481 H 141.092 1.61598 -4.81506 0
M  V30 1482 H 141.022 3.26102 -4.13479 0
M  V30 1483 H 143.513 2.00991 -3.20017 0
M  V30 1484 H 143.826 3.56725 -6.85542 0
M  V30 1485 H 142.171 3.21429 -6.16205 0
M  V30 1486 H 145.362 2.4179 -4.00818 0
M  V30 1487 H 145.535 3.12826 -5.67489 0
M  V30 1488 N 138.941 1.26152 0.944643 0
M  V30 1489 C 140.188 1.11492 1.69044 0
M  V30 1490 C 140.516 -0.342366 1.91463 0
M  V30 1491 O 139.771 -1.26812 1.49054 0
M  V30 1492 C 140.07 1.82541 3.07268 0
M  V30 1493 C 139.736 3.32445 3.04616 0
M  V30 1494 C 138.398 3.73337 3.036 0
M  V30 1495 C 140.75 4.28171 2.97185 0
M  V30 1496 C 138.078 5.08348 2.92915 0
M  V30 1497 C 140.43 5.63218 2.88041 0
M  V30 1498 C 139.094 6.03426 2.85366 0
M  V30 1499 H 138.364 0.407977 0.618576 0
M  V30 1500 H 141.011 1.56551 1.10291 0
M  V30 1501 H 139.316 1.29941 3.69625 0
M  V30 1502 H 141.013 1.68642 3.63815 0
M  V30 1503 H 137.603 2.99915 3.06185 0
M  V30 1504 H 141.787 3.97563 2.97081 0
M  V30 1505 H 137.043 5.38667 2.89219 0
M  V30 1506 H 141.217 6.37078 2.81254 0
M  V30 1507 H 138.844 7.07999 2.76842 0
M  V30 1508 N 140.419 -1.14872 1.07899 0
M  V30 1509 C 141.369 -2.17809 0.674027 0
M  V30 1510 C 142.353 -1.58008 -0.303699 0
M  V30 1511 O 143.545 -1.76616 -0.11654 0
M  V30 1512 C 140.674 -3.43208 0.0793318 0
M  V30 1513 C 139.76 -4.10051 1.08253 0
M  V30 1514 N 140.151 -4.52296 2.2641 0
M  V30 1515 C 138.449 -4.36469 0.917124 0
M  V30 1516 C 139.15 -5.04199 2.901 0
M  V30 1517 N 138.126 -4.98088 2.17736 0
M  V30 1518 H 141.928 -2.48207 1.57386 0
M  V30 1519 H 139.442 -1.315 0.952976 0
M  V30 1520 H 141.439 -4.16272 -0.228719 0
M  V30 1521 H 140.099 -3.14291 -0.815551 0
M  V30 1522 H 141.11 -4.45504 2.64096 0
M  V30 1523 H 137.787 -4.17432 0.0756078 0
M  V30 1524 H 139.177 -5.46802 3.90458 0
M  V30 1525 N 141.898 -0.863906 -1.31812 0
M  V30 1526 C 142.828 -0.330843 -2.31144 0
M  V30 1527 C 143.809 0.575005 -1.60087 0
M  V30 1528 O 144.994 0.493304 -1.8783 0
M  V30 1529 C 142.124 0.47374 -3.44054 0
M  V30 1530 C 141.078 -0.338481 -4.26659 0
M  V30 1531 C 140.404 0.591412 -5.31419 0
M  V30 1532 C 141.704 -1.56926 -4.98168 0
M  V30 1533 H 143.398 -1.16086 -2.75979 0
M  V30 1534 H 140.944 -0.559657 -1.32679 0
M  V30 1535 H 142.897 0.857143 -4.12591 0
M  V30 1536 H 141.621 1.33721 -2.9797 0
M  V30 1537 H 140.28 -0.703754 -3.59782 0
M  V30 1538 H 139.928 1.45199 -4.81587 0
M  V30 1539 H 139.628 0.0519022 -5.87577 0
M  V30 1540 H 141.152 0.97179 -6.02817 0
M  V30 1541 H 142.566 -1.25764 -5.59336 0
M  V30 1542 H 140.963 -2.04739 -5.64094 0
M  V30 1543 H 142.033 -2.32544 -4.25501 0
M  V30 1544 N 143.376 1.44774 -0.622745 0
M  V30 1545 C 144.306 2.33382 0.0741861 0
M  V30 1546 C 145.287 1.47719 0.843387 0
M  V30 1547 O 146.472 1.76458 0.810934 0
M  V30 1548 C 143.602 3.30663 1.06204 0
M  V30 1549 C 142.556 4.26079 0.405037 0
M  V30 1550 C 141.882 5.13165 1.5022 0
M  V30 1551 C 143.182 5.1781 -0.683414 0
M  V30 1552 H 144.876 2.91905 -0.665713 0
M  V30 1553 H 142.422 1.40363 -0.321587 0
M  V30 1554 H 144.375 3.9153 1.55827 0
M  V30 1555 H 143.099 2.70331 1.83272 0
M  V30 1556 H 141.758 3.66532 -0.0704683 0
M  V30 1557 H 141.406 4.49191 2.26355 0
M  V30 1558 H 141.106 5.77812 1.06803 0
M  V30 1559 H 142.63 5.76902 2.00041 0
M  V30 1560 H 144.044 5.72661 -0.270631 0
M  V30 1561 H 142.441 5.91015 -1.04023 0
M  V30 1562 H 143.511 4.59326 -1.55395 0
M  V30 1563 N 144.854 0.36279 1.53368 0
M  V30 1564 C 146.102 -0.227326 2.00817 0
M  V30 1565 C 146.423 -1.49511 1.25186 0
M  V30 1566 O 145.693 -1.92482 0.364348 0
M  V30 1567 H 144.273 -0.0869923 0.741917 0
M  V30 1568 H 146.935 0.488381 1.88682 0
M  V30 1569 H 146.031 -0.456273 3.08747 0
M  V30 1570 N 146.332 -1.57332 0.0918853 0
M  V30 1571 C 147.609 -1.85691 -0.614668 0
M  V30 1572 C 147.989 -0.988146 -1.86545 0
M  V30 1573 O 147.337 -0.0597055 -2.28422 0
M  V30 1574 C 147.547 -3.36294 -0.933126 0
M  V30 1575 C 148.895 -4.04275 -1.29796 0
M  V30 1576 O 149.919 -3.41157 -1.02424 0
M  V30 1577 O 148.778 -5.1564 -1.81047 0
M  V30 1578 H 145.872 -0.767802 -0.307261 0
M  V30 1579 H 148.418 -1.69244 0.12434 0
M  V30 1580 H 147.19 -3.91273 -0.0456404 0
M  V30 1581 H 146.813 -3.58076 -1.72822 0
M  V30 1582 N 147.81 0.181792 -1.56548 0
M  V30 1583 C 149.221 0.745244 -1.71181 0
M  V30 1584 C 149.572 1.83262 -0.70068 0
M  V30 1585 O 148.697 2.15946 0.140154 0
M  V30 1586 C 149.292 1.35859 -3.10367 0
M  V30 1587 C 147.851 1.86898 -3.2672 0
M  V30 1588 C 146.998 0.743942 -2.67134 0
M  V30 1589 H 149.949 -0.0434661 -1.5864 0
M  V30 1590 H 149.97 2.22817 -3.08436 0
M  V30 1591 H 149.482 0.566948 -3.83937 0
M  V30 1592 H 147.583 2.68738 -2.5809 0
M  V30 1593 H 147.696 2.02162 -4.34359 0
M  V30 1594 H 146.06 1.16169 -2.26665 0
M  V30 1595 H 146.843 -0.035676 -3.43281 0
M  V30 1596 N 149.288 1.51039 0.449983 0
M  V30 1597 C 150.22 1.67617 1.56324 0
M  V30 1598 C 151.233 0.557083 1.52972 0
M  V30 1599 O 152.422 0.830989 1.57977 0
M  V30 1600 C 149.522 1.66402 2.95235 0
M  V30 1601 C 148.695 2.9469 3.23229 0
M  V30 1602 C 147.754 2.85832 4.41799 0
M  V30 1603 O 146.78 3.59785 4.41071 0
M  V30 1604 N 147.982 2.00821 5.44657 0
M  V30 1605 H 150.747 2.63648 1.42512 0
M  V30 1606 H 148.308 1.48767 0.638737 0
M  V30 1607 H 150.3 1.58062 3.72557 0
M  V30 1608 H 148.87 0.780182 3.02708 0
M  V30 1609 H 148.09 3.16996 2.34323 0
M  V30 1610 H 149.378 3.79636 3.38754 0
M  V30 1611 H 148.776 1.40091 5.48079 0
M  V30 1612 H 147.333 1.98368 6.20881 0
M  V30 1613 N 150.766 -0.704594 1.40972 0
M  V30 1614 C 151.994 -1.49354 1.43182 0
M  V30 1615 C 152.409 -1.88768 0.0345508 0
M  V30 1616 O 151.766 -1.56184 -0.944081 0
M  V30 1617 C 151.817 -2.76187 2.33244 0
M  V30 1618 O 151.538 -2.38436 3.67532 0
M  V30 1619 C 153.039 -3.7 2.44162 0
M  V30 1620 H 150.259 -0.460559 0.487982 0
M  V30 1621 H 152.803 -0.868261 1.85153 0
M  V30 1622 H 150.958 -3.34974 1.94606 0
M  V30 1623 H 151.372 -3.20126 4.15475 0
M  V30 1624 H 152.846 -4.55803 3.11364 0
M  V30 1625 H 153.323 -4.13867 1.47006 0
M  V30 1626 H 153.929 -3.17121 2.83398 0
M  V30 1627 N 152.244 -1.26651 -0.937939 0
M  V30 1628 C 153.191 -1.0849 -2.03712 0
M  V30 1629 C 154.161 0.011033 -1.66096 0
M  V30 1630 O 155.346 -0.149353 -1.90215 0
M  V30 1631 C 152.486 -0.72735 -3.37348 0
M  V30 1632 C 151.599 -1.89986 -3.87981 0
M  V30 1633 C 150.734 -1.48513 -5.10017 0
M  V30 1634 C 149.773 -2.62575 -5.5292 0
M  V30 1635 N 148.91 -2.21762 -6.66158 0
M  V30 1636 H 153.75 -2.02551 -2.18579 0
M  V30 1637 H 151.287 -1.00844 -1.07093 0
M  V30 1638 H 153.245 -0.50092 -4.14182 0
M  V30 1639 H 151.875 0.176298 -3.22318 0
M  V30 1640 H 150.927 -2.23913 -3.07518 0
M  V30 1641 H 152.239 -2.75586 -4.15757 0
M  V30 1642 H 151.393 -1.21934 -5.94321 0
M  V30 1643 H 150.132 -0.60009 -4.83994 0
M  V30 1644 H 149.137 -2.8988 -4.67172 0
M  V30 1645 H 150.362 -3.51685 -5.80943 0
M  V30 1646 H 148.308 -1.35696 -6.41812 0
M  V30 1647 H 148.225 -3.00903 -6.93537 0
M  V30 1648 H 149.493 -1.98403 -7.53828 0
M  V30 1649 N 153.722 1.14298 -1.08507 0
M  V30 1650 C 154.67 2.21483 -0.710483 0
M  V30 1651 C 155.664 1.66998 0.284234 0
M  V30 1652 O 156.87 1.79401 0.146692 0
M  V30 1653 H 153.245 0.721578 -0.211729 0
M  V30 1654 H 155.216 2.50348 -1.62384 0
M  V30 1655 C 153.965 3.4743 -0.137007 0
M  V30 1656 H 153.288 3.89686 -0.893592 0
M  V30 1657 H 154.728 4.2391 0.0872789 0
M  V30 1658 C 153.187 3.17548 1.12538 0
M  V30 1659 O 153.717 3.35437 2.21009 0
M  V30 1660 N 151.923 2.71499 1.03617 0
M  V30 1661 H 151.47 2.57143 0.153403 0
M  V30 1662 H 151.428 2.51881 1.88158 0
M  V30 1663 N 155.201 0.870884 1.31352 0
M  V30 1664 C 156.441 0.488783 1.9847 0
M  V30 1665 C 156.805 -0.941536 1.67329 0
M  V30 1666 O 158.006 -1.42903 2.27667 0
M  V30 1667 C 156.277 0.739688 3.49662 0
M  V30 1668 S 157.836 0.457582 4.36408 0
M  V30 1669 H 154.654 0.18242 0.6872 0
M  V30 1670 H 157.256 1.12711 1.59739 0
M  V30 1671 H 155.96 1.77944 3.69816 0
M  V30 1672 H 155.491 0.0883905 3.93301 0
M  V30 1673 H 157.506 -0.709752 4.91098 0
M  V30 1674 N 156.679 -1.44442 0.630414 0
M  V30 1675 C 157.907 -2.06414 0.141671 0
M  V30 1676 C 158.322 -1.47105 -1.18345 0
M  V30 1677 O 157.679 -0.593662 -1.72574 0
M  V30 1678 C 157.73 -3.61494 0.0199784 0
M  V30 1679 O 157.451 -4.18594 1.29269 0
M  V30 1680 C 158.952 -4.40499 -0.497544 0
M  V30 1681 H 156.172 -0.666292 0.0793452 0
M  V30 1682 H 158.716 -1.85323 0.864614 0
M  V30 1683 H 156.871 -3.8185 -0.653402 0
M  V30 1684 H 157.285 -5.12026 1.13707 0
M  V30 1685 H 158.759 -5.49433 -0.531708 0
M  V30 1686 H 159.236 -4.11895 -1.52445 0
M  V30 1687 H 159.842 -4.25061 0.142562 0
M  V30 1688 N 158.157 -0.370918 -1.53173 0
M  V30 1689 C 159.087 0.464847 -2.28826 0
M  V30 1690 C 160.068 1.07936 -1.31468 0
M  V30 1691 O 161.253 1.0956 -1.60344 0
M  V30 1692 C 158.383 1.60196 -3.08147 0
M  V30 1693 C 157.337 1.11443 -4.13237 0
M  V30 1694 C 156.663 2.3422 -4.80672 0
M  V30 1695 C 157.963 0.195384 -5.21934 0
M  V30 1696 H 159.657 -0.166329 -2.98938 0
M  V30 1697 H 157.203 -0.0814359 -1.4377 0
M  V30 1698 H 159.156 2.19332 -3.59822 0
M  V30 1699 H 157.88 2.26045 -2.35735 0
M  V30 1700 H 156.539 0.545727 -3.62515 0
M  V30 1701 H 156.187 2.98537 -4.04827 0
M  V30 1702 H 155.887 2.02269 -5.51689 0
M  V30 1703 H 157.411 2.94032 -5.35143 0
M  V30 1704 H 158.825 0.694375 -5.69079 0
M  V30 1705 H 157.222 -0.0335027 -6.00091 0
M  V30 1706 H 158.292 -0.760961 -4.78892 0
M  V30 1707 N 159.635 1.57281 -0.100228 0
M  V30 1708 C 160.86 1.99302 0.573881 0
M  V30 1709 C 161.285 0.979059 1.60611 0
M  V30 1710 O 160.643 -0.0517803 1.81226 0
M  V30 1711 C 160.691 3.40274 1.19358 0
M  V30 1712 O 159.795 3.41676 2.30935 0
M  V30 1713 H 159.136 0.647944 0.145138 0
M  V30 1714 H 161.666 2.03779 -0.183156 0
M  V30 1715 H 161.676 3.78078 1.53365 0
M  V30 1716 H 160.351 4.13594 0.437385 0
M  V30 1717 H 158.928 3.15672 1.98509 0
M  V30 1718 N 161.113 -0.173488 1.56642 0
M  V30 1719 C 162.362 -0.888758 1.81063 0
M  V30 1720 C 162.675 -1.83506 0.67712 0
M  V30 1721 O 163.881 -2.59254 0.806206 0
M  V30 1722 C 162.337 -1.63091 3.20826 0
M  V30 1723 C 161.945 -0.728357 4.4204 0
M  V30 1724 C 163.689 -2.33454 3.54541 0
M  V30 1725 C 161.596 -1.47062 5.72823 0
M  V30 1726 H 160.526 -0.335618 0.675186 0
M  V30 1727 H 163.177 -0.141712 1.82952 0
M  V30 1728 H 161.559 -2.42263 3.13248 0
M  V30 1729 H 162.733 0.0262449 4.60793 0
M  V30 1730 H 161.048 -0.134492 4.16183 0
M  V30 1731 H 163.645 -2.89578 4.49498 0
M  V30 1732 H 163.988 -3.08687 2.79317 0
M  V30 1733 H 164.521 -1.61227 3.63663 0
M  V30 1734 H 161.26 -0.760658 6.51072 0
M  V30 1735 H 160.78 -2.1986 5.58052 0
M  V30 1736 H 162.459 -2.01868 6.14702 0
M  V30 1737 N 162.591 -1.51276 -0.441967 0
M  V30 1738 C 164.007 -1.39349 -0.778083 0
M  V30 1739 C 164.207 -0.472212 -1.95889 0
M  V30 1740 O 163.263 0.0743551 -2.5239 0
M  V30 1741 C 164.576 -2.81292 -1.0628 0
M  V30 1742 C 166.124 -2.9041 -1.16751 0
M  V30 1743 C 166.599 -4.33251 -1.48519 0
M  V30 1744 N 168.09 -4.36336 -1.55453 0
M  V30 1745 C 168.825 -5.43885 -1.81596 0
M  V30 1746 N 168.321 -6.61601 -2.05562 0
M  V30 1747 N 170.114 -5.3136 -1.8334 0
M  V30 1748 H 162.265 -2.09729 0.335774 0
M  V30 1749 H 164.528 -0.943925 0.0878028 0
M  V30 1750 H 164.234 -3.50678 -0.267905 0
M  V30 1751 H 164.108 -3.20334 -1.99163 0
M  V30 1752 H 166.495 -2.21225 -1.95304 0
M  V30 1753 H 166.576 -2.54871 -0.217801 0
M  V30 1754 H 166.22 -5.02984 -0.704958 0
M  V30 1755 H 166.15 -4.66299 -2.44689 0
M  V30 1756 H 168.641 -3.51466 -1.38853 0
M  V30 1757 H 168.954 -7.39361 -2.24867 0
M  V30 1758 H 167.299 -6.64725 -2.02894 0
M  V30 1759 H 170.49 -4.38382 -1.64132 0
M  V30 1760 H 170.663 -6.15258 -2.03377 0
M  V30 1761 N 164.069 0.697108 -1.41344 0
M  V30 1762 C 165.346 1.45154 -1.31109 0
M  V30 1763 C 165.726 2.11009 0.0620449 0
M  V30 1764 O 165.074 2.01571 1.07618 0
M  V30 1765 C 165.284 2.47223 -2.46337 0
M  V30 1766 C 166.632 3.1252 -2.87431 0
M  V30 1767 O 167.656 2.57547 -2.46065 0
M  V30 1768 O 166.515 4.12083 -3.58957 0
M  V30 1769 H 163.609 0.646365 -0.515889 0
M  V30 1770 H 166.155 0.727716 -1.53305 0
M  V30 1771 H 164.927 1.97204 -3.37974 0
M  V30 1772 H 164.55 3.27116 -2.2601 0
M  V30 1773 N 165.547 1.27147 0.931209 0
M  V30 1774 C 166.51 1.09615 2.01289 0
M  V30 1775 C 167.51 0.0412581 1.60747 0
M  V30 1776 O 168.7 0.285545 1.71844 0
M  V30 1777 C 165.832 0.669447 3.34262 0
M  V30 1778 H 167.025 2.05662 2.18273 0
M  V30 1779 H 164.578 1.09885 1.11153 0
M  V30 1780 H 165.313 -0.292572 3.22978 0
M  V30 1781 H 165.098 1.43127 3.65044 0
M  V30 1782 H 166.588 0.568921 4.13706 0
M  V30 1783 N 167.025 -1.13721 1.09112 0
M  V30 1784 C 168.441 -1.36914 0.820174 0
M  V30 1785 C 168.641 -1.93356 -0.567079 0
M  V30 1786 O 167.697 -2.15093 -1.32255 0
M  V30 1787 C 169.01 -2.3235 1.90877 0
M  V30 1788 C 170.558 -2.45973 1.93562 0
M  V30 1789 C 171.033 -3.44714 3.01556 0
M  V30 1790 N 172.524 -3.52263 3.00775 0
M  V30 1791 C 173.259 -4.28536 3.80978 0
M  V30 1792 N 172.755 -5.07991 4.71081 0
M  V30 1793 N 174.548 -4.23804 3.69251 0
M  V30 1794 H 166.699 -0.754348 1.98553 0
M  V30 1795 H 168.962 -0.3944 0.862063 0
M  V30 1796 H 168.668 -1.98027 2.90651 0
M  V30 1797 H 168.542 -3.32332 1.78424 0
M  V30 1798 H 170.929 -2.79584 0.944286 0
M  V30 1799 H 171.01 -1.45926 2.10093 0
M  V30 1800 H 170.654 -3.11835 4.00901 0
M  V30 1801 H 170.584 -4.44558 2.82269 0
M  V30 1802 H 173.075 -2.95567 2.35475 0
M  V30 1803 H 173.388 -5.63487 5.28869 0
M  V30 1804 H 171.733 -5.07235 4.75119 0
M  V30 1805 H 174.924 -3.60806 2.98222 0
M  V30 1806 H 175.097 -4.82995 4.31995 0
M  V30 1807 N 168.503 -0.877838 -1.30888 0
M  V30 1808 C 169.436 -0.283995 -2.26426 0
M  V30 1809 C 170.414 0.591361 -1.51465 0
M  V30 1810 O 171.598 0.54304 -1.80509 0
M  V30 1811 C 168.725 0.597129 -3.33395 0
M  V30 1812 C 167.771 -0.207937 -4.25993 0
M  V30 1813 S 168.604 -1.59158 -5.11301 0
M  V30 1814 C 169.76 -0.716791 -6.21782 0
M  V30 1815 H 169.993 -1.09383 -2.76446 0
M  V30 1816 H 167.526 -0.676828 -1.38775 0
M  V30 1817 H 169.484 1.09978 -3.95493 0
M  V30 1818 H 168.145 1.38099 -2.82113 0
M  V30 1819 H 167.338 0.464163 -5.01858 0
M  V30 1820 H 166.94 -0.642963 -3.68432 0
M  V30 1821 H 169.232 0.0692833 -6.77465 0
M  V30 1822 H 170.175 -1.44682 -6.93161 0
M  V30 1823 H 170.583 -0.280855 -5.63801 0
M  V30 1824 N 169.982 1.44106 -0.638065 0
M  V30 1825 C 171.207 2.0685 -0.150916 0
M  V30 1826 C 171.632 1.47417 1.16833 0
M  V30 1827 O 170.99 0.578264 1.71831 0
M  V30 1828 C 171.038 3.60555 -0.05708 0
M  V30 1829 O 170.142 4.00465 0.984972 0
M  V30 1830 H 169.483 0.658151 -0.0879399 0
M  V30 1831 H 172.013 1.84865 -0.876707 0
M  V30 1832 H 172.023 4.07789 0.131232 0
M  V30 1833 H 170.698 4.03193 -1.02021 0
M  V30 1834 H 169.275 3.64849 0.770672 0
M  V30 1835 N 171.46 0.379036 1.52974 0
M  V30 1836 C 172.737 -0.263479 1.93817 0
M  V30 1837 C 173.117 -1.65244 1.31368 0
M  V30 1838 O 172.465 -2.23448 0.477856 0
M  V30 1839 C 172.675 -0.300166 3.47707 0
M  V30 1840 C 174.023 -0.534061 4.21228 0
M  V30 1841 O 175.047 -0.38081 3.54159 0
M  V30 1842 O 173.906 -0.833501 5.40106 0
M  V30 1843 H 171 -0.161149 0.811147 0
M  V30 1844 H 173.546 0.432798 1.64088 0
M  V30 1845 H 172.318 0.673138 3.85467 0
M  V30 1846 H 171.941 -1.04179 3.83709 0
M  V30 1847 N 172.938 -1.57226 0.108567 0
M  V30 1848 C 173.901 -2.13602 -0.831082 0
M  V30 1849 C 174.901 -1.06841 -1.20173 0
M  V30 1850 O 176.091 -1.32666 -1.12895 0
M  V30 1851 C 173.223 -2.66769 -2.12243 0
M  V30 1852 H 174.416 -2.97951 -0.341317 0
M  V30 1853 H 171.969 -1.55667 -0.14057 0
M  V30 1854 H 172.704 -1.85977 -2.65675 0
M  V30 1855 H 172.489 -3.44839 -1.86625 0
M  V30 1856 H 173.979 -3.10332 -2.79435 0
M  V30 1857 N 174.416 0.165178 -1.56732 0
M  V30 1858 C 175.664 0.879068 -1.8198 0
M  V30 1859 C 175.985 1.82514 -0.686561 0
M  V30 1860 O 175.255 1.93694 0.293146 0
M  V30 1861 H 173.835 0.327608 -0.671329 0
M  V30 1862 H 176.497 0.163526 -1.94213 0
M  V30 1863 H 175.593 1.45228 -2.76252 0
M  V30 1864 N 175.894 1.51508 0.433938 0
M  V30 1865 C 177.31 1.39759 0.770682 0
M  V30 1866 C 177.51 0.482594 1.95636 0
M  V30 1867 O 176.566 -0.0609691 2.52426 0
M  V30 1868 C 177.879 2.81851 1.04787 0
M  V30 1869 C 179.427 2.91025 1.1521 0
M  V30 1870 C 179.902 4.34032 1.46219 0
M  V30 1871 N 181.393 4.37154 1.53136 0
M  V30 1872 C 182.128 5.4484 1.78709 0
M  V30 1873 N 181.624 6.62682 2.02051 0
M  V30 1874 N 183.417 5.32324 1.80519 0
M  V30 1875 H 175.568 2.09548 -0.346892 0
M  V30 1876 H 177.831 0.943446 -0.0928074 0
M  V30 1877 H 177.537 3.50815 0.249304 0
M  V30 1878 H 177.411 3.21386 1.97461 0
M  V30 1879 H 179.798 2.22257 1.94128 0
M  V30 1880 H 179.879 2.54983 0.204281 0
M  V30 1881 H 179.523 5.03351 0.678274 0
M  V30 1882 H 179.453 4.6759 2.42212 0
M  V30 1883 H 181.944 3.52197 1.36987 0
M  V30 1884 H 182.257 7.40543 2.20943 0
M  V30 1885 H 180.602 6.65791 1.99366 0
M  V30 1886 H 183.793 4.39246 1.61805 0
M  V30 1887 H 183.966 6.16328 2.00111 0
M  V30 1888 N 177.372 -0.689602 1.41712 0
M  V30 1889 C 178.602 -1.47613 1.44548 0
M  V30 1890 C 179.01 -1.89132 0.0509034 0
M  V30 1891 O 178.353 -1.57741 -0.94146 0
M  V30 1892 C 178.415 -2.76596 2.2964 0
M  V30 1893 C 178.079 -2.57245 3.77722 0
M  V30 1894 C 179.076 -2.22804 4.69739 0
M  V30 1895 C 176.761 -2.727 4.2183 0
M  V30 1896 C 178.755 -2.04064 6.03851 0
M  V30 1897 C 176.442 -2.53576 5.56006 0
M  V30 1898 C 177.44 -2.1931 6.46832 0
M  V30 1899 O 177.128 -2.00359 7.78532 0
M  V30 1900 H 176.86 -0.461227 0.494212 0
M  V30 1901 H 179.414 -0.856045 1.86711 0
M  V30 1902 H 177.644 -3.41033 1.82301 0
M  V30 1903 H 179.333 -3.38424 2.24107 0
M  V30 1904 H 180.099 -2.10473 4.36951 0
M  V30 1905 H 175.978 -2.98353 3.51435 0
M  V30 1906 H 179.522 -1.77241 6.74708 0
M  V30 1907 H 175.419 -2.65499 5.88371 0
M  V30 1908 H 176.187 -2.15075 7.89737 0
M  V30 1909 N 178.85 -1.27639 -0.924453 0
M  V30 1910 C 180.097 -1.14167 -1.67249 0
M  V30 1911 C 180.425 0.311863 -1.91984 0
M  V30 1912 O 179.68 1.24425 -1.51053 0
M  V30 1913 C 179.979 -1.87407 -3.04325 0
M  V30 1914 C 179.645 -3.37249 -2.99289 0
M  V30 1915 C 178.307 -3.7812 -2.97622 0
M  V30 1916 C 180.659 -4.32845 -2.90336 0
M  V30 1917 C 177.987 -5.12944 -2.8479 0
M  V30 1918 C 180.339 -5.6773 -2.79045 0
M  V30 1919 C 179.003 -6.07889 -2.7573 0
M  V30 1920 H 178.273 -0.417766 -0.612007 0
M  V30 1921 H 180.92 -1.58286 -1.07786 0
M  V30 1922 H 179.225 -1.35805 -3.67511 0
M  V30 1923 H 180.922 -1.74408 -3.61086 0
M  V30 1924 H 177.512 -3.04748 -3.01374 0
M  V30 1925 H 181.696 -4.02239 -2.90719 0
M  V30 1926 H 176.952 -5.432 -2.80612 0
M  V30 1927 H 181.126 -6.41472 -2.71083 0
M  V30 1928 H 178.753 -7.12314 -2.65544 0
M  V30 1929 N 180.328 1.1314 -1.09713 0
M  V30 1930 C 181.575 1.84484 -0.834987 0
M  V30 1931 C 181.903 1.83689 0.639418 0
M  V30 1932 O 181.158 1.2724 1.4869 0
M  V30 1933 C 181.457 3.32167 -1.3191 0
M  V30 1934 C 181.123 3.53139 -2.80363 0
M  V30 1935 C 179.785 3.58571 -3.20905 0
M  V30 1936 C 182.137 3.60866 -3.76065 0
M  V30 1937 C 179.465 3.69267 -4.55916 0
M  V30 1938 C 181.817 3.73089 -5.10869 0
M  V30 1939 C 180.481 3.76775 -5.50996 0
M  V30 1940 H 179.751 0.675073 -0.305544 0
M  V30 1941 H 182.398 1.33554 -1.37243 0
M  V30 1942 H 180.703 3.85469 -0.701517 0
M  V30 1943 H 182.4 3.85821 -1.09284 0
M  V30 1944 H 178.99 3.49569 -2.47991 0
M  V30 1945 H 183.174 3.55946 -3.45855 0
M  V30 1946 H 178.43 3.70388 -4.86438 0
M  V30 1947 H 182.604 3.78011 -5.84877 0
M  V30 1948 H 180.231 3.84815 -6.55608 0
M  V30 1949 N 181.806 0.884767 1.30421 0
M  V30 1950 C 183.222 0.57874 1.48737 0
M  V30 1951 C 183.422 -0.883567 1.81095 0
M  V30 1952 O 182.478 -1.6648 1.89844 0
M  V30 1953 C 183.791 1.49171 2.61091 0
M  V30 1954 C 185.339 1.49532 2.74971 0
M  V30 1955 C 185.814 2.39421 3.90438 0
M  V30 1956 N 187.305 2.37383 3.97748 0
M  V30 1957 C 188.04 3.03647 4.86401 0
M  V30 1958 N 187.536 3.79136 5.79852 0
M  V30 1959 N 189.329 2.9288 4.79768 0
M  V30 1960 H 181.48 1.83075 1.0769 0
M  V30 1961 H 183.743 0.783637 0.533495 0
M  V30 1962 H 183.449 2.53291 2.44001 0
M  V30 1963 H 183.323 1.20113 3.57565 0
M  V30 1964 H 185.71 0.46163 2.91467 0
M  V30 1965 H 185.791 1.8262 1.79119 0
M  V30 1966 H 185.435 3.42874 3.74699 0
M  V30 1967 H 185.365 2.03649 4.85628 0
M  V30 1968 H 187.856 1.82525 3.30897 0
M  V30 1969 H 188.169 4.26789 6.4426 0
M  V30 1970 H 186.514 3.83243 5.79784 0
M  V30 1971 H 189.705 2.33433 4.05742 0
M  V30 1972 H 189.878 3.448 5.4865 0
M  V30 1973 N 183.284 -1.43765 0.645699 0
M  V30 1974 C 184.217 -2.2798 -0.100072 0
M  V30 1975 C 185.195 -1.39391 -0.837194 0
M  V30 1976 O 186.379 -1.68833 -0.838306 0
M  V30 1977 C 183.506 -3.18643 -1.14823 0
M  V30 1978 C 182.552 -4.2344 -0.510009 0
M  V30 1979 S 183.385 -5.30761 0.710824 0
M  V30 1980 C 184.541 -6.24992 -0.33699 0
M  V30 1981 H 184.774 -2.90884 0.614322 0
M  V30 1982 H 182.307 -1.48166 0.434304 0
M  V30 1983 H 184.265 -3.71424 -1.74799 0
M  V30 1984 H 182.926 -2.54932 -1.8349 0
M  V30 1985 H 182.119 -4.86948 -1.29991 0
M  V30 1986 H 181.721 -3.73997 0.0154577 0
M  V30 1987 H 184.013 -6.66691 -1.20537 0
M  V30 1988 H 184.956 -7.07612 0.262879 0
M  V30 1989 H 185.364 -5.60517 -0.669425 0
M  V30 1990 N 184.763 -0.387143 -1.52771 0
M  V30 1991 C 185.673 0.456442 -2.30117 0
M  V30 1992 C 186.689 1.07342 -1.36944 0
M  V30 1993 O 187.865 1.07971 -1.70013 0
M  V30 1994 C 184.93 1.56957 -3.09136 0
M  V30 1995 C 183.991 0.977916 -4.18014 0
M  V30 1996 C 183.224 2.038 -4.93256 0
M  V30 1997 O 183.447 3.25271 -4.68567 0
M  V30 1998 O 182.381 1.6565 -5.78657 0
M  V30 1999 H 186.207 -0.17359 -3.03203 0
M  V30 2000 H 183.792 -0.150919 -1.48636 0
M  V30 2001 H 185.674 2.21628 -3.58412 0
M  V30 2002 H 184.349 2.18461 -2.38865 0
M  V30 2003 H 183.256 0.294525 -3.72939 0
M  V30 2004 H 184.589 0.407128 -4.90513 0
M  V30 2005 N 186.241 1.57166 -0.116904 0
M  V30 2006 C 187.188 2.15202 0.83408 0
M  V30 2007 C 188.158 1.07644 1.26499 0
M  V30 2008 O 189.343 1.35541 1.34288 0
M  V30 2009 C 186.483 2.75405 2.07957 0
M  V30 2010 C 185.596 3.97264 1.69721 0
M  V30 2011 C 184.731 4.45561 2.89221 0
M  V30 2012 C 183.77 5.59956 2.47215 0
M  V30 2013 N 182.907 6.03006 3.59622 0
M  V30 2014 H 187.747 2.96141 0.332335 0
M  V30 2015 H 185.284 1.46309 0.152349 0
M  V30 2016 H 187.242 3.08439 2.80929 0
M  V30 2017 H 185.872 1.97159 2.55594 0
M  V30 2018 H 184.924 3.70404 0.866316 0
M  V30 2019 H 186.236 4.80226 1.34849 0
M  V30 2020 H 185.39 4.80493 3.7042 0
M  V30 2021 H 184.129 3.61544 3.27318 0
M  V30 2022 H 183.134 5.2463 1.64448 0
M  V30 2023 H 184.359 6.45738 2.10238 0
M  V30 2024 H 182.305 5.21931 3.97396 0
M  V30 2025 H 182.222 6.80819 3.28667 0
M  V30 2026 H 183.49 6.42576 4.41267 0
M  V30 2027 N 187.719 -0.156864 1.56817 0
M  V30 2028 C 188.967 -0.869404 1.82444 0
M  V30 2029 C 189.288 -1.82147 0.69623 0
M  V30 2030 O 188.558 -1.93847 -0.28287 0
M  V30 2031 H 187.138 -0.324043 0.673056 0
M  V30 2032 H 189.8 -0.153224 1.94297 0
M  V30 2033 H 188.896 -1.43761 2.77019 0
M  V30 2034 N 189.197 -1.51736 -0.425897 0
M  V30 2035 C 190.145 -1.74464 -1.53834 0
M  V30 2036 C 191.139 -0.611241 -1.57988 0
M  V30 2037 O 192.345 -0.792899 -1.61596 0
M  V30 2038 H 188.72 -0.551437 -0.511293 0
M  V30 2039 H 190.691 -2.67694 -1.31843 0
M  V30 2040 C 189.44 -1.8972 -2.91379 0
M  V30 2041 H 188.763 -2.76344 -2.88919 0
M  V30 2042 H 190.203 -2.09629 -3.68553 0
M  V30 2043 C 188.662 -0.65992 -3.30374 0
M  V30 2044 O 189.192 0.180083 -4.01296 0
M  V30 2045 N 187.398 -0.500677 -2.86254 0
M  V30 2046 H 186.945 -1.18532 -2.28709 0
M  V30 2047 H 186.903 0.325903 -3.12706 0
M  V30 2048 N 190.675 0.682077 -1.42076 0
M  V30 2049 C 191.924 1.43786 -1.41451 0
M  V30 2050 C 192.237 1.95574 -0.0317074 0
M  V30 2051 O 193.443 2.71326 0.0971462 0
M  V30 2052 C 191.899 2.60071 -2.48779 0
M  V30 2053 C 191.507 2.15013 -3.93031 0
M  V30 2054 C 193.251 3.37626 -2.57311 0
M  V30 2055 C 191.158 3.28336 -4.91883 0
M  V30 2056 H 190.088 0.540143 -0.526082 0
M  V30 2057 H 192.739 0.739157 -1.67955 0
M  V30 2058 H 191.121 3.32275 -2.15429 0
M  V30 2059 H 192.295 1.5001 -4.35699 0
M  V30 2060 H 190.61 1.50416 -3.88284 0
M  V30 2061 H 193.207 4.22012 -3.28345 0
M  V30 2062 H 193.55 3.83727 -1.61429 0
M  V30 2063 H 194.083 2.72488 -2.89819 0
M  V30 2064 H 190.822 2.87234 -5.89217 0
M  V30 2065 H 190.342 3.92145 -4.53853 0
M  V30 2066 H 192.021 3.93913 -5.13265 0
M  V30 2067 N 192.153 1.28127 0.917671 0
M  V30 2068 C 193.1 1.11717 2.0196 0
M  V30 2069 C 194.07 0.0153929 1.66093 0
M  V30 2070 O 195.255 0.179596 1.89953 0
M  V30 2071 C 192.395 0.780927 3.36148 0
M  V30 2072 C 191.508 1.96135 3.84909 0
M  V30 2073 C 190.643 1.56609 5.0759 0
M  V30 2074 C 189.682 2.71339 5.48673 0
M  V30 2075 N 188.819 2.32332 6.62545 0
M  V30 2076 H 193.659 2.06003 2.15329 0
M  V30 2077 H 191.196 1.02535 1.05475 0
M  V30 2078 H 193.154 0.56675 4.13333 0
M  V30 2079 H 191.784 -0.124998 3.22558 0
M  V30 2080 H 190.836 2.28777 3.03916 0
M  V30 2081 H 192.148 2.82165 4.1132 0
M  V30 2082 H 191.302 1.31374 5.92305 0
M  V30 2083 H 190.041 0.677014 4.82978 0
M  V30 2084 H 189.046 2.97276 4.62501 0
M  V30 2085 H 190.271 3.60882 5.75274 0
M  V30 2086 H 188.217 1.45889 6.39572 0
M  V30 2087 H 188.134 3.11899 6.88662 0
M  V30 2088 H 189.402 2.10371 7.50576 0
M  V30 2089 N 193.631 -1.12557 1.10312 0
M  V30 2090 C 194.877 -1.84515 0.855901 0
M  V30 2091 C 195.232 -1.82409 -0.611936 0
M  V30 2092 O 194.525 -1.25778 -1.44535 0
M  V30 2093 C 194.719 -3.31462 1.33669 0
M  V30 2094 C 194.548 -3.47879 2.84974 0
M  V30 2095 C 193.318 -3.61589 3.52961 0
M  V30 2096 C 195.516 -3.43152 3.83081 0
M  V30 2097 N 193.498 -3.66359 4.926 0
M  V30 2098 C 194.869 -3.54401 5.08724 0
M  V30 2099 C 196.924 -3.2661 3.75807 0
M  V30 2100 C 195.627 -3.50815 6.2795 0
M  V30 2101 C 197.653 -3.24335 4.94531 0
M  V30 2102 C 197.015 -3.36144 6.19021 0
M  V30 2103 H 193.114 -0.690967 0.366182 0
M  V30 2104 H 195.698 -1.34763 1.40524 0
M  V30 2105 H 193.869 -3.7976 0.814686 0
M  V30 2106 H 195.601 -3.91272 1.03385 0
M  V30 2107 H 192.356 -3.63652 3.03404 0
M  V30 2108 H 192.78 -3.72411 5.65366 0
M  V30 2109 H 197.422 -3.16375 2.80476 0
M  V30 2110 H 195.14 -3.5982 7.23571 0
M  V30 2111 H 198.726 -3.12719 4.9061 0
M  V30 2112 H 197.606 -3.34357 7.09348 0
M  V30 2113 N 195.109 -0.891671 -1.2995 0
M  V30 2114 C 196.057 -0.353066 -2.29905 0
M  V30 2115 C 197.051 0.543509 -1.60444 0
M  V30 2116 O 198.257 0.4272 -1.74857 0
M  V30 2117 H 194.632 -0.095531 -0.745907 0
M  V30 2118 H 196.603 -1.20961 -2.72784 0
M  V30 2119 C 195.352 0.411475 -3.45257 0
M  V30 2120 H 194.675 -0.269182 -3.98893 0
M  V30 2121 H 196.115 0.753328 -4.17254 0
M  V30 2122 C 194.574 1.6111 -2.9588 0
M  V30 2123 O 195.104 2.71045 -2.96475 0
M  V30 2124 N 193.31 1.45054 -2.51809 0
M  V30 2125 H 192.857 0.556175 -2.51524 0
M  V30 2126 H 192.815 2.25453 -2.1913 0
M  V30 2127 N 196.587 1.43421 -0.653314 0
M  V30 2128 C 197.817 2.05864 -0.174238 0
M  V30 2129 C 198.225 1.49052 1.16534 0
M  V30 2130 O 197.568 0.616481 1.73047 0
M  V30 2131 C 197.63 3.59499 -0.00875873 0
M  V30 2132 C 197.294 4.38893 -1.27364 0
M  V30 2133 C 198.291 4.70947 -2.20239 0
M  V30 2134 C 195.976 4.789 -1.51525 0
M  V30 2135 C 197.97 5.41916 -3.35568 0
M  V30 2136 C 195.657 5.49614 -2.67147 0
M  V30 2137 C 196.655 5.81044 -3.58994 0
M  V30 2138 O 196.343 6.50313 -4.72597 0
M  V30 2139 H 196.075 0.670345 -0.0872549 0
M  V30 2140 H 198.629 1.84913 -0.894226 0
M  V30 2141 H 196.859 3.79025 0.7666 0
M  V30 2142 H 198.548 4.0364 0.427687 0
M  V30 2143 H 199.314 4.40558 -2.02815 0
M  V30 2144 H 195.193 4.53843 -0.809158 0
M  V30 2145 H 198.737 5.66365 -4.07279 0
M  V30 2146 H 194.634 5.79419 -2.84505 0
M  V30 2147 H 195.402 6.68795 -4.71864 0
M  V30 2148 N 198.065 0.39524 1.52563 0
M  V30 2149 C 199.012 -0.437036 2.26624 0
M  V30 2150 C 199.982 -1.05281 1.28472 0
M  V30 2151 O 201.167 -1.07971 1.57311 0
M  V30 2152 C 198.307 -1.55524 3.08069 0
M  V30 2153 C 197.42 -0.961745 4.21158 0
M  V30 2154 C 196.555 -2.05149 4.89987 0
M  V30 2155 C 195.594 -1.4342 5.95061 0
M  V30 2156 N 194.731 -2.46351 6.57462 0
M  V30 2157 H 199.571 0.200976 2.97322 0
M  V30 2158 H 197.108 0.110944 1.46681 0
M  V30 2159 H 199.066 -2.21437 3.53584 0
M  V30 2160 H 197.696 -2.16348 2.3957 0
M  V30 2161 H 196.748 -0.192048 3.79915 0
M  V30 2162 H 198.06 -0.470701 4.96574 0
M  V30 2163 H 197.214 -2.78819 5.38837 0
M  V30 2164 H 195.953 -2.57615 4.14109 0
M  V30 2165 H 194.958 -0.682774 5.45544 0
M  V30 2166 H 196.183 -0.917416 6.72875 0
M  V30 2167 H 194.129 -2.97975 5.8442 0
M  V30 2168 H 194.046 -2.02019 7.28508 0
M  V30 2169 H 195.314 -3.19633 7.10954 0
M  V30 2170 N 199.544 -1.57102 0.125237 0
M  V30 2171 C 200.774 -1.99472 -0.538015 0
M  V30 2172 C 201.182 -1.00395 -1.60366 0
M  V30 2173 O 200.525 0.0103875 -1.83697 0
M  V30 2174 C 200.587 -3.38262 -1.21734 0
M  V30 2175 C 200.251 -4.56021 -0.298897 0
M  V30 2176 C 201.248 -5.17817 0.464943 0
M  V30 2177 C 198.933 -5.01869 -0.208149 0
M  V30 2178 C 200.927 -6.23852 1.3072 0
M  V30 2179 C 198.614 -6.07763 0.637736 0
M  V30 2180 C 199.612 -6.68622 1.39403 0
M  V30 2181 O 199.3 -7.7247 2.22586 0
M  V30 2182 H 199.032 -0.659934 -0.146501 0
M  V30 2183 H 201.586 -2.04321 0.210267 0
M  V30 2184 H 199.816 -3.30185 -2.01282 0
M  V30 2185 H 201.505 -3.6488 -1.77813 0
M  V30 2186 H 202.271 -4.83308 0.404741 0
M  V30 2187 H 198.15 -4.54241 -0.786522 0
M  V30 2188 H 201.694 -6.71284 1.898 0
M  V30 2189 H 197.591 -6.41701 0.699309 0
M  V30 2190 H 198.359 -7.89595 2.15596 0
M  V30 2191 N 201.022 0.148545 -1.56898 0
M  V30 2192 C 202.299 0.890019 -1.74178 0
M  V30 2193 C 202.679 1.99407 -0.692839 0
M  V30 2194 O 202.027 2.26671 0.288505 0
M  V30 2195 C 202.237 1.43389 -3.18183 0
M  V30 2196 C 203.585 1.89791 -3.79822 0
M  V30 2197 O 204.609 1.53134 -3.21603 0
M  V30 2198 O 203.468 2.57387 -4.82093 0
M  V30 2199 H 200.562 0.420496 -0.712118 0
M  V30 2200 H 203.108 0.134591 -1.69165 0
M  V30 2201 H 201.88 0.640383 -3.86024 0
M  V30 2202 H 201.503 2.25287 -3.27615 0
M  V30 2203 N 202.5 1.5196 0.417844 0
M  V30 2204 C 203.432 1.70895 1.52733 0
M  V30 2205 C 204.445 0.589405 1.51756 0
M  V30 2206 O 205.634 0.864312 1.56179 0
M  V30 2207 C 202.734 1.72627 2.91639 0
M  V30 2208 C 201.907 3.01479 3.16905 0
M  V30 2209 C 200.966 2.95139 4.35637 0
M  V30 2210 O 199.992 3.69059 4.3334 0
M  V30 2211 N 201.194 2.12328 5.40275 0
M  V30 2212 H 203.959 2.66612 1.36888 0
M  V30 2213 H 201.52 1.50089 0.607037 0
M  V30 2214 H 203.512 1.65928 3.6912 0
M  V30 2215 H 202.082 0.844216 3.00985 0
M  V30 2216 H 201.302 3.21895 2.27546 0
M  V30 2217 H 202.59 3.86736 3.30625 0
M  V30 2218 H 201.988 1.51685 5.44985 0
M  V30 2219 H 200.545 2.11494 6.16534 0
M  V30 2220 N 203.978 -0.674533 1.42435 0
M  V30 2221 C 204.908 -1.80009 1.48724 0
M  V30 2222 C 205.889 -1.6659 0.343793 0
M  V30 2223 O 207.074 -1.86007 0.558137 0
M  V30 2224 C 204.204 -3.18306 1.38919 0
M  V30 2225 C 203.158 -3.46461 2.51294 0
M  V30 2226 C 202.484 -4.84335 2.26547 0
M  V30 2227 C 203.784 -3.43328 3.93603 0
M  V30 2228 H 205.478 -1.75004 2.42928 0
M  V30 2229 H 203.024 -0.840533 1.16923 0
M  V30 2230 H 204.977 -3.9678 1.41927 0
M  V30 2231 H 203.701 -3.2399 0.412094 0
M  V30 2232 H 202.36 -2.70348 2.47604 0
M  V30 2233 H 202.008 -4.86669 1.2713 0
M  V30 2234 H 201.708 -5.04136 3.01861 0
M  V30 2235 H 203.232 -5.65094 2.31304 0
M  V30 2236 H 204.646 -4.11772 3.98894 0
M  V30 2237 H 203.043 -3.74664 4.68771 0
M  V30 2238 H 204.113 -2.41897 4.20255 0
M  V30 2239 N 205.456 -1.28612 -0.910864 0
M  V30 2240 C 206.681 -1.1891 -1.69927 0
M  V30 2241 C 207.106 0.248372 -1.86453 0
M  V30 2242 O 206.464 1.17961 -1.37676 0
M  V30 2243 C 206.512 -1.89578 -3.06745 0
M  V30 2244 O 205.616 -1.20521 -3.94396 0
M  V30 2245 H 204.957 -0.412632 -0.520222 0
M  V30 2246 H 207.487 -1.69985 -1.1387 0
M  V30 2247 H 207.497 -1.97597 -3.56958 0
M  V30 2248 H 206.172 -2.94136 -2.94035 0
M  V30 2249 H 204.749 -1.20684 -3.52831 0
M  V30 2250 N 206.934 1.1197 -1.10907 0
M  V30 2251 C 208.18 1.8386 -0.855773 0
M  V30 2252 C 208.513 1.84134 0.617103 0
M  V30 2253 O 207.788 1.29041 1.45529 0
M  V30 2254 C 208.071 3.31305 -1.411 0
M  V30 2255 C 207.924 3.39456 -2.9511 0
M  V30 2256 C 209.243 4.2721 -1.05736 0
M  V30 2257 H 206.362 0.667545 -0.312334 0
M  V30 2258 H 209.004 1.31331 -1.37303 0
M  V30 2259 H 207.154 3.76169 -0.97105 0
M  V30 2260 H 208.826 3.03191 -3.47668 0
M  V30 2261 H 207.069 2.79849 -3.31462 0
M  V30 2262 H 207.74 4.43209 -3.29044 0
M  V30 2263 H 210.216 3.90497 -1.43706 0
M  V30 2264 H 209.092 5.28775 -1.47269 0
M  V30 2265 H 209.353 4.42088 0.0325958 0
M  V30 2266 N 208.412 0.89855 1.29475 0
M  V30 2267 C 209.36 0.365253 2.29714 0
M  V30 2268 C 210.354 -0.534993 1.6073 0
M  V30 2269 O 211.56 -0.417921 1.75081 0
M  V30 2270 H 207.935 0.0994853 0.74539 0
M  V30 2271 H 209.906 1.22406 2.72138 0
M  V30 2272 C 208.655 -0.393159 3.4547 0
M  V30 2273 H 207.978 0.290332 3.98744 0
M  V30 2274 H 209.418 -0.731189 4.17648 0
M  V30 2275 C 207.877 -1.59539 2.9673 0
M  V30 2276 O 208.407 -2.69469 2.97908 0
M  V30 2277 N 206.613 -1.43716 2.52575 0
M  V30 2278 H 206.16 -0.542828 2.51816 0
M  V30 2279 H 206.118 -2.24288 2.20323 0
M  V30 2280 N 209.89 -1.43072 0.660911 0
M  V30 2281 C 211.136 -2.0202 0.177708 0
M  V30 2282 C 211.469 -1.52066 -1.20787 0
M  V30 2283 O 210.744 -0.716987 -1.80802 0
M  V30 2284 C 211.027 -3.59561 0.197019 0
M  V30 2285 C 210.88 -4.19727 1.61706 0
M  V30 2286 C 212.199 -4.37664 -0.462396 0
M  V30 2287 H 209.318 -0.734034 0.0660494 0
M  V30 2288 H 211.96 -1.70272 0.843058 0
M  V30 2289 H 210.11 -3.86739 -0.369527 0
M  V30 2290 H 211.782 -4.03553 2.23479 0
M  V30 2291 H 210.025 -3.76084 2.16201 0
M  V30 2292 H 210.696 -5.28834 1.58237 0
M  V30 2293 H 213.172 -4.16095 0.0197215 0
M  V30 2294 H 212.048 -5.47305 -0.418188 0
M  V30 2295 H 212.309 -4.14493 -1.53778 0
M  V30 2296 N 211.368 -0.403325 -1.52352 0
M  V30 2297 C 212.596 0.174012 -2.06167 0
M  V30 2298 C 213.011 1.39347 -1.27388 0
M  V30 2299 O 212.368 1.79597 -0.324201 0
M  V30 2300 C 212.419 0.530223 -3.5759 0
M  V30 2301 O 212.14 -0.640806 -4.33388 0
M  V30 2302 C 213.641 1.16192 -4.27802 0
M  V30 2303 H 210.861 0.0229464 -0.670608 0
M  V30 2304 H 213.405 -0.572604 -1.9632 0
M  V30 2305 H 211.56 1.22673 -3.67464 0
M  V30 2306 H 211.974 -0.344851 -5.23365 0
M  V30 2307 H 213.448 1.36141 -5.34948 0
M  V30 2308 H 213.925 2.13335 -3.83907 0
M  V30 2309 H 214.531 0.505775 -4.22282 0
M  V30 2310 N 212.846 1.57033 -0.133567 0
M  V30 2311 C 213.809 2.14897 0.796995 0
M  V30 2312 C 214.809 1.0874 1.18458 0
M  V30 2313 O 215.999 1.34446 1.1077 0
M  V30 2314 C 213.131 2.70112 2.07973 0
M  V30 2315 H 214.324 2.98457 0.293873 0
M  V30 2316 H 211.877 1.55871 0.115787 0
M  V30 2317 H 212.612 1.9018 2.62682 0
M  V30 2318 H 212.397 3.47764 1.81115 0
M  V30 2319 H 213.887 3.14738 2.74462 0
M  V30 2320 N 214.325 -0.140222 1.56975 0
M  V30 2321 C 215.255 -1.17456 2.01808 0
M  V30 2322 C 216.236 -1.44415 0.898794 0
M  V30 2323 O 217.421 -1.5522 1.16707 0
M  V30 2324 C 214.551 -2.50607 2.40444 0
M  V30 2325 C 213.505 -2.38155 3.55621 0
M  V30 2326 C 212.831 -3.76078 3.80091 0
M  V30 2327 C 214.131 -1.85991 4.88062 0
M  V30 2328 H 215.825 -0.801743 2.88466 0
M  V30 2329 H 213.371 -0.38422 1.38779 0
M  V30 2330 H 215.324 -3.23197 2.7041 0
M  V30 2331 H 214.048 -2.89737 1.50732 0
M  V30 2332 H 212.707 -1.68016 3.25832 0
M  V30 2333 H 212.355 -4.12656 2.87618 0
M  V30 2334 H 212.055 -3.68606 4.57606 0
M  V30 2335 H 213.579 -4.50206 4.12488 0
M  V30 2336 H 214.993 -2.4838 5.16701 0
M  V30 2337 H 213.39 -1.89393 5.6943 0
M  V30 2338 H 214.46 -0.816023 4.77984 0
M  V30 2339 N 215.803 -1.52179 -0.40978 0
M  V30 2340 C 217.031 -1.70054 -1.17853 0
M  V30 2341 C 217.446 -0.409735 -1.843 0
M  V30 2342 O 216.803 0.614183 -1.71855 0
M  V30 2343 C 216.854 -2.83568 -2.24213 0
M  V30 2344 O 216.575 -4.0765 -1.60478 0
M  V30 2345 C 218.076 -3.12947 -3.13973 0
M  V30 2346 H 215.296 -0.569917 -0.354169 0
M  V30 2347 H 217.84 -1.98734 -0.482198 0
M  V30 2348 H 215.995 -2.57409 -2.89516 0
M  V30 2349 H 216.409 -4.70899 -2.30986 0
M  V30 2350 H 217.883 -3.95889 -3.84677 0
M  V30 2351 H 218.36 -2.26472 -3.76307 0
M  V30 2352 H 218.966 -3.40868 -2.5434 0
M  V30 2353 N 217.281 0.66697 -1.42791 0
M  V30 2354 C 218.231 1.77313 -1.43332 0
M  V30 2355 C 219.215 1.5801 -0.303586 0
M  V30 2356 O 220.407 1.68356 -0.546385 0
M  V30 2357 C 217.536 3.15822 -1.34578 0
M  V30 2358 C 216.622 3.40721 -2.52528 0
M  V30 2359 N 217.013 3.36162 -3.77927 0
M  V30 2360 C 215.311 3.71387 -2.46956 0
M  V30 2361 C 216.012 3.60762 -4.56318 0
M  V30 2362 N 214.988 3.81908 -3.86843 0
M  V30 2363 H 218.79 1.72193 -2.38174 0
M  V30 2364 H 216.304 0.868114 -1.3725 0
M  V30 2365 H 218.301 3.951 -1.33048 0
M  V30 2366 H 216.961 3.22133 -0.407453 0
M  V30 2367 H 217.972 3.15885 -4.10411 0
M  V30 2368 H 214.649 3.84897 -1.61743 0
M  V30 2369 H 216.039 3.63132 -5.65318 0
M  V30 2370 N 218.759 1.29093 0.90403 0
M  V30 2371 C 220.175 1.07011 1.1841 0
M  V30 2372 C 220.375 -0.181358 2.00682 0
M  V30 2373 O 219.431 -0.880331 2.36657 0
M  V30 2374 C 220.744 2.32311 1.90924 0
M  V30 2375 C 222.292 2.37587 2.03768 0
M  V30 2376 C 222.767 3.62679 2.79693 0
M  V30 2377 N 224.258 3.63376 2.87249 0
M  V30 2378 C 224.993 4.56848 3.46522 0
M  V30 2379 N 224.489 5.60648 4.06996 0
M  V30 2380 N 226.282 4.44426 3.44154 0
M  V30 2381 H 218.433 2.09412 0.354993 0
M  V30 2382 H 220.696 0.922181 0.219742 0
M  V30 2383 H 220.402 3.23536 1.37905 0
M  V30 2384 H 220.276 2.39483 2.91424 0
M  V30 2385 H 222.663 1.46853 2.55965 0
M  V30 2386 H 222.744 2.34403 1.02415 0
M  V30 2387 H 222.388 4.53762 2.28173 0
M  V30 2388 H 222.318 3.63119 3.81381 0
M  V30 2389 H 224.809 2.88321 2.44293 0
M  V30 2390 H 225.122 6.28101 4.50232 0
M  V30 2391 H 223.467 5.64463 4.05471 0
M  V30 2392 H 226.658 3.62529 2.96126 0
M  V30 2393 H 226.831 5.17457 3.90054 0
M  V30 2394 N 220.237 -1.11381 1.11499 0
M  V30 2395 C 221.648 -1.6465 0.880191 0
M  V30 2396 C 221.999 -1.87199 -0.587434 0
M  V30 2397 O 221.124 -1.60667 -1.44966 0
M  V30 2398 C 221.719 -2.99105 1.59128 0
M  V30 2399 C 220.278 -3.49279 1.40289 0
M  V30 2400 C 219.425 -2.24077 1.63354 0
M  V30 2401 H 222.376 -0.950123 1.27116 0
M  V30 2402 H 222.397 -3.66107 1.03664 0
M  V30 2403 H 221.909 -2.82661 2.65941 0
M  V30 2404 H 220.01 -3.70887 0.356888 0
M  V30 2405 H 220.123 -4.2803 2.15238 0
M  V30 2406 H 218.487 -2.31733 1.05698 0
M  V30 2407 H 219.27 -2.10175 2.71443 0
M  V30 2408 N 221.715 -0.905404 -1.28997 0
M  V30 2409 C 222.663 -0.377431 -2.29517 0
M  V30 2410 C 223.657 0.526461 -1.61012 0
M  V30 2411 O 224.863 0.40863 -1.753 0
M  V30 2412 H 221.238 -0.103437 -0.744852 0
M  V30 2413 H 223.209 -1.23848 -2.71485 0
M  V30 2414 C 221.958 0.374833 -3.45674 0
M  V30 2415 H 221.281 -0.311474 -3.98585 0
M  V30 2416 H 222.721 0.70903 -4.1803 0
M  V30 2417 C 221.18 1.57963 -2.97572 0
M  V30 2418 O 221.71 2.67886 -2.99333 0
M  V30 2419 N 219.916 1.42375 -2.53333 0
M  V30 2420 H 219.463 0.529466 -2.521 0
M  V30 2421 H 219.421 2.23117 -2.21509 0
M  V30 2422 N 223.193 1.4272 -0.668489 0
M  V30 2423 C 224.442 2.00846 -0.185389 0
M  V30 2424 C 224.755 1.53442 1.21305 0
M  V30 2425 O 225.961 2.03944 1.79218 0
M  V30 2426 C 224.417 3.58805 -0.280591 0
M  V30 2427 C 224.025 4.15198 -1.68268 0
M  V30 2428 C 225.769 4.24255 0.14412 0
M  V30 2429 C 223.676 5.655 -1.73099 0
M  V30 2430 H 222.606 0.751145 -0.0655475 0
M  V30 2431 H 225.257 1.63516 -0.832752 0
M  V30 2432 H 223.639 3.93608 0.434553 0
M  V30 2433 H 224.813 3.91866 -2.42441 0
M  V30 2434 H 223.128 3.62176 -2.05469 0
M  V30 2435 H 225.725 5.34547 0.128086 0
M  V30 2436 H 226.068 3.99277 1.17827 0
M  V30 2437 H 226.601 3.94389 -0.519798 0
M  V30 2438 H 223.34 5.95268 -2.74475 0
M  V30 2439 H 222.86 5.90842 -1.03274 0
M  V30 2440 H 224.539 6.29808 -1.48158 0
M  V30 2441 N 224.671 0.411399 1.52136 0
M  V30 2442 C 225.601 -0.404015 2.29978 0
M  V30 2443 C 226.582 -1.04412 1.34284 0
M  V30 2444 O 227.767 -1.0527 1.63192 0
M  V30 2445 C 224.897 -1.5197 3.12286 0
M  V30 2446 C 223.851 -1.00448 4.16046 0
M  V30 2447 C 223.177 -2.21393 4.86712 0
M  V30 2448 C 224.477 -0.0569336 5.22269 0
M  V30 2449 H 226.171 0.245529 2.98392 0
M  V30 2450 H 223.717 0.119525 1.43503 0
M  V30 2451 H 225.67 -2.09715 3.6551 0
M  V30 2452 H 224.394 -2.19716 2.41646 0
M  V30 2453 H 223.053 -0.449421 3.63835 0
M  V30 2454 H 222.701 -2.87699 4.12599 0
M  V30 2455 H 222.401 -1.87571 5.56858 0
M  V30 2456 H 223.925 -2.7974 5.4275 0
M  V30 2457 H 225.339 -0.54325 5.7072 0
M  V30 2458 H 223.736 0.192594 5.99791 0
M  V30 2459 H 224.806 0.887663 4.76706 0
M  V30 2460 N 226.149 -1.5696 0.141893 0
M  V30 2461 C 227.398 -1.95135 -0.510427 0
M  V30 2462 C 227.711 -1.02896 -1.66348 0
M  V30 2463 O 228.917 -1.30629 -2.38009 0
M  V30 2464 C 227.373 -3.46876 -0.959427 0
M  V30 2465 C 226.981 -4.47691 0.166419 0
M  V30 2466 C 228.725 -3.93927 -1.58183 0
M  V30 2467 C 226.632 -5.90636 -0.300565 0
M  V30 2468 H 225.562 -0.728494 -0.194454 0
M  V30 2469 H 228.213 -1.8211 0.22542 0
M  V30 2470 H 226.595 -3.55215 -1.75038 0
M  V30 2471 H 227.769 -4.51043 0.94325 0
M  V30 2472 H 226.084 -4.10527 0.696905 0
M  V30 2473 H 228.681 -4.98158 -1.94275 0
M  V30 2474 H 229.024 -3.3519 -2.46888 0
M  V30 2475 H 229.557 -3.88484 -0.855863 0
M  V30 2476 H 226.296 -6.5318 0.550989 0
M  V30 2477 H 225.816 -5.90655 -1.04338 0
M  V30 2478 H 227.495 -6.42588 -0.754265 0
M  V30 2479 N 227.627 0.131896 -1.57047 0
M  V30 2480 C 229.038 0.690407 -1.73465 0
M  V30 2481 C 229.389 1.8094 -0.758629 0
M  V30 2482 O 228.514 2.16282 0.0713813 0
M  V30 2483 C 229.109 1.25916 -3.14532 0
M  V30 2484 C 227.668 1.76409 -3.32501 0
M  V30 2485 C 226.815 0.658579 -2.69366 0
M  V30 2486 H 229.766 -0.0939144 -1.58422 0
M  V30 2487 H 229.787 2.12892 -3.15369 0
M  V30 2488 H 229.299 0.444515 -3.85546 0
M  V30 2489 H 227.4 2.60391 -2.66509 0
M  V30 2490 H 227.513 1.88241 -4.4057 0
M  V30 2491 H 225.877 1.08899 -2.30246 0
M  V30 2492 H 226.66 -0.14487 -3.42994 0
M  V30 2493 N 229.106 1.52395 0.401703 0
M  V30 2494 C 230.354 1.66488 1.14569 0
M  V30 2495 C 230.675 0.400897 1.90835 0
M  V30 2496 O 229.945 -0.584415 1.8698 0
M  V30 2497 H 228.525 0.613672 0.425929 0
M  V30 2498 H 231.187 1.89464 0.457093 0
M  V30 2499 H 230.283 2.50942 1.85566 0
M  V30 2500 N 230.584 -0.659388 1.43143 0
M  V30 2501 C 231.812 -1.44723 1.47861 0
M  V30 2502 C 232.227 -1.88563 0.0945886 0
M  V30 2503 O 231.584 -1.59108 -0.893915 0
M  V30 2504 C 231.635 -2.68627 2.41913 0
M  V30 2505 O 231.356 -2.26623 3.74932 0
M  V30 2506 C 232.857 -3.62045 2.55809 0
M  V30 2507 H 230.077 -0.444801 0.502387 0
M  V30 2508 H 232.621 -0.808916 1.87821 0
M  V30 2509 H 230.776 -3.28613 2.05164 0
M  V30 2510 H 231.19 -3.06745 4.2545 0
M  V30 2511 H 232.664 -4.45666 3.25708 0
M  V30 2512 H 233.141 -4.08981 1.60099 0
M  V30 2513 H 233.747 -3.07944 2.93344 0
M  V30 2514 N 232.062 -1.29571 -0.897171 0
M  V30 2515 C 232.992 -1.17473 -2.01798 0
M  V30 2516 C 233.973 -0.068323 -1.69963 0
M  V30 2517 O 235.158 -0.248239 -1.92607 0
M  V30 2518 C 232.288 -0.853099 -3.36659 0
M  V30 2519 C 231.242 -1.9161 -3.82713 0
M  V30 2520 C 230.568 -1.44773 -5.14728 0
M  V30 2521 C 231.868 -3.32535 -4.02763 0
M  V30 2522 H 233.562 -2.11237 -2.12177 0
M  V30 2523 H 231.108 -1.01699 -1.01948 0
M  V30 2524 H 233.061 -0.755165 -4.14578 0
M  V30 2525 H 231.785 0.120236 -3.26379 0
M  V30 2526 H 230.444 -2.00346 -3.07013 0
M  V30 2527 H 230.092 -0.462995 -5.00865 0
M  V30 2528 H 229.792 -2.15865 -5.46513 0
M  V30 2529 H 231.316 -1.36334 -5.95185 0
M  V30 2530 H 232.73 -3.26626 -4.71156 0
M  V30 2531 H 231.127 -4.01607 -4.45905 0
M  V30 2532 H 232.197 -3.75326 -3.07016 0
M  V30 2533 N 233.54 1.10788 -1.12088 0
M  V30 2534 C 234.45 2.20599 -0.798338 0
M  V30 2535 C 235.466 1.72712 0.21135 0
M  V30 2536 O 236.642 2.01348 0.0458477 0
M  V30 2537 C 233.707 3.45771 -0.253674 0
M  V30 2538 C 232.768 4.08411 -1.32283 0
M  V30 2539 C 232.001 5.27608 -0.80406 0
M  V30 2540 O 232.224 5.69241 0.363478 0
M  V30 2541 O 231.158 5.8101 -1.57198 0
M  V30 2542 H 234.984 2.50614 -1.7154 0
M  V30 2543 H 232.569 1.19454 -0.897275 0
M  V30 2544 H 234.451 4.21376 0.0453691 0
M  V30 2545 H 233.126 3.1739 0.636005 0
M  V30 2546 H 232.033 3.34507 -1.67499 0
M  V30 2547 H 233.366 4.40986 -2.18614 0
M  V30 2548 N 235.018 0.912232 1.28515 0
M  V30 2549 C 236.243 0.559774 1.99703 0
M  V30 2550 C 236.668 -0.851393 1.67729 0
M  V30 2551 O 236.026 -1.56875 0.908834 0
M  V30 2552 C 236.074 0.773874 3.52198 0
M  V30 2553 O 235.178 -0.167842 4.12058 0
M  V30 2554 H 234.519 0.21723 0.627461 0
M  V30 2555 H 237.049 1.22725 1.63706 0
M  V30 2556 H 237.059 0.683386 4.02236 0
M  V30 2557 H 235.734 1.80261 3.74805 0
M  V30 2558 H 234.311 -0.0287509 3.72889 0
M  V30 2559 N 236.496 -1.42363 0.676048 0
M  V30 2560 C 237.744 -2.01123 0.198437 0
M  V30 2561 C 238.065 -1.53731 -1.19966 0
M  V30 2562 O 237.335 -0.759518 -1.80577 0
M  V30 2563 H 235.915 -0.743678 0.0703721 0
M  V30 2564 H 238.577 -1.74263 0.872837 0
M  V30 2565 H 237.673 -3.11454 0.200686 0
M  V30 2566 N 237.974 -0.419461 -1.51915 0
M  V30 2567 C 239.214 0.152336 -2.03832 0
M  V30 2568 C 239.578 1.41501 -1.29775 0
M  V30 2569 O 240.779 2.06591 -1.7197 0
M  V30 2570 C 239.05 0.383812 -3.55333 0
M  V30 2571 S 240.609 0.921577 -4.29013 0
M  V30 2572 H 237.427 0.0402193 -0.709862 0
M  V30 2573 H 240.029 -0.574758 -1.8686 0
M  V30 2574 H 238.733 -0.541794 -4.06808 0
M  V30 2575 H 238.264 1.13849 -3.76566 0
M  V30 2576 H 240.279 2.20108 -4.4471 0
M  V30 2577 N 239.452 1.56882 -0.150215 0
M  V30 2578 C 240.699 1.96228 0.500093 0
M  V30 2579 C 241.027 1.03522 1.64661 0
M  V30 2580 O 240.282 0.0650683 1.95592 0
M  V30 2581 C 240.581 3.41801 1.04437 0
M  V30 2582 C 240.247 4.50897 0.0159671 0
M  V30 2583 C 238.909 4.8046 -0.266731 0
M  V30 2584 C 241.261 5.16703 -0.683192 0
M  V30 2585 C 238.589 5.73135 -1.25434 0
M  V30 2586 C 240.941 6.10441 -1.65964 0
M  V30 2587 C 239.605 6.38382 -1.95 0
M  V30 2588 H 238.875 0.718048 0.182997 0
M  V30 2589 H 241.522 1.90019 -0.237724 0
M  V30 2590 H 239.827 3.44857 1.85959 0
M  V30 2591 H 241.524 3.69573 1.55618 0
M  V30 2592 H 238.114 4.27891 0.246485 0
M  V30 2593 H 242.298 4.93993 -0.477983 0
M  V30 2594 H 237.554 5.93074 -1.48571 0
M  V30 2595 H 241.728 6.60507 -2.20689 0
M  V30 2596 H 239.355 7.09996 -2.71679 0
M  V30 2597 N 240.93 -0.123565 1.57115 0
M  V30 2598 C 241.862 -1.17739 1.96648 0
M  V30 2599 C 242.875 -1.37906 0.865201 0
M  V30 2600 O 244.064 -1.37062 1.14351 0
M  V30 2601 C 241.164 -2.53821 2.24562 0
M  V30 2602 C 240.337 -2.54317 3.55867 0
M  V30 2603 C 239.396 -3.72112 3.72047 0
M  V30 2604 O 238.422 -3.55907 4.44206 0
M  V30 2605 N 239.624 -4.90498 3.10471 0
M  V30 2606 H 242.389 -0.841147 2.87654 0
M  V30 2607 H 239.95 -0.31289 1.58848 0
M  V30 2608 H 241.942 -3.31175 2.32606 0
M  V30 2609 H 240.512 -2.79645 1.39705 0
M  V30 2610 H 239.732 -1.62711 3.59053 0
M  V30 2611 H 241.02 -2.51701 4.42181 0
M  V30 2612 H 240.418 -5.06567 2.51806 0
M  V30 2613 H 238.975 -5.65544 3.24043 0
M  V30 2614 N 242.408 -1.52605 -0.393616 0
M  V30 2615 C 243.356 -1.77688 -1.50099 0
M  V30 2616 C 244.35 -0.644615 -1.56656 0
M  V30 2617 O 245.556 -0.826997 -1.59877 0
M  V30 2618 H 241.931 -0.562159 -0.499481 0
M  V30 2619 H 243.902 -2.7043 -1.26135 0
M  V30 2620 C 242.651 -1.95858 -2.87289 0
M  V30 2621 H 241.974 -2.8241 -2.82992 0
M  V30 2622 H 243.414 -2.174 -3.64024 0
M  V30 2623 C 241.873 -0.729848 -3.28899 0
M  V30 2624 O 242.403 0.0949217 -4.01588 0
M  V30 2625 N 240.609 -0.561283 -2.85128 0
M  V30 2626 H 240.156 -1.23357 -2.26143 0
M  V30 2627 H 240.114 0.2595 -3.13327 0
M  V30 2628 N 243.887 0.651787 -1.4349 0
M  V30 2629 C 244.817 1.77621 -1.51569 0
M  V30 2630 C 245.798 1.66022 -0.370253 0
M  V30 2631 O 246.983 1.85095 -0.587658 0
M  V30 2632 C 244.113 3.16056 -1.43966 0
M  V30 2633 C 243.067 3.4242 -2.56774 0
M  V30 2634 C 242.393 4.8067 -2.34223 0
M  V30 2635 C 243.693 3.37023 -3.99015 0
M  V30 2636 H 245.387 1.71117 -2.45681 0
M  V30 2637 H 242.933 0.821825 -1.18246 0
M  V30 2638 H 244.886 3.94472 -1.48221 0
M  V30 2639 H 243.61 3.23293 -0.463586 0
M  V30 2640 H 242.269 2.66375 -2.51873 0
M  V30 2641 H 241.917 4.84585 -1.34856 0
M  V30 2642 H 241.617 4.9927 -3.09844 0
M  V30 2643 H 243.141 5.61342 -2.40265 0
M  V30 2644 H 244.555 4.05374 -4.05395 0
M  V30 2645 H 242.952 3.67159 -4.74673 0
M  V30 2646 H 244.022 2.3518 -4.2405 0
M  V30 2647 N 245.365 1.30045 0.890287 0
M  V30 2648 C 246.593 1.21472 1.67487 0
M  V30 2649 C 247.008 -0.223241 1.87476 0
M  V30 2650 O 246.365 -1.14828 1.41847 0
M  V30 2651 C 246.416 1.93394 3.05419 0
M  V30 2652 O 246.137 3.31576 2.86337 0
M  V30 2653 C 247.638 1.91414 3.99844 0
M  V30 2654 H 244.858 0.420604 0.522813 0
M  V30 2655 H 247.402 1.7158 1.11268 0
M  V30 2656 H 245.557 1.47099 3.58386 0
M  V30 2657 H 245.971 3.67929 3.73802 0
M  V30 2658 H 247.445 2.46285 4.94012 0
M  V30 2659 H 247.922 0.891833 4.3005 0
M  V30 2660 H 248.528 2.37496 3.52811 0
M  V30 2661 N 246.843 -1.10192 1.12674 0
M  V30 2662 C 248.083 -1.83825 0.893736 0
M  V30 2663 C 248.447 -1.83341 -0.570082 0
M  V30 2664 O 249.648 -2.52553 -0.920354 0
M  V30 2665 C 247.919 -3.26405 1.45582 0
M  V30 2666 S 249.478 -4.17136 1.36171 0
M  V30 2667 H 246.296 -0.633732 0.322342 0
M  V30 2668 H 248.898 -1.32581 1.43675 0
M  V30 2669 H 247.602 -3.24329 2.51473 0
M  V30 2670 H 247.133 -3.82721 0.910405 0
M  V30 2671 H 249.148 -4.95069 0.334863 0
M  V30 2672 N 248.321 -0.919034 -1.28029 0
M  V30 2673 C 249.546 -0.570357 -1.99403 0
M  V30 2674 C 249.971 0.842486 -1.68178 0
M  V30 2675 O 249.329 1.56391 -0.917141 0
M  V30 2676 C 249.377 -0.792541 -3.51783 0
M  V30 2677 O 248.481 0.145988 -4.12142 0
M  V30 2678 H 247.822 -0.220555 -0.6263 0
M  V30 2679 H 250.352 -1.23592 -1.63053 0
M  V30 2680 H 250.362 -0.704708 -4.01868 0
M  V30 2681 H 249.037 -1.82247 -3.73844 0
M  V30 2682 H 247.614 0.00897528 -3.72899 0
M  V30 2683 N 249.799 1.42003 -0.683588 0
M  V30 2684 C 251.045 2.01712 -0.209825 0
M  V30 2685 C 251.378 1.53968 1.18353 0
M  V30 2686 O 250.653 0.745661 1.79639 0
M  V30 2687 C 250.936 3.59202 -0.254197 0
M  V30 2688 C 250.789 4.17102 -1.68363 0
M  V30 2689 C 252.108 4.38344 0.392709 0
M  V30 2690 H 249.227 0.732891 -0.0777189 0
M  V30 2691 H 251.869 1.68909 -0.87004 0
M  V30 2692 H 250.019 3.87278 0.307954 0
M  V30 2693 H 251.691 3.99946 -2.29871 0
M  V30 2694 H 249.934 3.72597 -2.22157 0
M  V30 2695 H 250.605 5.26249 -1.6663 0
M  V30 2696 H 253.081 4.16011 -0.0859162 0
M  V30 2697 H 251.957 5.47901 0.331063 0
M  V30 2698 H 252.218 4.16887 1.47164 0
M  V30 2699 N 251.277 0.427512 1.51691 0
M  V30 2700 C 252.688 -0.0378867 1.86662 0
M  V30 2701 C 253.039 -1.42819 1.34525 0
M  V30 2702 O 252.164 -2.05037 0.692014 0
M  V30 2703 C 252.759 -0.0755266 3.38716 0
M  V30 2704 C 251.318 -0.485309 3.73258 0
M  V30 2705 C 250.465 0.328399 2.75349 0
M  V30 2706 H 253.416 0.64379 1.45055 0
M  V30 2707 H 253.437 -0.887056 3.70016 0
M  V30 2708 H 252.949 0.936487 3.76632 0
M  V30 2709 H 251.05 -1.50329 3.40928 0
M  V30 2710 H 251.163 -0.21693 4.78609 0
M  V30 2711 H 249.527 -0.211905 2.53817 0
M  V30 2712 H 250.31 1.3391 3.16106 0
M  V30 2713 N 252.755 -1.56801 0.158532 0
M  V30 2714 C 254.001 -1.97559 -0.483957 0
M  V30 2715 C 254.356 -1.04239 -1.61716 0
M  V30 2716 O 253.649 -0.079603 -1.91435 0
M  V30 2717 C 253.843 -3.4235 -1.02623 0
M  V30 2718 C 253.672 -4.49669 0.0528929 0
M  V30 2719 C 252.442 -5.02838 0.498234 0
M  V30 2720 C 254.64 -5.0725 0.848616 0
M  V30 2721 N 252.622 -5.93775 1.559 0
M  V30 2722 C 253.993 -5.94506 1.7596 0
M  V30 2723 C 256.048 -4.89788 0.895121 0
M  V30 2724 C 254.751 -6.66169 2.71314 0
M  V30 2725 C 256.777 -5.62161 1.83654 0
M  V30 2726 C 256.139 -6.49134 2.73503 0
M  V30 2727 H 252.238 -0.768332 -0.145566 0
M  V30 2728 H 254.822 -1.93012 0.255799 0
M  V30 2729 H 252.993 -3.47467 -1.73555 0
M  V30 2730 H 254.725 -3.70145 -1.63629 0
M  V30 2731 H 251.48 -4.73498 0.0983222 0
M  V30 2732 H 251.904 -6.43948 2.08949 0
M  V30 2733 H 256.546 -4.22255 0.21453 0
M  V30 2734 H 254.264 -7.32923 3.40367 0
M  V30 2735 H 257.85 -5.5064 1.87847 0
M  V30 2736 H 256.73 -7.04153 3.45163 0
M  V30 2737 N 254.233 0.115231 -1.57178 0
M  V30 2738 C 255.196 1.12526 -1.99676 0
M  V30 2739 C 256.196 1.34095 -0.88742 0
M  V30 2740 O 257.386 1.30548 -1.15337 0
M  V30 2741 C 254.518 2.4789 -2.34015 0
M  V30 2742 H 255.711 0.759912 -2.90113 0
M  V30 2743 H 253.264 0.359648 -1.52106 0
M  V30 2744 H 253.999 2.89339 -1.4647 0
M  V30 2745 H 253.784 2.33588 -3.14927 0
M  V30 2746 H 255.274 3.20575 -2.67622 0
M  V30 2747 N 255.711 1.52812 0.385517 0
M  V30 2748 C 256.951 1.69716 1.13911 0
M  V30 2749 C 257.315 0.42962 1.87132 0
M  V30 2750 O 258.516 0.475071 2.64569 0
M  V30 2751 C 256.787 2.90021 2.0886 0
M  V30 2752 S 258.346 3.27531 2.92009 0
M  V30 2753 H 255.164 0.59739 0.385547 0
M  V30 2754 H 257.766 1.90868 0.423061 0
M  V30 2755 H 256.47 3.80493 1.53797 0
M  V30 2756 H 256.001 2.71213 2.84969 0
M  V30 2757 H 258.016 2.77989 4.11019 0
M  V30 2758 N 257.189 -0.644168 1.43834 0
M  V30 2759 C 258.099 -1.78563 1.52159 0
M  V30 2760 C 259.115 -1.69147 0.408069 0
M  V30 2761 O 260.291 -1.90156 0.663524 0
M  V30 2762 C 257.356 -3.14888 1.45073 0
M  V30 2763 C 256.417 -3.36034 2.6717 0
M  V30 2764 C 255.65 -4.65855 2.60413 0
M  V30 2765 O 255.873 -5.45805 1.65689 0
M  V30 2766 O 254.807 -4.88918 3.5106 0
M  V30 2767 H 258.633 -1.74494 2.48567 0
M  V30 2768 H 256.218 -0.80378 1.25935 0
M  V30 2769 H 258.1 -3.96179 1.43597 0
M  V30 2770 H 256.775 -3.19528 0.518037 0
M  V30 2771 H 255.682 -2.54472 2.74217 0
M  V30 2772 H 257.015 -3.36247 3.59442 0
M  V30 2773 N 258.668 -1.30515 -0.883378 0
M  V30 2774 C 259.6 -1.12846 -1.99496 0
M  V30 2775 C 260.613 -0.0712571 -1.62644 0
M  V30 2776 O 261.802 -0.317432 -1.75655 0
M  V30 2777 C 258.902 -0.699123 -3.3161 0
M  V30 2778 C 258.075 -1.83842 -3.96889 0
M  V30 2779 C 257.134 -1.39737 -5.07307 0
M  V30 2780 O 256.16 -2.10485 -5.28852 0
M  V30 2781 N 257.362 -0.277279 -5.79837 0
M  V30 2782 H 260.127 -2.08585 -2.15203 0
M  V30 2783 H 257.688 -1.22672 -1.05656 0
M  V30 2784 H 259.68 -0.387044 -4.02845 0
M  V30 2785 H 258.25 0.166276 -3.12157 0
M  V30 2786 H 257.47 -2.31853 -3.18807 0
M  V30 2787 H 258.758 -2.60187 -4.37241 0
M  V30 2788 H 258.156 0.3122 -5.64838 0
M  V30 2789 H 256.713 -0.0246623 -6.51795 0
M  V30 2790 N 260.146 1.09593 -1.13257 0
M  V30 2791 C 261.394 1.81375 -0.891492 0
M  V30 2792 C 261.715 1.86049 0.584009 0
M  V30 2793 O 260.985 1.34481 1.42449 0
M  V30 2794 H 259.565 0.671708 -0.326828 0
M  V30 2795 H 262.227 1.3256 -1.42877 0
M  V30 2796 H 261.323 2.84612 -1.28071 0
M  V30 2797 N 261.624 0.925811 1.2754 0
M  V30 2798 C 262.852 0.581509 1.9856 0
M  V30 2799 C 263.267 -0.840041 1.69082 0
M  V30 2800 O 262.624 -1.55805 0.950312 0
M  V30 2801 C 262.675 0.795589 3.52637 0
M  V30 2802 O 262.396 2.16121 3.81082 0
M  V30 2803 C 263.897 0.459744 4.4091 0
M  V30 2804 H 261.117 0.220538 0.633722 0
M  V30 2805 H 263.661 1.24232 1.6244 0
M  V30 2806 H 261.816 0.18161 3.86974 0
M  V30 2807 H 262.23 2.2098 4.75676 0
M  V30 2808 H 263.704 0.660244 5.48037 0
M  V30 2809 H 264.181 -0.604625 4.35018 0
M  V30 2810 H 264.787 1.05178 4.12089 0
M  V30 2811 N 263.102 -1.41638 0.69111 0
M  V30 2812 C 264.513 -1.84346 0.295517 0
M  V30 2813 C 264.864 -1.57833 -1.16547 0
M  V30 2814 O 263.989 -1.04648 -1.89414 0
M  V30 2815 C 264.584 -3.34636 0.529575 0
M  V30 2816 C 263.143 -3.7593 0.187944 0
M  V30 2817 C 262.29 -2.65082 0.814052 0
M  V30 2818 H 265.241 -1.31253 0.892092 0
M  V30 2819 H 265.262 -3.79903 -0.213148 0
M  V30 2820 H 264.774 -3.53901 1.59297 0
M  V30 2821 H 262.875 -3.62268 -0.871367 0
M  V30 2822 H 262.988 -4.74808 0.63985 0
M  V30 2823 H 261.352 -2.53528 0.244017 0
M  V30 2824 H 262.135 -2.87167 1.88123 0
M  V30 2825 N 264.58 -0.43555 -1.51462 0
M  V30 2826 C 265.991 0.0279871 -1.86679 0
M  V30 2827 C 266.342 1.42104 -1.35281 0
M  V30 2828 O 265.467 2.04667 -0.702878 0
M  V30 2829 C 266.062 0.0575626 -3.38751 0
M  V30 2830 C 264.621 0.465507 -3.7351 0
M  V30 2831 C 263.768 -0.342996 -2.75171 0
M  V30 2832 H 266.719 -0.651473 -1.44712 0
M  V30 2833 H 266.74 0.867421 -3.70481 0
M  V30 2834 H 266.252 -0.956448 -3.7613 0
M  V30 2835 H 264.353 1.48519 -3.41721 0
M  V30 2836 H 264.466 0.191546 -4.78717 0
M  V30 2837 H 262.83 0.198442 -2.53926 0
M  V30 2838 H 263.613 -1.35585 -3.15391 0
M  V30 2839 N 266.058 1.56714 -0.166846 0
M  V30 2840 C 266.991 2.13577 0.80375 0
M  V30 2841 C 267.969 1.06464 1.22899 0
M  V30 2842 O 269.153 1.34413 1.32157 0
M  V30 2843 C 266.28 2.67168 2.0818 0
M  V30 2844 C 265.326 3.86612 1.80093 0
M  V30 2845 S 266.159 5.26565 0.97416 0
M  V30 2846 C 267.315 5.83558 2.26297 0
M  V30 2847 H 267.548 2.9557 0.320267 0
M  V30 2848 H 265.081 1.54326 0.0477555 0
M  V30 2849 H 267.039 2.98692 2.8159 0
M  V30 2850 H 265.7 1.85269 2.53642 0
M  V30 2851 H 264.893 4.22422 2.7491 0
M  V30 2852 H 264.495 3.55951 1.14781 0
M  V30 2853 H 266.787 5.962 3.21795 0
M  V30 2854 H 267.73 6.80731 1.94962 0
M  V30 2855 H 268.138 5.11944 2.37853 0
M  V30 2856 N 267.536 -0.106894 1.57237 0
M  V30 2857 C 268.785 -0.811163 1.8467 0
M  V30 2858 C 269.098 -1.80469 0.754342 0
M  V30 2859 O 270.304 -2.55601 0.915439 0
M  V30 2860 C 268.76 -1.49337 3.27454 0
M  V30 2861 C 268.368 -0.540217 4.44731 0
M  V30 2862 C 270.112 -2.18206 3.64124 0
M  V30 2863 C 268.019 -1.22634 5.78545 0
M  V30 2864 H 266.949 -0.306679 0.688813 0
M  V30 2865 H 269.6 -0.0639887 1.83388 0
M  V30 2866 H 267.982 -2.2876 3.23241 0
M  V30 2867 H 269.156 0.221659 4.60267 0
M  V30 2868 H 267.471 0.042146 4.16379 0
M  V30 2869 H 270.068 -2.70253 4.61376 0
M  V30 2870 H 270.411 -2.96562 2.92158 0
M  V30 2871 H 270.944 -1.45658 3.70174 0
M  V30 2872 H 267.683 -0.483832 6.53712 0
M  V30 2873 H 267.203 -1.95993 5.66874 0
M  V30 2874 H 268.882 -1.75615 6.2271 0
M  V30 2875 N 269.014 -1.53014 -0.377408 0
M  V30 2876 C 270.239 -1.72818 -1.14668 0
M  V30 2877 C 270.664 -0.450725 -1.8262 0
M  V30 2878 O 270.022 0.59439 -1.7128 0
M  V30 2879 C 270.07 -2.88627 -2.16164 0
M  V30 2880 O 269.174 -2.56409 -3.22998 0
M  V30 2881 H 268.515 -0.574301 -0.333278 0
M  V30 2882 H 271.045 -1.99853 -0.438152 0
M  V30 2883 H 271.055 -3.14455 -2.59966 0
M  V30 2884 H 269.73 -3.81294 -1.66095 0
M  V30 2885 H 268.307 -2.4136 -2.84253 0
M  V30 2886 N 270.492 0.636531 -1.44174 0
M  V30 2887 C 271.738 1.39649 -1.47884 0
M  V30 2888 C 272.093 1.92098 -0.107747 0
M  V30 2889 O 271.386 1.70391 0.876208 0
M  V30 2890 C 271.58 2.58309 -2.47005 0
M  V30 2891 C 271.409 2.17476 -3.93617 0
M  V30 2892 C 270.179 2.0501 -4.61843 0
M  V30 2893 C 272.377 1.76722 -4.82984 0
M  V30 2894 N 270.359 1.57683 -5.93304 0
M  V30 2895 C 271.73 1.40601 -6.03847 0
M  V30 2896 C 273.785 1.64054 -4.70096 0
M  V30 2897 C 272.488 0.930787 -7.13252 0
M  V30 2898 C 274.514 1.17937 -5.79521 0
M  V30 2899 C 273.876 0.827625 -6.99521 0
M  V30 2900 H 269.975 0.506027 -0.596205 0
M  V30 2901 H 272.559 0.730791 -1.80465 0
M  V30 2902 H 270.73 3.22514 -2.16423 0
M  V30 2903 H 272.462 3.25083 -2.41045 0
M  V30 2904 H 269.217 2.25294 -4.16581 0
M  V30 2905 H 269.641 1.36334 -6.63131 0
M  V30 2906 H 274.283 1.89882 -3.77762 0
M  V30 2907 H 272.001 0.660012 -8.054 0
M  V30 2908 H 275.587 1.08601 -5.71574 0
M  V30 2909 H 274.467 0.476231 -7.82753 0
M  V30 2910 N 271.97 1.30982 0.876444 0
M  V30 2911 C 272.903 1.12414 1.98591 0
M  V30 2912 C 273.881 0.0294078 1.62573 0
M  V30 2913 O 275.065 0.184598 1.87594 0
M  V30 2914 C 272.192 0.716276 3.3104 0
M  V30 2915 C 271.238 1.81311 3.86042 0
M  V30 2916 S 272.071 3.41727 4.1229 0
M  V30 2917 C 273.227 3.02863 5.47745 0
M  V30 2918 H 273.46 2.06338 2.14037 0
M  V30 2919 H 270.993 1.15393 1.02586 0
M  V30 2920 H 272.951 0.487697 4.07593 0
M  V30 2921 H 271.612 -0.203749 3.13438 0
M  V30 2922 H 270.805 1.48021 4.81774 0
M  V30 2923 H 270.407 1.99641 3.16259 0
M  V30 2924 H 272.699 2.51353 6.29148 0
M  V30 2925 H 273.642 3.97533 5.8598 0
M  V30 2926 H 274.05 2.40487 5.10711 0
M  V30 2927 N 273.449 -1.08991 1.13837 0
M  V30 2928 C 274.697 -1.80899 0.901098 0
M  V30 2929 C 275.018 -1.86356 -0.574134 0
M  V30 2930 O 274.288 -1.35235 -1.41733 0
M  V30 2931 H 272.868 -0.669966 0.330386 0
M  V30 2932 H 275.53 -1.318 1.43578 0
M  V30 2933 H 274.626 -2.83929 1.29578 0
M  V30 2934 N 274.927 -0.932562 -1.27047 0
M  V30 2935 C 276.155 -0.592031 -1.98249 0
M  V30 2936 C 276.57 0.831062 -1.69525 0
M  V30 2937 O 275.927 1.55299 -0.958561 0
M  V30 2938 C 275.978 -0.814279 -3.5221 0
M  V30 2939 O 275.699 -2.18139 -3.7993 0
M  V30 2940 C 277.2 -0.483121 -4.4066 0
M  V30 2941 H 274.42 -0.223896 -0.632544 0
M  V30 2942 H 276.964 -1.25091 -1.61779 0
M  V30 2943 H 275.119 -0.20213 -3.86872 0
M  V30 2944 H 275.533 -2.235 -4.74498 0
M  V30 2945 H 277.007 -0.689298 -5.47679 0
M  V30 2946 H 277.484 0.581546 -4.35333 0
M  V30 2947 H 278.09 -1.07362 -4.11526 0
M  V30 2948 N 276.405 1.4127 -0.698611 0
M  V30 2949 C 277.63 2.06024 -0.238512 0
M  V30 2950 C 278.055 1.5224 1.10475 0
M  V30 2951 O 277.413 0.650623 1.69223 0
M  V30 2952 C 277.461 3.59988 -0.209952 0
M  V30 2953 O 276.565 4.04282 0.814235 0
M  V30 2954 H 275.906 0.653829 -0.115775 0
M  V30 2955 H 278.436 1.8098 -0.954326 0
M  V30 2956 H 278.446 4.07979 -0.0418436 0
M  V30 2957 H 277.121 3.98503 -1.1903 0
M  V30 2958 H 275.698 3.6779 0.615234 0
M  V30 2959 N 277.883 0.443576 1.51229 0
M  V30 2960 C 279.129 -0.120975 2.02439 0
M  V30 2961 C 279.462 -1.41815 1.32674 0
M  V30 2962 O 278.737 -1.89373 0.443622 0
M  V30 2963 C 279.02 -0.333291 3.58554 0
M  V30 2964 C 278.873 0.982968 4.38928 0
M  V30 2965 C 280.192 -1.10028 4.26124 0
M  V30 2966 H 277.311 -0.0424923 0.735774 0
M  V30 2967 H 279.953 0.583794 1.80809 0
M  V30 2968 H 278.103 -0.933614 3.77115 0
M  V30 2969 H 279.775 1.61775 4.32003 0
M  V30 2970 H 278.018 1.58611 4.03763 0
M  V30 2971 H 278.689 0.788379 5.46341 0
M  V30 2972 H 281.165 -0.591711 4.11871 0
M  V30 2973 H 280.041 -1.21761 5.35225 0
M  V30 2974 H 280.302 -2.12996 3.87408 0
M  V30 2975 N 279.361 -1.56624 0.175154 0
M  V30 2976 C 280.586 -2.01813 -0.478137 0
M  V30 2977 C 281.011 -1.05457 -1.55757 0
M  V30 2978 O 280.369 -0.0347439 -1.81267 0
M  V30 2979 C 280.417 -3.45581 -1.02987 0
M  V30 2980 O 279.521 -3.52305 -2.14371 0
M  V30 2981 H 278.862 -0.65413 -0.114059 0
M  V30 2982 H 281.392 -2.02673 0.280173 0
M  V30 2983 H 281.402 -3.84965 -1.35151 0
M  V30 2984 H 280.077 -4.1521 -0.239556 0
M  V30 2985 H 278.654 -3.24783 -1.83222 0
M  V30 2986 N 280.839 0.0985539 -1.57292 0
M  V30 2987 C 282.25 0.653457 -1.74891 0
M  V30 2988 C 282.601 1.7929 -0.796838 0
M  V30 2989 O 281.726 2.16385 0.0254886 0
M  V30 2990 C 282.321 1.19216 -3.17133 0
M  V30 2991 C 280.88 1.69316 -3.36168 0
M  V30 2992 C 280.027 0.601294 -2.70702 0
M  V30 2993 H 282.978 -0.127497 -1.58187 0
M  V30 2994 H 282.999 2.06154 -3.19814 0
M  V30 2995 H 282.511 0.362635 -3.86402 0
M  V30 2996 H 280.612 2.5468 -2.71972 0
M  V30 2997 H 280.725 1.78853 -4.44464 0
M  V30 2998 H 279.089 1.0399 -2.32504 0
M  V30 2999 H 279.872 -0.217592 -3.4261 0
M  V30 3000 N 282.317 1.53212 0.369288 0
M  V30 3001 C 283.247 1.82365 1.45826 0
M  V30 3002 C 284.228 0.676907 1.56051 0
M  V30 3003 O 285.413 0.926401 1.70679 0
M  V30 3004 C 282.543 2.01023 2.83208 0
M  V30 3005 C 281.497 3.1678 2.8781 0
M  V30 3006 C 280.823 3.20724 4.27832 0
M  V30 3007 C 282.123 4.55447 2.55667 0
M  V30 3008 H 283.817 2.73559 1.21678 0
M  V30 3009 H 281.363 1.3163 0.583911 0
M  V30 3010 H 283.316 2.20001 3.59413 0
M  V30 3011 H 282.04 1.06536 3.08736 0
M  V30 3012 H 280.699 2.97616 2.14056 0
M  V30 3013 H 280.347 2.23882 4.50429 0
M  V30 3014 H 280.047 3.98496 4.31827 0
M  V30 3015 H 281.571 3.41881 5.05915 0
M  V30 3016 H 282.985 4.74611 3.21586 0
M  V30 3017 H 281.382 5.35432 2.70984 0
M  V30 3018 H 282.452 4.60812 1.5093 0
M  V30 3019 N 283.795 -0.628877 1.44509 0
M  V30 3020 C 284.745 -1.7345 1.47983 0
M  V30 3021 C 285.729 -1.5715 0.345373 0
M  V30 3022 O 286.921 -1.66848 0.590829 0
M  V30 3023 C 284.05 -3.12143 1.42904 0
M  V30 3024 C 283.136 -3.33906 2.61472 0
M  V30 3025 N 283.527 -3.26024 3.86706 0
M  V30 3026 C 281.825 -3.64709 2.56716 0
M  V30 3027 C 282.526 -3.48536 4.65722 0
M  V30 3028 N 281.502 -3.71517 3.96832 0
M  V30 3029 H 285.304 -1.65818 2.42655 0
M  V30 3030 H 282.818 -0.831419 1.39503 0
M  V30 3031 H 284.815 -3.91433 1.43476 0
M  V30 3032 H 283.475 -3.2094 0.492717 0
M  V30 3033 H 284.486 -3.04893 4.18641 0
M  V30 3034 H 281.163 -3.80473 1.71891 0
M  V30 3035 H 282.553 -3.48016 5.74747 0
M  V30 3036 N 285.273 -1.31445 -0.869486 0
M  V30 3037 C 286.684 -1.19042 -1.43826 0
M  V30 3038 C 287.035 0.202919 -1.95148 0
M  V30 3039 O 286.16 1.10071 -1.86315 0
M  V30 3040 C 286.755 -2.15499 -2.6143 0
M  V30 3041 C 285.314 -2.07028 -3.14351 0
M  V30 3042 C 284.461 -2.04701 -1.87063 0
M  V30 3043 H 287.412 -1.43489 -0.677984 0
M  V30 3044 H 287.433 -1.74488 -3.38134 0
M  V30 3045 H 286.945 -3.16899 -2.24046 0
M  V30 3046 H 285.046 -1.08825 -3.56354 0
M  V30 3047 H 285.159 -2.96157 -3.766 0
M  V30 3048 H 283.523 -1.49724 -2.06046 0
M  V30 3049 H 284.306 -3.07857 -1.51917 0
M  V30 3050 N 286.751 1.08385 -1.14413 0
M  V30 3051 C 287.976 1.85057 -0.936413 0
M  V30 3052 C 288.401 1.81055 0.509971 0
M  V30 3053 O 287.759 1.1958 1.36273 0
M  V30 3054 C 287.807 3.30505 -1.44217 0
M  V30 3055 O 286.911 4.07491 -0.634409 0
M  V30 3056 H 286.252 0.573425 -0.334784 0
M  V30 3057 H 288.782 1.36799 -1.52142 0
M  V30 3058 H 288.792 3.81348 -1.45043 0
M  V30 3059 H 287.467 3.32734 -2.49522 0
M  V30 3060 H 286.044 3.66368 -0.694902 0
M  V30 3061 N 288.23 0.939286 1.26551 0
M  V30 3062 C 289.458 0.602536 1.97932 0
M  V30 3063 C 289.873 -0.82206 1.69964 0
M  V30 3064 O 289.23 -1.54789 0.966784 0
M  V30 3065 C 289.281 0.832946 3.51773 0
M  V30 3066 O 289.002 2.20151 3.78768 0
M  V30 3067 C 290.503 0.506483 4.40397 0
M  V30 3068 H 287.723 0.227248 0.631347 0
M  V30 3069 H 290.267 1.25948 1.61113 0
M  V30 3070 H 288.422 0.222644 3.8676 0
M  V30 3071 H 288.836 2.26013 4.73306 0
M  V30 3072 H 290.31 0.718333 5.47306 0
M  V30 3073 H 290.787 -0.558451 4.35635 0
M  V30 3074 H 291.393 1.09543 4.10951 0
M  V30 3075 N 289.708 -1.40897 0.706093 0
M  V30 3076 C 290.936 -2.05373 0.250887 0
M  V30 3077 C 291.351 -1.53172 -1.10381 0
M  V30 3078 O 290.708 -0.684305 -1.69185 0
M  V30 3079 C 290.759 -3.6088 0.211571 0
M  V30 3080 O 290.48 -4.11153 1.51276 0
M  V30 3081 C 291.981 -4.42517 -0.263346 0
M  V30 3082 H 289.201 -0.66115 0.114552 0
M  V30 3083 H 291.745 -1.80479 0.961635 0
M  V30 3084 H 289.9 -3.84777 -0.450073 0
M  V30 3085 H 290.314 -5.05279 1.40689 0
M  V30 3086 H 291.788 -5.51479 -0.239718 0
M  V30 3087 H 292.265 -4.19396 -1.30397 0
M  V30 3088 H 292.871 -4.23708 0.367677 0
M  V30 3089 N 291.186 -0.45159 -1.50991 0
M  V30 3090 C 292.602 -0.104647 -1.59257 0
M  V30 3091 C 292.802 1.38728 -1.4614 0
M  V30 3092 O 291.858 2.15866 -1.30989 0
M  V30 3093 C 293.171 -0.637468 -2.93865 0
M  V30 3094 C 294.719 -0.599166 -3.07212 0
M  V30 3095 C 295.194 -1.1092 -4.44366 0
M  V30 3096 N 296.685 -1.06778 -4.50725 0
M  V30 3097 C 297.42 -1.43314 -5.55201 0
M  V30 3098 N 296.916 -1.87204 -6.67028 0
M  V30 3099 N 298.709 -1.3504 -5.45638 0
M  V30 3100 H 290.86 -1.42214 -1.57762 0
M  V30 3101 H 293.123 -0.586921 -0.744465 0
M  V30 3102 H 292.829 -1.68187 -3.08879 0
M  V30 3103 H 292.703 -0.0702139 -3.77135 0
M  V30 3104 H 295.09 0.436277 -2.91857 0
M  V30 3105 H 295.171 -1.20299 -2.25747 0
M  V30 3106 H 294.815 -2.14318 -4.60467 0
M  V30 3107 H 294.745 -0.481773 -5.24392 0
M  V30 3108 H 297.236 -0.745643 -3.70471 0
M  V30 3109 H 297.549 -2.13282 -7.42786 0
M  V30 3110 H 295.894 -1.91142 -6.68199 0
M  V30 3111 H 299.085 -1.00607 -4.57161 0
M  V30 3112 H 299.258 -1.63841 -6.26945 0
M  V30 3113 N 292.664 1.56529 -0.183458 0
M  V30 3114 C 293.889 2.02064 0.467428 0
M  V30 3115 C 294.314 1.06282 1.55196 0
M  V30 3116 O 293.672 0.0443565 1.81246 0
M  V30 3117 C 293.72 3.46122 1.01153 0
M  V30 3118 O 292.824 3.53437 2.12499 0
M  V30 3119 H 292.165 0.654726 0.110588 0
M  V30 3120 H 294.695 2.02521 -0.290917 0
M  V30 3121 H 294.705 3.85676 1.33108 0
M  V30 3122 H 293.38 4.15331 0.217533 0
M  V30 3123 H 291.957 3.2575 1.81497 0
M  V30 3124 N 294.142 -0.090211 1.57342 0
M  V30 3125 C 295.367 -0.810082 1.90925 0
M  V30 3126 C 295.792 -1.71248 0.778187 0
M  V30 3127 O 295.15 -1.79278 -0.269991 0
M  V30 3128 C 295.198 -1.59529 3.23393 0
M  V30 3129 O 294.302 -2.70461 3.11327 0
M  V30 3130 H 293.643 -0.222231 0.625707 0
M  V30 3131 H 296.173 -0.0639716 2.045 0
M  V30 3132 H 296.183 -1.97847 3.5682 0
M  V30 3133 H 294.858 -0.933055 4.05299 0
M  V30 3134 H 293.435 -2.35135 2.89423 0
M  V30 3135 N 295.62 -1.53406 -0.361157 0
M  V30 3136 C 296.866 -1.70054 -1.10496 0
M  V30 3137 C 297.199 -0.453278 -1.88836 0
M  V30 3138 O 296.474 0.5495 -1.86576 0
M  V30 3139 C 296.757 -2.95317 -2.06058 0
M  V30 3140 C 296.61 -4.3021 -1.31298 0
M  V30 3141 C 297.929 -3.16193 -3.06121 0
M  V30 3142 H 295.048 -0.618799 -0.400321 0
M  V30 3143 H 297.69 -1.86052 -0.385318 0
M  V30 3144 H 295.84 -2.81809 -2.67425 0
M  V30 3145 H 297.512 -4.55538 -0.726807 0
M  V30 3146 H 295.755 -4.29421 -0.614853 0
M  V30 3147 H 296.426 -5.14 -2.01265 0
M  V30 3148 H 298.902 -3.28916 -2.5486 0
M  V30 3149 H 297.778 -4.05266 -3.70204 0
M  V30 3150 H 298.039 -2.31676 -3.76535 0
M  V30 3151 N 297.098 0.621204 -1.44841 0
M  V30 3152 C 298.028 1.74366 -1.55303 0
M  V30 3153 C 299.009 1.65199 -0.405385 0
M  V30 3154 O 300.194 1.83807 -0.626787 0
M  V30 3155 C 297.324 3.12931 -1.50637 0
M  V30 3156 C 296.278 3.36896 -2.63979 0
M  V30 3157 C 295.604 4.75594 -2.44366 0
M  V30 3158 C 296.904 3.28483 -4.06074 0
M  V30 3159 H 298.598 1.65867 -2.49256 0
M  V30 3160 H 296.144 0.796558 -1.19962 0
M  V30 3161 H 298.097 3.9124 -1.56555 0
M  V30 3162 H 296.821 3.22237 -0.532057 0
M  V30 3163 H 295.48 2.60972 -2.57467 0
M  V30 3164 H 295.128 4.81616 -1.45105 0
M  V30 3165 H 294.828 4.92586 -3.20364 0
M  V30 3166 H 296.352 5.5612 -2.52117 0
M  V30 3167 H 297.766 3.96684 -4.13902 0
M  V30 3168 H 296.163 3.57008 -4.82354 0
M  V30 3169 H 297.233 2.26133 -4.28943 0
M  V30 3170 N 298.576 1.31904 0.862503 0
M  V30 3171 C 299.804 1.24998 1.64873 0
M  V30 3172 C 300.219 -0.183425 1.87907 0
M  V30 3173 O 299.576 -1.11794 1.44251 0
M  V30 3174 C 299.627 1.99829 3.01248 0
M  V30 3175 O 299.348 3.37575 2.79239 0
M  V30 3176 C 300.849 1.99852 3.95694 0
M  V30 3177 H 298.069 0.431599 0.513773 0
M  V30 3178 H 300.613 1.73901 1.07604 0
M  V30 3179 H 298.768 1.54668 3.55185 0
M  V30 3180 H 299.182 3.75776 3.65914 0
M  V30 3181 H 300.656 2.56709 4.88676 0
M  V30 3182 H 301.133 0.982852 4.28062 0
M  V30 3183 H 301.739 2.44926 3.47694 0
M  V30 3184 N 300.054 -1.07777 1.14986 0
M  V30 3185 C 300.984 -2.16865 0.865557 0
M  V30 3186 C 301.965 -1.69123 -0.182083 0
M  V30 3187 O 303.15 -1.94164 -0.0373815 0
M  V30 3188 C 300.28 -3.45539 0.349313 0
M  V30 3189 C 299.234 -4.06708 1.33313 0
M  V30 3190 C 298.56 -5.30411 0.675918 0
M  V30 3191 C 299.86 -4.47241 2.69764 0
M  V30 3192 H 301.554 -2.40905 1.77778 0
M  V30 3193 H 299.1 -1.15781 0.856203 0
M  V30 3194 H 301.053 -4.21174 0.137983 0
M  V30 3195 H 299.777 -3.21072 -0.598362 0
M  V30 3196 H 298.436 -3.33112 1.53075 0
M  V30 3197 H 298.084 -5.02232 -0.277767 0
M  V30 3198 H 297.784 -5.72293 1.33244 0
M  V30 3199 H 299.308 -6.08755 0.474262 0
M  V30 3200 H 300.722 -5.14025 2.53873 0
M  V30 3201 H 299.119 -5.00062 3.3175 0
M  V30 3202 H 300.189 -3.58818 3.26156 0
M  V30 3203 N 301.532 -0.945985 -1.26051 0
M  V30 3204 C 302.781 -0.591836 -1.92822 0
M  V30 3205 C 303.094 0.873956 -1.7499 0
M  V30 3206 O 304.3 1.33769 -2.36259 0
M  V30 3207 C 302.756 -1.00776 -3.45503 0
M  V30 3208 C 302.364 -2.4955 -3.7206 0
M  V30 3209 C 304.108 -0.725735 -4.1825 0
M  V30 3210 C 302.015 -2.84988 -5.18205 0
M  V30 3211 H 300.945 -0.217635 -0.721908 0
M  V30 3212 H 303.596 -1.14927 -1.43052 0
M  V30 3213 H 301.978 -0.378812 -3.94184 0
M  V30 3214 H 303.152 -3.1739 -3.34066 0
M  V30 3215 H 301.467 -2.75133 -3.12555 0
M  V30 3216 H 304.064 -0.966771 -5.25887 0
M  V30 3217 H 304.407 0.337639 -4.14929 0
M  V30 3218 H 304.94 -1.31463 -3.7545 0
M  V30 3219 H 301.679 -3.90307 -5.26631 0
M  V30 3220 H 301.199 -2.21813 -5.57278 0
M  V30 3221 H 302.878 -2.73712 -5.86252 0
M  V30 3222 N 303.011 1.40521 -0.713556 0
M  V30 3223 C 304.422 1.83853 -0.324807 0
M  V30 3224 C 304.773 1.59667 1.14021 0
M  V30 3225 O 303.898 1.07649 1.87725 0
M  V30 3226 C 304.493 3.33751 -0.582746 0
M  V30 3227 C 303.052 3.75584 -0.247727 0
M  V30 3228 C 302.199 2.63753 -0.856121 0
M  V30 3229 H 305.15 1.29817 -0.91286 0
M  V30 3230 H 305.171 3.80194 0.152682 0
M  V30 3231 H 304.683 3.51322 -1.64908 0
M  V30 3232 H 302.784 3.63608 0.813624 0
M  V30 3233 H 302.897 4.7373 -0.715307 0
M  V30 3234 H 301.261 2.53108 -0.28432 0
M  V30 3235 H 302.044 2.84137 -1.92668 0
M  V30 3236 N 304.489 0.459591 1.5075 0
M  V30 3237 C 305.421 -0.37665 2.26084 0
M  V30 3238 C 306.434 -0.967109 1.30961 0
M  V30 3239 O 307.623 -0.857468 1.56556 0
M  V30 3240 C 304.723 -1.54112 3.01832 0
M  V30 3241 C 303.896 -1.06553 4.24223 0
M  V30 3242 C 302.955 -2.1027 4.82362 0
M  V30 3243 O 301.981 -1.68798 5.43595 0
M  V30 3244 N 303.183 -3.42974 4.68347 0
M  V30 3245 H 305.948 0.269124 2.98489 0
M  V30 3246 H 303.509 0.28972 1.59287 0
M  V30 3247 H 305.501 -2.23165 3.37608 0
M  V30 3248 H 304.071 -2.0918 2.32298 0
M  V30 3249 H 303.291 -0.201274 3.93686 0
M  V30 3250 H 304.579 -0.725516 5.03601 0
M  V30 3251 H 303.977 -3.79385 4.19623 0
M  V30 3252 H 302.534 -4.07858 5.08424 0
M  V30 3253 N 305.967 -1.56429 0.191757 0
M  V30 3254 C 307.378 -1.83912 -0.321428 0
M  V30 3255 C 307.729 -1.11231 -1.61623 0
M  V30 3256 O 306.854 -0.37202 -2.13178 0
M  V30 3257 C 307.449 -3.33624 -0.589961 0
M  V30 3258 C 306.008 -3.6153 -1.04753 0
M  V30 3259 C 305.155 -2.7714 -0.0943327 0
M  V30 3260 H 308.106 -1.53161 0.415612 0
M  V30 3261 H 308.127 -3.52213 -1.43966 0
M  V30 3262 H 307.639 -3.86495 0.352588 0
M  V30 3263 H 305.74 -3.14089 -2.00447 0
M  V30 3264 H 305.853 -4.69737 -0.942549 0
M  V30 3265 H 304.217 -2.47638 -0.595589 0
M  V30 3266 H 305 -3.32799 0.842601 0
M  V30 3267 N 307.445 0.0818655 -1.57387 0
M  V30 3268 C 308.377 1.12484 -1.997 0
M  V30 3269 C 309.39 1.35564 -0.90146 0
M  V30 3270 O 310.579 1.33982 -1.17945 0
M  V30 3271 C 307.679 2.47778 -2.31213 0
M  V30 3272 C 306.852 2.44793 -3.62485 0
M  V30 3273 C 305.911 3.62117 -3.81782 0
M  V30 3274 O 304.937 3.44005 -4.53486 0
M  V30 3275 N 306.139 4.82094 -3.23367 0
M  V30 3276 H 308.904 0.764585 -2.89783 0
M  V30 3277 H 306.465 0.270664 -1.59621 0
M  V30 3278 H 308.457 3.24891 -2.41304 0
M  V30 3279 H 307.027 2.75843 -1.4707 0
M  V30 3280 H 306.247 1.53134 -3.6324 0
M  V30 3281 H 307.535 2.39889 -4.48699 0
M  V30 3282 H 306.933 4.99713 -2.65148 0
M  V30 3283 H 305.49 5.56753 -3.38923 0
M  V30 3284 N 308.923 1.53595 0.353017 0
M  V30 3285 C 309.873 1.77299 1.43349 0
M  V30 3286 C 310.857 0.627884 1.48143 0
M  V30 3287 O 312.049 0.88697 1.53173 0
M  V30 3288 C 309.178 1.97757 2.80619 0
M  V30 3289 C 308.264 3.18305 2.80254 0
M  V30 3290 N 308.655 4.39967 2.49526 0
M  V30 3291 C 306.953 3.19283 3.11407 0
M  V30 3292 C 307.654 5.21772 2.57156 0
M  V30 3293 N 306.63 4.58269 2.92388 0
M  V30 3294 H 310.432 2.68963 1.18474 0
M  V30 3295 H 307.946 1.52391 0.561306 0
M  V30 3296 H 309.943 2.1287 3.58458 0
M  V30 3297 H 308.603 1.07329 3.06448 0
M  V30 3298 H 309.614 4.67482 2.22893 0
M  V30 3299 H 306.291 2.3879 3.4247 0
M  V30 3300 H 307.681 6.2885 2.36638 0
M  V30 3301 N 310.401 -0.613514 1.45168 0
M  V30 3302 C 311.351 -1.71871 1.49815 0
M  V30 3303 C 312.335 -1.56774 0.362021 0
M  V30 3304 O 313.527 -1.66212 0.608493 0
M  V30 3305 C 310.656 -3.1061 1.46207 0
M  V30 3306 C 309.742 -3.31114 2.64999 0
M  V30 3307 N 310.133 -3.21904 3.90143 0
M  V30 3308 C 308.431 -3.61966 2.6057 0
M  V30 3309 C 309.132 -3.43577 4.69393 0
M  V30 3310 N 308.108 -3.67287 4.00751 0
M  V30 3311 H 311.91 -1.63235 2.444 0
M  V30 3312 H 309.424 -0.816577 1.40377 0
M  V30 3313 H 311.421 -3.8989 1.4762 0
M  V30 3314 H 310.081 -3.20399 0.52673 0
M  V30 3315 H 311.092 -3.00436 4.21852 0
M  V30 3316 H 307.769 -3.78629 1.75916 0
M  V30 3317 H 309.159 -3.41901 5.78406 0
M  V30 3318 N 311.879 -1.3236 -0.855495 0
M  V30 3319 C 313.127 -1.22629 -1.60644 0
M  V30 3320 C 313.448 0.212136 -1.93843 0
M  V30 3321 O 312.718 1.13666 -1.59552 0
M  V30 3322 H 311.298 -0.450882 -0.595579 0
M  V30 3323 H 313.96 -1.65871 -1.02337 0
M  V30 3324 H 313.056 -1.80832 -2.54374 0
M  V30 3325 N 313.357 1.07166 -1.15556 0
M  V30 3326 C 314.585 1.83514 -0.955519 0
M  V30 3327 C 315 1.82163 0.49621 0
M  V30 3328 O 314.357 1.23441 1.34419 0
M  V30 3329 C 314.408 3.30515 -1.46432 0
M  V30 3330 O 314.129 3.31937 -2.85918 0
M  V30 3331 C 315.63 4.23625 -1.30603 0
M  V30 3332 H 312.85 0.578926 -0.339244 0
M  V30 3333 H 315.394 1.35265 -1.53374 0
M  V30 3334 H 313.549 3.76106 -0.928584 0
M  V30 3335 H 313.963 4.23794 -3.09029 0
M  V30 3336 H 315.437 5.24831 -1.71047 0
M  V30 3337 H 315.914 4.38485 -0.250441 0
M  V30 3338 H 316.52 3.83871 -1.83094 0
M  V30 3339 N 314.835 0.952656 1.25548 0
M  V30 3340 C 316.06 0.623025 1.97821 0
M  V30 3341 C 316.485 -0.7976 1.70352 0
M  V30 3342 O 315.843 -1.53905 0.958283 0
M  V30 3343 C 315.891 0.885532 3.49558 0
M  V30 3344 O 314.995 -0.0366641 4.12384 0
M  V30 3345 H 314.336 0.237082 0.620232 0
M  V30 3346 H 316.866 1.27871 1.59719 0
M  V30 3347 H 316.876 0.811009 3.99858 0
M  V30 3348 H 315.551 1.92094 3.6888 0
M  V30 3349 H 314.128 0.0898954 3.72792 0
M  V30 3350 N 316.313 -1.40141 0.720998 0
M  V30 3351 C 317.243 -2.33339 0.0867621 0
M  V30 3352 C 318.224 -1.53178 -0.739622 0
M  V30 3353 O 319.409 -1.81625 -0.687449 0
M  V30 3354 C 316.539 -3.37194 -0.831728 0
M  V30 3355 C 315.493 -4.27857 -0.110558 0
M  V30 3356 C 314.819 -5.22294 -1.14513 0
M  V30 3357 C 316.119 -5.11872 1.0385 0
M  V30 3358 H 317.813 -2.86626 0.865219 0
M  V30 3359 H 315.359 -1.37814 0.417516 0
M  V30 3360 H 317.312 -4.01335 -1.28485 0
M  V30 3361 H 316.036 -2.82314 -1.64214 0
M  V30 3362 H 314.695 -3.65176 0.322797 0
M  V30 3363 H 314.343 -4.63717 -1.94874 0
M  V30 3364 H 314.043 -5.83797 -0.667446 0
M  V30 3365 H 315.567 -5.89312 -1.59824 0
M  V30 3366 H 316.981 -5.69436 0.664482 0
M  V30 3367 H 315.378 -5.82445 1.4449 0
M  V30 3368 H 316.448 -4.4753 1.86668 0
M  V30 3369 N 317.792 -0.46758 -1.50504 0
M  V30 3370 C 319.02 0.0864133 -2.06719 0
M  V30 3371 C 319.435 1.33819 -1.33184 0
M  V30 3372 O 318.792 1.78061 -0.400083 0
M  V30 3373 C 318.843 0.378079 -3.59517 0
M  V30 3374 O 318.564 -0.824044 -4.3028 0
M  V30 3375 C 320.065 0.979426 -4.32345 0
M  V30 3376 H 317.285 -0.00551697 -0.670977 0
M  V30 3377 H 319.829 -0.655354 -1.93715 0
M  V30 3378 H 317.984 1.06977 -3.72337 0
M  V30 3379 H 318.398 -0.566518 -5.21432 0
M  V30 3380 H 319.872 1.1333 -5.40241 0
M  V30 3381 H 320.349 1.9686 -3.9261 0
M  V30 3382 H 320.955 0.326216 -4.24047 0
M  V30 3383 N 319.27 1.56325 -0.20005 0
M  V30 3384 C 320.51 1.99619 0.439519 0
M  V30 3385 C 320.874 1.08423 1.58456 0
M  V30 3386 O 322.075 1.40973 2.28867 0
M  V30 3387 C 320.346 3.46314 0.883258 0
M  V30 3388 S 321.905 4.11634 1.51997 0
M  V30 3389 H 318.723 0.697007 0.140363 0
M  V30 3390 H 321.325 1.93118 -0.304282 0
M  V30 3391 H 320.029 4.10381 0.0398967 0
M  V30 3392 H 319.56 3.56643 1.6604 0
M  V30 3393 H 321.575 4.09049 2.8088 0
M  V30 3394 N 320.748 -0.0735177 1.57428 0
M  V30 3395 C 321.68 -1.11423 2.00294 0
M  V30 3396 C 322.693 -1.35084 0.908637 0
M  V30 3397 O 323.882 -1.33355 1.18654 0
M  V30 3398 C 320.982 -2.46548 2.32523 0
M  V30 3399 C 320.155 -2.42867 3.63778 0
M  V30 3400 C 319.214 -3.60087 3.83697 0
M  V30 3401 O 318.24 -3.41595 4.55304 0
M  V30 3402 N 319.442 -4.80372 3.25919 0
M  V30 3403 H 322.207 -0.749206 2.90184 0
M  V30 3404 H 319.768 -0.262195 1.59763 0
M  V30 3405 H 321.76 -3.23607 2.43024 0
M  V30 3406 H 320.33 -2.75059 1.48531 0
M  V30 3407 H 319.55 -1.51206 3.64047 0
M  V30 3408 H 320.838 -2.37506 4.49965 0
M  V30 3409 H 320.236 -4.983 2.67795 0
M  V30 3410 H 318.793 -5.54948 3.41871 0
M  V30 3411 N 322.226 -1.5378 -0.344866 0
M  V30 3412 C 323.472 -1.71216 -1.08687 0
M  V30 3413 C 323.805 -0.473281 -1.88345 0
M  V30 3414 O 323.08 0.52968 -1.87149 0
M  V30 3415 C 323.363 -2.97486 -2.02914 0
M  V30 3416 C 323.216 -4.31579 -1.26727 0
M  V30 3417 C 324.535 -3.19422 -3.0275 0
M  V30 3418 H 321.654 -0.62301 -0.393735 0
M  V30 3419 H 324.296 -1.8645 -0.365563 0
M  V30 3420 H 322.446 -2.84629 -2.64421 0
M  V30 3421 H 324.118 -4.56284 -0.67845 0
M  V30 3422 H 322.361 -4.30049 -0.569273 0
M  V30 3423 H 323.032 -5.16106 -1.95803 0
M  V30 3424 H 325.508 -3.316 -2.51357 0
M  V30 3425 H 324.384 -4.09169 -3.65885 0
M  V30 3426 H 324.645 -2.35656 -3.74057 0
M  V30 3427 N 323.704 0.605807 -1.45491 0
M  V30 3428 C 324.932 1.39136 -1.5313 0
M  V30 3429 C 325.347 1.88082 -0.164507 0
M  V30 3430 O 324.704 1.62316 0.834247 0
M  V30 3431 C 324.755 2.59463 -2.51716 0
M  V30 3432 O 324.476 2.12551 -3.83084 0
M  V30 3433 C 325.977 3.52301 -2.6907 0
M  V30 3434 H 323.197 0.425849 -0.51855 0
M  V30 3435 H 325.741 0.73865 -1.90694 0
M  V30 3436 H 323.896 3.20772 -2.17219 0
M  V30 3437 H 324.31 2.90744 -4.36541 0
M  V30 3438 H 325.784 4.33271 -3.42024 0
M  V30 3439 H 326.261 4.02757 -1.75167 0
M  V30 3440 H 326.867 2.96845 -3.04571 0
M  V30 3441 N 325.182 1.32811 0.848464 0
M  V30 3442 C 326.112 1.24882 1.97299 0
M  V30 3443 C 327.093 0.131357 1.69592 0
M  V30 3444 O 328.278 0.319553 1.91553 0
M  V30 3445 C 325.408 0.97746 3.33261 0
M  V30 3446 C 324.362 2.05682 3.75338 0
M  V30 3447 C 323.688 1.63777 5.09 0
M  V30 3448 C 324.988 3.47254 3.90144 0
M  V30 3449 H 326.682 2.18966 2.04191 0
M  V30 3450 H 324.228 1.05413 0.981029 0
M  V30 3451 H 326.181 0.908513 4.1149 0
M  V30 3452 H 324.905 0.000980011 3.266 0
M  V30 3453 H 323.564 2.11603 2.99366 0
M  V30 3454 H 323.212 0.648569 4.98801 0
M  V30 3455 H 322.912 2.36 5.38124 0
M  V30 3456 H 324.436 1.5833 5.89715 0
M  V30 3457 H 325.85 3.43888 4.58709 0
M  V30 3458 H 324.247 4.1788 4.30693 0
M  V30 3459 H 325.317 3.86462 2.92874 0
M  V30 3460 N 326.66 -1.06551 1.16123 0
M  V30 3461 C 328.071 -1.60768 0.949232 0
M  V30 3462 C 328.422 -1.89523 -0.507508 0
M  V30 3463 O 327.547 -1.66671 -1.38021 0
M  V30 3464 C 328.142 -2.92086 1.71671 0
M  V30 3465 C 326.701 -3.43015 1.54977 0
M  V30 3466 C 325.848 -2.16947 1.72711 0
M  V30 3467 H 328.799 -0.895354 1.31031 0
M  V30 3468 H 328.82 -3.6138 1.19099 0
M  V30 3469 H 328.332 -2.71127 2.7769 0
M  V30 3470 H 326.433 -3.69039 0.513873 0
M  V30 3471 H 326.546 -4.18516 2.33198 0
M  V30 3472 H 324.91 -2.27041 1.15431 0
M  V30 3473 H 325.693 -1.98473 2.80113 0
M  V30 3474 N 328.138 -0.959301 -1.25041 0
M  V30 3475 C 329.386 -0.615393 -1.92503 0
M  V30 3476 C 329.707 0.850969 -1.75452 0
M  V30 3477 O 328.977 1.60658 -1.12098 0
M  V30 3478 H 327.557 -0.224613 -0.712431 0
M  V30 3479 H 330.219 -1.21855 -1.5211 0
M  V30 3480 H 329.315 -0.848738 -3.00338 0
M  V30 3481 N 329.616 1.39756 -0.72842 0
M  V30 3482 C 330.579 2.29012 -0.0927297 0
M  V30 3483 C 331.579 1.45992 0.674025 0
M  V30 3484 O 332.769 1.66749 0.50402 0
M  V30 3485 C 329.901 3.29396 0.878137 0
M  V30 3486 H 331.094 2.86729 -0.879011 0
M  V30 3487 H 328.647 1.48293 -0.493847 0
M  V30 3488 H 329.382 2.76722 1.69101 0
M  V30 3489 H 329.167 3.907 0.331051 0
M  V30 3490 H 330.657 3.96199 1.3197 0
M  V30 3491 N 331.094 0.475555 1.50254 0
M  V30 3492 C 332.342 -0.077738 2.0195 0
M  V30 3493 C 332.663 -1.39813 1.35931 0
M  V30 3494 O 331.933 -1.89249 0.506123 0
M  V30 3495 H 330.513 -0.031719 0.746326 0
M  V30 3496 H 333.175 0.626995 1.84539 0
M  V30 3497 H 332.271 -0.225995 3.11281 0
M  V30 3498 N 332.573 -1.56217 0.208337 0
M  V30 3499 C 333.819 -1.98242 -0.427552 0
M  V30 3500 C 334.152 -1.09554 -1.60348 0
M  V30 3501 O 333.427 -0.15035 -1.93918 0
M  V30 3502 C 333.71 -3.4931 -0.874907 0
M  V30 3503 C 333.563 -4.48773 0.303751 0
M  V30 3504 C 334.882 -4.04424 -1.73577 0
M  V30 3505 H 332.001 -0.720744 -0.153936 0
M  V30 3506 H 334.643 -1.87586 0.30192 0
M  V30 3507 H 332.793 -3.58522 -1.49648 0
M  V30 3508 H 334.465 -4.51586 0.941682 0
M  V30 3509 H 332.708 -4.23194 0.953375 0
M  V30 3510 H 333.379 -5.51976 -0.0519883 0
M  V30 3511 H 335.855 -3.98075 -1.21143 0
M  V30 3512 H 334.731 -5.1047 -2.01771 0
M  V30 3513 H 334.992 -3.50494 -2.69456 0
M  V30 3514 N 334.051 0.0651679 -1.57465 0
M  V30 3515 C 335.279 0.775808 -1.91804 0
M  V30 3516 C 335.694 1.70782 -0.804916 0
M  V30 3517 O 335.051 1.81153 0.221311 0
M  V30 3518 C 335.102 1.56381 -3.25925 0
M  V30 3519 O 334.823 0.669248 -4.32958 0
M  V30 3520 C 336.324 2.37485 -3.7432 0
M  V30 3521 H 333.544 0.2202 -0.63384 0
M  V30 3522 H 336.088 0.0334587 -2.04473 0
M  V30 3523 H 334.243 2.25837 -3.14764 0
M  V30 3524 H 334.657 1.21801 -5.10162 0
M  V30 3525 H 336.131 2.88223 -4.70778 0
M  V30 3526 H 336.608 3.17307 -3.03666 0
M  V30 3527 H 337.214 1.73173 -3.88447 0
M  V30 3528 N 335.529 1.53961 0.336706 0
M  V30 3529 C 336.757 1.75483 1.09605 0
M  V30 3530 C 337.172 0.4972 1.82136 0
M  V30 3531 O 336.529 -0.53149 1.74589 0
M  V30 3532 C 336.58 2.93943 2.10428 0
M  V30 3533 O 336.301 4.14842 1.40846 0
M  V30 3534 C 337.802 3.27571 2.98684 0
M  V30 3535 H 335.022 0.586166 0.326574 0
M  V30 3536 H 337.566 2.00808 0.38683 0
M  V30 3537 H 335.721 2.70929 2.76905 0
M  V30 3538 H 336.135 4.81383 2.08255 0
M  V30 3539 H 337.609 4.13791 3.6535 0
M  V30 3540 H 338.086 2.44168 3.65074 0
M  V30 3541 H 338.692 3.52615 2.37787 0
M  V30 3542 N 337.007 -0.598083 1.45811 0
M  V30 3543 C 337.955 -1.72932 1.55555 0
M  V30 3544 C 338.949 -1.63984 0.424921 0
M  V30 3545 O 340.155 -1.69663 0.601205 0
M  V30 3546 H 336.53 -0.571489 0.488779 0
M  V30 3547 H 338.501 -1.61842 2.50699 0
M  V30 3548 C 337.25 -3.11318 1.54843 0
M  V30 3549 H 336.573 -3.18867 2.41172 0
M  V30 3550 H 338.013 -3.90274 1.65717 0
M  V30 3551 C 336.472 -3.3578 0.274427 0
M  V30 3552 O 337.002 -3.9654 -0.641778 0
M  V30 3553 N 335.208 -2.90119 0.167139 0
M  V30 3554 H 334.755 -2.40855 0.913596 0
M  V30 3555 H 334.713 -3.0686 -0.684435 0
M  V30 3556 N 338.485 -1.33259 -0.841409 0
M  V30 3557 C 339.901 -1.12538 -1.13169 0
M  V30 3558 C 340.101 0.0854037 -2.01319 0
M  V30 3559 O 339.157 0.766417 -2.40587 0
M  V30 3560 C 340.47 -2.41156 -1.79623 0
M  V30 3561 C 342.018 -2.47038 -1.922 0
M  V30 3562 C 342.493 -3.7561 -2.6207 0
M  V30 3563 N 343.984 -3.76667 -2.69585 0
M  V30 3564 C 344.719 -4.72861 -3.2433 0
M  V30 3565 N 344.215 -5.79428 -3.79783 0
M  V30 3566 N 346.008 -4.6034 -3.22558 0
M  V30 3567 H 338.159 -2.10868 -0.254676 0
M  V30 3568 H 340.422 -0.931615 -0.175493 0
M  V30 3569 H 340.128 -3.29747 -1.22311 0
M  V30 3570 H 340.002 -2.53114 -2.79666 0
M  V30 3571 H 342.389 -1.58898 -2.48667 0
M  V30 3572 H 342.47 -2.39022 -0.911148 0
M  V30 3573 H 342.114 -4.64131 -2.06263 0
M  V30 3574 H 342.044 -3.80902 -3.63622 0
M  V30 3575 H 344.535 -2.99648 -2.30259 0
M  V30 3576 H 344.848 -6.48867 -4.19752 0
M  V30 3577 H 343.193 -5.83166 -3.78078 0
M  V30 3578 H 346.384 -3.76244 -2.78492 0
M  V30 3579 H 346.557 -5.35478 -3.64921 0
M  V30 3580 N 339.963 1.05934 -1.16686 0
M  V30 3581 C 341.191 1.8249 -0.974929 0
M  V30 3582 C 341.606 1.82679 0.476861 0
M  V30 3583 O 340.963 1.2486 1.33103 0
M  V30 3584 C 341.014 3.28943 -1.49929 0
M  V30 3585 O 340.735 3.28886 -2.89423 0
M  V30 3586 C 342.236 4.22215 -1.35089 0
M  V30 3587 H 339.456 0.575295 -0.345365 0
M  V30 3588 H 342 1.33631 -1.548 0
M  V30 3589 H 340.155 3.751 -0.968423 0
M  V30 3590 H 340.569 4.20493 -3.13506 0
M  V30 3591 H 342.043 5.22987 -1.76603 0
M  V30 3592 H 342.52 4.38195 -0.296935 0
M  V30 3593 H 343.126 3.81907 -1.87155 0
M  V30 3594 N 341.441 0.965919 1.2453 0
M  V30 3595 C 342.69 0.622437 1.91856 0
M  V30 3596 C 343.003 -0.846006 1.76358 0
M  V30 3597 O 344.209 -1.29993 2.38357 0
M  V30 3598 C 342.665 1.0626 3.43856 0
M  V30 3599 C 342.273 2.55437 3.68043 0
M  V30 3600 C 344.017 0.792183 4.17043 0
M  V30 3601 C 341.924 2.93196 5.13605 0
M  V30 3602 H 340.854 0.229092 0.718354 0
M  V30 3603 H 343.505 1.17189 1.41206 0
M  V30 3604 H 341.887 0.441476 3.93531 0
M  V30 3605 H 343.061 3.22665 3.28974 0
M  V30 3606 H 341.376 2.8007 3.08139 0
M  V30 3607 H 343.973 1.05031 5.24283 0
M  V30 3608 H 344.316 -0.271584 4.15413 0
M  V30 3609 H 344.849 1.37419 3.73311 0
M  V30 3610 H 341.588 3.98636 5.20355 0
M  V30 3611 H 341.108 2.30651 5.53679 0
M  V30 3612 H 342.787 2.83004 5.81823 0
M  V30 3613 N 342.919 -1.39368 0.735821 0
M  V30 3614 C 343.851 -2.2913 0.0567723 0
M  V30 3615 C 344.864 -1.46859 -0.702589 0
M  V30 3616 O 346.053 -1.69925 -0.546616 0
M  V30 3617 C 343.153 -3.25492 -0.943823 0
M  V30 3618 C 342.326 -4.36709 -0.24581 0
M  V30 3619 C 341.385 -5.13376 -1.15463 0
M  V30 3620 O 340.411 -5.65683 -0.631803 0
M  V30 3621 N 341.613 -5.24656 -2.48427 0
M  V30 3622 H 344.378 -2.88047 0.827582 0
M  V30 3623 H 341.939 -1.50957 0.585112 0
M  V30 3624 H 343.931 -3.73657 -1.55443 0
M  V30 3625 H 342.501 -2.676 -1.61583 0
M  V30 3626 H 341.721 -3.9041 0.545286 0
M  V30 3627 H 343.009 -5.08244 0.237891 0
M  V30 3628 H 342.407 -4.83679 -2.93379 0
M  V30 3629 H 340.964 -5.76258 -3.04582 0
M  V30 3630 N 344.397 -0.483516 -1.5 0
M  V30 3631 C 345.327 0.293829 -2.31644 0
M  V30 3632 C 346.308 0.978864 -1.39112 0
M  V30 3633 O 347.493 0.973644 -1.68029 0
M  V30 3634 C 344.623 1.36897 -3.19181 0
M  V30 3635 C 343.577 0.804833 -4.20365 0
M  V30 3636 C 342.903 1.9792 -4.96721 0
M  V30 3637 C 344.203 -0.192313 -5.21946 0
M  V30 3638 H 345.897 -0.387616 -2.9688 0
M  V30 3639 H 343.443 -0.187856 -1.42769 0
M  V30 3640 H 345.396 1.92037 -3.751 0
M  V30 3641 H 344.12 2.07936 -2.51853 0
M  V30 3642 H 342.779 0.275319 -3.65565 0
M  V30 3643 H 342.427 2.67686 -4.25856 0
M  V30 3644 H 342.127 1.60789 -5.65173 0
M  V30 3645 H 343.651 2.53526 -5.55479 0
M  V30 3646 H 345.065 0.270333 -5.72662 0
M  V30 3647 H 343.462 -0.478543 -5.98189 0
M  V30 3648 H 344.532 -1.11409 -4.71928 0
M  V30 3649 N 345.875 1.56104 -0.216619 0
M  V30 3650 C 346.823 2.21434 0.712036 0
M  V30 3651 C 347.817 1.19218 1.20348 0
M  V30 3652 O 349.023 1.3731 1.16387 0
M  V30 3653 H 345.398 0.70992 0.248026 0
M  V30 3654 H 347.369 2.98083 0.137558 0
M  V30 3655 C 346.118 2.90434 1.91163 0
M  V30 3656 H 345.441 3.68842 1.54258 0
M  V30 3657 H 346.881 3.39552 2.5393 0
M  V30 3658 C 345.34 1.92635 2.76394 0
M  V30 3659 O 345.87 1.44017 3.74996 0
M  V30 3660 N 344.076 1.60392 2.42328 0
M  V30 3661 H 343.623 2.00122 1.622 0
M  V30 3662 H 343.581 0.952159 2.99635 0
M  V30 3663 N 347.353 -0.0568162 1.57498 0
M  V30 3664 C 348.599 -0.75422 1.88253 0
M  V30 3665 C 348.932 -1.76461 0.810865 0
M  V30 3666 O 348.207 -1.93691 -0.177259 0
M  V30 3667 C 348.49 -1.44878 3.2967 0
M  V30 3668 C 348.343 -0.453789 4.47505 0
M  V30 3669 C 349.662 -2.38994 3.69554 0
M  V30 3670 H 346.781 -0.272724 0.684683 0
M  V30 3671 H 349.423 -0.0172113 1.89992 0
M  V30 3672 H 347.573 -2.077 3.28318 0
M  V30 3673 H 349.245 0.170371 4.60985 0
M  V30 3674 H 347.488 0.229552 4.33192 0
M  V30 3675 H 348.159 -0.977699 5.43273 0
M  V30 3676 H 350.635 -1.86239 3.72095 0
M  V30 3677 H 349.511 -2.84587 4.69363 0
M  V30 3678 H 349.772 -3.24461 3.00296 0
M  V30 3679 N 348.832 -1.54138 -0.328536 0
M  V30 3680 C 350.057 -1.76378 -1.09112 0
M  V30 3681 C 350.482 -0.508596 -1.81094 0
M  V30 3682 O 349.84 0.539598 -1.73084 0
M  V30 3683 C 349.888 -2.95358 -2.06872 0
M  V30 3684 O 348.992 -2.66556 -3.14677 0
M  V30 3685 H 348.333 -0.584614 -0.314838 0
M  V30 3686 H 350.863 -2.01146 -0.374348 0
M  V30 3687 H 350.873 -3.22566 -2.4983 0
M  V30 3688 H 349.548 -3.86385 -1.5388 0
M  V30 3689 H 348.125 -2.50282 -2.7643 0
M  V30 3690 N 350.31 0.590341 -1.46126 0
M  V30 3691 C 351.54 1.37304 -1.54373 0
M  V30 3692 C 351.948 1.88332 -0.181071 0
M  V30 3693 O 351.291 1.63852 0.830559 0
M  V30 3694 C 351.353 2.6012 -2.48149 0
M  V30 3695 C 351.017 2.30613 -3.94546 0
M  V30 3696 C 352.014 1.89915 -4.83971 0
M  V30 3697 C 349.699 2.42993 -4.39613 0
M  V30 3698 C 351.693 1.61981 -6.16475 0
M  V30 3699 C 349.38 2.14672 -5.72153 0
M  V30 3700 C 350.378 1.7423 -6.60404 0
M  V30 3701 O 350.066 1.46251 -7.90485 0
M  V30 3702 H 349.798 0.426086 -0.524811 0
M  V30 3703 H 352.352 0.72539 -1.92165 0
M  V30 3704 H 350.582 3.27664 -2.05361 0
M  V30 3705 H 352.271 3.22182 -2.46887 0
M  V30 3706 H 353.037 1.79872 -4.50412 0
M  V30 3707 H 348.916 2.73435 -3.71153 0
M  V30 3708 H 352.46 1.30341 -6.85315 0
M  V30 3709 H 348.357 2.24337 -6.05263 0
M  V30 3710 H 349.125 1.6016 -8.02677 0
M  V30 3711 N 351.788 1.33704 0.83433 0
M  V30 3712 C 353.199 1.22813 1.4062 0
M  V30 3713 C 353.55 -0.151107 1.95617 0
M  V30 3714 O 352.675 -1.05092 1.89168 0
M  V30 3715 C 353.27 2.22355 2.55624 0
M  V30 3716 C 351.829 2.1529 3.08751 0
M  V30 3717 C 350.976 2.09589 1.8157 0
M  V30 3718 H 353.927 1.45236 0.639702 0
M  V30 3719 H 353.948 1.83391 3.33389 0
M  V30 3720 H 353.46 3.22728 2.15566 0
M  V30 3721 H 351.561 1.18235 3.53343 0
M  V30 3722 H 351.674 3.06038 3.68616 0
M  V30 3723 H 350.038 1.55134 2.02004 0
M  V30 3724 H 350.821 3.11777 1.43701 0
M  V30 3725 N 353.266 -1.05314 1.17247 0
M  V30 3726 C 354.677 -1.59753 0.96623 0
M  V30 3727 C 355.028 -1.9005 -0.487378 0
M  V30 3728 O 354.153 -1.68126 -1.36245 0
M  V30 3729 C 354.748 -2.90249 1.74759 0
M  V30 3730 C 353.307 -3.41352 1.58606 0
M  V30 3731 C 352.454 -2.15103 1.75002 0
M  V30 3732 H 355.405 -0.881406 1.31973 0
M  V30 3733 H 355.426 -3.60097 1.22925 0
M  V30 3734 H 354.938 -2.68166 2.8055 0
M  V30 3735 H 353.039 -3.68474 0.552985 0
M  V30 3736 H 353.152 -4.16019 2.37624 0
M  V30 3737 H 351.516 -2.25804 1.17833 0
M  V30 3738 H 352.299 -1.95491 2.82202 0
M  V30 3739 N 354.744 -0.972509 -1.24016 0
M  V30 3740 C 355.676 -0.464375 -2.24446 0
M  V30 3741 C 356.689 0.4295 -1.57032 0
M  V30 3742 O 357.878 0.234902 -1.76948 0
M  V30 3743 C 354.978 0.348385 -3.37105 0
M  V30 3744 C 354.151 -0.53673 -4.34094 0
M  V30 3745 C 353.21 0.220838 -5.25736 0
M  V30 3746 O 352.236 -0.386867 -5.67884 0
M  V30 3747 N 353.438 1.50907 -5.60542 0
M  V30 3748 H 356.203 -1.32788 -2.68677 0
M  V30 3749 H 353.764 -0.844877 -1.38107 0
M  V30 3750 H 355.756 0.863341 -3.95384 0
M  V30 3751 H 354.326 1.11285 -2.92121 0
M  V30 3752 H 353.546 -1.23261 -3.74433 0
M  V30 3753 H 354.834 -1.14022 -4.95859 0
M  V30 3754 H 354.232 2.02444 -5.28236 0
M  V30 3755 H 352.789 1.96962 -6.21329 0
M  V30 3756 N 356.222 1.38976 -0.743202 0
M  V30 3757 C 357.17 2.32394 -0.0978389 0
M  V30 3758 C 358.164 1.53486 0.716824 0
M  V30 3759 O 359.37 1.69092 0.617088 0
M  V30 3760 H 355.745 0.75189 -0.0128402 0
M  V30 3761 H 357.716 2.84441 -0.901981 0
M  V30 3762 C 356.465 3.38629 0.789036 0
M  V30 3763 H 355.788 3.99432 0.171559 0
M  V30 3764 H 357.228 4.06426 1.20807 0
M  V30 3765 C 355.687 2.76347 1.92702 0
M  V30 3766 O 356.217 2.64836 3.02034 0
M  V30 3767 N 354.423 2.34311 1.71891 0
M  V30 3768 H 353.97 2.43873 0.829675 0
M  V30 3769 H 353.928 1.9298 2.48205 0
M  V30 3770 N 357.7 0.491464 1.49741 0
M  V30 3771 C 358.63 -0.28154 2.31796 0
M  V30 3772 C 359.611 -0.971473 1.3963 0
M  V30 3773 O 360.796 -0.964719 1.68543 0
M  V30 3774 C 357.926 -1.35203 3.19902 0
M  V30 3775 C 356.88 -0.782529 4.20786 0
M  V30 3776 C 356.206 -1.95283 4.97764 0
M  V30 3777 C 357.506 0.21999 5.21837 0
M  V30 3778 H 359.2 0.403355 2.96671 0
M  V30 3779 H 356.746 0.195425 1.42668 0
M  V30 3780 H 358.699 -1.90045 3.76113 0
M  V30 3781 H 357.423 -2.06598 2.52953 0
M  V30 3782 H 356.082 -0.255928 3.65706 0
M  V30 3783 H 355.73 -2.65423 4.2727 0
M  V30 3784 H 355.43 -1.57789 5.66018 0
M  V30 3785 H 356.954 -2.50577 5.56816 0
M  V30 3786 H 358.368 -0.23996 5.72798 0
M  V30 3787 H 356.765 0.51026 5.97927 0
M  V30 3788 H 357.835 1.13911 4.7133 0
M  V30 3789 N 359.178 -1.55987 0.224894 0
M  V30 3790 C 360.406 -2.02784 -0.410665 0
M  V30 3791 C 360.821 -1.10464 -1.53112 0
M  V30 3792 O 360.178 -0.114871 -1.82138 0
M  V30 3793 C 360.229 -3.49087 -0.939165 0
M  V30 3794 O 359.95 -4.37887 0.136614 0
M  V30 3795 C 361.451 -4.11543 -1.64763 0
M  V30 3796 H 358.671 -0.663484 -0.100148 0
M  V30 3797 H 361.215 -2.01614 0.342326 0
M  V30 3798 H 359.37 -3.50861 -1.64242 0
M  V30 3799 H 359.784 -5.23849 -0.261155 0
M  V30 3800 H 361.258 -5.15673 -1.96939 0
M  V30 3801 H 361.735 -3.56736 -2.56195 0
M  V30 3802 H 362.341 -4.13629 -0.989503 0
M  V30 3803 N 360.656 0.0484629 -1.57525 0
M  V30 3804 C 361.902 0.744226 -1.88651 0
M  V30 3805 C 362.235 1.76029 -0.820212 0
M  V30 3806 O 361.51 1.93782 0.166985 0
M  V30 3807 C 361.793 1.43128 -3.30434 0
M  V30 3808 C 361.646 0.43005 -4.47739 0
M  V30 3809 C 362.965 2.37031 -3.70816 0
M  V30 3810 H 360.084 0.269089 -0.68612 0
M  V30 3811 H 362.726 0.00713532 -1.89999 0
M  V30 3812 H 360.876 2.05956 -3.29415 0
M  V30 3813 H 362.548 -0.194816 -4.60888 0
M  V30 3814 H 360.791 -0.252522 -4.33064 0
M  V30 3815 H 361.462 0.948874 -5.43783 0
M  V30 3816 H 363.938 1.84263 -3.73077 0
M  V30 3817 H 362.814 2.82094 -4.70865 0
M  V30 3818 H 363.075 3.22864 -3.02012 0
M  V30 3819 N 362.134 1.5431 0.320358 0
M  V30 3820 C 363.362 1.76636 1.07738 0
M  V30 3821 C 363.777 0.51649 1.81598 0
M  V30 3822 O 363.134 -0.512942 1.75143 0
M  V30 3823 C 363.185 2.96158 2.07299 0
M  V30 3824 O 362.906 4.16313 1.36438 0
M  V30 3825 C 364.407 3.3072 2.95193 0
M  V30 3826 H 361.627 0.589597 0.320339 0
M  V30 3827 H 364.171 2.01207 0.36551 0
M  V30 3828 H 362.326 2.73851 2.74016 0
M  V30 3829 H 362.74 4.83565 2.03138 0
M  V30 3830 H 364.214 4.17643 3.60941 0
M  V30 3831 H 364.691 2.48026 3.62463 0
M  V30 3832 H 365.297 3.55117 2.34034 0
M  V30 3833 N 363.613 -0.582584 1.46437 0
M  V30 3834 C 364.859 -1.34278 1.51978 0
M  V30 3835 C 365.192 -1.93446 0.170973 0
M  V30 3836 O 364.467 -1.76481 -0.817608 0
M  V30 3837 C 364.75 -2.47203 2.61845 0
M  V30 3838 C 364.603 -1.93069 4.06257 0
M  V30 3839 C 365.922 -3.49247 2.67795 0
M  V30 3840 H 363.041 -0.486876 0.553282 0
M  V30 3841 H 365.683 -0.654437 1.78374 0
M  V30 3842 H 363.833 -3.0592 2.39469 0
M  V30 3843 H 365.505 -1.38808 4.3992 0
M  V30 3844 H 363.748 -1.23898 4.1573 0
M  V30 3845 H 364.419 -2.74586 4.7886 0
M  V30 3846 H 366.895 -3.00411 2.8791 0
M  V30 3847 H 365.771 -4.25719 3.46489 0
M  V30 3848 H 366.032 -4.06482 1.73852 0
M  V30 3849 N 365.091 -1.34144 -0.827227 0
M  V30 3850 C 366.338 -1.26258 -1.58319 0
M  V30 3851 C 366.666 0.168595 -1.93768 0
M  V30 3852 O 365.921 1.12877 -1.59866 0
M  V30 3853 C 366.22 -2.09464 -2.89585 0
M  V30 3854 C 365.886 -3.58521 -2.73448 0
M  V30 3855 C 364.548 -3.99155 -2.68754 0
M  V30 3856 C 366.9 -4.53189 -2.57428 0
M  V30 3857 C 364.228 -5.32656 -2.45957 0
M  V30 3858 C 366.58 -5.86864 -2.36163 0
M  V30 3859 C 365.244 -6.26667 -2.29879 0
M  V30 3860 H 364.514 -0.462013 -0.579332 0
M  V30 3861 H 367.161 -1.65845 -0.95748 0
M  V30 3862 H 365.466 -1.62692 -3.56425 0
M  V30 3863 H 367.163 -2.00712 -3.47154 0
M  V30 3864 H 363.753 -3.26264 -2.77939 0
M  V30 3865 H 367.937 -4.22696 -2.60081 0
M  V30 3866 H 363.193 -5.62519 -2.39546 0
M  V30 3867 H 367.367 -6.59813 -2.22754 0
M  V30 3868 H 364.994 -7.30049 -2.11975 0
M  V30 3869 N 366.569 1.04691 -1.17803 0
M  V30 3870 C 367.501 2.12571 -0.857097 0
M  V30 3871 C 368.514 1.62174 0.142647 0
M  V30 3872 O 369.703 1.78301 -0.0843387 0
M  V30 3873 C 366.803 3.37915 -0.258216 0
M  V30 3874 C 365.976 4.1757 -1.30207 0
M  V30 3875 C 365.035 5.2125 -0.720029 0
M  V30 3876 O 364.061 5.51888 -1.39314 0
M  V30 3877 N 365.263 5.78466 0.485507 0
M  V30 3878 H 368.028 2.40698 -1.78562 0
M  V30 3879 H 365.589 1.20831 -1.07757 0
M  V30 3880 H 367.581 4.04442 0.144584 0
M  V30 3881 H 366.151 3.07281 0.574199 0
M  V30 3882 H 365.371 3.46458 -1.88043 0
M  V30 3883 H 366.659 4.67586 -2.00601 0
M  V30 3884 H 366.057 5.55866 1.05022 0
M  V30 3885 H 364.614 6.4649 0.830307 0
M  V30 3886 N 368.047 0.979072 1.23499 0
M  V30 3887 C 369.295 0.645941 1.91499 0
M  V30 3888 C 369.616 -0.822948 1.76784 0
M  V30 3889 O 368.886 -1.58854 1.14639 0
M  V30 3890 H 367.466 0.235919 0.708767 0
M  V30 3891 H 370.128 1.2426 1.50152 0
M  V30 3892 H 369.224 0.896411 2.9895 0
M  V30 3893 N 369.525 -1.3858 0.750561 0
M  V30 3894 C 370.435 -2.34278 0.122825 0
M  V30 3895 C 371.451 -1.59116 -0.704131 0
M  V30 3896 O 372.627 -1.91326 -0.628987 0
M  V30 3897 C 369.692 -3.38221 -0.762086 0
M  V30 3898 C 368.753 -4.29227 0.078896 0
M  V30 3899 C 367.986 -5.28205 -0.763874 0
M  V30 3900 O 368.209 -5.34112 -2.00201 0
M  V30 3901 O 367.143 -6.01618 -0.18428 0
M  V30 3902 H 370.969 -2.89649 0.913088 0
M  V30 3903 H 368.554 -1.40374 0.511417 0
M  V30 3904 H 370.436 -4.01872 -1.26793 0
M  V30 3905 H 369.111 -2.85211 -1.5309 0
M  V30 3906 H 368.018 -3.68747 0.630621 0
M  V30 3907 H 369.351 -4.85484 0.810289 0
M  V30 3908 N 371.003 -0.499398 -1.49478 0
M  V30 3909 C 372.251 0.0455996 -2.02049 0
M  V30 3910 C 372.572 1.37633 -1.38138 0
M  V30 3911 O 371.842 1.8842 -0.536166 0
M  V30 3912 H 370.422 0.0198416 -0.746736 0
M  V30 3913 H 373.084 -0.656274 -1.83519 0
M  V30 3914 H 372.18 0.176445 -3.11601 0
M  V30 3915 N 372.481 1.55866 -0.233164 0
M  V30 3916 C 373.709 2.02998 0.399905 0
M  V30 3917 C 374.124 1.11274 1.52524 0
M  V30 3918 O 373.481 0.124528 1.82075 0
M  V30 3919 C 373.532 3.4958 0.920639 0
M  V30 3920 O 373.253 4.37808 -0.159834 0
M  V30 3921 C 374.754 4.12411 1.62578 0
M  V30 3922 H 371.974 0.664006 0.0966281 0
M  V30 3923 H 374.518 2.0143 -0.353013 0
M  V30 3924 H 372.673 3.51727 1.62379 0
M  V30 3925 H 373.087 5.23981 0.23337 0
M  V30 3926 H 374.561 5.16711 1.94201 0
M  V30 3927 H 375.038 3.5809 2.54299 0
M  V30 3928 H 375.644 4.14148 0.967553 0
M  V30 3929 N 373.959 -0.0401083 1.57549 0
M  V30 3930 C 374.922 -1.02871 2.04817 0
M  V30 3931 C 375.922 -1.29708 0.950388 0
M  V30 3932 O 377.112 -1.24897 1.21435 0
M  V30 3933 C 374.244 -2.36443 2.45576 0
M  V30 3934 H 375.437 -0.620631 2.93408 0
M  V30 3935 H 372.99 -0.286667 1.53649 0
M  V30 3936 H 373.725 -2.82021 1.60108 0
M  V30 3937 H 373.51 -2.18296 3.25713 0
M  V30 3938 H 375 -3.07441 2.82612 0
M  V30 3939 N 375.437 -1.54477 -0.31217 0
M  V30 3940 C 376.662 -1.77526 -1.07235 0
M  V30 3941 C 377.087 -0.527775 -1.80544 0
M  V30 3942 O 376.445 0.52121 -1.73646 0
M  V30 3943 C 376.493 -2.97535 -2.03728 0
M  V30 3944 O 375.597 -2.69878 -3.11833 0
M  V30 3945 H 374.938 -0.58792 -0.30862 0
M  V30 3946 H 377.468 -2.01532 -0.352993 0
M  V30 3947 H 377.478 -3.25198 -2.46395 0
M  V30 3948 H 376.153 -3.87996 -1.49774 0
M  V30 3949 H 374.73 -2.53199 -2.7376 0
M  V30 3950 N 376.915 0.57481 -1.46744 0
M  V30 3951 C 378.143 1.35856 -1.56047 0
M  V30 3952 C 378.558 1.87691 -0.204365 0
M  V30 3953 O 377.915 1.64049 0.79963 0
M  V30 3954 C 377.966 2.54066 -2.57163 0
M  V30 3955 O 377.687 2.04377 -3.87507 0
M  V30 3956 C 379.188 3.46514 -2.76483 0
M  V30 3957 H 376.408 0.414754 -0.527466 0
M  V30 3958 H 378.952 0.698035 -1.92218 0
M  V30 3959 H 377.107 3.16092 -2.23974 0
M  V30 3960 H 377.521 2.81419 -4.4261 0
M  V30 3961 H 378.995 4.25919 -3.51137 0
M  V30 3962 H 379.472 3.98951 -1.83671 0
M  V30 3963 H 380.078 2.90318 -3.10799 0
M  V30 3964 N 378.394 1.34581 0.820102 0
M  V30 3965 C 379.357 1.2628 1.91275 0
M  V30 3966 C 380.357 0.177344 1.59819 0
M  V30 3967 O 381.547 0.430156 1.68806 0
M  V30 3968 C 378.679 0.950327 3.27386 0
M  V30 3969 H 379.872 2.23421 2.00057 0
M  V30 3970 H 377.425 1.1891 1.0144 0
M  V30 3971 H 378.16 -0.0177938 3.24295 0
M  V30 3972 H 377.945 1.73549 3.51601 0
M  V30 3973 H 379.435 0.917492 4.07396 0
M  V30 3974 N 379.872 -1.04064 1.18357 0
M  V30 3975 C 380.802 -2.14001 0.934113 0
M  V30 3976 C 381.783 -1.69616 -0.128186 0
M  V30 3977 O 382.968 -1.94185 0.0244093 0
M  V30 3978 C 380.098 -3.44253 0.459066 0
M  V30 3979 C 379.052 -4.02261 1.46185 0
M  V30 3980 C 378.378 -5.27992 0.844322 0
M  V30 3981 C 379.678 -4.38432 2.83856 0
M  V30 3982 H 381.372 -2.35127 1.85352 0
M  V30 3983 H 378.918 -1.12998 0.892604 0
M  V30 3984 H 380.871 -4.20522 0.271907 0
M  V30 3985 H 379.595 -3.22813 -0.495912 0
M  V30 3986 H 378.254 -3.28074 1.63595 0
M  V30 3987 H 377.902 -5.02862 -0.117845 0
M  V30 3988 H 377.602 -5.67765 1.51384 0
M  V30 3989 H 379.126 -6.06938 0.667693 0
M  V30 3990 H 380.54 -5.05688 2.70098 0
M  V30 3991 H 378.937 -4.89254 3.47491 0
M  V30 3992 H 380.007 -3.4826 3.37406 0
M  V30 3993 N 381.35 -0.985608 -1.22978 0
M  V30 3994 C 382.598 -0.656087 -1.91154 0
M  V30 3995 C 382.919 0.813561 -1.77218 0
M  V30 3996 O 382.189 1.58244 -1.1548 0
M  V30 3997 H 380.769 -0.239674 -0.707506 0
M  V30 3998 H 383.431 -1.25054 -1.49491 0
M  V30 3999 H 382.527 -0.912253 -2.9847 0
M  V30 4000 N 382.828 1.3818 -0.7579 0
M  V30 4001 C 383.776 2.32277 -0.122482 0
M  V30 4002 C 384.77 1.54238 0.700505 0
M  V30 4003 O 385.976 1.69737 0.599119 0
M  V30 4004 H 382.351 0.751712 -0.0208143 0
M  V30 4005 H 384.322 2.83469 -0.932099 0
M  V30 4006 C 383.071 3.39447 0.753076 0
M  V30 4007 H 382.394 3.99591 0.129184 0
M  V30 4008 H 383.834 4.07684 1.16489 0
M  V30 4009 C 382.293 2.78375 1.8976 0
M  V30 4010 O 382.823 2.68025 2.99208 0
M  V30 4011 N 381.029 2.36121 1.69397 0
M  V30 4012 H 380.576 2.4474 0.803762 0
M  V30 4013 H 380.534 1.95602 2.46145 0
M  V30 4014 N 384.306 0.507319 1.49211 0
M  V30 4015 C 385.531 -0.033725 2.07373 0
M  V30 4016 C 385.956 -1.29485 1.36437 0
M  V30 4017 O 385.314 -1.76294 0.423087 0
M  V30 4018 C 385.362 -0.263945 3.59633 0
M  V30 4019 O 384.466 -1.33737 3.90113 0
M  V30 4020 H 383.807 0.0290331 0.663365 0
M  V30 4021 H 386.337 0.708749 1.91932 0
M  V30 4022 H 386.347 -0.493536 4.05004 0
M  V30 4023 H 385.022 0.657424 4.10671 0
M  V30 4024 H 383.599 -1.09224 3.56545 0
M  V30 4025 N 385.784 -1.5574 0.241426 0
M  V30 4026 C 387.009 -2.0366 -0.392111 0
M  V30 4027 C 387.434 -1.11969 -1.51144 0
M  V30 4028 O 386.792 -0.111594 -1.80956 0
M  V30 4029 C 386.84 -3.49638 -0.882371 0
M  V30 4030 O 385.944 -3.6108 -1.99235 0
M  V30 4031 H 385.285 -0.658379 -0.0862122 0
M  V30 4032 H 387.815 -2.01302 0.365881 0
M  V30 4033 H 387.825 -3.90351 -1.18702 0
M  V30 4034 H 386.5 -4.15852 -0.0632361 0
M  V30 4035 H 385.077 -3.32262 -1.69282 0
M  V30 4036 N 387.262 0.0317525 -1.57568 0
M  V30 4037 C 388.487 0.738664 -1.938 0
M  V30 4038 C 388.912 1.68242 -0.841208 0
M  V30 4039 O 388.27 1.80157 0.203267 0
M  V30 4040 C 388.318 1.47417 -3.29091 0
M  V30 4041 O 387.422 2.5872 -3.2115 0
M  V30 4042 H 386.763 0.198856 -0.633524 0
M  V30 4043 H 389.293 -0.0119713 -2.04596 0
M  V30 4044 H 389.303 1.84468 -3.63917 0
M  V30 4045 H 387.978 0.781988 -4.08482 0
M  V30 4046 H 386.555 2.24231 -2.97951 0
M  V30 4047 N 388.74 1.54641 0.303973 0
M  V30 4048 C 389.67 1.88386 1.3796 0
M  V30 4049 C 390.651 0.742485 1.5304 0
M  V30 4050 O 391.836 0.997959 1.66597 0
M  V30 4051 C 388.966 2.12854 2.74427 0
M  V30 4052 C 387.92 3.28702 2.74115 0
M  V30 4053 C 387.246 3.38582 4.13844 0
M  V30 4054 C 388.546 4.65881 2.3612 0
M  V30 4055 H 390.24 2.78474 1.09966 0
M  V30 4056 H 387.786 1.33988 0.527556 0
M  V30 4057 H 389.739 2.35047 3.49758 0
M  V30 4058 H 388.463 1.19535 3.03939 0
M  V30 4059 H 387.122 3.06428 2.0124 0
M  V30 4060 H 386.77 2.42784 4.40528 0
M  V30 4061 H 386.47 4.16453 4.14537 0
M  V30 4062 H 387.994 3.63031 4.90959 0
M  V30 4063 H 389.408 4.87823 3.01167 0
M  V30 4064 H 387.805 5.46444 2.48031 0
M  V30 4065 H 388.875 4.66799 1.3125 0
M  V30 4066 N 390.218 -0.567019 1.47046 0
M  V30 4067 C 391.443 -1.3551 1.57009 0
M  V30 4068 C 391.868 -1.86841 0.217259 0
M  V30 4069 O 391.226 -1.62435 -0.805268 0
M  V30 4070 C 391.274 -2.50777 2.5912 0
M  V30 4071 O 390.378 -3.52706 2.13711 0
M  V30 4072 H 389.719 -0.402919 0.52778 0
M  V30 4073 H 392.249 -0.686241 1.92748 0
M  V30 4074 H 392.259 -2.97481 2.79229 0
M  V30 4075 H 390.934 -2.12771 3.57353 0
M  V30 4076 H 389.511 -3.12374 2.03659 0
M  V30 4077 N 391.696 -1.35014 -0.812953 0
M  V30 4078 C 392.942 -1.2812 -1.57204 0
M  V30 4079 C 393.275 0.145869 -1.93651 0
M  V30 4080 O 392.55 1.0937 -1.60836 0
M  V30 4081 C 392.833 -2.18162 -2.86492 0
M  V30 4082 C 392.686 -3.69454 -2.56561 0
M  V30 4083 C 394.005 -2.07439 -3.88145 0
M  V30 4084 H 391.124 -0.466746 -0.570366 0
M  V30 4085 H 393.766 -1.65357 -0.935783 0
M  V30 4086 H 391.916 -1.86535 -3.40789 0
M  V30 4087 H 393.588 -4.11493 -2.08497 0
M  V30 4088 H 391.831 -3.9005 -1.89851 0
M  V30 4089 H 392.502 -4.27835 -3.48799 0
M  V30 4090 H 394.978 -2.35228 -3.4323 0
M  V30 4091 H 393.854 -2.7265 -4.76396 0
M  V30 4092 H 394.115 -1.05439 -4.29343 0
M  V30 4093 N 393.175 1.03435 -1.18907 0
M  V30 4094 C 394.105 2.13503 -0.945448 0
M  V30 4095 C 395.086 1.69682 0.119189 0
M  V30 4096 O 396.271 1.94169 -0.034707 0
M  V30 4097 C 393.401 3.44004 -0.477316 0
M  V30 4098 C 392.355 4.0148 -1.48316 0
M  V30 4099 C 391.681 5.27537 -0.872311 0
M  V30 4100 C 392.981 4.36921 -2.86177 0
M  V30 4101 H 394.675 2.34141 -1.86597 0
M  V30 4102 H 392.221 1.12523 -0.898584 0
M  V30 4103 H 394.174 4.20372 -0.294204 0
M  V30 4104 H 392.898 3.23072 0.478786 0
M  V30 4105 H 391.557 3.27201 -1.65332 0
M  V30 4106 H 391.205 5.02917 0.0911752 0
M  V30 4107 H 390.905 5.66954 -1.54393 0
M  V30 4108 H 392.429 6.06576 -0.699871 0
M  V30 4109 H 393.843 5.04248 -2.72776 0
M  V30 4110 H 392.24 4.87405 -3.50081 0
M  V30 4111 H 393.31 3.46466 -3.39248 0
M  V30 4112 N 394.653 0.992116 1.22453 0
M  V30 4113 C 395.563 0.55065 2.28046 0
M  V30 4114 C 396.579 -0.400189 1.69335 0
M  V30 4115 O 397.755 -0.267215 1.99619 0
M  V30 4116 C 394.82 -0.128496 3.46462 0
M  V30 4117 C 393.881 0.865208 4.20491 0
M  V30 4118 C 393.114 0.218377 5.33253 0
M  V30 4119 O 393.337 -0.987894 5.6178 0
M  V30 4120 O 392.271 0.922845 5.94783 0
M  V30 4121 H 396.097 1.4291 2.67975 0
M  V30 4122 H 393.682 0.760326 1.28606 0
M  V30 4123 H 395.564 -0.508947 4.18315 0
M  V30 4124 H 394.239 -0.981526 3.0846 0
M  V30 4125 H 393.146 1.29658 3.50913 0
M  V30 4126 H 394.479 1.68741 4.62371 0
M  V30 4127 N 396.131 -1.37776 0.765217 0
M  V30 4128 C 397.379 -1.99454 0.325943 0
M  V30 4129 C 397.7 -1.61049 -1.09947 0
M  V30 4130 O 396.97 -0.872821 -1.75381 0
M  V30 4131 H 395.55 -0.737697 0.117525 0
M  V30 4132 H 398.212 -1.68359 0.981895 0
M  V30 4133 H 397.308 -3.09547 0.398353 0
M  V30 4134 N 397.609 -0.515225 -1.4894 0
M  V30 4135 C 398.541 0.292481 -2.27326 0
M  V30 4136 C 399.554 0.917838 -1.3446 0
M  V30 4137 O 400.743 0.798772 -1.5963 0
M  V30 4138 C 397.843 1.42803 -3.07344 0
M  V30 4139 C 397.016 0.907347 -4.27885 0
M  V30 4140 C 396.075 1.92222 -4.89834 0
M  V30 4141 O 395.101 1.48506 -5.49486 0
M  V30 4142 N 396.303 3.25355 -4.80754 0
M  V30 4143 H 399.068 -0.379721 -2.97285 0
M  V30 4144 H 396.629 -0.348638 -1.58102 0
M  V30 4145 H 398.621 2.10481 -3.45658 0
M  V30 4146 H 397.191 2.00414 -2.39902 0
M  V30 4147 H 396.411 0.0550218 -3.94162 0
M  V30 4148 H 397.699 0.538108 -5.05946 0
M  V30 4149 H 397.097 3.6355 -4.33414 0
M  V30 4150 H 395.654 3.88707 -5.23211 0
M  V30 4151 N 399.087 1.5561 -0.249682 0
M  V30 4152 C 400.312 2.03865 0.381305 0
M  V30 4153 C 400.737 1.12769 1.50548 0
M  V30 4154 O 400.095 0.121189 1.80895 0
M  V30 4155 C 400.143 3.50101 0.863816 0
M  V30 4156 O 399.247 3.62132 1.97318 0
M  V30 4157 H 398.588 0.658827 0.0827194 0
M  V30 4158 H 401.118 2.01105 -0.376552 0
M  V30 4159 H 401.128 3.90975 1.1663 0
M  V30 4160 H 399.803 4.1588 0.0411816 0
M  V30 4161 H 398.38 3.33155 1.67517 0
M  V30 4162 N 400.565 -0.0233959 1.57583 0
M  V30 4163 C 401.495 -1.02162 2.09965 0
M  V30 4164 C 402.476 -1.3735 1.00344 0
M  V30 4165 O 403.661 -1.46135 1.27899 0
M  V30 4166 C 400.791 -2.32081 2.58371 0
M  V30 4167 C 399.745 -2.1112 3.72307 0
M  V30 4168 C 399.071 -3.46848 4.06941 0
M  V30 4169 C 400.371 -1.49276 5.00514 0
M  V30 4170 H 402.065 -0.585557 2.93618 0
M  V30 4171 H 399.611 -0.280218 1.41247 0
M  V30 4172 H 401.564 -3.02249 2.93639 0
M  V30 4173 H 400.288 -2.77758 1.71808 0
M  V30 4174 H 398.947 -1.43384 3.37397 0
M  V30 4175 H 398.595 -3.90184 3.17436 0
M  V30 4176 H 398.295 -3.33646 4.83688 0
M  V30 4177 H 399.819 -4.18369 4.44747 0
M  V30 4178 H 401.233 -2.09368 5.33702 0
M  V30 4179 H 399.63 -1.46632 5.8191 0
M  V30 4180 H 400.7 -0.459217 4.82721 0
M  V30 4181 N 402.043 -1.548 -0.295768 0
M  V30 4182 C 403.459 -1.4613 -0.641722 0
M  V30 4183 C 403.659 -0.656771 -1.90496 0
M  V30 4184 O 402.715 -0.166547 -2.5195 0
M  V30 4185 C 404.028 -2.90141 -0.789852 0
M  V30 4186 C 405.576 -3.00216 -0.885396 0
M  V30 4187 C 406.051 -4.45434 -1.06548 0
M  V30 4188 N 407.542 -4.49166 -1.13156 0
M  V30 4189 C 408.277 -5.58717 -1.28929 0
M  V30 4190 N 407.773 -6.78182 -1.41567 0
M  V30 4191 N 409.566 -5.46415 -1.31859 0
M  V30 4192 H 401.717 -2.05574 0.534147 0
M  V30 4193 H 403.98 -0.931259 0.177372 0
M  V30 4194 H 403.686 -3.51635 0.0675598 0
M  V30 4195 H 403.56 -3.37859 -1.67724 0
M  V30 4196 H 405.947 -2.38833 -1.73329 0
M  V30 4197 H 406.028 -2.55787 0.0261185 0
M  V30 4198 H 405.672 -5.07413 -0.222335 0
M  V30 4199 H 405.602 -4.87499 -1.9913 0
M  V30 4200 H 408.093 -3.631 -1.04721 0
M  V30 4201 H 408.406 -7.57428 -1.53372 0
M  V30 4202 H 406.751 -6.81037 -1.38613 0
M  V30 4203 H 409.942 -4.5203 -1.21601 0
M  V30 4204 H 410.115 -6.31841 -1.43808 0
M  V30 4205 N 403.521 0.559213 -1.47345 0
M  V30 4206 C 404.451 1.67622 -1.62558 0
M  V30 4207 C 405.432 1.63331 -0.475087 0
M  V30 4208 O 406.617 1.80983 -0.704182 0
M  V30 4209 C 403.747 3.0626 -1.63774 0
M  V30 4210 C 402.701 3.25397 -2.7803 0
M  V30 4211 C 402.027 4.64801 -2.64318 0
M  V30 4212 C 403.327 3.10965 -4.19641 0
M  V30 4213 H 405.021 1.55146 -2.56067 0
M  V30 4214 H 402.567 0.744961 -1.23233 0
M  V30 4215 H 404.52 3.84247 -1.73008 0
M  V30 4216 H 403.244 3.1969 -0.66825 0
M  V30 4217 H 401.903 2.49817 -2.68304 0
M  V30 4218 H 401.551 4.75028 -1.65401 0
M  V30 4219 H 401.251 4.78555 -3.40968 0
M  V30 4220 H 402.775 5.44926 -2.75478 0
M  V30 4221 H 404.189 3.78772 -4.30354 0
M  V30 4222 H 402.586 3.36229 -4.97062 0
M  V30 4223 H 403.656 2.07736 -4.38148 0
M  V30 4224 N 404.999 1.35443 0.805782 0
M  V30 4225 C 406.245 1.28952 1.56522 0
M  V30 4226 C 406.578 -0.135597 1.93726 0
M  V30 4227 O 405.853 -1.08516 1.61414 0
M  V30 4228 C 406.136 2.19678 2.85331 0
M  V30 4229 C 405.989 3.7081 2.54598 0
M  V30 4230 C 407.308 2.09495 3.8704 0
M  V30 4231 H 404.427 0.469764 0.567883 0
M  V30 4232 H 407.069 1.65851 0.927001 0
M  V30 4233 H 405.219 1.8834 3.39795 0
M  V30 4234 H 406.891 4.12593 2.06312 0
M  V30 4235 H 405.134 3.91051 1.8778 0
M  V30 4236 H 405.805 4.29679 3.46525 0
M  V30 4237 H 408.281 2.37045 3.41978 0
M  V30 4238 H 407.157 2.75173 4.74943 0
M  V30 4239 H 407.418 1.07714 4.28777 0
M  V30 4240 N 406.477 -1.02803 1.19454 0
M  V30 4241 C 407.717 -1.77769 1.00883 0
M  V30 4242 C 408.081 -1.86596 -0.45233 0
M  V30 4243 O 409.282 -2.57895 -0.757877 0
M  V30 4244 C 407.553 -3.16486 1.66046 0
M  V30 4245 S 409.112 -4.07632 1.62424 0
M  V30 4246 H 405.93 -0.611949 0.361993 0
M  V30 4247 H 408.532 -1.23175 1.51816 0
M  V30 4248 H 407.236 -3.0768 2.7159 0
M  V30 4249 H 406.767 -3.76156 1.15196 0
M  V30 4250 H 408.782 -4.91937 0.64903 0
M  V30 4251 N 407.956 -0.998596 -1.21925 0
M  V30 4252 C 408.919 -0.558679 -2.22287 0
M  V30 4253 C 409.919 0.361525 -1.56683 0
M  V30 4254 O 411.109 0.152695 -1.73529 0
M  V30 4255 C 408.241 0.18661 -3.40389 0
M  V30 4256 H 409.434 -1.4463 -2.62721 0
M  V30 4257 H 406.987 -0.786413 -1.35075 0
M  V30 4258 H 407.722 1.08996 -3.05435 0
M  V30 4259 H 407.507 -0.474188 -3.89222 0
M  V30 4260 H 408.997 0.482367 -4.14805 0
M  V30 4261 N 409.434 1.37368 -0.772513 0
M  V30 4262 C 410.68 1.99969 -0.337681 0
M  V30 4263 C 411.013 1.61184 1.08321 0
M  V30 4264 O 410.288 0.858395 1.74533 0
M  V30 4265 C 410.571 3.56858 -0.482121 0
M  V30 4266 C 410.424 4.0555 -1.94549 0
M  V30 4267 C 411.743 4.39955 0.113143 0
M  V30 4268 H 408.862 0.726464 -0.124171 0
M  V30 4269 H 411.504 1.63034 -0.975699 0
M  V30 4270 H 409.654 3.88452 0.0610361 0
M  V30 4271 H 411.326 3.84518 -2.54841 0
M  V30 4272 H 409.569 3.57715 -2.45403 0
M  V30 4273 H 410.24 5.14587 -1.9976 0
M  V30 4274 H 412.716 4.14623 -0.35031 0
M  V30 4275 H 411.592 5.48897 -0.0180514 0
M  V30 4276 H 411.853 4.25403 1.20354 0
M  V30 4277 N 410.912 0.523116 1.48665 0
M  V30 4278 C 412.189 -0.0775449 1.95446 0
M  V30 4279 C 412.569 -1.5197 1.4652 0
M  V30 4280 O 411.917 -2.17876 0.688657 0
M  V30 4281 C 412.127 0.0326135 3.48985 0
M  V30 4282 C 413.475 -0.130141 4.24401 0
M  V30 4283 O 414.499 -0.0415142 3.56176 0
M  V30 4284 O 413.358 -0.31491 5.45592 0
M  V30 4285 H 410.452 -0.0831012 0.822814 0
M  V30 4286 H 412.998 0.587227 1.59216 0
M  V30 4287 H 411.77 1.03748 3.77296 0
M  V30 4288 H 411.393 -0.671317 3.91892 0
M  V30 4289 N 412.39 -1.55475 0.257931 0
M  V30 4290 C 413.615 -2.04064 -0.370488 0
M  V30 4291 C 414.04 -1.13565 -1.49948 0
M  V30 4292 O 413.398 -0.130781 -1.80828 0
M  V30 4293 C 413.446 -3.50554 -0.845237 0
M  V30 4294 O 412.55 -3.63173 -1.95394 0
M  V30 4295 H 411.891 -0.659257 -0.0792243 0
M  V30 4296 H 414.421 -2.00903 0.387212 0
M  V30 4297 H 414.431 -3.91588 -1.14555 0
M  V30 4298 H 413.106 -4.15896 -0.0191259 0
M  V30 4299 H 411.683 -3.34039 -1.65748 0
M  V30 4300 N 413.868 0.0150385 -1.57593 0
M  V30 4301 C 414.816 1.02958 -2.08572 0
M  V30 4302 C 415.81 1.36554 -1.00246 0
M  V30 4303 O 417.016 1.35295 -1.18724 0
M  V30 4304 H 413.391 0.349619 -0.665786 0
M  V30 4305 H 415.362 0.573932 -2.92829 0
M  V30 4306 C 414.111 2.31752 -2.59203 0
M  V30 4307 H 413.434 2.06765 -3.42182 0
M  V30 4308 H 414.874 3.01053 -2.98568 0
M  V30 4309 C 413.333 3.01692 -1.49945 0
M  V30 4310 O 413.863 3.92083 -0.873704 0
M  V30 4311 N 412.069 2.6326 -1.23056 0
M  V30 4312 H 411.616 1.89838 -1.74125 0
M  V30 4313 H 411.574 3.10372 -0.501685 0
M  V30 4314 N 415.346 1.54954 0.287554 0
M  V30 4315 C 416.757 1.65732 0.859634 0
M  V30 4316 C 417.108 0.574767 1.87592 0
M  V30 4317 O 416.233 -0.286299 2.14498 0
M  V30 4318 C 416.828 3.00438 1.56597 0
M  V30 4319 C 415.387 3.13292 2.08627 0
M  V30 4320 C 414.534 2.61473 0.923416 0
M  V30 4321 H 417.485 1.5857 0.0642338 0
M  V30 4322 H 417.506 2.92613 2.43224 0
M  V30 4323 H 417.018 3.79207 0.826053 0
M  V30 4324 H 415.119 2.39268 2.85625 0
M  V30 4325 H 415.232 4.19647 2.31157 0
M  V30 4326 H 413.596 2.18264 1.31275 0
M  V30 4327 H 414.379 3.42733 0.197241 0
M  V30 4328 N 416.824 -0.551391 1.4764 0
M  V30 4329 C 418.235 -1.13349 1.48354 0
M  V30 4330 C 418.586 -1.94709 0.241432 0
M  V30 4331 O 417.711 -2.06306 -0.653205 0
M  V30 4332 C 418.306 -2.0623 2.68802 0
M  V30 4333 C 416.865 -2.597 2.72457 0
M  V30 4334 C 416.012 -1.36201 2.41546 0
M  V30 4335 H 418.963 -0.337698 1.55065 0
M  V30 4336 H 418.984 -2.90196 2.46103 0
M  V30 4337 H 418.496 -1.46987 3.59188 0
M  V30 4338 H 416.597 -3.22724 1.86225 0
M  V30 4339 H 416.71 -3.00296 3.73308 0
M  V30 4340 H 415.074 -1.67068 1.9225 0
M  V30 4341 H 415.857 -0.787425 3.34147 0
M  V30 4342 N 418.302 -1.35869 -0.798587 0
M  V30 4343 C 419.265 -1.29307 -1.89242 0
M  V30 4344 C 420.265 -0.202747 -1.59517 0
M  V30 4345 O 421.455 -0.456957 -1.681 0
M  V30 4346 C 418.587 -1.00229 -3.25833 0
M  V30 4347 H 419.78 -2.26576 -1.96478 0
M  V30 4348 H 417.333 -1.20509 -0.995358 0
M  V30 4349 H 418.068 -0.033801 -3.24282 0
M  V30 4350 H 417.853 -1.79121 -3.48795 0
M  V30 4351 H 419.343 -0.98219 -4.05885 0
M  V30 4352 N 419.78 1.02168 -1.19998 0
M  V30 4353 C 421.196 1.27969 -0.953737 0
M  V30 4354 C 421.396 1.98079 0.369703 0
M  V30 4355 O 420.452 2.27306 1.09947 0
M  V30 4356 C 421.765 2.11971 -2.13281 0
M  V30 4357 C 423.313 2.25255 -2.17323 0
M  V30 4358 C 423.788 3.12632 -3.34702 0
M  V30 4359 N 425.279 3.2022 -3.34684 0
M  V30 4360 C 426.014 3.88039 -4.22153 0
M  V30 4361 N 425.51 4.58027 -5.19791 0
M  V30 4362 N 427.303 3.84511 -4.10009 0
M  V30 4363 H 419.454 0.550794 -2.05134 0
M  V30 4364 H 421.717 0.305683 -0.897364 0
M  V30 4365 H 421.423 1.67785 -3.09097 0
M  V30 4366 H 421.297 3.12699 -2.10949 0
M  V30 4367 H 423.684 2.68667 -1.22073 0
M  V30 4368 H 423.765 1.24053 -2.23706 0
M  V30 4369 H 423.409 2.69926 -4.30235 0
M  V30 4370 H 423.339 4.13909 -3.25556 0
M  V30 4371 H 425.83 2.70382 -2.64012 0
M  V30 4372 H 426.143 5.07429 -5.82868 0
M  V30 4373 H 424.488 4.56869 -5.23733 0
M  V30 4374 H 427.679 3.28978 -3.33003 0
M  V30 4375 H 427.852 4.3709 -4.78389 0
M  V30 4376 N 421.258 1.00505 1.21394 0
M  V30 4377 C 422.188 0.585684 2.26035 0
M  V30 4378 C 423.169 -0.393525 1.65485 0
M  V30 4379 O 424.354 -0.281497 1.92149 0
M  V30 4380 C 421.484 -0.0884283 3.47187 0
M  V30 4381 C 420.438 0.810567 4.20254 0
M  V30 4382 C 419.764 0.00286382 5.347 0
M  V30 4383 C 421.064 2.1132 4.77641 0
M  V30 4384 H 422.758 1.46039 2.61368 0
M  V30 4385 H 420.304 0.703648 1.25638 0
M  V30 4386 H 422.257 -0.393286 4.19561 0
M  V30 4387 H 420.981 -0.997766 3.10986 0
M  V30 4388 H 419.64 1.09925 3.49731 0
M  V30 4389 H 419.288 -0.907765 4.94741 0
M  V30 4390 H 418.988 0.601444 5.84514 0
M  V30 4391 H 420.512 -0.295808 6.09883 0
M  V30 4392 H 421.926 1.87148 5.41893 0
M  V30 4393 H 420.323 2.66164 5.37845 0
M  V30 4394 H 421.393 2.78393 3.9702 0
M  V30 4395 N 422.737 -1.36956 0.779787 0
M  V30 4396 C 423.962 -2.04283 0.358224 0
M  V30 4397 C 424.387 -1.58422 -1.01411 0
M  V30 4398 O 423.745 -0.748179 -1.65142 0
M  V30 4399 C 423.793 -3.58152 0.419479 0
M  V30 4400 O 422.897 -4.08342 -0.577142 0
M  V30 4401 H 422.238 -0.645967 0.153698 0
M  V30 4402 H 424.768 -1.75108 1.05822 0
M  V30 4403 H 424.778 -4.07041 0.279636 0
M  V30 4404 H 423.453 -3.90886 1.42061 0
M  V30 4405 H 422.03 -3.70751 -0.399755 0
M  V30 4406 N 424.215 -0.530993 -1.48385 0
M  V30 4407 C 425.461 -0.00538653 -2.03399 0
M  V30 4408 C 425.816 1.31899 -1.40073 0
M  V30 4409 O 425.109 1.83901 -0.537676 0
M  V30 4410 C 425.303 0.172742 -3.56982 0
M  V30 4411 C 425.132 -1.13282 -4.35198 0
M  V30 4412 C 423.902 -1.69296 -4.76096 0
M  V30 4413 C 426.1 -2.04367 -4.71952 0
M  V30 4414 N 424.082 -2.9413 -5.38851 0
M  V30 4415 C 425.453 -3.13777 -5.34737 0
M  V30 4416 C 427.508 -2.04681 -4.53883 0
M  V30 4417 C 426.211 -4.23567 -5.81363 0
M  V30 4418 C 428.237 -3.13466 -5.01491 0
M  V30 4419 C 427.599 -4.21595 -5.64302 0
M  V30 4420 H 423.698 -0.0434945 -0.780789 0
M  V30 4421 H 426.282 -0.712495 -1.81195 0
M  V30 4422 H 424.453 0.848937 -3.79009 0
M  V30 4423 H 426.185 0.698046 -3.98634 0
M  V30 4424 H 422.94 -1.23422 -4.57235 0
M  V30 4425 H 423.364 -3.57689 -5.74794 0
M  V30 4426 H 428.006 -1.22378 -4.04702 0
M  V30 4427 H 425.724 -5.06648 -6.2955 0
M  V30 4428 H 429.31 -3.14765 -4.893 0
M  V30 4429 H 428.19 -5.04384 -6.00472 0
M  V30 4430 N 425.693 1.55336 -0.266172 0
M  V30 4431 C 426.921 2.03801 0.356756 0
M  V30 4432 C 427.336 1.14485 1.50129 0
M  V30 4433 O 426.693 0.163121 1.8177 0
M  V30 4434 C 426.744 3.51455 0.846281 0
M  V30 4435 O 426.465 4.37371 -0.252663 0
M  V30 4436 C 427.966 4.15767 1.53794 0
M  V30 4437 H 425.186 0.665906 0.0825218 0
M  V30 4438 H 427.73 2.00636 -0.39566 0
M  V30 4439 H 425.885 3.55092 1.54881 0
M  V30 4440 H 426.299 5.24358 0.122173 0
M  V30 4441 H 427.773 5.20714 1.83198 0
M  V30 4442 H 428.25 3.63404 2.46646 0
M  V30 4443 H 428.856 4.16107 0.879488 0
M  V30 4444 N 427.171 -0.0066808 1.57599 0
M  V30 4445 C 428.417 -0.68835 1.91398 0
M  V30 4446 C 428.772 -1.7175 0.86716 0
M  V30 4447 O 428.065 -1.91215 -0.121475 0
M  V30 4448 C 428.259 -1.37939 3.29708 0
M  V30 4449 C 428.088 -0.418689 4.47747 0
M  V30 4450 C 426.858 -0.031526 5.0529 0
M  V30 4451 C 429.056 0.312301 5.13351 0
M  V30 4452 N 427.038 0.928088 6.06844 0
M  V30 4453 C 428.409 1.12682 6.09674 0
M  V30 4454 C 430.464 0.376853 4.96472 0
M  V30 4455 C 429.167 2 6.90936 0
M  V30 4456 C 431.193 1.23723 5.78314 0
M  V30 4457 C 430.555 2.03962 6.74225 0
M  V30 4458 H 426.654 -0.225292 0.748844 0
M  V30 4459 H 429.238 0.0520973 1.9463 0
M  V30 4460 H 427.409 -2.09017 3.27363 0
M  V30 4461 H 429.141 -2.01522 3.50957 0
M  V30 4462 H 425.896 -0.398485 4.71921 0
M  V30 4463 H 426.32 1.40307 6.62301 0
M  V30 4464 H 430.962 -0.22921 4.22178 0
M  V30 4465 H 428.68 2.61676 7.64559 0
M  V30 4466 H 432.266 1.291 5.67296 0
M  V30 4467 H 431.146 2.69461 7.36451 0
M  V30 4468 N 428.649 -1.55105 -0.279332 0
M  V30 4469 C 430.065 -1.46803 -0.626187 0
M  V30 4470 C 430.265 -0.676939 -1.89789 0
M  V30 4471 O 429.321 -0.19326 -2.51759 0
M  V30 4472 C 430.634 -2.90962 -0.759034 0
M  V30 4473 C 432.182 -3.01138 -0.853504 0
M  V30 4474 C 432.657 -4.46539 -1.01818 0
M  V30 4475 N 434.148 -4.50341 -1.08386 0
M  V30 4476 C 434.883 -5.60053 -1.22996 0
M  V30 4477 N 434.379 -6.79645 -1.34366 0
M  V30 4478 N 436.172 -5.47783 -1.26056 0
M  V30 4479 H 428.323 -2.04996 0.555921 0
M  V30 4480 H 430.586 -0.929325 0.187239 0
M  V30 4481 H 430.292 -3.51544 0.104852 0
M  V30 4482 H 430.166 -3.39619 -1.64131 0
M  V30 4483 H 432.553 -2.40658 -1.70786 0
M  V30 4484 H 432.634 -2.55745 0.0532466 0
M  V30 4485 H 432.278 -5.0762 -0.168504 0
M  V30 4486 H 432.208 -4.89583 -1.93948 0
M  V30 4487 H 434.699 -3.64191 -1.00864 0
M  V30 4488 H 435.012 -7.59012 -1.4533 0
M  V30 4489 H 433.357 -6.82469 -1.31382 0
M  V30 4490 H 436.548 -4.53294 -1.168 0
M  V30 4491 H 436.721 -6.33331 -1.37098 0
M  V30 4492 N 430.127 0.543554 -1.4793 0
M  V30 4493 C 431.352 1.32995 -1.59145 0
M  V30 4494 C 431.777 1.86472 -0.246956 0
M  V30 4495 O 431.135 1.63696 0.779324 0
M  V30 4496 C 431.183 2.46623 -2.63077 0
M  V30 4497 O 430.287 3.49261 -2.19295 0
M  V30 4498 H 429.628 0.394472 -0.534124 0
M  V30 4499 H 432.158 0.655489 -1.93816 0
M  V30 4500 H 432.168 2.93001 -2.83926 0
M  V30 4501 H 430.843 2.07059 -3.60693 0
M  V30 4502 H 429.42 3.09094 -2.08603 0
M  V30 4503 N 431.605 1.3629 0.791371 0
M  V30 4504 C 432.535 1.33137 1.91825 0
M  V30 4505 C 433.516 0.203168 1.68882 0
M  V30 4506 O 434.701 0.400509 1.90025 0
M  V30 4507 C 431.831 1.11793 3.28816 0
M  V30 4508 C 430.785 2.21417 3.66277 0
M  V30 4509 C 430.111 1.85218 5.01596 0
M  V30 4510 C 431.411 3.63489 3.75064 0
M  V30 4511 H 433.105 2.2743 1.9472 0
M  V30 4512 H 430.651 1.09479 0.935437 0
M  V30 4513 H 432.604 1.08222 4.07266 0
M  V30 4514 H 431.328 0.139501 3.26302 0
M  V30 4515 H 429.987 2.2411 2.90121 0
M  V30 4516 H 429.635 0.859544 4.95602 0
M  V30 4517 H 429.335 2.58611 5.27631 0
M  V30 4518 H 430.859 1.832 5.82469 0
M  V30 4519 H 432.273 3.63034 4.43711 0
M  V30 4520 H 430.67 4.35771 4.12582 0
M  V30 4521 H 431.74 3.98536 2.76219 0
M  V30 4522 N 433.083 -1.0153 1.20538 0
M  V30 4523 C 434.311 -1.78746 1.04199 0
M  V30 4524 C 434.726 -1.84323 -0.408733 0
M  V30 4525 O 434.083 -1.29714 -1.28377 0
M  V30 4526 C 434.134 -3.23152 1.62035 0
M  V30 4527 O 433.855 -3.17918 3.0143 0
M  V30 4528 C 435.356 -4.16911 1.50666 0
M  V30 4529 H 432.576 -0.56208 0.366479 0
M  V30 4530 H 435.12 -1.27794 1.59653 0
M  V30 4531 H 433.275 -3.71248 1.10697 0
M  V30 4532 H 433.689 -4.08567 3.28897 0
M  V30 4533 H 435.163 -5.16072 1.95892 0
M  V30 4534 H 435.64 -4.36791 0.459363 0
M  V30 4535 H 436.246 -3.74698 2.01201 0
M  V30 4536 N 434.561 -1.01147 -1.20859 0
M  V30 4537 C 435.491 -0.597663 -2.25722 0
M  V30 4538 C 436.472 0.384744 -1.65692 0
M  V30 4539 O 437.657 0.271303 -1.92296 0
M  V30 4540 C 434.787 0.0700149 -3.47229 0
M  V30 4541 C 433.741 -0.832843 -4.19819 0
M  V30 4542 C 433.067 -0.0312202 -5.34691 0
M  V30 4543 C 434.367 -2.1385 -4.76514 0
M  V30 4544 H 436.061 -1.47423 -2.60589 0
M  V30 4545 H 433.607 -0.710301 -1.25263 0
M  V30 4546 H 435.56 0.37103 -4.19763 0
M  V30 4547 H 434.284 0.981259 -3.11511 0
M  V30 4548 H 432.943 -1.11778 -3.49144 0
M  V30 4549 H 432.591 0.881515 -4.95215 0
M  V30 4550 H 432.291 -0.632434 -5.84187 0
M  V30 4551 H 433.815 0.26346 -6.10031 0
M  V30 4552 H 435.229 -1.9002 -5.40893 0
M  V30 4553 H 433.626 -2.69012 -5.36426 0
M  V30 4554 H 434.696 -2.80495 -3.95538 0
M  V30 4555 N 436.039 1.36541 -0.78704 0
M  V30 4556 C 437.269 2.03266 -0.369662 0
M  V30 4557 C 437.677 1.59481 1.01796 0
M  V30 4558 O 437.02 0.778612 1.66383 0
M  V30 4559 C 437.082 3.57779 -0.351371 0
M  V30 4560 C 436.746 4.24756 -1.68617 0
M  V30 4561 C 437.743 4.47811 -2.64124 0
M  V30 4562 C 435.428 4.62277 -1.96481 0
M  V30 4563 C 437.422 5.07464 -3.85693 0
M  V30 4564 C 435.109 5.21649 -3.18317 0
M  V30 4565 C 436.107 5.44182 -4.12741 0
M  V30 4566 O 435.795 6.02307 -5.32429 0
M  V30 4567 H 435.527 0.658977 -0.150751 0
M  V30 4568 H 438.081 1.75548 -1.0664 0
M  V30 4569 H 436.311 3.84606 0.401847 0
M  V30 4570 H 438 4.05879 0.0410147 0
M  V30 4571 H 438.766 4.19221 -2.43883 0
M  V30 4572 H 434.645 4.44065 -1.23805 0
M  V30 4573 H 438.189 5.24968 -4.59407 0
M  V30 4574 H 434.086 5.49664 -3.38437 0
M  V30 4575 H 434.854 6.20775 -5.33461 0
M  V30 4576 N 437.518 0.538854 1.48102 0
M  V30 4577 C 438.929 0.100679 1.86428 0
M  V30 4578 C 439.28 -1.32447 1.44749 0
M  V30 4579 O 438.405 -1.99339 0.842199 0
M  V30 4580 C 439 0.175933 3.38343 0
M  V30 4581 C 437.559 -0.207098 3.7583 0
M  V30 4582 C 436.706 0.531741 2.72154 0
M  V30 4583 H 439.657 0.749614 1.3988 0
M  V30 4584 H 439.678 -0.610144 3.75576 0
M  V30 4585 H 439.19 1.21328 3.68648 0
M  V30 4586 H 437.291 -1.24626 3.5114 0
M  V30 4587 H 437.404 0.138687 4.78899 0
M  V30 4588 H 435.768 -0.0230462 2.5469 0
M  V30 4589 H 436.551 1.56989 3.05302 0
M  V30 4590 N 438.996 -1.55193 0.274407 0
M  V30 4591 C 440.221 -2.04446 -0.348824 0
M  V30 4592 C 440.646 -1.15149 -1.48735 0
M  V30 4593 O 440.004 -0.149952 -1.80679 0
M  V30 4594 C 440.052 -3.51431 -0.808009 0
M  V30 4595 O 439.156 -3.65225 -1.91531 0
M  V30 4596 H 438.497 -0.66006 -0.0722276 0
M  V30 4597 H 441.027 -2.00481 0.408498 0
M  V30 4598 H 441.037 -3.92781 -1.10395 0
M  V30 4599 H 439.712 -4.15892 0.0249865 0
M  V30 4600 H 438.289 -3.35778 -1.62196 0
M  V30 4601 N 440.474 -0.00167713 -1.576 0
M  V30 4602 C 441.406 1.0174 -2.05382 0
M  V30 4603 C 442.419 1.30595 -0.972052 0
M  V30 4604 O 443.608 1.27542 -1.24882 0
M  V30 4605 C 440.708 2.35174 -2.44022 0
M  V30 4606 C 439.881 2.25234 -3.74951 0
M  V30 4607 C 438.94 3.4137 -4.00441 0
M  V30 4608 O 437.966 3.19483 -4.71083 0
M  V30 4609 N 439.168 4.64275 -3.48467 0
M  V30 4610 H 441.933 0.609902 -2.93428 0
M  V30 4611 H 439.494 0.185672 -1.60832 0
M  V30 4612 H 441.486 3.11643 -2.58187 0
M  V30 4613 H 440.056 2.67659 -1.61485 0
M  V30 4614 H 439.276 1.33664 -3.70847 0
M  V30 4615 H 440.564 2.15767 -4.60784 0
M  V30 4616 H 439.962 4.84955 -2.91264 0
M  V30 4617 H 438.519 5.38005 -3.67959 0
M  V30 4618 N 441.952 1.55251 0.271103 0
M  V30 4619 C 443.363 1.66635 0.842007 0
M  V30 4620 C 443.714 0.594631 1.86972 0
M  V30 4621 O 442.839 -0.263532 2.14789 0
M  V30 4622 C 443.434 3.02082 1.53401 0
M  V30 4623 C 441.993 3.15487 2.05293 0
M  V30 4624 C 441.14 2.62438 0.895631 0
M  V30 4625 H 444.091 1.58629 0.0474117 0
M  V30 4626 H 444.112 2.95176 2.40107 0
M  V30 4627 H 443.624 3.80062 0.785786 0
M  V30 4628 H 441.725 2.42284 2.83071 0
M  V30 4629 H 441.838 4.22075 2.26693 0
M  V30 4630 H 440.202 2.19644 1.28953 0
M  V30 4631 H 440.985 3.42923 0.160878 0
M  V30 4632 N 443.43 -0.535701 1.48216 0
M  V30 4633 C 444.655 -1.32149 1.59848 0
M  V30 4634 C 445.08 -1.86338 0.256842 0
M  V30 4635 O 444.438 -1.64107 -0.770632 0
M  V30 4636 C 444.486 -2.45224 2.64381 0
M  V30 4637 O 443.59 -3.48093 2.21144 0
M  V30 4638 H 442.931 -0.391634 0.536208 0
M  V30 4639 H 445.461 -0.645202 1.94161 0
M  V30 4640 H 445.471 -2.91491 2.85476 0
M  V30 4641 H 444.146 -2.05143 3.61786 0
M  V30 4642 H 442.723 -3.07984 2.10239 0
M  V30 4643 N 444.908 -1.36708 -0.784132 0
M  V30 4644 C 445.856 -1.31533 -1.91838 0
M  V30 4645 C 446.85 -0.206205 -1.6814 0
M  V30 4646 O 448.056 -0.373519 -1.76082 0
M  V30 4647 H 444.431 -0.409613 -0.630651 0
M  V30 4648 H 446.402 -2.2731 -1.9332 0
M  V30 4649 C 445.151 -1.12679 -3.28936 0
M  V30 4650 H 444.474 -1.97274 -3.4774 0
M  V30 4651 H 445.914 -1.13106 -4.08636 0
M  V30 4652 C 444.373 0.168281 -3.36479 0
M  V30 4653 O 444.903 1.15625 -3.84699 0
M  V30 4654 N 443.109 0.214762 -2.89805 0
M  V30 4655 H 442.656 -0.589852 -2.50756 0
M  V30 4656 H 442.614 1.08094 -2.95234 0
M  V30 4657 N 446.386 1.0089 -1.21074 0
M  V30 4658 C 447.797 1.56056 -1.02486 0
M  V30 4659 C 448.148 1.91728 0.416506 0
M  V30 4660 O 447.273 1.73066 1.29912 0
M  V30 4661 C 447.868 2.83563 -1.85411 0
M  V30 4662 C 446.427 3.3523 -1.71166 0
M  V30 4663 C 445.574 2.0846 -1.82865 0
M  V30 4664 H 448.525 0.831818 -1.35154 0
M  V30 4665 H 448.546 3.55286 -1.36205 0
M  V30 4666 H 448.058 2.57569 -2.9031 0
M  V30 4667 H 446.159 3.66167 -0.689361 0
M  V30 4668 H 446.272 4.06913 -2.52901 0
M  V30 4669 H 444.636 2.21275 -1.26132 0
M  V30 4670 H 445.419 1.84883 -2.89263 0
M  V30 4671 N 447.864 1.01787 1.20321 0
M  V30 4672 C 448.794 0.609625 2.25401 0
M  V30 4673 C 449.775 -0.375951 1.65893 0
M  V30 4674 O 450.96 -0.261101 1.92437 0
M  V30 4675 C 448.09 -0.0515995 3.47262 0
M  V30 4676 C 447.044 0.855095 4.19371 0
M  V30 4677 C 446.37 0.0595757 5.34667 0
M  V30 4678 C 447.67 2.16374 4.75373 0
M  V30 4679 H 449.364 1.48803 2.59804 0
M  V30 4680 H 446.91 0.716934 1.24884 0
M  V30 4681 H 448.863 -0.348764 4.19954 0
M  V30 4682 H 447.587 -0.964726 3.12027 0
M  V30 4683 H 446.246 1.13628 3.48546 0
M  V30 4684 H 445.894 -0.85524 4.95676 0
M  V30 4685 H 445.594 0.663406 5.83843 0
M  V30 4686 H 447.118 -0.231105 6.10162 0
M  V30 4687 H 448.532 1.92885 5.39878 0
M  V30 4688 H 446.929 2.71853 5.34991 0
M  V30 4689 H 447.999 2.82589 3.94045 0
M  V30 4690 N 449.342 -1.36122 0.79427 0
M  V30 4691 C 450.588 -1.99406 0.369452 0
M  V30 4692 C 450.921 -1.62886 -1.05743 0
M  V30 4693 O 450.196 -0.886053 -1.73145 0
M  V30 4694 C 450.479 -3.56046 0.538833 0
M  V30 4695 C 450.332 -4.02404 2.00976 0
M  V30 4696 C 451.651 -4.40079 -0.0431359 0
M  V30 4697 H 448.77 -0.724397 0.135712 0
M  V30 4698 H 451.412 -1.61461 1.00151 0
M  V30 4699 H 449.562 -3.885 0.000771004 0
M  V30 4700 H 451.234 -3.80415 2.60926 0
M  V30 4701 H 449.477 -3.53765 2.51063 0
M  V30 4702 H 450.148 -5.11344 2.07922 0
M  V30 4703 H 452.624 -4.14013 0.416228 0
M  V30 4704 H 451.5 -5.48799 0.105374 0
M  V30 4705 H 451.761 -4.27264 -1.13571 0
M  V30 4706 N 450.82 -0.546701 -1.47814 0
M  V30 4707 C 451.75 0.195317 -2.32682 0
M  V30 4708 C 452.731 0.918981 -1.43139 0
M  V30 4709 O 453.916 0.901501 -1.72008 0
M  V30 4710 C 451.046 1.23237 -3.247 0
M  V30 4711 C 450 0.625818 -4.234 0
M  V30 4712 C 449.326 1.76674 -5.04669 0
M  V30 4713 C 450.626 -0.413515 -5.2066 0
M  V30 4714 H 452.32 -0.513184 -2.94969 0
M  V30 4715 H 449.866 -0.248241 -1.41844 0
M  V30 4716 H 451.819 1.75955 -3.82907 0
M  V30 4717 H 450.543 1.97067 -2.60446 0
M  V30 4718 H 449.202 0.120023 -3.66403 0
M  V30 4719 H 448.85 2.49383 -4.36826 0
M  V30 4720 H 448.55 1.36673 -5.71484 0
M  V30 4721 H 450.074 2.29738 -5.65732 0
M  V30 4722 H 451.488 0.0272042 -5.73294 0
M  V30 4723 H 449.885 -0.731825 -5.95621 0
M  V30 4724 H 450.955 -1.31325 -4.66778 0
M  V30 4725 N 452.299 1.55045 -0.282633 0
M  V30 4726 C 453.209 2.26491 0.61147 0
M  V30 4727 C 454.225 1.29348 1.16384 0
M  V30 4728 O 455.401 1.62298 1.19253 0
M  V30 4729 C 452.466 2.97779 1.77563 0
M  V30 4730 C 451.527 4.10418 1.25919 0
M  V30 4731 C 450.76 4.78297 2.36786 0
M  V30 4732 O 450.983 4.45426 3.56303 0
M  V30 4733 O 449.917 5.66089 2.04517 0
M  V30 4734 H 453.743 3.03683 0.0324615 0
M  V30 4735 H 451.328 1.49317 -0.0497576 0
M  V30 4736 H 453.21 3.42554 2.45427 0
M  V30 4737 H 451.885 2.23498 2.34159 0
M  V30 4738 H 450.792 3.70082 0.546797 0
M  V30 4739 H 452.125 4.86622 0.738887 0
M  V30 4740 N 453.777 0.010035 1.57597 0
M  V30 4741 C 454.707 -0.976857 2.12084 0
M  V30 4742 C 455.688 -1.35191 1.03235 0
M  V30 4743 O 456.873 -1.43389 1.3097 0
M  V30 4744 C 454.003 -2.26548 2.63236 0
M  V30 4745 C 452.957 -2.03175 3.76701 0
M  V30 4746 C 452.283 -3.38138 4.14206 0
M  V30 4747 C 453.583 -1.38625 5.03568 0
M  V30 4748 H 455.277 -0.523145 2.94794 0
M  V30 4749 H 452.823 -0.250195 1.4181 0
M  V30 4750 H 454.776 -2.95952 2.99984 0
M  V30 4751 H 453.5 -2.74051 1.77661 0
M  V30 4752 H 452.159 -1.36195 3.40362 0
M  V30 4753 H 451.807 -3.83363 3.25641 0
M  V30 4754 H 451.507 -3.23312 4.90656 0
M  V30 4755 H 453.031 -4.08841 4.53521 0
M  V30 4756 H 454.445 -1.98 5.38023 0
M  V30 4757 H 452.842 -1.34256 5.84889 0
M  V30 4758 H 453.912 -0.356722 4.83586 0
M  V30 4759 N 455.255 -1.55392 -0.262866 0
M  V30 4760 C 456.187 -1.85392 -1.34768 0
M  V30 4761 C 457.2 -0.739069 -1.45057 0
M  V30 4762 O 458.389 -1.01703 -1.46693 0
M  V30 4763 C 455.489 -2.01088 -2.72795 0
M  V30 4764 C 454.662 -3.31828 -2.84972 0
M  V30 4765 C 453.721 -3.37464 -4.03738 0
M  V30 4766 O 452.747 -4.10778 -3.94018 0
M  V30 4767 N 453.949 -2.65599 -5.16176 0
M  V30 4768 H 456.714 -2.79029 -1.09375 0
M  V30 4769 H 454.275 -1.55434 -0.452981 0
M  V30 4770 H 456.267 -2.02217 -3.50557 0
M  V30 4771 H 454.837 -1.1427 -2.90966 0
M  V30 4772 H 454.057 -3.43152 -1.94012 0
M  V30 4773 H 455.345 -4.18032 -2.90045 0
M  V30 4774 H 454.743 -2.05736 -5.26962 0
M  V30 4775 H 453.3 -2.72439 -5.92132 0
M  V30 4776 N 456.733 0.527833 -1.48498 0
M  V30 4777 C 457.979 1.28545 -1.56857 0
M  V30 4778 C 458.312 1.92678 -0.242651 0
M  V30 4779 O 457.587 1.79394 0.751545 0
M  V30 4780 C 457.87 2.37314 -2.70839 0
M  V30 4781 C 457.723 1.77858 -4.13142 0
M  V30 4782 C 459.042 3.39068 -2.80573 0
M  V30 4783 H 456.161 0.466006 -0.570971 0
M  V30 4784 H 458.803 0.587784 -1.8068 0
M  V30 4785 H 456.953 2.96821 -2.50658 0
M  V30 4786 H 458.625 1.22385 -4.44769 0
M  V30 4787 H 456.868 1.08383 -4.20042 0
M  V30 4788 H 457.539 2.56624 -4.88721 0
M  V30 4789 H 460.015 2.89518 -2.98862 0
M  V30 4790 H 458.891 4.12566 -3.6205 0
M  V30 4791 H 459.152 3.9975 -1.88818 0
M  V30 4792 N 458.211 1.37122 0.776871 0
M  V30 4793 C 459.161 1.28989 1.88005 0
M  V30 4794 C 460.145 0.178765 1.59904 0
M  V30 4795 O 461.337 0.412705 1.72121 0
M  V30 4796 C 458.466 1.09402 3.25402 0
M  V30 4797 C 457.552 2.25036 3.59471 0
M  V30 4798 N 457.943 3.50407 3.64759 0
M  V30 4799 C 456.241 2.17078 3.89607 0
M  V30 4800 C 456.942 4.26628 3.95428 0
M  V30 4801 N 455.918 3.55709 4.11062 0
M  V30 4802 H 459.72 2.2394 1.90337 0
M  V30 4803 H 457.234 1.30021 0.973052 0
M  V30 4804 H 459.231 1.01661 4.04315 0
M  V30 4805 H 457.891 0.153632 3.24336 0
M  V30 4806 H 458.902 3.8438 3.47091 0
M  V30 4807 H 455.579 1.31067 3.96393 0
M  V30 4808 H 456.969 5.35107 4.06338 0
M  V30 4809 N 459.689 -1.00246 1.21608 0
M  V30 4810 C 460.619 -2.10921 1.00172 0
M  V30 4811 C 461.6 -1.69938 -0.0741587 0
M  V30 4812 O 462.785 -1.94009 0.0861753 0
M  V30 4813 C 459.915 -3.42618 0.568355 0
M  V30 4814 C 458.869 -3.97407 1.58909 0
M  V30 4815 C 458.195 -5.25038 1.01187 0
M  V30 4816 C 459.495 -4.2918 2.97661 0
M  V30 4817 H 461.189 -2.29112 1.92739 0
M  V30 4818 H 458.735 -1.10101 0.928102 0
M  V30 4819 H 460.688 -4.19444 0.405555 0
M  V30 4820 H 459.412 -3.24227 -0.392961 0
M  V30 4821 H 458.071 -3.22703 1.73949 0
M  V30 4822 H 457.719 -5.02982 0.0421965 0
M  V30 4823 H 457.419 -5.62661 1.6937 0
M  V30 4824 H 458.943 -6.04507 0.860448 0
M  V30 4825 H 460.357 -4.96839 2.86049 0
M  V30 4826 H 458.754 -4.77952 3.6288 0
M  V30 4827 H 459.824 -3.3735 3.48315 0
M  V30 4828 N 461.167 -1.02423 -1.1978 0
M  V30 4829 C 462.415 -0.716569 -1.8897 0
M  V30 4830 C 462.736 0.756769 -1.79716 0
M  V30 4831 O 462.006 1.5449 -1.20456 0
M  V30 4832 H 460.586 -0.262062 -0.699523 0
M  V30 4833 H 463.248 -1.29747 -1.45436 0
M  V30 4834 H 462.344 -1.00675 -2.95417 0
M  V30 4835 N 462.645 1.35699 -0.801477 0
M  V30 4836 C 463.922 1.9324 -0.302937 0
M  V30 4837 C 464.302 1.73209 1.20672 0
M  V30 4838 O 463.65 1.09809 2.00385 0
M  V30 4839 C 463.86 3.41728 -0.708747 0
M  V30 4840 C 465.208 4.18868 -0.695328 0
M  V30 4841 O 466.232 3.5022 -0.649971 0
M  V30 4842 O 465.091 5.41342 -0.749081 0
M  V30 4843 H 462.185 0.82331 -0.0780367 0
M  V30 4844 H 464.731 1.44806 -0.884832 0
M  V30 4845 H 463.503 3.50015 -1.74944 0
M  V30 4846 H 463.126 3.97471 -0.101384 0
M  V30 4847 N 464.123 0.554532 1.47522 0
M  V30 4848 C 465.033 -0.197865 2.33764 0
M  V30 4849 C 466.049 -0.914576 1.48025 0
M  V30 4850 O 467.225 -0.884067 1.80959 0
M  V30 4851 C 464.29 -1.21628 3.24665 0
M  V30 4852 C 463.351 -0.507283 4.26292 0
M  V30 4853 C 462.584 -1.47718 5.1285 0
M  V30 4854 O 462.807 -2.7118 5.01814 0
M  V30 4855 O 461.741 -1.00313 5.93482 0
M  V30 4856 H 465.567 0.50949 2.99396 0
M  V30 4857 H 463.152 0.315176 1.46038 0
M  V30 4858 H 465.034 -1.80421 3.80823 0
M  V30 4859 H 463.709 -1.9056 2.61665 0
M  V30 4860 H 462.616 0.121778 3.73902 0
M  V30 4861 H 463.949 0.140544 4.91999 0
M  V30 4862 N 465.601 -1.54893 0.290851 0
M  V30 4863 C 466.849 -1.99538 -0.320756 0
M  V30 4864 C 467.17 -1.18075 -1.55188 0
M  V30 4865 O 466.44 -0.274162 -1.93972 0
M  V30 4866 H 465.02 -0.737052 -0.121507 0
M  V30 4867 H 467.682 -1.90755 0.399832 0
M  V30 4868 H 466.778 -3.06282 -0.599802 0
M  V30 4869 N 467.08 -0.0183926 -1.57589 0
M  V30 4870 C 467.99 0.982943 -2.13015 0
M  V30 4871 C 469.006 1.36443 -1.07979 0
M  V30 4872 O 470.182 1.44802 -1.3998 0
M  V30 4873 C 467.247 2.25024 -2.63752 0
M  V30 4874 C 466.308 1.93018 -3.83461 0
M  V30 4875 C 465.541 3.13706 -4.31769 0
M  V30 4876 O 465.764 4.2601 -3.79305 0
M  V30 4877 O 464.698 2.96629 -5.23732 0
M  V30 4878 H 468.524 0.541709 -2.9883 0
M  V30 4879 H 466.109 0.201565 -1.48034 0
M  V30 4880 H 467.991 2.99441 -2.96502 0
M  V30 4881 H 466.666 2.68349 -1.81026 0
M  V30 4882 H 465.573 1.16019 -3.55655 0
M  V30 4883 H 466.906 1.54516 -4.67317 0
M  V30 4884 N 468.558 1.5553 0.254621 0
M  V30 4885 C 469.805 1.77 0.983736 0
M  V30 4886 C 470.133 0.58133 1.85609 0
M  V30 4887 O 469.388 -0.435621 1.9079 0
M  V30 4888 C 469.687 3.03891 1.88109 0
M  V30 4889 C 469.353 4.35597 1.16472 0
M  V30 4890 C 468.015 4.7139 0.966714 0
M  V30 4891 C 470.367 5.1705 0.656387 0
M  V30 4892 C 467.695 5.86176 0.247942 0
M  V30 4893 C 470.047 6.32581 -0.0488807 0
M  V30 4894 C 468.711 6.67 -0.258438 0
M  V30 4895 H 467.981 0.647688 0.359974 0
M  V30 4896 H 470.628 1.89802 0.254463 0
M  V30 4897 H 468.933 2.86068 2.67717 0
M  V30 4898 H 470.63 3.17701 2.44677 0
M  V30 4899 H 467.22 4.07475 1.32899 0
M  V30 4900 H 471.404 4.8986 0.796933 0
M  V30 4901 H 466.66 6.11354 0.075035 0
M  V30 4902 H 470.834 6.94942 -0.450444 0
M  V30 4903 H 468.461 7.55793 -0.817358 0
M  V30 4904 N 470.036 -0.519951 1.48776 0
M  V30 4905 C 471.264 -1.29971 1.60982 0
M  V30 4906 C 471.679 -1.86803 0.273885 0
M  V30 4907 O 471.036 -1.66904 -0.738193 0
M  V30 4908 C 471.087 -2.44346 2.66415 0
M  V30 4909 O 470.808 -1.89855 3.94825 0
M  V30 4910 C 472.309 -3.36014 2.89153 0
M  V30 4911 H 469.529 -0.394891 0.542496 0
M  V30 4912 H 472.073 -0.626214 1.94676 0
M  V30 4913 H 470.228 -3.07562 2.35552 0
M  V30 4914 H 470.642 -2.64798 4.5275 0
M  V30 4915 H 472.116 -4.12593 3.66703 0
M  V30 4916 H 472.593 -3.91859 1.98351 0
M  V30 4917 H 473.199 -2.78582 3.21359 0
M  V30 4918 N 471.514 -1.37532 -0.769588 0
M  V30 4919 C 472.754 -1.34261 -1.54122 0
M  V30 4920 C 473.118 0.0717222 -1.91866 0
M  V30 4921 O 474.319 0.22918 -2.67821 0
M  V30 4922 C 472.59 -2.2574 -2.77086 0
M  V30 4923 S 474.149 -2.40339 -3.67127 0
M  V30 4924 H 470.967 -0.476595 -0.527615 0
M  V30 4925 H 473.569 -1.73303 -0.90479 0
M  V30 4926 H 472.273 -3.27417 -2.4744 0
M  V30 4927 H 471.804 -1.87789 -3.45686 0
M  V30 4928 H 473.819 -1.61558 -4.69163 0
M  V30 4929 N 472.992 0.995999 -1.22138 0
M  V30 4930 C 474.408 1.25917 -0.980667 0
M  V30 4931 C 474.608 1.98819 0.327604 0
M  V30 4932 O 473.664 2.29587 1.05101 0
M  V30 4933 C 474.977 2.07399 -2.17729 0
M  V30 4934 C 476.525 2.20594 -2.22052 0
M  V30 4935 C 477 3.05462 -3.41258 0
M  V30 4936 N 478.491 3.13049 -3.41401 0
M  V30 4937 C 479.226 3.78997 -4.30289 0
M  V30 4938 N 478.722 4.46899 -5.2939 0
M  V30 4939 N 480.515 3.75728 -4.18073 0
M  V30 4940 H 472.666 0.507158 -2.06256 0
M  V30 4941 H 474.929 0.28658 -0.903646 0
M  V30 4942 H 474.635 1.61191 -3.12586 0
M  V30 4943 H 474.509 3.08154 -2.17534 0
M  V30 4944 H 476.896 2.66017 -1.27745 0
M  V30 4945 H 476.977 1.1928 -2.26287 0
M  V30 4946 H 476.621 2.60739 -4.35864 0
M  V30 4947 H 476.551 4.06911 -3.34262 0
M  V30 4948 H 479.042 2.64721 -2.69688 0
M  V30 4949 H 479.355 4.94952 -5.935 0
M  V30 4950 H 477.7 4.45657 -5.33306 0
M  V30 4951 H 480.891 3.2184 -3.39907 0
M  V30 4952 H 481.064 4.26845 -4.87553 0
M  V30 4953 N 474.47 1.03057 1.19235 0
M  V30 4954 C 475.433 0.617418 2.20727 0
M  V30 4955 C 476.433 -0.319856 1.57587 0
M  V30 4956 O 477.623 -0.106633 1.73873 0
M  V30 4957 C 474.755 -0.096296 3.40764 0
M  V30 4958 H 475.948 1.51544 2.58794 0
M  V30 4959 H 473.501 0.821949 1.32942 0
M  V30 4960 H 474.236 -1.00859 3.08217 0
M  V30 4961 H 474.021 0.577217 3.87828 0
M  V30 4962 H 475.511 -0.372219 4.15938 0
M  V30 4963 N 475.948 -1.35272 0.808662 0
M  V30 4964 C 476.88 -2.28507 0.178149 0
M  V30 4965 C 477.893 -1.50377 -0.623754 0
M  V30 4966 O 479.082 -1.72583 -0.455774 0
M  V30 4967 C 476.182 -3.30038 -0.769959 0
M  V30 4968 C 475.355 -4.37398 -0.0139749 0
M  V30 4969 C 474.414 -5.18775 -0.880875 0
M  V30 4970 O 473.44 -5.68236 -0.331059 0
M  V30 4971 N 474.642 -5.37087 -2.20267 0
M  V30 4972 H 477.407 -2.83255 0.979106 0
M  V30 4973 H 474.968 -1.47643 0.664308 0
M  V30 4974 H 476.96 -3.81371 -1.35418 0
M  V30 4975 H 475.53 -2.75789 -1.47171 0
M  V30 4976 H 474.75 -3.86971 0.751468 0
M  V30 4977 H 476.038 -5.06268 0.506965 0
M  V30 4978 H 475.436 -4.9855 -2.67328 0
M  V30 4979 H 473.993 -5.91593 -2.73608 0
M  V30 4980 N 477.426 -0.562348 -1.47226 0
M  V30 4981 C 478.374 0.195476 -2.31777 0
M  V30 4982 C 479.368 0.90433 -1.43242 0
M  V30 4983 O 480.574 0.825031 -1.59979 0
M  V30 4984 H 476.949 0.0819095 -0.747526 0
M  V30 4985 H 478.92 -0.536753 -2.93533 0
M  V30 4986 C 477.669 1.20902 -3.26003 0
M  V30 4987 H 476.992 0.672997 -3.94095 0
M  V30 4988 H 478.432 1.71006 -3.87986 0
M  V30 4989 C 476.891 2.25955 -2.49891 0
M  V30 4990 O 477.421 3.32969 -2.2471 0
M  V30 4991 N 475.627 2.00019 -2.1081 0
M  V30 4992 H 475.174 1.13006 -2.31489 0
M  V30 4993 H 475.132 2.70523 -1.60201 0
M  V30 4994 N 478.904 1.54736 -0.299062 0
M  V30 4995 C 480.129 2.04975 0.316254 0
M  V30 4996 C 480.554 1.17501 1.46885 0
M  V30 4997 O 479.912 0.178678 1.80417 0
M  V30 4998 C 479.96 3.52672 0.751997 0
M  V30 4999 O 479.064 3.68226 1.85697 0
M  V30 5000 H 478.405 0.661126 0.0617175 0
M  V30 5001 H 480.935 1.99805 -0.440341 0
M  V30 5002 H 480.945 3.94488 1.04133 0
M  V30 5003 H 479.62 4.158 -0.0911482 0
M  V30 5004 H 478.197 3.38316 1.56834 0
M  V30 5005 N 480.382 0.0267497 1.57577 0
M  V30 5006 C 481.312 -0.954308 2.13108 0
M  V30 5007 C 482.293 -1.34088 1.04663 0
M  V30 5008 O 483.478 -1.41992 1.32484 0
M  V30 5009 C 480.608 -2.23744 2.65624 0
M  V30 5010 C 479.562 -1.99168 3.78835 0
M  V30 5011 C 478.888 -3.33726 4.17769 0
M  V30 5012 C 480.188 -1.33277 5.0501 0
M  V30 5013 H 481.882 -0.491848 2.95332 0
M  V30 5014 H 479.428 -0.23514 1.42067 0
M  V30 5015 H 481.381 -2.92754 3.03106 0
M  V30 5016 H 480.105 -2.72151 1.80558 0
M  V30 5017 H 478.764 -1.32577 3.41788 0
M  V30 5018 H 478.412 -3.79888 3.29688 0
M  V30 5019 H 478.112 -3.18089 4.94058 0
M  V30 5020 H 479.636 -4.04008 4.57832 0
M  V30 5021 H 481.05 -1.92283 5.40093 0
M  V30 5022 H 479.447 -1.28045 5.8628 0
M  V30 5023 H 480.517 -0.305411 4.83937 0
M  V30 5024 N 481.861 -1.55662 -0.24637 0
M  V30 5025 C 483.109 -1.77168 -0.972411 0
M  V30 5026 C 483.43 -0.590827 -1.85834 0
M  V30 5027 O 482.7 0.393365 -1.9191 0
M  V30 5028 H 481.28 -0.653405 -0.362038 0
M  V30 5029 H 483.942 -1.93101 -0.264189 0
M  V30 5030 H 483.038 -2.68335 -1.59382 0
M  V30 5031 N 483.339 0.512053 -1.4905 0
M  V30 5032 C 484.564 1.2959 -1.6193 0
M  V30 5033 C 484.989 1.85906 -0.286454 0
M  V30 5034 O 484.347 1.65312 0.744426 0
M  V30 5035 C 484.395 2.40987 -2.68249 0
M  V30 5036 O 483.499 3.44531 -2.26654 0
M  V30 5037 H 482.84 0.383053 -0.542371 0
M  V30 5038 H 485.37 0.614231 -1.95162 0
M  V30 5039 H 485.38 2.86913 -2.90078 0
M  V30 5040 H 484.055 1.99361 -3.65004 0
M  V30 5041 H 482.632 3.046 -2.15112 0
M  V30 5042 N 484.817 1.37938 0.762283 0
M  V30 5043 C 485.749 1.30349 1.88525 0
M  V30 5044 C 486.762 0.217402 1.61342 0
M  V30 5045 O 487.951 0.474291 1.72084 0
M  V30 5046 C 485.051 0.994844 3.23969 0
M  V30 5047 C 484.224 2.18829 3.78725 0
M  V30 5048 C 483.283 1.84844 4.92665 0
M  V30 5049 O 482.309 2.57244 5.07754 0
M  V30 5050 N 483.511 0.798201 5.74986 0
M  V30 5051 H 486.276 2.27114 1.95549 0
M  V30 5052 H 483.837 1.31686 0.941825 0
M  V30 5053 H 485.829 0.748168 3.97724 0
M  V30 5054 H 484.399 0.115446 3.12387 0
M  V30 5055 H 483.619 2.59615 2.96637 0
M  V30 5056 H 484.907 2.98497 4.1204 0
M  V30 5057 H 484.305 0.197611 5.65355 0
M  V30 5058 H 482.862 0.611396 6.48926 0
M  V30 5059 N 486.295 -0.989507 1.22664 0
M  V30 5060 C 487.245 -2.06478 0.967005 0
M  V30 5061 C 488.229 -1.60682 -0.0836374 0
M  V30 5062 O 489.421 -1.76541 0.127322 0
M  V30 5063 C 486.55 -3.38861 0.550313 0
M  V30 5064 C 485.636 -3.9128 1.63587 0
M  V30 5065 N 486.027 -4.16884 2.86429 0
M  V30 5066 C 484.325 -4.1972 1.50834 0
M  V30 5067 C 485.026 -4.5954 3.56648 0
M  V30 5068 N 484.002 -4.63434 2.84131 0
M  V30 5069 H 487.804 -2.24219 1.90008 0
M  V30 5070 H 485.318 -1.17153 1.12467 0
M  V30 5071 H 487.315 -4.15465 0.345612 0
M  V30 5072 H 485.975 -3.22518 -0.375822 0
M  V30 5073 H 486.986 -4.04976 3.22823 0
M  V30 5074 H 483.663 -4.1243 0.648643 0
M  V30 5075 H 485.053 -4.87944 4.61909 0
M  V30 5076 N 487.773 -1.03688 -1.18687 0
M  V30 5077 C 489.019 -0.739123 -1.88851 0
M  V30 5078 C 489.352 0.731042 -1.79915 0
M  V30 5079 O 488.627 1.53313 -1.19688 0
M  V30 5080 C 488.91 -1.20106 -3.3948 0
M  V30 5081 C 488.763 -2.73304 -3.57246 0
M  V30 5082 C 490.082 -0.788134 -4.32986 0
M  V30 5083 H 487.201 -0.269978 -0.68577 0
M  V30 5084 H 489.843 -1.28822 -1.3966 0
M  V30 5085 H 487.993 -0.733915 -3.81505 0
M  V30 5086 H 489.665 -3.28027 -3.24339 0
M  V30 5087 H 487.908 -3.13313 -3.00029 0
M  V30 5088 H 488.579 -3.00684 -4.62918 0
M  V30 5089 H 491.055 -1.19005 -3.98719 0
M  V30 5090 H 489.931 -1.13915 -5.36949 0
M  V30 5091 H 490.192 0.308988 -4.41019 0
M  V30 5092 N 489.251 1.34841 -0.815825 0
M  V30 5093 C 490.476 2.03261 -0.41226 0
M  V30 5094 C 490.901 1.61055 0.971751 0
M  V30 5095 O 490.259 0.7917 1.63101 0
M  V30 5096 C 490.307 3.56914 -0.514289 0
M  V30 5097 O 489.411 4.09728 0.468675 0
M  V30 5098 H 488.752 0.641664 -0.170771 0
M  V30 5099 H 491.282 1.72241 -1.10427 0
M  V30 5100 H 491.292 4.06156 -0.387457 0
M  V30 5101 H 489.967 3.86982 -1.52375 0
M  V30 5102 H 488.544 3.71681 0.301316 0
M  V30 5103 N 490.729 0.570148 1.46925 0
M  V30 5104 C 491.659 -0.158274 2.32963 0
M  V30 5105 C 492.64 -0.896093 1.44583 0
M  V30 5106 O 493.825 -0.874022 1.7342 0
M  V30 5107 C 490.955 -1.18055 3.26619 0
M  V30 5108 C 489.909 -0.558379 4.24342 0
M  V30 5109 C 489.235 -1.68623 5.07415 0
M  V30 5110 C 490.535 0.496295 5.19937 0
M  V30 5111 H 492.229 0.560046 2.94115 0
M  V30 5112 H 489.775 0.270775 1.41431 0
M  V30 5113 H 491.728 -1.69841 3.85658 0
M  V30 5114 H 490.452 -1.92899 2.63548 0
M  V30 5115 H 489.111 -0.0617157 3.66548 0
M  V30 5116 H 488.759 -2.42402 4.40738 0
M  V30 5117 H 488.459 -1.27564 5.73586 0
M  V30 5118 H 489.983 -2.20709 5.69315 0
M  V30 5119 H 491.397 0.0640052 5.73264 0
M  V30 5120 H 489.794 0.82649 5.94381 0
M  V30 5121 H 490.864 1.38735 4.6463 0
M  V30 5122 N 492.207 -1.54576 0.307264 0
M  V30 5123 C 493.155 -2.25208 -0.581723 0
M  V30 5124 C 494.149 -1.26031 -1.13192 0
M  V30 5125 O 495.355 -1.43862 -1.08184 0
M  V30 5126 H 491.73 -0.723173 -0.206214 0
M  V30 5127 H 493.701 -2.98378 0.0364663 0
M  V30 5128 C 492.45 -3.01086 -1.73904 0
M  V30 5129 H 491.773 -3.77208 -1.32491 0
M  V30 5130 H 493.213 -3.5378 -2.33701 0
M  V30 5131 C 491.672 -2.08422 -2.64692 0
M  V30 5132 O 492.202 -1.65636 -3.65961 0
M  V30 5133 N 490.408 -1.74247 -2.32564 0
M  V30 5134 H 489.955 -2.09238 -1.50257 0
M  V30 5135 H 489.913 -1.12524 -2.93574 0
M  V30 5136 N 493.685 -0.035106 -1.57561 0
M  V30 5137 C 494.615 0.942993 -2.13612 0
M  V30 5138 C 495.596 1.33531 -1.05373 0
M  V30 5139 O 496.781 1.41287 -1.33235 0
M  V30 5140 C 493.911 2.22332 -2.66807 0
M  V30 5141 C 492.865 1.97156 -3.79886 0
M  V30 5142 C 492.191 3.31506 -4.19533 0
M  V30 5143 C 493.491 1.30596 -5.05709 0
M  V30 5144 H 495.185 0.476179 -2.95589 0
M  V30 5145 H 492.731 0.227602 -1.4219 0
M  V30 5146 H 494.684 2.91142 -3.04654 0
M  V30 5147 H 493.408 2.7119 -1.81999 0
M  V30 5148 H 492.067 1.30763 -3.42486 0
M  V30 5149 H 491.715 3.78134 -3.31698 0
M  V30 5150 H 491.415 3.15465 -4.95738 0
M  V30 5151 H 492.939 4.01574 -4.59968 0
M  V30 5152 H 494.353 1.89416 -5.41105 0
M  V30 5153 H 492.75 1.24934 -5.86951 0
M  V30 5154 H 493.82 0.279742 -4.84092 0
M  V30 5155 N 495.163 1.55791 0.238111 0
M  V30 5156 C 496.388 1.8244 0.986432 0
M  V30 5157 C 496.813 0.613314 1.7782 0
M  V30 5158 O 496.171 -0.437767 1.75935 0
M  V30 5159 C 496.219 3.06917 1.893 0
M  V30 5160 O 495.323 2.84449 2.98601 0
M  V30 5161 H 494.664 0.601975 0.280218 0
M  V30 5162 H 497.194 2.02987 0.256437 0
M  V30 5163 H 497.204 3.36583 2.30598 0
M  V30 5164 H 495.879 3.947 1.31091 0
M  V30 5165 H 494.456 2.65972 2.61368 0
M  V30 5166 N 496.642 -0.504142 1.49319 0
M  V30 5167 C 497.572 -1.61473 1.68667 0
M  V30 5168 C 498.553 -1.61455 0.535378 0
M  V30 5169 O 499.738 -1.78245 0.770868 0
M  V30 5170 C 496.868 -2.99971 1.75028 0
M  V30 5171 C 495.822 -3.14854 2.89916 0
M  V30 5172 C 495.148 -4.54671 2.81387 0
M  V30 5173 C 496.448 -2.95176 4.30893 0
M  V30 5174 H 498.142 -1.45535 2.61648 0
M  V30 5175 H 495.688 -0.698711 1.25913 0
M  V30 5176 H 497.641 -3.77562 1.8715 0
M  V30 5177 H 496.365 -3.1699 0.786441 0
M  V30 5178 H 495.024 -2.39687 2.77391 0
M  V30 5179 H 494.672 -4.68562 1.82917 0
M  V30 5180 H 494.372 -4.6557 3.58494 0
M  V30 5181 H 495.896 -5.34327 2.95512 0
M  V30 5182 H 497.31 -3.62538 4.44116 0
M  V30 5183 H 495.707 -3.17549 5.09198 0
M  V30 5184 H 496.777 -1.91332 4.45556 0
M  V30 5185 N 498.12 -1.38341 -0.754957 0
M  V30 5186 C 499.052 -1.31347 -1.87831 0
M  V30 5187 C 500.065 -0.225955 -1.61224 0
M  V30 5188 O 501.254 -0.48341 -1.7183 0
M  V30 5189 C 498.354 -1.01201 -3.23437 0
M  V30 5190 C 497.527 -2.20834 -3.77559 0
M  V30 5191 C 496.586 -1.87454 -4.91678 0
M  V30 5192 O 495.612 -2.59934 -5.06382 0
M  V30 5193 N 496.814 -0.828682 -5.74555 0
M  V30 5194 H 499.579 -2.28147 -1.94342 0
M  V30 5195 H 497.14 -1.32184 -0.934828 0
M  V30 5196 H 499.132 -0.769249 -3.97322 0
M  V30 5197 H 497.702 -0.132011 -3.12321 0
M  V30 5198 H 496.922 -2.61184 -2.95256 0
M  V30 5199 H 498.21 -3.00678 -4.10451 0
M  V30 5200 H 497.608 -0.227591 -5.65242 0
M  V30 5201 H 496.165 -0.645802 -6.48593 0
M  V30 5202 N 499.598 0.982988 -1.23187 0
M  V30 5203 C 500.53 2.07729 -0.968572 0
M  V30 5204 C 501.543 1.62702 0.0564821 0
M  V30 5205 O 502.732 1.77603 -0.178733 0
M  V30 5206 C 499.832 3.36071 -0.436974 0
M  V30 5207 C 499.005 4.10081 -1.52159 0
M  V30 5208 C 498.064 5.16701 -0.99532 0
M  V30 5209 O 497.09 5.43727 -1.68373 0
M  V30 5210 N 498.292 5.80226 0.178192 0
M  V30 5211 H 501.057 2.30894 -1.9107 0
M  V30 5212 H 498.618 1.14949 -1.1401 0
M  V30 5213 H 500.61 4.04639 -0.0700051 0
M  V30 5214 H 499.18 3.09893 0.410509 0
M  V30 5215 H 498.4 3.36004 -2.06144 0
M  V30 5216 H 499.688 4.56295 -2.25105 0
M  V30 5217 H 499.086 5.60651 0.754096 0
M  V30 5218 H 497.643 6.49982 0.486449 0
M  V30 5219 N 501.076 1.04316 1.18135 0
M  V30 5220 C 501.986 0.646876 2.25505 0
M  V30 5221 C 503.002 -0.328008 1.7088 0
M  V30 5222 O 504.178 -0.182309 2.00573 0
M  V30 5223 C 501.243 0.0185664 3.46695 0
M  V30 5224 C 500.304 1.04277 4.16443 0
M  V30 5225 C 499.537 0.444352 5.31847 0
M  V30 5226 O 499.76 -0.748735 5.65465 0
M  V30 5227 O 498.694 1.17428 5.90334 0
M  V30 5228 H 502.52 1.54147 2.61672 0
M  V30 5229 H 500.105 0.814188 1.25265 0
M  V30 5230 H 501.987 -0.331068 4.20097 0
M  V30 5231 H 500.662 -0.849814 3.12346 0
M  V30 5232 H 499.569 1.44425 3.45098 0
M  V30 5233 H 500.902 1.882 4.54798 0
M  V30 5234 N 502.554 -1.34406 0.822964 0
M  V30 5235 C 503.784 -2.02214 0.423424 0
M  V30 5236 C 504.192 -1.62124 -0.975322 0
M  V30 5237 O 503.535 -0.822452 -1.6426 0
M  V30 5238 C 503.597 -3.56721 0.446107 0
M  V30 5239 C 503.261 -4.20136 1.79819 0
M  V30 5240 C 504.258 -4.4065 2.75904 0
M  V30 5241 C 501.943 -4.56906 2.08669 0
M  V30 5242 C 503.937 -4.9706 3.99012 0
M  V30 5243 C 501.624 -5.13026 3.32036 0
M  V30 5244 C 502.622 -5.33047 4.27024 0
M  V30 5245 O 502.31 -5.87979 5.48211 0
M  V30 5246 H 502.042 -0.654748 0.168169 0
M  V30 5247 H 504.596 -1.72659 1.11257 0
M  V30 5248 H 502.826 -3.85537 -0.299734 0
M  V30 5249 H 504.515 -4.05845 0.0666114 0
M  V30 5250 H 505.281 -4.12607 2.54912 0
M  V30 5251 H 501.16 -4.40626 1.35535 0
M  V30 5252 H 504.704 -5.12603 4.73164 0
M  V30 5253 H 500.601 -5.40498 3.52891 0
M  V30 5254 H 501.369 -6.06413 5.49732 0
M  V30 5255 N 504.032 -0.577932 -1.46621 0
M  V30 5256 C 505.26 -0.0671642 -2.06791 0
M  V30 5257 C 505.675 1.23571 -1.42743 0
M  V30 5258 O 505.032 1.74602 -0.531062 0
M  V30 5259 C 505.083 0.110357 -3.61332 0
M  V30 5260 O 504.804 -1.14095 -4.22982 0
M  V30 5261 C 506.305 0.656025 -4.38419 0
M  V30 5262 H 503.525 -0.0552732 -0.66872 0
M  V30 5263 H 506.069 -0.797242 -1.8832 0
M  V30 5264 H 504.224 0.790637 -3.79246 0
M  V30 5265 H 504.638 -0.951742 -5.15793 0
M  V30 5266 H 506.112 0.729438 -5.47159 0
M  V30 5267 H 506.589 1.67195 -4.06131 0
M  V30 5268 H 507.195 0.0107692 -4.25299 0
M  V30 5269 N 505.51 1.54411 -0.315457 0
M  V30 5270 C 506.758 2.00023 0.288971 0
M  V30 5271 C 507.079 1.20529 1.5329 0
M  V30 5272 O 506.349 0.304986 1.93511 0
M  V30 5273 H 504.929 0.738891 0.109766 0
M  V30 5274 H 507.591 1.90094 -0.430129 0
M  V30 5275 H 506.687 3.07198 0.550999 0
M  V30 5276 N 506.988 0.0434614 1.5754 0
M  V30 5277 C 507.935 -0.93356 2.11077 0
M  V30 5278 C 508.905 -1.31383 1.01626 0
M  V30 5279 O 510.09 -1.40465 1.29129 0
M  V30 5280 C 507.23 -2.20578 2.65404 0
M  V30 5281 C 506.343 -1.88068 3.88914 0
M  V30 5282 C 505.478 -3.09691 4.31584 0
M  V30 5283 C 504.517 -2.73067 5.47815 0
M  V30 5284 N 503.654 -3.87359 5.85574 0
M  V30 5285 H 508.494 -0.470118 2.94268 0
M  V30 5286 H 506.031 -0.220434 1.45439 0
M  V30 5287 H 507.989 -2.95011 2.94999 0
M  V30 5288 H 506.619 -2.64513 1.85021 0
M  V30 5289 H 505.671 -1.03816 3.6596 0
M  V30 5290 H 506.983 -1.57104 4.73413 0
M  V30 5291 H 506.137 -3.92431 4.62691 0
M  V30 5292 H 504.876 -3.43827 3.45882 0
M  V30 5293 H 503.881 -1.88742 5.16388 0
M  V30 5294 H 505.106 -2.40131 6.35227 0
M  V30 5295 H 503.052 -4.21311 5.02825 0
M  V30 5296 H 502.969 -3.60068 6.64746 0
M  V30 5297 H 504.237 -4.70761 6.21292 0
M  V30 5298 N 508.466 -1.55915 -0.229846 0
M  V30 5299 C 509.399 -1.86734 -1.3117 0
M  V30 5300 C 510.377 -0.723947 -1.45595 0
M  V30 5301 O 511.561 -0.971462 -1.61539 0
M  V30 5302 C 508.688 -2.06707 -2.68309 0
M  V30 5303 C 507.734 -3.2938 -2.70944 0
M  V30 5304 S 508.567 -4.85547 -2.25842 0
M  V30 5305 C 509.723 -5.08546 -3.64873 0
M  V30 5306 H 509.956 -2.78204 -1.04832 0
M  V30 5307 H 507.489 -1.48243 -0.431681 0
M  V30 5308 H 509.447 -2.18898 -3.47267 0
M  V30 5309 H 508.108 -1.16049 -2.91876 0
M  V30 5310 H 507.301 -3.40374 -3.71701 0
M  V30 5311 H 506.903 -3.16004 -2.00044 0
M  V30 5312 H 509.195 -4.96935 -4.60502 0
M  V30 5313 H 510.138 -6.10465 -3.58801 0
M  V30 5314 H 510.546 -4.36314 -3.58176 0
M  V30 5315 N 509.944 0.496216 -1.49584 0
M  V30 5316 C 511.36 0.827814 -1.36453 0
M  V30 5317 C 511.56 1.97464 -0.401285 0
M  V30 5318 O 510.616 2.51958 0.165296 0
M  V30 5319 C 511.929 1.16352 -2.77277 0
M  V30 5320 C 513.477 1.27145 -2.86013 0
M  V30 5321 C 513.952 1.64042 -4.27615 0
M  V30 5322 N 515.443 1.71082 -4.30448 0
M  V30 5323 C 516.178 2.01085 -5.36984 0
M  V30 5324 N 515.674 2.2928 -6.5376 0
M  V30 5325 N 517.467 2.02376 -5.24405 0
M  V30 5326 H 509.618 -0.259947 -2.10803 0
M  V30 5327 H 511.881 -0.0537163 -0.946477 0
M  V30 5328 H 511.587 0.394153 -3.49484 0
M  V30 5329 H 511.461 2.10582 -3.12946 0
M  V30 5330 H 513.848 2.03152 -2.1404 0
M  V30 5331 H 513.929 0.309542 -2.5392 0
M  V30 5332 H 513.573 0.88583 -5.00115 0
M  V30 5333 H 513.503 2.6134 -4.57175 0
M  V30 5334 H 515.994 1.51434 -3.46232 0
M  V30 5335 H 516.307 2.51376 -7.30774 0
M  V30 5336 H 514.652 2.26726 -6.56978 0
M  V30 5337 H 517.843 1.79829 -4.32179 0
M  V30 5338 H 518.016 2.25425 -6.07526 0
M  V30 5339 N 511.423 1.38739 0.74761 0
M  V30 5340 C 512.834 1.31507 1.32524 0
M  V30 5341 C 513.185 -0.0263963 1.96182 0
M  V30 5342 O 512.31 -0.92849 1.95469 0
M  V30 5343 C 512.905 2.38162 2.40966 0
M  V30 5344 C 511.464 2.34489 2.94434 0
M  V30 5345 C 510.611 2.20712 1.67873 0
M  V30 5346 H 513.562 1.4901 0.546043 0
M  V30 5347 H 513.583 2.04222 3.21051 0
M  V30 5348 H 513.095 3.35783 1.94605 0
M  V30 5349 H 511.196 1.40467 3.45108 0
M  V30 5350 H 511.309 3.28861 3.48407 0
M  V30 5351 H 509.673 1.67667 1.91729 0
M  V30 5352 H 510.456 3.20285 1.23582 0
M  V30 5353 N 512.901 -0.976442 1.23707 0
M  V30 5354 C 514.147 -1.72081 1.07312 0
M  V30 5355 C 514.48 -1.90275 -0.388476 0
M  V30 5356 O 513.755 -1.4579 -1.28746 0
M  V30 5357 C 514.038 -3.11675 1.80363 0
M  V30 5358 C 513.891 -3.01027 3.3422 0
M  V30 5359 C 515.21 -4.1117 1.5693 0
M  V30 5360 H 512.329 -0.624583 0.391236 0
M  V30 5361 H 514.971 -1.13649 1.52263 0
M  V30 5362 H 513.121 -3.61559 1.42153 0
M  V30 5363 H 514.793 -2.58637 3.81975 0
M  V30 5364 H 513.036 -2.3744 3.63049 0
M  V30 5365 H 513.707 -3.9988 3.80525 0
M  V30 5366 H 516.183 -3.7011 1.90151 0
M  V30 5367 H 515.059 -5.06928 2.10513 0
M  V30 5368 H 515.32 -4.392 0.505548 0
M  V30 5369 N 514.379 -1.04941 -1.1758 0
M  V30 5370 C 515.604 -0.778253 -1.92245 0
M  V30 5371 C 516.029 0.659707 -1.76152 0
M  V30 5372 O 515.387 1.45803 -1.07755 0
M  V30 5373 C 515.435 -1.16051 -3.41416 0
M  V30 5374 O 514.539 -0.291153 -4.11371 0
M  V30 5375 H 513.88 -0.285619 -0.599431 0
M  V30 5376 H 516.41 -1.40159 -1.49052 0
M  V30 5377 H 516.42 -1.12619 -3.92149 0
M  V30 5378 H 515.095 -2.208 -3.52449 0
M  V30 5379 H 513.672 -0.385851 -3.70898 0
M  V30 5380 N 515.857 1.33968 -0.830081 0
M  V30 5381 C 517.105 1.97672 -0.420734 0
M  V30 5382 C 517.426 1.66111 1.02138 0
M  V30 5383 O 516.696 0.955503 1.71017 0
M  V30 5384 H 515.276 0.73125 -0.152587 0
M  V30 5385 H 517.938 1.63483 -1.0611 0
M  V30 5386 H 517.034 3.07294 -0.545588 0
M  V30 5387 N 517.335 0.585699 1.46312 0
M  V30 5388 C 518.581 0.0725284 2.0267 0
M  V30 5389 C 518.914 -1.28523 1.45586 0
M  V30 5390 O 518.189 -1.84283 0.622101 0
M  V30 5391 C 518.472 0.0099788 3.60099 0
M  V30 5392 C 518.325 1.39685 4.27561 0
M  V30 5393 C 519.644 -0.689117 4.34671 0
M  V30 5394 H 516.763 0.0278307 0.736474 0
M  V30 5395 H 519.405 0.753472 1.74421 0
M  V30 5396 H 517.555 -0.56992 3.84297 0
M  V30 5397 H 519.227 2.02215 4.14617 0
M  V30 5398 H 517.47 1.96374 3.86807 0
M  V30 5399 H 518.141 1.30553 5.36339 0
M  V30 5400 H 520.617 -0.196446 4.15636 0
M  V30 5401 H 519.493 -0.701921 5.44393 0
M  V30 5402 H 519.754 -1.75101 4.05946 0
M  V30 5403 N 518.813 -1.54241 0.323641 0
M  V30 5404 C 519.743 -2.27289 -0.534993 0
M  V30 5405 C 520.724 -1.28087 -1.11927 0
M  V30 5406 O 521.909 -1.56899 -1.14439 0
M  V30 5407 C 519.039 -3.03075 -1.69596 0
M  V30 5408 C 517.993 -4.09614 -1.24098 0
M  V30 5409 C 517.319 -4.73242 -2.4889 0
M  V30 5410 C 518.619 -5.21087 -0.355789 0
M  V30 5411 H 520.313 -2.99308 0.0743257 0
M  V30 5412 H 517.859 -1.43952 0.0371874 0
M  V30 5413 H 519.812 -3.52907 -2.30293 0
M  V30 5414 H 518.536 -2.28673 -2.33187 0
M  V30 5415 H 517.195 -3.60666 -0.656945 0
M  V30 5416 H 516.843 -3.95455 -3.10845 0
M  V30 5417 H 516.543 -5.45209 -2.19138 0
M  V30 5418 H 518.067 -5.25848 -3.10348 0
M  V30 5419 H 519.481 -5.66675 -0.869042 0
M  V30 5420 H 517.878 -5.9991 -0.151045 0
M  V30 5421 H 518.948 -4.81005 0.613339 0
M  V30 5422 N 520.291 -0.0518155 -1.57515 0
M  V30 5423 C 521.221 0.920283 -2.146 0
M  V30 5424 C 522.202 1.32406 -1.06783 0
M  V30 5425 O 523.387 1.39866 -1.34726 0
M  V30 5426 C 520.517 2.1949 -2.6915 0
M  V30 5427 C 519.471 1.93116 -3.81956 0
M  V30 5428 C 518.797 3.27037 -4.23026 0
M  V30 5429 C 520.097 1.25225 -5.07066 0
M  V30 5430 H 521.791 0.444801 -2.96077 0
M  V30 5431 H 519.337 0.212508 -1.42423 0
M  V30 5432 H 521.29 2.87894 -3.07725 0
M  V30 5433 H 520.014 2.69244 -1.84865 0
M  V30 5434 H 518.673 1.27123 -3.43854 0
M  V30 5435 H 518.321 3.74595 -3.3569 0
M  V30 5436 H 518.021 3.10189 -4.99056 0
M  V30 5437 H 519.545 3.96673 -4.64202 0
M  V30 5438 H 520.959 1.83666 -5.43083 0
M  V30 5439 H 519.356 1.18702 -5.88243 0
M  V30 5440 H 520.426 0.228382 -4.84362 0
M  V30 5441 N 521.769 1.56035 0.221574 0
M  V30 5442 C 523.017 1.78693 0.944102 0
M  V30 5443 C 523.338 0.620317 1.8487 0
M  V30 5444 O 522.608 -0.362784 1.92512 0
M  V30 5445 H 521.188 0.659082 0.351597 0
M  V30 5446 H 523.85 1.93497 0.233435 0
M  V30 5447 H 522.946 2.70837 1.55093 0
M  V30 5448 N 523.247 -0.488276 1.49845 0
M  V30 5449 C 524.21 -1.57069 1.66919 0
M  V30 5450 C 525.21 -1.51445 0.540479 0
M  V30 5451 O 526.4 -1.5437 0.807188 0
M  V30 5452 C 523.532 -2.96718 1.67844 0
M  V30 5453 H 524.725 -1.43254 2.63474 0
M  V30 5454 H 522.278 -0.713435 1.39068 0
M  V30 5455 H 523.013 -3.15996 0.7292 0
M  V30 5456 H 522.798 -3.02208 2.49826 0
M  V30 5457 H 524.288 -3.75335 1.83066 0
M  V30 5458 N 524.725 -1.39134 -0.740242 0
M  V30 5459 C 525.971 -1.36273 -1.50192 0
M  V30 5460 C 526.304 0.0430136 -1.94152 0
M  V30 5461 O 525.579 1.00691 -1.66408 0
M  V30 5462 C 525.862 -2.33041 -2.74525 0
M  V30 5463 C 525.715 -3.82535 -2.36617 0
M  V30 5464 C 527.034 -2.27723 -3.76604 0
M  V30 5465 H 524.153 -0.496323 -0.544823 0
M  V30 5466 H 526.795 -1.70085 -0.846815 0
M  V30 5467 H 524.945 -2.04337 -3.30422 0
M  V30 5468 H 526.617 -4.21967 -1.86391 0
M  V30 5469 H 524.86 -3.99565 -1.68909 0
M  V30 5470 H 525.531 -4.45723 -3.2563 0
M  V30 5471 H 528.007 -2.53091 -3.30279 0
M  V30 5472 H 526.883 -2.97519 -4.61274 0
M  V30 5473 H 527.144 -1.28049 -4.2315 0
M  V30 5474 N 526.204 0.969867 -1.24223 0
M  V30 5475 C 527.452 1.70918 -1.0785 0
M  V30 5476 C 527.773 1.91186 0.383763 0
M  V30 5477 O 527.043 1.48806 1.27411 0
M  V30 5478 H 525.623 0.633334 -0.396103 0
M  V30 5479 H 528.285 1.16689 -1.56108 0
M  V30 5480 H 527.381 2.69455 -1.57482 0
M  V30 5481 N 527.682 1.05563 1.17022 0
M  V30 5482 C 528.93 0.76642 1.87004 0
M  V30 5483 C 529.251 -0.708854 1.8166 0
M  V30 5484 O 528.521 -1.51242 1.2451 0
M  V30 5485 H 527.101 0.280516 0.692329 0
M  V30 5486 H 529.763 1.33557 1.41945 0
M  V30 5487 H 528.859 1.08472 2.92644 0
M  V30 5488 N 529.16 -1.33526 0.837174 0
M  V30 5489 C 530.123 -2.27551 0.274421 0
M  V30 5490 C 531.123 -1.50886 -0.555881 0
M  V30 5491 O 532.313 -1.70227 -0.369918 0
M  V30 5492 C 529.445 -3.35332 -0.613605 0
M  V30 5493 H 530.638 -2.78837 1.10408 0
M  V30 5494 H 528.191 -1.439 0.610126 0
M  V30 5495 H 528.926 -2.89285 -1.46577 0
M  V30 5496 H 528.711 -3.92095 -0.0195341 0
M  V30 5497 H 530.201 -4.05433 -1.00068 0
M  V30 5498 N 530.638 -0.59345 -1.46 0
M  V30 5499 C 531.886 -0.082988 -2.0193 0
M  V30 5500 C 532.207 1.28569 -1.46612 0
M  V30 5501 O 531.477 1.84629 -0.654909 0
M  V30 5502 H 530.057 -0.0276882 -0.746487 0
M  V30 5503 H 532.719 -0.771657 -1.78973 0
M  V30 5504 H 531.815 -0.022079 -3.12092 0
M  V30 5505 N 532.116 1.54067 -0.331816 0
M  V30 5506 C 533.079 2.23275 0.517768 0
M  V30 5507 C 534.079 1.22897 1.03697 0
M  V30 5508 O 535.269 1.47419 0.928084 0
M  V30 5509 C 532.401 2.94326 1.72004 0
M  V30 5510 H 533.594 2.99773 -0.0873507 0
M  V30 5511 H 531.147 1.56079 -0.0830042 0
M  V30 5512 H 531.882 2.21986 2.36417 0
M  V30 5513 H 531.667 3.67941 1.35507 0
M  V30 5514 H 533.157 3.47031 2.32291 0
M  V30 5515 N 533.594 0.0601682 1.57485 0
M  V30 5516 C 534.822 -0.620937 1.97363 0
M  V30 5517 C 535.237 -1.63846 0.938082 0
M  V30 5518 O 534.594 -1.82339 -0.0766578 0
M  V30 5519 C 534.645 -1.29987 3.37321 0
M  V30 5520 O 534.366 -0.323081 4.36907 0
M  V30 5521 C 535.867 -2.06989 3.92008 0
M  V30 5522 H 533.087 -0.169135 0.649334 0
M  V30 5523 H 535.631 0.129132 2.04092 0
M  V30 5524 H 533.786 -2.0011 3.31715 0
M  V30 5525 H 534.2 -0.808754 5.18227 0
M  V30 5526 H 535.674 -2.49901 4.92192 0
M  V30 5527 H 536.151 -2.92173 3.2792 0
M  V30 5528 H 536.757 -1.41757 4.0098 0
M  V30 5529 N 535.072 -1.5615 -0.213296 0
M  V30 5530 C 536.035 -1.92249 -1.24792 0
M  V30 5531 C 537.035 -0.801828 -1.39382 0
M  V30 5532 O 538.225 -1.06948 -1.37506 0
M  V30 5533 C 535.357 -2.18056 -2.62039 0
M  V30 5534 H 536.55 -2.84793 -0.939845 0
M  V30 5535 H 534.103 -1.49559 -0.454062 0
M  V30 5536 H 534.838 -1.2809 -2.97932 0
M  V30 5537 H 534.623 -2.99703 -2.52825 0
M  V30 5538 H 536.113 -2.47051 -3.36683 0
M  V30 5539 N 536.55 0.480323 -1.50102 0
M  V30 5540 C 537.48 1.58769 -1.71215 0
M  V30 5541 C 538.461 1.60583 -0.560997 0
M  V30 5542 O 539.646 1.76996 -0.799127 0
M  V30 5543 C 536.776 2.97148 -1.79778 0
M  V30 5544 C 535.73 3.10201 -2.94888 0
M  V30 5545 C 535.056 4.50137 -2.88584 0
M  V30 5546 C 536.356 2.88283 -4.35534 0
M  V30 5547 H 538.05 1.41354 -2.6393 0
M  V30 5548 H 535.596 0.678591 -1.27008 0
M  V30 5549 H 537.549 3.74536 -1.93133 0
M  V30 5550 H 536.273 3.15699 -0.836772 0
M  V30 5551 H 534.932 2.35244 -2.81169 0
M  V30 5552 H 534.58 4.65593 -1.90349 0
M  V30 5553 H 534.28 4.59808 -3.65856 0
M  V30 5554 H 535.804 5.29558 -3.03976 0
M  V30 5555 H 537.218 3.55427 -4.49827 0
M  V30 5556 H 535.615 3.09408 -5.14186 0
M  V30 5557 H 536.685 1.84219 -4.48544 0
M  V30 5558 N 538.028 1.39524 0.732853 0
M  V30 5559 C 539.274 1.37068 1.49467 0
M  V30 5560 C 539.607 -0.0327166 1.94172 0
M  V30 5561 O 538.882 -0.998071 1.66939 0
M  V30 5562 C 539.165 2.34494 2.73285 0
M  V30 5563 C 539.018 3.83784 2.34585 0
M  V30 5564 C 540.337 2.29717 3.75391 0
M  V30 5565 H 537.456 0.499206 0.542183 0
M  V30 5566 H 540.098 1.70532 0.837783 0
M  V30 5567 H 538.248 2.06087 3.29333 0
M  V30 5568 H 539.92 4.22949 1.84151 0
M  V30 5569 H 538.163 4.00455 1.66787 0
M  V30 5570 H 538.834 4.47444 3.23262 0
M  V30 5571 H 541.31 2.54839 3.28932 0
M  V30 5572 H 540.186 2.99962 4.59689 0
M  V30 5573 H 540.447 1.30291 4.22465 0
M  V30 5574 N 539.506 -0.963266 1.24736 0
M  V30 5575 C 540.753 -1.7068 1.0897 0
M  V30 5576 C 541.081 -1.90934 -0.370751 0
M  V30 5577 O 540.336 -1.47155 -1.29011 0
M  V30 5578 C 540.635 -3.09944 1.7796 0
M  V30 5579 C 540.301 -3.09518 3.27887 0
M  V30 5580 C 538.963 -3.09109 3.68789 0
M  V30 5581 C 541.315 -3.03509 4.23712 0
M  V30 5582 C 538.643 -3.00429 5.03944 0
M  V30 5583 C 540.995 -2.96371 5.5888 0
M  V30 5584 C 539.659 -2.94293 5.99123 0
M  V30 5585 H 538.929 -0.624564 0.398749 0
M  V30 5586 H 541.576 -1.12603 1.54896 0
M  V30 5587 H 539.881 -3.71513 1.2444 0
M  V30 5588 H 541.578 -3.66278 1.63222 0
M  V30 5589 H 538.168 -3.10603 2.95337 0
M  V30 5590 H 542.352 -3.0295 3.93109 0
M  V30 5591 H 537.608 -2.97183 5.34314 0
M  V30 5592 H 541.782 -2.90681 6.32833 0
M  V30 5593 H 539.409 -2.87322 7.03811 0
M  V30 5594 N 540.985 -1.06182 -1.16461 0
M  V30 5595 C 541.915 -0.692861 -2.22984 0
M  V30 5596 C 542.896 0.314122 -1.67174 0
M  V30 5597 O 544.081 0.189499 -1.93273 0
M  V30 5598 C 541.211 -0.07732 -3.47214 0
M  V30 5599 C 540.165 -1.01015 -4.15909 0
M  V30 5600 C 539.491 -0.257973 -5.34077 0
M  V30 5601 C 540.791 -2.33868 -4.67015 0
M  V30 5602 H 542.485 -1.58343 -2.54102 0
M  V30 5603 H 540.031 -0.76279 -1.22137 0
M  V30 5604 H 541.984 0.19266 -4.20959 0
M  V30 5605 H 540.708 0.848254 -3.15392 0
M  V30 5606 H 539.367 -1.26486 -3.44088 0
M  V30 5607 H 539.015 0.670684 -4.98509 0
M  V30 5608 H 538.715 -0.879638 -5.80979 0
M  V30 5609 H 540.239 0.00448788 -6.106 0
M  V30 5610 H 541.653 -2.1279 -5.32347 0
M  V30 5611 H 540.05 -2.91522 -5.24533 0
M  V30 5612 H 541.12 -2.97019 -3.83286 0
M  V30 5613 N 542.463 1.3308 -0.844243 0
M  V30 5614 C 543.688 2.02341 -0.455282 0
M  V30 5615 C 544.113 1.6308 0.93737 0
M  V30 5616 O 543.471 0.826118 1.61385 0
M  V30 5617 C 543.519 3.55743 -0.58988 0
M  V30 5618 O 542.623 4.1063 0.38166 0
M  V30 5619 H 541.964 0.637898 -0.184343 0
M  V30 5620 H 544.494 1.6986 -1.14056 0
M  V30 5621 H 544.504 4.05243 -0.473522 0
M  V30 5622 H 543.179 3.83662 -1.60549 0
M  V30 5623 H 541.756 3.72236 0.22241 0
M  V30 5624 N 543.941 0.601185 1.45683 0
M  V30 5625 C 545.188 0.0938811 2.02282 0
M  V30 5626 C 545.516 -1.27315 1.47041 0
M  V30 5627 O 544.771 -1.85193 0.632623 0
M  V30 5628 C 545.07 -0.00222425 3.574 0
M  V30 5629 C 544.736 1.29963 4.31764 0
M  V30 5630 C 543.398 1.65625 4.51798 0
M  V30 5631 C 545.75 2.1603 4.74321 0
M  V30 5632 C 543.078 2.87119 5.11644 0
M  V30 5633 C 545.43 3.36766 5.3551 0
M  V30 5634 C 544.094 3.72689 5.53768 0
M  V30 5635 H 543.364 0.0343535 0.740203 0
M  V30 5636 H 546.011 0.781522 1.74827 0
M  V30 5637 H 544.316 -0.773096 3.84097 0
M  V30 5638 H 546.013 -0.410794 3.9889 0
M  V30 5639 H 542.603 1.01204 4.1648 0
M  V30 5640 H 546.787 1.89778 4.58582 0
M  V30 5641 H 542.043 3.15065 5.2397 0
M  V30 5642 H 546.217 4.03713 5.67441 0
M  V30 5643 H 543.844 4.66918 5.99909 0
M  V30 5644 N 545.419 -1.53889 0.339982 0
M  V30 5645 C 546.659 -2.02765 -0.258011 0
M  V30 5646 C 547.023 -1.22249 -1.48051 0
M  V30 5647 O 548.224 -1.61007 -2.15245 0
M  V30 5648 C 546.495 -3.5286 -0.567872 0
M  V30 5649 S 548.054 -4.23647 -1.14318 0
M  V30 5650 H 544.872 -0.706814 -0.0770389 0
M  V30 5651 H 547.474 -1.89594 0.476917 0
M  V30 5652 H 546.178 -4.09073 0.329745 0
M  V30 5653 H 545.709 -3.70144 -1.33256 0
M  V30 5654 H 547.724 -4.32676 -2.42911 0
M  V30 5655 N 546.897 -0.0685191 -1.57451 0
M  V30 5656 C 548.143 0.602239 -1.93652 0
M  V30 5657 C 548.476 1.6946 -0.948526 0
M  V30 5658 O 547.751 1.94487 0.022782 0
M  V30 5659 C 548.034 1.18223 -3.4014 0
M  V30 5660 C 547.887 0.0967431 -4.49696 0
M  V30 5661 C 549.206 2.08872 -3.87377 0
M  V30 5662 H 546.325 0.217453 -0.70419 0
M  V30 5663 H 548.967 -0.133821 -1.89528 0
M  V30 5664 H 547.117 1.80953 -3.43785 0
M  V30 5665 H 548.789 -0.536155 -4.58174 0
M  V30 5666 H 547.032 -0.573063 -4.29998 0
M  V30 5667 H 547.703 0.542894 -5.49324 0
M  V30 5668 H 550.179 1.56081 -3.85717 0
M  V30 5669 H 549.055 2.46389 -4.90493 0
M  V30 5670 H 549.316 2.99572 -3.25129 0
M  V30 5671 N 548.375 1.56261 0.205012 0
M  V30 5672 C 549.624 1.79236 0.925058 0
M  V30 5673 C 549.937 0.640011 1.84833 0
M  V30 5674 O 551.143 0.753809 2.60826 0
M  V30 5675 C 549.599 3.17475 1.69522 0
M  V30 5676 C 549.207 4.40482 0.817269 0
M  V30 5677 C 550.951 3.49766 2.4055 0
M  V30 5678 C 548.858 5.69744 1.58573 0
M  V30 5679 H 547.788 0.668287 0.349153 0
M  V30 5680 H 550.439 1.82629 0.178544 0
M  V30 5681 H 548.821 3.08304 2.48526 0
M  V30 5682 H 549.995 4.60752 0.0665988 0
M  V30 5683 H 548.31 4.15827 0.218316 0
M  V30 5684 H 550.907 4.43573 2.98575 0
M  V30 5685 H 551.25 2.73041 3.14252 0
M  V30 5686 H 551.783 3.60341 1.68522 0
M  V30 5687 H 548.522 6.49407 0.891679 0
M  V30 5688 H 548.042 5.53509 2.31059 0
M  V30 5689 H 549.721 6.1051 2.14212 0
M  V30 5690 N 549.853 -0.472356 1.50355 0
M  V30 5691 C 551.1 -1.22453 1.61281 0
M  V30 5692 C 551.428 -1.91972 0.31256 0
M  V30 5693 O 550.683 -1.82696 -0.701475 0
M  V30 5694 C 550.982 -2.29257 2.74182 0
M  V30 5695 C 550.648 -1.76999 4.14708 0
M  V30 5696 C 549.31 -1.62467 4.52944 0
M  V30 5697 C 551.662 -1.38215 5.0254 0
M  V30 5698 C 548.99 -1.07574 5.76754 0
M  V30 5699 C 551.342 -0.847638 6.26895 0
M  V30 5700 C 550.006 -0.688946 6.63935 0
M  V30 5701 H 549.276 -0.448087 0.590168 0
M  V30 5702 H 551.923 -0.520744 1.84284 0
M  V30 5703 H 550.228 -3.05538 2.45263 0
M  V30 5704 H 551.925 -2.87212 2.7984 0
M  V30 5705 H 548.515 -1.89276 3.84542 0
M  V30 5706 H 552.699 -1.48276 4.73633 0
M  V30 5707 H 547.955 -0.940237 6.04127 0
M  V30 5708 H 552.129 -0.538455 6.94315 0
M  V30 5709 H 549.756 -0.261435 7.5975 0
M  V30 5710 N 551.331 -1.39911 -0.725443 0
M  V30 5711 C 552.58 -1.36963 -1.48068 0
M  V30 5712 C 552.893 0.0284478 -1.95579 0
M  V30 5713 O 554.099 0.180535 -2.70899 0
M  V30 5714 C 552.555 -2.40664 -2.67598 0
M  V30 5715 C 552.163 -3.86234 -2.26997 0
M  V30 5716 C 553.907 -2.46807 -3.45379 0
M  V30 5717 C 551.814 -4.81554 -3.43307 0
M  V30 5718 H 550.744 -0.509223 -0.556065 0
M  V30 5719 H 553.395 -1.65602 -0.790454 0
M  V30 5720 H 551.777 -2.05109 -3.38742 0
M  V30 5721 H 552.951 -4.3088 -1.63337 0
M  V30 5722 H 551.266 -3.83475 -1.62284 0
M  V30 5723 H 553.863 -3.15213 -4.31909 0
M  V30 5724 H 554.206 -1.49552 -3.8851 0
M  V30 5725 H 554.739 -2.81303 -2.81271 0
M  V30 5726 H 551.478 -5.80106 -3.05217 0
M  V30 5727 H 550.998 -4.4158 -4.05915 0
M  V30 5728 H 552.677 -5.0091 -4.0951 0
M  V30 5729 N 552.809 0.956637 -1.25245 0
M  V30 5730 C 554.055 1.70352 -1.10036 0
M  V30 5731 C 554.388 1.90869 0.358156 0
M  V30 5732 O 553.663 1.47819 1.26411 0
M  V30 5733 C 553.946 3.08766 -1.85298 0
M  V30 5734 C 553.799 2.95672 -3.38966 0
M  V30 5735 C 555.118 4.08622 -1.63451 0
M  V30 5736 H 552.237 0.618279 -0.401123 0
M  V30 5737 H 554.879 1.11212 -1.54051 0
M  V30 5738 H 553.029 3.59252 -1.47887 0
M  V30 5739 H 554.701 2.52527 -3.86041 0
M  V30 5740 H 552.944 2.31634 -3.6678 0
M  V30 5741 H 553.615 3.93776 -3.86839 0
M  V30 5742 H 556.091 3.67038 -1.96015 0
M  V30 5743 H 554.967 5.03514 -2.18551 0
M  V30 5744 H 555.228 4.3834 -0.575357 0
M  V30 5745 N 554.287 1.06798 1.15896 0
M  V30 5746 C 555.533 0.788934 1.86825 0
M  V30 5747 C 555.866 -0.683084 1.8179 0
M  V30 5748 O 555.141 -1.50086 1.23711 0
M  V30 5749 C 555.424 1.29065 3.36176 0
M  V30 5750 C 555.277 2.8268 3.49874 0
M  V30 5751 C 556.596 0.902655 4.30744 0
M  V30 5752 H 553.715 0.288066 0.678371 0
M  V30 5753 H 556.357 1.32479 1.36195 0
M  V30 5754 H 554.507 0.834806 3.79425 0
M  V30 5755 H 556.179 3.36511 3.15528 0
M  V30 5756 H 554.422 3.21157 2.91617 0
M  V30 5757 H 555.093 3.12852 4.54783 0
M  V30 5758 H 557.569 1.29535 3.95424 0
M  V30 5759 H 556.445 1.28111 5.3374 0
M  V30 5760 H 556.706 -0.191951 4.41683 0
M  V30 5761 N 555.766 -1.3263 0.851289 0
M  V30 5762 C 557.182 -1.50162 0.5407 0
M  V30 5763 C 557.382 -1.78788 -0.929369 0
M  V30 5764 O 556.438 -1.85545 -1.71258 0
M  V30 5765 C 557.751 -2.64803 1.42478 0
M  V30 5766 C 559.299 -2.78688 1.42485 0
M  V30 5767 C 559.774 -3.96405 2.29407 0
M  V30 5768 N 561.265 -4.0366 2.27184 0
M  V30 5769 C 562 -4.93971 2.9117 0
M  V30 5770 N 561.496 -5.89313 3.64256 0
M  V30 5771 N 563.289 -4.87066 2.80576 0
M  V30 5772 H 555.44 -1.12315 1.80275 0
M  V30 5773 H 557.703 -0.553266 0.769806 0
M  V30 5774 H 557.409 -2.50368 2.46999 0
M  V30 5775 H 557.283 -3.60506 1.10974 0
M  V30 5776 H 559.67 -2.92547 0.387304 0
M  V30 5777 H 559.751 -1.83708 1.78002 0
M  V30 5778 H 559.395 -3.83304 3.33228 0
M  V30 5779 H 559.325 -4.90654 1.91224 0
M  V30 5780 H 561.816 -3.35435 1.74045 0
M  V30 5781 H 562.129 -6.54913 4.10255 0
M  V30 5782 H 560.474 -5.8935 3.68364 0
M  V30 5783 H 563.665 -4.11552 2.23031 0
M  V30 5784 H 563.838 -5.57248 3.30725 0
M  V30 5785 N 557.244 -0.608902 -1.45362 0
M  V30 5786 C 558.469 -0.10921 -2.07112 0
M  V30 5787 C 558.894 1.19779 -1.45033 0
M  V30 5788 O 558.252 1.72961 -0.543527 0
M  V30 5789 C 558.3 0.0155745 -3.60597 0
M  V30 5790 O 557.404 1.06546 -3.98399 0
M  V30 5791 H 556.745 -0.0746619 -0.659789 0
M  V30 5792 H 559.275 -0.839283 -1.86594 0
M  V30 5793 H 559.285 0.213364 -4.07442 0
M  V30 5794 H 557.96 -0.938765 -4.05167 0
M  V30 5795 H 556.537 0.844024 -3.63223 0
M  V30 5796 N 558.722 1.53707 -0.348139 0
M  V30 5797 C 559.962 2.02899 0.247254 0
M  V30 5798 C 560.326 1.23033 1.47401 0
M  V30 5799 O 561.527 1.62146 2.14388 0
M  V30 5800 C 559.798 3.53156 0.549151 0
M  V30 5801 S 561.357 4.24247 1.1207 0
M  V30 5802 H 558.175 0.707213 0.0732894 0
M  V30 5803 H 560.777 1.89338 -0.486965 0
M  V30 5804 H 559.481 4.08893 -0.351435 0
M  V30 5805 H 559.012 3.70845 1.31291 0
M  V30 5806 H 561.027 4.33958 2.40613 0
M  V30 5807 N 560.2 0.0768682 1.57412 0
M  V30 5808 C 561.616 -0.279772 1.57129 0
M  V30 5809 C 561.816 -1.69688 1.08666 0
M  V30 5810 O 560.872 -2.40953 0.754843 0
M  V30 5811 C 562.185 -0.0848055 3.0058 0
M  V30 5812 C 563.733 -0.153954 3.12621 0
M  V30 5813 C 564.208 0.0127946 4.57998 0
M  V30 5814 N 565.699 -0.0426435 4.6318 0
M  V30 5815 C 566.434 0.0618892 5.73367 0
M  V30 5816 N 565.93 0.220229 6.9245 0
M  V30 5817 N 567.723 0.00446072 5.621 0
M  V30 5818 H 559.874 1.00297 1.87228 0
M  V30 5819 H 562.137 0.391565 0.863354 0
M  V30 5820 H 561.843 0.89325 3.40168 0
M  V30 5821 H 561.717 -0.834961 3.67843 0
M  V30 5822 H 564.104 -1.1225 2.72917 0
M  V30 5823 H 564.185 0.627389 2.47987 0
M  V30 5824 H 563.829 0.978128 4.98392 0
M  V30 5825 H 563.759 -0.788016 5.20671 0
M  V30 5826 H 566.25 -0.163226 3.77547 0
M  V30 5827 H 566.563 0.291999 7.72248 0
M  V30 5828 H 564.908 0.255658 6.9453 0
M  V30 5829 H 568.099 -0.117979 4.67951 0
M  V30 5830 H 568.272 0.0893796 6.47938 0
M  V30 5831 N 561.678 -1.56367 -0.196722 0
M  V30 5832 C 562.625 -1.94417 -1.24382 0
M  V30 5833 C 563.595 -0.804543 -1.45315 0
M  V30 5834 O 564.78 -1.06256 -1.58475 0
M  V30 5835 C 561.92 -2.28757 -2.58388 0
M  V30 5836 C 561.033 -3.55775 -2.45047 0
M  V30 5837 C 560.168 -3.79445 -3.71746 0
M  V30 5838 C 559.207 -4.99894 -3.53231 0
M  V30 5839 N 558.344 -5.19826 -4.71938 0
M  V30 5840 H 563.184 -2.83691 -0.912338 0
M  V30 5841 H 560.721 -1.40392 -0.439135 0
M  V30 5842 H 562.679 -2.46682 -3.36457 0
M  V30 5843 H 561.309 -1.42625 -2.89582 0
M  V30 5844 H 560.361 -3.45905 -1.58284 0
M  V30 5845 H 561.673 -4.44 -2.27299 0
M  V30 5846 H 560.827 -3.97601 -4.58256 0
M  V30 5847 H 559.566 -2.89546 -3.92446 0
M  V30 5848 H 558.571 -4.81662 -2.65107 0
M  V30 5849 H 559.796 -5.913 -3.33978 0
M  V30 5850 H 557.742 -4.32875 -4.92905 0
M  V30 5851 H 557.659 -6.02228 -4.57009 0
M  V30 5852 H 558.927 -5.42439 -5.59803 0
M  V30 5853 N 563.156 0.464375 -1.50603 0
M  V30 5854 C 564.103 1.56152 -1.69956 0
M  V30 5855 C 565.073 1.57046 -0.54091 0
M  V30 5856 O 566.258 1.74473 -0.772258 0
M  V30 5857 C 563.398 2.94079 -1.80586 0
M  V30 5858 C 562.511 3.02923 -3.07996 0
M  V30 5859 C 561.646 4.31806 -3.09382 0
M  V30 5860 C 560.685 4.34417 -4.31218 0
M  V30 5861 N 559.822 5.54782 -4.30304 0
M  V30 5862 H 564.662 1.38955 -2.6362 0
M  V30 5863 H 562.199 0.675482 -1.30674 0
M  V30 5864 H 564.157 3.74073 -1.8473 0
M  V30 5865 H 562.787 3.09896 -0.903556 0
M  V30 5866 H 561.839 2.1576 -3.13292 0
M  V30 5867 H 563.151 3.00712 -3.97962 0
M  V30 5868 H 562.305 5.20153 -3.12292 0
M  V30 5869 H 561.044 4.36636 -2.17257 0
M  V30 5870 H 560.049 3.44467 -4.28512 0
M  V30 5871 H 561.274 4.31273 -5.24576 0
M  V30 5872 H 559.22 5.60384 -3.41037 0
M  V30 5873 H 559.137 5.54339 -5.14047 0
M  V30 5874 H 560.405 6.45235 -4.3737 0
M  V30 5875 N 564.634 1.40294 0.718013 0
M  V30 5876 C 565.859 1.41941 1.5122 0
M  V30 5877 C 566.284 0.0202371 1.88089 0
M  V30 5878 O 565.642 -0.971078 1.53101 0
M  V30 5879 C 565.69 2.3141 2.76554 0
M  V30 5880 O 564.794 1.75567 3.73162 0
M  V30 5881 H 564.135 0.482644 0.456016 0
M  V30 5882 H 566.665 1.84494 0.884478 0
M  V30 5883 H 566.675 2.46513 3.25108 0
M  V30 5884 H 565.35 3.33085 2.49053 0
M  V30 5885 H 563.927 1.69798 3.31999 0
M  V30 5886 N 566.112 -0.949982 1.2575 0
M  V30 5887 C 567.075 -2.02894 1.06615 0
M  V30 5888 C 568.075 -1.60791 0.0173905 0
M  V30 5889 O 569.265 -1.72249 0.260003 0
M  V30 5890 C 566.397 -3.35219 0.619751 0
M  V30 5891 H 567.59 -2.21302 2.02399 0
M  V30 5892 H 565.143 -1.12772 1.08223 0
M  V30 5893 H 565.878 -3.22508 -0.340486 0
M  V30 5894 H 565.663 -3.67129 1.37692 0
M  V30 5895 H 567.153 -4.14505 0.507443 0
M  V30 5896 N 567.59 -1.07411 -1.15328 0
M  V30 5897 C 569.006 -0.799759 -1.38116 0
M  V30 5898 C 569.206 0.59572 -1.92493 0
M  V30 5899 O 568.262 1.35433 -2.13106 0
M  V30 5900 C 569.575 -1.87407 -2.35158 0
M  V30 5901 C 571.123 -1.89889 -2.48819 0
M  V30 5902 C 571.598 -2.96406 -3.49153 0
M  V30 5903 N 573.089 -2.95512 -3.56689 0
M  V30 5904 C 573.824 -3.74575 -4.34144 0
M  V30 5905 N 573.32 -4.63488 -5.14928 0
M  V30 5906 N 575.113 -3.62919 -4.29239 0
M  V30 5907 H 567.264 -1.97411 -0.78374 0
M  V30 5908 H 569.527 -0.856113 -0.407154 0
M  V30 5909 H 569.233 -2.8768 -2.0232 0
M  V30 5910 H 569.107 -1.73471 -3.34944 0
M  V30 5911 H 571.494 -0.902677 -2.80955 0
M  V30 5912 H 571.575 -2.07904 -1.49029 0
M  V30 5913 H 571.219 -3.96227 -3.17752 0
M  V30 5914 H 571.149 -2.75638 -4.48699 0
M  V30 5915 H 573.64 -2.31061 -2.99031 0
M  V30 5916 H 573.953 -5.20445 -5.71276 0
M  V30 5917 H 572.298 -4.67537 -5.14232 0
M  V30 5918 H 575.489 -2.92833 -3.65194 0
M  V30 5919 H 575.662 -4.24777 -4.89355 0
M  V30 5920 N 569.068 1.32177 -0.85831 0
M  V30 5921 C 570.479 1.79381 -0.517621 0
M  V30 5922 C 570.83 1.70841 0.964769 0
M  V30 5923 O 569.955 1.26917 1.75274 0
M  V30 5924 C 570.55 3.25706 -0.932801 0
M  V30 5925 C 569.109 3.70851 -0.643953 0
M  V30 5926 C 568.256 2.53208 -1.13054 0
M  V30 5927 H 571.207 1.19424 -1.04516 0
M  V30 5928 H 571.228 3.79673 -0.250674 0
M  V30 5929 H 570.74 3.31889 -2.01174 0
M  V30 5930 H 568.841 3.70178 0.424112 0
M  V30 5931 H 568.954 4.63495 -1.21281 0
M  V30 5932 H 567.318 2.48676 -0.550679 0
M  V30 5933 H 568.101 2.62143 -2.21666 0
M  V30 5934 N 570.547 0.616602 1.45037 0
M  V30 5935 C 571.51 -0.0871112 2.29034 0
M  V30 5936 C 572.51 -0.786414 1.40258 0
M  V30 5937 O 573.7 -0.633207 1.62284 0
M  V30 5938 C 570.832 -1.13369 3.21497 0
M  V30 5939 H 572.025 0.651497 2.92738 0
M  V30 5940 H 569.578 0.376058 1.51709 0
M  V30 5941 H 570.313 -1.90277 2.62612 0
M  V30 5942 H 570.098 -0.636358 3.86902 0
M  V30 5943 H 571.588 -1.62627 3.84633 0
M  V30 5944 N 572.025 -1.5352 0.356285 0
M  V30 5945 C 572.988 -2.24071 -0.482182 0
M  V30 5946 C 573.988 -1.24531 -1.01729 0
M  V30 5947 O 575.178 -1.48876 -0.904513 0
M  V30 5948 C 572.31 -2.97025 -1.67299 0
M  V30 5949 H 573.503 -2.99596 0.135031 0
M  V30 5950 H 571.056 -1.55928 0.107825 0
M  V30 5951 H 571.791 -2.25719 -2.32855 0
M  V30 5952 H 571.576 -3.7005 -1.29636 0
M  V30 5953 H 573.066 -3.50683 -2.26741 0
M  V30 5954 N 573.503 -0.0852151 -1.57369 0
M  V30 5955 C 574.78 0.622534 -1.85429 0
M  V30 5956 C 575.16 1.86962 -0.980229 0
M  V30 5957 O 574.508 2.28445 -0.0500219 0
M  V30 5958 C 574.718 0.947374 -3.35896 0
M  V30 5959 C 576.066 1.31509 -4.03721 0
M  V30 5960 O 577.09 1.03869 -3.40719 0
M  V30 5961 O 575.949 1.83231 -5.14868 0
M  V30 5962 H 573.043 0.310513 -0.766492 0
M  V30 5963 H 575.589 -0.117164 -1.69295 0
M  V30 5964 H 574.361 0.0622264 -3.91251 0
M  V30 5965 H 573.984 1.74338 -3.5734 0
M  V30 5966 N 574.981 1.5647 0.188427 0
M  V30 5967 C 576.227 1.81281 0.909124 0
M  V30 5968 C 576.56 0.66034 1.82628 0
M  V30 5969 O 575.835 -0.338737 1.91528 0
M  V30 5970 C 576.118 3.16388 1.7196 0
M  V30 5971 C 575.971 4.42137 0.826714 0
M  V30 5972 C 577.29 3.48256 2.69083 0
M  V30 5973 H 574.409 0.659457 0.329068 0
M  V30 5974 H 577.051 1.89182 0.176156 0
M  V30 5975 H 575.201 3.09784 2.34448 0
M  V30 5976 H 576.873 4.60794 0.216025 0
M  V30 5977 H 575.116 4.33594 0.133792 0
M  V30 5978 H 575.787 5.33184 1.42893 0
M  V30 5979 H 578.263 3.55203 2.16726 0
M  V30 5980 H 577.139 4.43899 3.2287 0
M  V30 5981 H 577.4 2.72088 3.48455 0
M  V30 5982 N 576.459 -0.456382 1.50847 0
M  V30 5983 C 577.707 -1.20497 1.62249 0
M  V30 5984 C 578.028 -1.92156 0.331839 0
M  V30 5985 O 577.298 -1.84751 -0.651443 0
M  V30 5986 H 575.878 -0.447775 0.597918 0
M  V30 5987 H 578.54 -0.525099 1.87693 0
M  V30 5988 H 577.636 -1.94492 2.44089 0
M  V30 5989 N 577.937 -1.40673 -0.710563 0
M  V30 5990 C 579.214 -1.29718 -1.46398 0
M  V30 5991 C 579.594 0.082177 -2.1094 0
M  V30 5992 O 578.942 1.09536 -2.00534 0
M  V30 5993 C 579.152 -2.43967 -2.49562 0
M  V30 5994 C 580.5 -2.84436 -3.15248 0
M  V30 5995 O 581.524 -2.43597 -2.59883 0
M  V30 5996 O 580.383 -3.55008 -4.1549 0
M  V30 5997 H 577.477 -0.509697 -0.651258 0
M  V30 5998 H 580.023 -1.52603 -0.742312 0
M  V30 5999 H 578.795 -3.36076 -2.0042 0
M  V30 6000 H 578.418 -2.22879 -3.29258 0
M  V30 6001 N 579.415 0.9433 -1.26252 0
M  V30 6002 C 580.664 1.68369 -1.11062 0
M  V30 6003 C 580.977 1.92514 0.346104 0
M  V30 6004 O 582.183 2.64358 0.618646 0
M  V30 6005 C 580.639 3.03171 -1.93946 0
M  V30 6006 C 580.247 2.86782 -3.4418 0
M  V30 6007 C 581.991 3.80916 -1.87359 0
M  V30 6008 C 579.898 4.17044 -4.19319 0
M  V30 6009 H 578.828 0.631469 -0.412023 0
M  V30 6010 H 581.479 1.04922 -1.50544 0
M  V30 6011 H 579.861 3.67587 -1.47296 0
M  V30 6012 H 581.035 2.31229 -3.98585 0
M  V30 6013 H 579.35 2.22482 -3.51981 0
M  V30 6014 H 581.947 4.77417 -2.40784 0
M  V30 6015 H 582.29 4.07658 -0.843857 0
M  V30 6016 H 582.823 3.2327 -2.31821 0
M  V30 6017 H 579.562 3.95487 -5.22753 0
M  V30 6018 H 579.082 4.72319 -3.69696 0
M  V30 6019 H 580.761 4.85513 -4.27651 0
M  V30 6020 N 580.893 1.08022 1.14757 0
M  V30 6021 C 582.141 0.805913 1.85336 0
M  V30 6022 C 582.462 -0.670162 1.83122 0
M  V30 6023 O 581.732 -1.48567 1.2769 0
M  V30 6024 H 580.312 0.295138 0.686223 0
M  V30 6025 H 582.974 1.36538 1.3908 0
M  V30 6026 H 582.07 1.14655 2.90277 0
M  V30 6027 N 582.371 -1.3172 0.865308 0
M  V30 6028 C 583.304 -2.26687 0.262376 0
M  V30 6029 C 584.282 -1.50894 -0.605787 0
M  V30 6030 O 585.466 -1.79982 -0.56024 0
M  V30 6031 C 582.593 -3.3281 -0.628915 0
M  V30 6032 C 581.639 -4.26172 0.167278 0
M  V30 6033 S 582.472 -5.12797 1.54272 0
M  V30 6034 C 583.628 -6.22438 0.657427 0
M  V30 6035 H 583.861 -2.77478 1.0674 0
M  V30 6036 H 581.394 -1.39414 0.663555 0
M  V30 6037 H 583.352 -3.94426 -1.13747 0
M  V30 6038 H 582.013 -2.80782 -1.40785 0
M  V30 6039 H 581.206 -5.01392 -0.51203 0
M  V30 6040 H 580.808 -3.69029 0.607777 0
M  V30 6041 H 583.1 -6.77368 -0.133925 0
M  V30 6042 H 584.043 -6.9451 1.38061 0
M  V30 6043 H 584.451 -5.64043 0.227044 0
M  V30 6044 N 583.85 -0.624285 -1.44708 0
M  V30 6045 C 584.797 0.0847135 -2.30644 0
M  V30 6046 C 585.767 0.843575 -1.43084 0
M  V30 6047 O 586.952 0.825982 -1.71995 0
M  V30 6048 C 584.091 1.06495 -3.28257 0
M  V30 6049 C 583.205 0.305224 -4.3092 0
M  V30 6050 C 582.34 1.27667 -5.1563 0
M  V30 6051 C 581.379 0.505706 -6.10007 0
M  V30 6052 N 580.516 1.42727 -6.8744 0
M  V30 6053 H 585.356 -0.654068 -2.90733 0
M  V30 6054 H 582.893 -0.334334 -1.4325 0
M  V30 6055 H 584.851 1.64658 -3.83332 0
M  V30 6056 H 583.481 1.77094 -2.69884 0
M  V30 6057 H 582.533 -0.392207 -3.78373 0
M  V30 6058 H 583.845 -0.295553 -4.97924 0
M  V30 6059 H 582.999 1.92984 -5.75189 0
M  V30 6060 H 581.738 1.91137 -4.48685 0
M  V30 6061 H 580.743 -0.160999 -5.49564 0
M  V30 6062 H 581.968 -0.124183 -6.78986 0
M  V30 6063 H 579.913 2.04931 -6.23169 0
M  V30 6064 H 579.831 0.880345 -7.50857 0
M  V30 6065 H 581.099 2.0695 -7.51526 0
M  V30 6066 N 585.328 1.53329 -0.364422 0
M  V30 6067 C 586.605 1.93557 0.281962 0
M  V30 6068 C 586.985 1.29786 1.6649 0
M  V30 6069 O 586.333 0.456512 2.23893 0
M  V30 6070 C 586.543 3.47405 0.333331 0
M  V30 6071 C 587.891 4.20699 0.574231 0
M  V30 6072 O 588.915 3.53779 0.414588 0
M  V30 6073 O 587.774 5.39287 0.885002 0
M  V30 6074 H 584.868 0.809573 0.168881 0
M  V30 6075 H 587.414 1.64494 -0.417121 0
M  V30 6076 H 586.186 3.86091 -0.636326 0
M  V30 6077 H 585.809 3.82697 1.07836 0
M  V30 6078 N 586.806 0.0935595 1.57322 0
M  V30 6079 C 587.769 -0.851426 2.12799 0
M  V30 6080 C 588.769 -1.21187 1.0569 0
M  V30 6081 O 589.959 -1.14156 1.31583 0
M  V30 6082 C 587.091 -2.14779 2.64731 0
M  V30 6083 H 588.284 -0.369733 2.97612 0
M  V30 6084 H 585.837 -0.155417 1.55525 0
M  V30 6085 H 586.572 -2.67437 1.83434 0
M  V30 6086 H 586.357 -1.89907 3.43042 0
M  V30 6087 H 587.847 -2.82383 3.07651 0
M  V30 6088 N 588.284 -1.56567 -0.180126 0
M  V30 6089 C 589.232 -1.96632 -1.24251 0
M  V30 6090 C 590.226 -0.853818 -1.46309 0
M  V30 6091 O 591.432 -1.0389 -1.46993 0
M  V30 6092 H 587.807 -0.625476 -0.417473 0
M  V30 6093 H 589.778 -2.85201 -0.877679 0
M  V30 6094 C 588.527 -2.33486 -2.57642 0
M  V30 6095 H 587.85 -3.18626 -2.4149 0
M  V30 6096 H 589.29 -2.65371 -3.30688 0
M  V30 6097 C 587.749 -1.17499 -3.15746 0
M  V30 6098 O 588.279 -0.457956 -3.99081 0
M  V30 6099 N 586.485 -0.94786 -2.74707 0
M  V30 6100 H 586.032 -1.53269 -2.07042 0
M  V30 6101 H 585.99 -0.173626 -3.1392 0
M  V30 6102 N 589.762 0.448376 -1.51087 0
M  V30 6103 C 590.99 1.22143 -1.66999 0
M  V30 6104 C 591.405 1.85283 -0.362699 0
M  V30 6105 O 590.762 1.70236 0.65772 0
M  V30 6106 C 590.813 2.31357 -2.7777 0
M  V30 6107 O 590.534 1.70801 -4.03434 0
M  V30 6108 C 592.035 3.21836 -3.04855 0
M  V30 6109 H 589.255 0.368558 -0.560719 0
M  V30 6110 H 591.799 0.532618 -1.97442 0
M  V30 6111 H 589.954 2.95973 -2.49958 0
M  V30 6112 H 590.368 2.42895 -4.64868 0
M  V30 6113 H 591.842 3.94627 -3.85971 0
M  V30 6114 H 592.319 3.81949 -2.16821 0
M  V30 6115 H 592.925 2.62933 -3.34285 0
M  V30 6116 N 591.24 1.41047 0.703093 0
M  V30 6117 C 592.489 1.39301 1.4587 0
M  V30 6118 C 592.802 0.00267077 1.956 0
M  V30 6119 O 594.008 -0.137414 2.71152 0
M  V30 6120 C 592.464 2.44891 2.63735 0
M  V30 6121 C 592.072 3.89796 2.20824 0
M  V30 6122 C 593.816 2.5227 3.41409 0
M  V30 6123 C 591.723 4.86955 3.35602 0
M  V30 6124 H 590.653 0.518005 0.547893 0
M  V30 6125 H 593.304 1.66839 0.764009 0
M  V30 6126 H 591.686 2.10472 3.35436 0
M  V30 6127 H 592.86 4.33424 1.56461 0
M  V30 6128 H 591.175 3.86008 1.56163 0
M  V30 6129 H 593.772 3.22044 4.26839 0
M  V30 6130 H 594.115 1.55714 3.86081 0
M  V30 6131 H 594.648 2.85742 2.7676 0
M  V30 6132 H 591.387 5.84888 2.9595 0
M  V30 6133 H 590.907 4.47982 3.98839 0
M  V30 6134 H 592.586 5.07361 4.01489 0
M  V30 6135 N 592.718 -0.936591 1.26751 0
M  V30 6136 C 594.134 -1.21095 1.03963 0
M  V30 6137 C 594.334 -2.00156 -0.232372 0
M  V30 6138 O 593.39 -2.3434 -0.940274 0
M  V30 6139 C 594.703 -1.96775 2.27377 0
M  V30 6140 C 596.251 -2.09749 2.32324 0
M  V30 6141 C 596.726 -2.88832 3.55443 0
M  V30 6142 N 598.217 -2.96404 3.55948 0
M  V30 6143 C 598.952 -3.58036 4.47881 0
M  V30 6144 N 598.448 -4.21132 5.50109 0
M  V30 6145 N 600.241 -3.55353 4.35523 0
M  V30 6146 H 592.392 -0.408173 2.08441 0
M  V30 6147 H 594.655 -0.243139 0.91629 0
M  V30 6148 H 594.361 -1.46094 3.19921 0
M  V30 6149 H 594.235 -2.97424 2.31989 0
M  V30 6150 H 596.622 -2.5962 1.40291 0
M  V30 6151 H 596.703 -1.08347 2.31721 0
M  V30 6152 H 596.347 -2.39647 4.47808 0
M  V30 6153 H 596.277 -3.90499 3.53296 0
M  V30 6154 H 598.768 -2.51552 2.82011 0
M  V30 6155 H 599.081 -4.66071 6.16439 0
M  V30 6156 H 597.426 -4.19705 5.53961 0
M  V30 6157 H 600.617 -3.05256 3.54875 0
M  V30 6158 H 600.79 -4.03097 5.07363 0
M  V30 6159 N 594.196 -1.08629 -1.14182 0
M  V30 6160 C 595.444 -0.815731 -1.84906 0
M  V30 6161 C 595.765 0.660441 -1.83475 0
M  V30 6162 O 595.035 1.47888 -1.28476 0
M  V30 6163 H 593.615 -0.298773 -0.684648 0
M  V30 6164 H 596.277 -1.37274 -1.38354 0
M  V30 6165 H 595.373 -1.16193 -2.89665 0
M  V30 6166 N 595.674 1.31259 -0.872281 0
M  V30 6167 C 596.899 2.0133 -0.498099 0
M  V30 6168 C 597.324 1.65031 0.902568 0
M  V30 6169 O 596.682 0.860164 1.59596 0
M  V30 6170 C 596.73 3.54411 -0.665205 0
M  V30 6171 O 595.834 4.11347 0.294473 0
M  V30 6172 H 595.175 0.633844 -0.197832 0
M  V30 6173 H 597.705 1.67402 -1.17633 0
M  V30 6174 H 597.715 4.04147 -0.559373 0
M  V30 6175 H 596.39 3.80171 -1.68651 0
M  V30 6176 H 594.967 3.72624 0.143403 0
M  V30 6177 N 597.152 0.631951 1.44375 0
M  V30 6178 C 598.115 -0.0628142 2.29114 0
M  V30 6179 C 599.115 -0.771494 1.41084 0
M  V30 6180 O 600.305 -0.615959 1.62947 0
M  V30 6181 C 597.437 -1.09953 3.22681 0
M  V30 6182 H 598.63 0.682509 2.92031 0
M  V30 6183 H 596.183 0.392128 1.51301 0
M  V30 6184 H 596.918 -1.87481 2.64616 0
M  V30 6185 H 596.703 -0.595286 3.87555 0
M  V30 6186 H 598.193 -1.58538 3.86336 0
M  V30 6187 N 598.631 -1.53133 0.372548 0
M  V30 6188 C 599.856 -2.0625 -0.218098 0
M  V30 6189 C 600.281 -1.24375 -1.41111 0
M  V30 6190 O 599.639 -0.264554 -1.79359 0
M  V30 6191 C 599.687 -3.55858 -0.582876 0
M  V30 6192 O 598.791 -3.76667 -1.67917 0
M  V30 6193 H 598.132 -0.663317 -0.030104 0
M  V30 6194 H 600.662 -1.97477 0.535169 0
M  V30 6195 H 600.672 -3.99007 -0.851925 0
M  V30 6196 H 599.347 -4.14892 0.289428 0
M  V30 6197 H 597.924 -3.45413 -1.40513 0
M  V30 6198 N 600.109 -0.101901 -1.5727 0
M  V30 6199 C 601.041 0.884723 -2.11436 0
M  V30 6200 C 602.054 1.24149 -1.05314 0
M  V30 6201 O 603.243 1.19341 -1.3274 0
M  V30 6202 C 600.343 2.19179 -2.58484 0
M  V30 6203 C 599.516 2.00933 -3.88516 0
M  V30 6204 C 598.575 3.15213 -4.2134 0
M  V30 6205 O 597.601 2.88877 -4.90448 0
M  V30 6206 N 598.803 4.41174 -3.77288 0
M  V30 6207 H 601.568 0.422058 -2.96713 0
M  V30 6208 H 599.129 0.0830128 -1.61687 0
M  V30 6209 H 601.121 2.94593 -2.77484 0
M  V30 6210 H 599.691 2.56847 -1.7818 0
M  V30 6211 H 598.911 1.09809 -3.78597 0
M  V30 6212 H 600.199 1.86026 -4.73573 0
M  V30 6213 H 599.597 4.6545 -3.21516 0
M  V30 6214 H 598.154 5.13515 -4.01429 0
M  V30 6215 N 601.587 1.56661 0.17182 0
M  V30 6216 C 602.835 1.81606 0.886774 0
M  V30 6217 C 603.156 0.678818 1.82803 0
M  V30 6218 O 602.426 -0.301354 1.93568 0
M  V30 6219 H 601.006 0.669934 0.330451 0
M  V30 6220 H 603.668 1.94142 0.171757 0
M  V30 6221 H 602.764 2.75634 1.46398 0
M  V30 6222 N 603.065 -0.440357 1.51323 0
M  V30 6223 C 604.013 -1.55492 1.72988 0
M  V30 6224 C 605.007 -1.58564 0.596138 0
M  V30 6225 O 606.213 -1.62345 0.777443 0
M  V30 6226 H 602.588 -0.516532 0.546533 0
M  V30 6227 H 604.559 -1.34392 2.66423 0
M  V30 6228 C 603.308 -2.93176 1.86931 0
M  V30 6229 H 602.631 -2.91543 2.73574 0
M  V30 6230 H 604.071 -3.70537 2.06103 0
M  V30 6231 C 602.53 -3.30988 0.628365 0
M  V30 6232 O 603.06 -4.01106 -0.218367 0
M  V30 6233 N 601.266 -2.86719 0.473339 0
M  V30 6234 H 600.813 -2.2983 1.16345 0
M  V30 6235 H 600.771 -3.12381 -0.355727 0
M  V30 6236 N 604.543 -1.41418 -0.695603 0
M  V30 6237 C 605.473 -1.46035 -1.82197 0
M  V30 6238 C 606.454 -0.319025 -1.67082 0
M  V30 6239 O 607.639 -0.530462 -1.86815 0
M  V30 6240 C 604.769 -1.34179 -3.20333 0
M  V30 6241 C 603.723 -2.46123 -3.50154 0
M  V30 6242 C 603.049 -2.19332 -4.87645 0
M  V30 6243 C 604.349 -3.88463 -3.49133 0
M  V30 6244 H 606.043 -2.40303 -1.78591 0
M  V30 6245 H 603.589 -1.15663 -0.857797 0
M  V30 6246 H 605.542 -1.36021 -3.98844 0
M  V30 6247 H 604.266 -0.363952 -3.24566 0
M  V30 6248 H 602.925 -2.43563 -2.73994 0
M  V30 6249 H 602.573 -1.19891 -4.88503 0
M  V30 6250 H 602.273 -2.94344 -5.08562 0
M  V30 6251 H 603.797 -2.22889 -5.68465 0
M  V30 6252 H 605.211 -3.92738 -4.17648 0
M  V30 6253 H 603.608 -4.63158 -3.81582 0
M  V30 6254 H 604.678 -4.16617 -2.48109 0
M  V30 6255 N 606.021 0.929856 -1.27246 0
M  V30 6256 C 607.249 1.71144 -1.16265 0
M  V30 6257 C 607.664 1.867 0.280786 0
M  V30 6258 O 607.021 1.38249 1.19136 0
M  V30 6259 C 607.072 3.11222 -1.83911 0
M  V30 6260 O 606.793 2.96398 -3.22614 0
M  V30 6261 C 608.294 4.05541 -1.79028 0
M  V30 6262 H 605.514 0.535499 -0.404328 0
M  V30 6263 H 608.058 1.16492 -1.68077 0
M  V30 6264 H 606.213 3.6274 -1.36009 0
M  V30 6265 H 606.627 3.8494 -3.56261 0
M  V30 6266 H 608.101 5.01351 -2.30978 0
M  V30 6267 H 608.578 4.32589 -0.759168 0
M  V30 6268 H 609.184 3.59947 -2.26535 0
M  V30 6269 N 607.499 1.09233 1.13605 0
M  V30 6270 C 608.409 0.741939 2.22559 0
M  V30 6271 C 609.425 -0.255236 1.72118 0
M  V30 6272 O 610.601 -0.0970747 2.01166 0
M  V30 6273 C 607.666 0.165595 3.46304 0
M  V30 6274 C 606.727 1.21846 4.11645 0
M  V30 6275 C 605.96 0.669526 5.29484 0
M  V30 6276 O 606.183 -0.508228 5.68131 0
M  V30 6277 O 605.117 1.42361 5.84822 0
M  V30 6278 H 608.943 1.65107 2.54899 0
M  V30 6279 H 606.528 0.866584 1.21699 0
M  V30 6280 H 608.41 -0.152592 4.21124 0
M  V30 6281 H 607.085 -0.716573 3.15669 0
M  V30 6282 H 605.992 1.58931 3.38662 0
M  V30 6283 H 607.325 2.07321 4.46407 0
M  V30 6284 N 608.977 -1.30795 0.87923 0
M  V30 6285 C 610.202 -2.01063 0.508769 0
M  V30 6286 C 610.627 -1.65508 -0.893803 0
M  V30 6287 O 609.985 -0.868616 -1.59138 0
M  V30 6288 C 610.033 -3.54054 0.683991 0
M  V30 6289 O 609.137 -4.11498 -0.272654 0
M  V30 6290 H 608.478 -0.632786 0.201191 0
M  V30 6291 H 611.008 -1.66776 1.18519 0
M  V30 6292 H 611.018 -4.03845 0.580798 0
M  V30 6293 H 609.693 -3.79271 1.70665 0
M  V30 6294 H 608.27 -3.72695 -0.12364 0
M  V30 6295 N 610.455 -0.639598 -1.44038 0
M  V30 6296 C 611.701 -0.156248 -2.02799 0
M  V30 6297 C 612.056 1.21145 -1.49471 0
M  V30 6298 O 611.349 1.79406 -0.672608 0
M  V30 6299 C 611.543 -0.0925348 -3.5728 0
M  V30 6300 C 611.372 -1.45252 -4.25596 0
M  V30 6301 C 610.142 -2.04145 -4.62226 0
M  V30 6302 C 612.34 -2.38812 -4.55492 0
M  V30 6303 N 610.322 -3.3329 -5.15549 0
M  V30 6304 C 611.693 -3.52578 -5.09989 0
M  V30 6305 C 613.748 -2.37785 -4.3745 0
M  V30 6306 C 612.451 -4.65525 -5.48342 0
M  V30 6307 C 614.477 -3.49802 -4.76857 0
M  V30 6308 C 613.839 -4.62292 -5.31475 0
M  V30 6309 H 609.938 -0.101292 -0.775412 0
M  V30 6310 H 612.522 -0.844938 -1.75411 0
M  V30 6311 H 610.693 0.565459 -3.84262 0
M  V30 6312 H 612.425 0.400426 -4.02714 0
M  V30 6313 H 609.18 -1.56999 -4.4682 0
M  V30 6314 H 609.604 -3.9934 -5.46678 0
M  V30 6315 H 614.246 -1.52061 -3.94509 0
M  V30 6316 H 611.964 -5.51951 -5.90233 0
M  V30 6317 H 615.55 -3.50193 -4.64603 0
M  V30 6318 H 614.43 -5.47536 -5.61403 0
M  V30 6319 N 611.933 1.52934 -0.380664 0
M  V30 6320 C 612.896 2.24809 0.446473 0
M  V30 6321 C 613.896 1.26133 0.997347 0
M  V30 6322 O 615.086 1.50297 0.880714 0
M  V30 6323 C 612.218 2.99649 1.62553 0
M  V30 6324 H 613.411 2.99343 -0.182677 0
M  V30 6325 H 610.964 1.55736 -0.132618 0
M  V30 6326 H 611.699 2.29395 2.29235 0
M  V30 6327 H 611.484 3.72066 1.23732 0
M  V30 6328 H 612.974 3.54246 2.21133 0
M  V30 6329 N 613.412 0.11024 1.57214 0
M  V30 6330 C 614.689 -0.592956 1.86396 0
M  V30 6331 C 615.069 -1.85379 1.00985 0
M  V30 6332 O 614.417 -2.28337 0.0863592 0
M  V30 6333 C 614.627 -0.893816 3.3736 0
M  V30 6334 C 615.975 -1.25069 4.05762 0
M  V30 6335 O 616.999 -0.984356 3.42329 0
M  V30 6336 O 615.858 -1.75017 5.17718 0
M  V30 6337 H 612.952 -0.29828 0.771335 0
M  V30 6338 H 615.498 0.144083 1.69087 0
M  V30 6339 H 614.27 2.6031e-05 3.913 0
M  V30 6340 H 613.893 -1.68631 3.60068 0
M  V30 6341 N 614.89 -1.56749 -0.16351 0
M  V30 6342 C 616.167 -1.73321 -0.906599 0
M  V30 6343 C 616.547 -0.673779 -2.00059 0
M  V30 6344 O 615.895 0.310121 -2.26386 0
M  V30 6345 C 616.105 -3.168 -1.46419 0
M  V30 6346 C 617.453 -3.77993 -1.93407 0
M  V30 6347 O 618.477 -3.20127 -1.56196 0
M  V30 6348 O 617.336 -4.79615 -2.61976 0
M  V30 6349 H 614.43 -0.708073 -0.427272 0
M  V30 6350 H 616.976 -1.69029 -0.150727 0
M  V30 6351 H 615.748 -3.85396 -0.677189 0
M  V30 6352 H 615.371 -3.2545 -2.28403 0
M  V30 6353 N 616.368 0.432326 -1.51554 0
M  V30 6354 C 617.316 1.54572 -1.73811 0
M  V30 6355 C 618.31 1.58246 -0.604539 0
M  V30 6356 O 619.516 1.6193 -0.786041 0
M  V30 6357 H 615.891 0.513626 -0.549265 0
M  V30 6358 H 617.862 1.32977 -2.67132 0
M  V30 6359 C 616.611 2.92181 -1.88483 0
M  V30 6360 H 615.934 2.90088 -2.75116 0
M  V30 6361 H 617.374 3.69439 -2.08065 0
M  V30 6362 C 615.833 3.3065 -0.645909 0
M  V30 6363 O 616.363 4.01216 0.197093 0
M  V30 6364 N 614.569 2.86464 -0.488538 0
M  V30 6365 H 614.116 2.29209 -1.17562 0
M  V30 6366 H 614.074 3.12565 0.339156 0
M  V30 6367 N 617.846 1.41785 0.688094 0
M  V30 6368 C 619.257 1.3701 1.26828 0
M  V30 6369 C 619.608 0.056835 1.96118 0
M  V30 6370 O 618.733 -0.84475 1.99231 0
M  V30 6371 C 619.328 2.48168 2.30648 0
M  V30 6372 C 617.887 2.46766 2.84224 0
M  V30 6373 C 617.034 2.27633 1.58361 0
M  V30 6374 H 619.985 1.51192 0.482351 0
M  V30 6375 H 620.006 2.17655 3.121 0
M  V30 6376 H 619.518 3.43735 1.80188 0
M  V30 6377 H 617.619 1.54978 3.3884 0
M  V30 6378 H 617.732 3.43342 3.34145 0
M  V30 6379 H 616.096 1.75648 1.84445 0
M  V30 6380 H 616.879 3.25238 1.09887 0
M  V30 6381 N 619.324 -0.923095 1.27737 0
M  V30 6382 C 620.74 -1.19985 1.05241 0
M  V30 6383 C 620.94 -2.00391 -0.21113 0
M  V30 6384 O 619.996 -2.35324 -0.915366 0
M  V30 6385 C 621.309 -1.94352 2.29451 0
M  V30 6386 C 622.857 -2.07273 2.34536 0
M  V30 6387 C 623.332 -2.85046 3.58487 0
M  V30 6388 N 624.823 -2.92612 3.59072 0
M  V30 6389 C 625.558 -3.53266 4.51654 0
M  V30 6390 N 625.054 -4.15274 5.54545 0
M  V30 6391 N 626.847 -3.50714 4.39268 0
M  V30 6392 H 618.998 -0.386042 2.08862 0
M  V30 6393 H 621.261 -0.233407 0.918817 0
M  V30 6394 H 620.967 -1.42692 3.21453 0
M  V30 6395 H 620.841 -2.94947 2.3513 0
M  V30 6396 H 623.228 -2.58117 1.43037 0
M  V30 6397 H 623.309 -1.05884 2.32857 0
M  V30 6398 H 622.953 -2.34884 4.50324 0
M  V30 6399 H 622.883 -3.8673 3.57418 0
M  V30 6400 H 625.374 -2.48547 2.84663 0
M  V30 6401 H 625.687 -4.59507 6.21348 0
M  V30 6402 H 624.032 -4.13806 5.58382 0
M  V30 6403 H 627.223 -3.01475 3.58093 0
M  V30 6404 H 627.396 -3.97693 5.1161 0
M  V30 6405 N 620.802 -1.09834 -1.13024 0
M  V30 6406 C 621.752 -0.710899 -2.16634 0
M  V30 6407 C 622.736 0.276836 -1.58501 0
M  V30 6408 O 623.928 0.0865457 -1.76788 0
M  V30 6409 C 621.057 -0.137574 -3.43024 0
M  V30 6410 C 620.143 -1.15198 -4.08155 0
M  V30 6411 N 620.534 -2.34054 -4.48388 0
M  V30 6412 C 618.832 -0.991074 -4.34849 0
M  V30 6413 C 619.533 -2.98616 -4.99203 0
M  V30 6414 N 618.509 -2.26159 -4.94321 0
M  V30 6415 H 622.311 -1.61576 -2.455 0
M  V30 6416 H 619.825 -0.975158 -1.29863 0
M  V30 6417 H 621.822 0.158031 -4.166 0
M  V30 6418 H 620.482 0.762088 -3.1563 0
M  V30 6419 H 621.493 -2.7162 -4.40957 0
M  V30 6420 H 618.17 -0.146448 -4.17243 0
M  V30 6421 H 619.56 -3.99683 -5.40096 0
M  V30 6422 N 622.28 1.30327 -0.886154 0
M  V30 6423 C 623.23 2.25668 -0.325248 0
M  V30 6424 C 624.214 1.51318 0.546972 0
M  V30 6425 O 625.406 1.72623 0.391203 0
M  V30 6426 C 622.535 3.40229 0.458167 0
M  V30 6427 C 621.621 4.21933 -0.428208 0
M  V30 6428 N 622.012 4.82129 -1.52921 0
M  V30 6429 C 620.31 4.45439 -0.223535 0
M  V30 6430 C 621.011 5.43351 -2.07714 0
M  V30 6431 N 619.987 5.26002 -1.37195 0
M  V30 6432 H 623.789 2.69759 -1.1665 0
M  V30 6433 H 621.303 1.4478 -0.735691 0
M  V30 6434 H 623.3 4.07579 0.876648 0
M  V30 6435 H 621.96 2.97678 1.29684 0
M  V30 6436 H 622.971 4.81312 -1.91205 0
M  V30 6437 H 619.648 4.13481 0.577875 0
M  V30 6438 H 621.038 6.01118 -3.00178 0
M  V30 6439 N 623.758 0.647228 1.43697 0
M  V30 6440 C 625.006 0.157876 2.01482 0
M  V30 6441 C 625.327 -1.23039 1.51282 0
M  V30 6442 O 624.597 -1.82071 0.722982 0
M  V30 6443 H 623.177 0.0553745 0.744945 0
M  V30 6444 H 625.839 0.83755 1.75986 0
M  V30 6445 H 624.935 0.137895 3.11795 0
M  V30 6446 N 625.236 -1.5273 0.388769 0
M  V30 6447 C 626.166 -2.29353 -0.438111 0
M  V30 6448 C 627.147 -1.32719 -1.06394 0
M  V30 6449 O 628.332 -1.61612 -1.07681 0
M  V30 6450 C 625.462 -3.09995 -1.56589 0
M  V30 6451 C 624.416 -4.14509 -1.06613 0
M  V30 6452 C 623.742 -4.83372 -2.28594 0
M  V30 6453 C 625.042 -5.22127 -0.134459 0
M  V30 6454 H 626.736 -2.98723 0.201206 0
M  V30 6455 H 624.282 -1.43665 0.0982089 0
M  V30 6456 H 626.235 -3.62357 -2.15118 0
M  V30 6457 H 624.959 -2.38357 -2.23279 0
M  V30 6458 H 623.618 -3.63128 -0.503383 0
M  V30 6459 H 623.266 -4.08283 -2.93792 0
M  V30 6460 H 622.966 -5.54012 -1.95817 0
M  V30 6461 H 624.49 -5.38538 -2.87766 0
M  V30 6462 H 625.904 -5.69851 -0.627914 0
M  V30 6463 H 624.301 -6.00011 0.103534 0
M  V30 6464 H 625.371 -4.77971 0.816798 0
M  V30 6465 N 626.714 -0.118576 -1.57153 0
M  V30 6466 C 627.677 0.817464 -2.14127 0
M  V30 6467 C 628.677 1.1949 -1.07604 0
M  V30 6468 O 629.867 1.12048 -1.33382 0
M  V30 6469 C 626.999 2.10541 -2.68115 0
M  V30 6470 H 628.192 0.322339 -2.98163 0
M  V30 6471 H 625.745 0.130655 -1.55753 0
M  V30 6472 H 626.48 2.64485 -1.87665 0
M  V30 6473 H 626.265 1.84425 -3.4602 0
M  V30 6474 H 627.755 2.77453 -3.12105 0
M  V30 6475 N 628.193 1.56834 0.155195 0
M  V30 6476 C 629.156 1.96748 1.17571 0
M  V30 6477 C 630.156 0.853006 1.3631 0
M  V30 6478 O 631.346 1.11978 1.33441 0
M  V30 6479 C 628.478 2.27631 2.53765 0
M  V30 6480 H 629.671 2.88085 0.833498 0
M  V30 6481 H 627.224 1.51141 0.398242 0
M  V30 6482 H 627.959 1.39059 2.92973 0
M  V30 6483 H 627.744 3.0888 2.41527 0
M  V30 6484 H 629.234 2.59377 3.27282 0
M  V30 6485 N 629.671 -0.424282 1.51781 0
M  V30 6486 C 630.621 -1.51464 1.70419 0
M  V30 6487 C 631.605 -1.50911 0.558094 0
M  V30 6488 O 632.797 -1.57143 0.814552 0
M  V30 6489 C 629.926 -2.89539 1.84451 0
M  V30 6490 C 629.012 -2.94798 3.04886 0
M  V30 6491 N 629.403 -2.69778 4.27848 0
M  V30 6492 C 627.701 -3.25962 3.04408 0
M  V30 6493 C 628.402 -2.81216 5.09208 0
M  V30 6494 N 627.378 -3.13447 4.44131 0
M  V30 6495 H 631.18 -1.30892 2.63144 0
M  V30 6496 H 628.694 -0.631783 1.49607 0
M  V30 6497 H 630.691 -3.67998 1.95917 0
M  V30 6498 H 629.351 -3.11121 0.929168 0
M  V30 6499 H 630.362 -2.44458 4.56575 0
M  V30 6500 H 627.039 -3.53236 2.22555 0
M  V30 6501 H 628.429 -2.65715 6.17127 0
M  V30 6502 N 631.149 -1.42148 -0.680565 0
M  V30 6503 C 632.374 -1.45901 -1.47403 0
M  V30 6504 C 632.799 -0.0700985 -1.87969 0
M  V30 6505 O 632.157 0.930145 -1.55621 0
M  V30 6506 C 632.205 -2.38661 -2.70321 0
M  V30 6507 O 631.309 -1.85399 -3.68376 0
M  V30 6508 H 630.65 -0.494565 -0.443059 0
M  V30 6509 H 633.18 -1.86774 -0.835251 0
M  V30 6510 H 633.19 -2.55046 -3.18458 0
M  V30 6511 H 631.865 -3.39571 -2.40134 0
M  V30 6512 H 630.442 -1.78541 -3.2738 0
M  V30 6513 N 632.627 0.916307 -1.28225 0
M  V30 6514 C 633.852 1.7043 -1.18188 0
M  V30 6515 C 634.277 1.86346 0.256274 0
M  V30 6516 O 633.635 1.37175 1.18544 0
M  V30 6517 C 633.683 3.07546 -1.88275 0
M  V30 6518 O 632.787 3.94904 -1.18848 0
M  V30 6519 H 632.128 0.521967 -0.410423 0
M  V30 6520 H 634.658 1.14589 -1.69501 0
M  V30 6521 H 634.668 3.57793 -1.96082 0
M  V30 6522 H 633.343 2.95279 -2.92887 0
M  V30 6523 H 631.92 3.53339 -1.19187 0
M  V30 6524 N 634.105 1.10431 1.1244 0
M  V30 6525 C 635.353 0.845045 1.83585 0
M  V30 6526 C 635.674 -0.631168 1.84503 0
M  V30 6527 O 634.944 -1.45825 1.30813 0
M  V30 6528 H 633.524 0.309628 0.679809 0
M  V30 6529 H 636.186 1.39458 1.36153 0
M  V30 6530 H 635.282 1.20786 2.8778 0
M  V30 6531 N 635.583 -1.29855 0.893053 0
M  V30 6532 C 636.493 -2.31661 0.370157 0
M  V30 6533 C 637.509 -1.65677 -0.531723 0
M  V30 6534 O 638.685 -1.9691 -0.422902 0
M  V30 6535 C 635.75 -3.44388 -0.399741 0
M  V30 6536 C 634.811 -4.2598 0.532861 0
M  V30 6537 C 634.044 -5.33324 -0.200388 0
M  V30 6538 O 634.267 -5.52305 -1.42531 0
M  V30 6539 O 633.201 -6.00188 0.453668 0
M  V30 6540 H 637.027 -2.78354 1.2146 0
M  V30 6541 H 634.612 -1.34171 0.657153 0
M  V30 6542 H 636.494 -4.13037 -0.835358 0
M  V30 6543 H 635.169 -2.99815 -1.22035 0
M  V30 6544 H 634.076 -3.59998 1.01746 0
M  V30 6545 H 635.409 -4.74178 1.3197 0
M  V30 6546 N 637.061 -0.65484 -1.43351 0
M  V30 6547 C 637.971 0.0363603 -2.34572 0
M  V30 6548 C 638.987 0.810432 -1.53974 0
M  V30 6549 O 640.163 0.757308 -1.86619 0
M  V30 6550 C 637.228 0.989733 -3.32273 0
M  V30 6551 C 636.289 0.212414 -4.28774 0
M  V30 6552 C 635.522 1.12038 -5.21808 0
M  V30 6553 O 635.745 2.35967 -5.19303 0
M  V30 6554 O 634.679 0.59191 -5.98982 0
M  V30 6555 H 638.505 -0.714527 -2.95175 0
M  V30 6556 H 636.09 -0.415029 -1.4352 0
M  V30 6557 H 637.972 1.53759 -3.92347 0
M  V30 6558 H 636.647 1.72082 -2.74171 0
M  V30 6559 H 635.554 -0.379062 -3.72175 0
M  V30 6560 H 636.887 -0.479138 -4.89862 0
M  V30 6561 N 638.539 1.52521 -0.396863 0
M  V30 6562 C 639.955 1.5953 -0.0471659 0
M  V30 6563 C 640.155 1.41044 1.43906 0
M  V30 6564 O 639.211 1.23122 2.20448 0
M  V30 6565 C 640.524 2.95972 -0.531113 0
M  V30 6566 C 642.072 3.09172 -0.488024 0
M  V30 6567 C 642.547 4.48075 -0.948281 0
M  V30 6568 N 644.038 4.54281 -0.9046 0
M  V30 6569 C 644.773 5.60007 -1.23205 0
M  V30 6570 N 644.269 6.73343 -1.63036 0
M  V30 6571 N 646.062 5.50151 -1.15282 0
M  V30 6572 H 638.213 1.62786 -1.36435 0
M  V30 6573 H 640.476 0.76514 -0.559701 0
M  V30 6574 H 640.182 3.14741 -1.56942 0
M  V30 6575 H 640.056 3.77143 0.0657922 0
M  V30 6576 H 642.443 2.90095 0.541211 0
M  V30 6577 H 642.524 2.29937 -1.12083 0
M  V30 6578 H 642.168 4.67894 -1.97578 0
M  V30 6579 H 642.098 5.25788 -0.292412 0
M  V30 6580 H 644.589 3.72918 -0.6116 0
M  V30 6581 H 644.902 7.49992 -1.86365 0
M  V30 6582 H 643.247 6.74655 -1.66929 0
M  V30 6583 H 646.438 4.6049 -0.840602 0
M  V30 6584 H 646.611 6.32444 -1.41133 0
M  V30 6585 N 640.017 0.126909 1.57088 0
M  V30 6586 C 640.927 -0.833867 2.1928 0
M  V30 6587 C 641.943 -1.2868 1.17122 0
M  V30 6588 O 643.119 -1.34815 1.49622 0
M  V30 6589 C 640.184 -2.0632 2.78627 0
M  V30 6590 C 639.245 -1.66143 3.95847 0
M  V30 6591 C 638.478 -2.83217 4.52354 0
M  V30 6592 O 638.701 -3.98868 4.0775 0
M  V30 6593 O 637.635 -2.59846 5.42922 0
M  V30 6594 H 641.461 -0.334564 3.01852 0
M  V30 6595 H 639.046 -0.0991091 1.49071 0
M  V30 6596 H 640.928 -2.78304 3.16425 0
M  V30 6597 H 639.603 -2.55242 1.99082 0
M  V30 6598 H 638.51 -0.912435 3.62802 0
M  V30 6599 H 639.843 -1.21957 4.76852 0
M  V30 6600 N 641.495 -1.56914 -0.146875 0
M  V30 6601 C 642.744 -1.82546 -0.857898 0
M  V30 6602 C 643.057 -0.708169 -1.8233 0
M  V30 6603 O 644.263 -0.850093 -2.57848 0
M  V30 6604 C 642.719 -3.23548 -1.57623 0
M  V30 6605 C 642.327 -4.43212 -0.653224 0
M  V30 6606 C 644.071 -3.58453 -2.27402 0
M  V30 6607 C 641.978 -5.75237 -1.37318 0
M  V30 6608 H 640.908 -0.680786 -0.32411 0
M  V30 6609 H 643.559 -1.83166 -0.110639 0
M  V30 6610 H 641.941 -3.17315 -2.36912 0
M  V30 6611 H 643.115 -4.60682 0.104452 0
M  V30 6612 H 641.43 -4.16351 -0.0638336 0
M  V30 6613 H 644.027 -4.54349 -2.81907 0
M  V30 6614 H 644.37 -2.84516 -3.03901 0
M  V30 6615 H 644.903 -3.66347 -1.55032 0
M  V30 6616 H 641.642 -6.52269 -0.650041 0
M  V30 6617 H 641.162 -5.61703 -2.10357 0
M  V30 6618 H 642.841 -6.18039 -1.91406 0
M  V30 6619 N 642.974 0.416227 -1.52004 0
M  V30 6620 C 643.906 1.52552 -1.71058 0
M  V30 6621 C 644.919 1.51693 -0.59102 0
M  V30 6622 O 646.108 1.56087 -0.865973 0
M  V30 6623 C 643.208 2.91455 -1.72937 0
M  V30 6624 C 642.381 3.16584 -3.01816 0
M  V30 6625 C 641.44 4.35322 -2.95603 0
M  V30 6626 O 640.466 4.32947 -3.6952 0
M  V30 6627 N 641.668 5.40049 -2.12903 0
M  V30 6628 H 644.433 1.36604 -2.66757 0
M  V30 6629 H 641.994 0.60544 -1.50153 0
M  V30 6630 H 643.986 3.68944 -1.66321 0
M  V30 6631 H 642.556 3.00895 -0.847418 0
M  V30 6632 H 641.776 2.27203 -3.22137 0
M  V30 6633 H 643.064 3.30213 -3.87088 0
M  V30 6634 H 642.462 5.44823 -1.52265 0
M  V30 6635 H 641.019 6.16308 -2.1215 0
M  V30 6636 N 644.452 1.42507 0.673017 0
M  V30 6637 C 645.682 1.46261 1.45916 0
M  V30 6638 C 646.09 0.0729724 1.89059 0
M  V30 6639 O 645.433 -0.922987 1.58829 0
M  V30 6640 C 645.495 2.32853 2.73898 0
M  V30 6641 C 645.159 3.80699 2.52819 0
M  V30 6642 C 646.156 4.72307 2.17306 0
M  V30 6643 C 643.841 4.24983 2.67758 0
M  V30 6644 C 645.835 6.06192 1.97003 0
M  V30 6645 C 643.522 5.58927 2.4707 0
M  V30 6646 C 644.52 6.49348 2.11746 0
M  V30 6647 O 644.208 7.80817 1.91259 0
M  V30 6648 H 643.94 0.499561 0.455428 0
M  V30 6649 H 646.494 1.87697 0.834196 0
M  V30 6650 H 644.724 1.86268 3.38882 0
M  V30 6651 H 646.413 2.28041 3.35786 0
M  V30 6652 H 647.179 4.39378 2.05359 0
M  V30 6653 H 643.058 3.54893 2.94231 0
M  V30 6654 H 646.602 6.76731 1.69355 0
M  V30 6655 H 642.499 5.91429 2.58615 0
M  V30 6656 H 643.267 7.92194 2.05843 0
M  V30 6657 N 645.93 -0.909495 1.28709 0
M  V30 6658 C 646.893 -1.99399 1.13016 0
M  V30 6659 C 647.893 -1.60654 0.068536 0
M  V30 6660 O 649.083 -1.71334 0.314671 0
M  V30 6661 C 646.215 -3.33078 0.726085 0
M  V30 6662 H 647.408 -2.14751 2.09338 0
M  V30 6663 H 644.961 -1.09272 1.11756 0
M  V30 6664 H 645.696 -3.23428 -0.23771 0
M  V30 6665 H 645.481 -3.62562 1.49302 0
M  V30 6666 H 646.971 -4.12681 0.639058 0
M  V30 6667 N 647.408 -1.11026 -1.11852 0
M  V30 6668 C 648.819 -0.873203 -1.65021 0
M  V30 6669 C 649.17 0.595364 -1.86949 0
M  V30 6670 O 648.295 1.45645 -1.60051 0
M  V30 6671 C 648.89 -1.57859 -2.99777 0
M  V30 6672 C 647.449 -1.38807 -3.49871 0
M  V30 6673 C 646.596 -1.62403 -2.24768 0
M  V30 6674 H 649.547 -1.26712 -0.955503 0
M  V30 6675 H 649.568 -1.02111 -3.66543 0
M  V30 6676 H 649.08 -2.6474 -2.83786 0
M  V30 6677 H 647.181 -0.341163 -3.71035 0
M  V30 6678 H 647.294 -2.13421 -4.28938 0
M  V30 6679 H 645.658 -1.04714 -2.32179 0
M  V30 6680 H 646.441 -2.70549 -2.11324 0
M  V30 6681 N 648.886 1.2938 -0.899927 0
M  V30 6682 C 649.816 2.30144 -0.39446 0
M  V30 6683 C 650.797 1.61611 0.530639 0
M  V30 6684 O 651.982 1.89119 0.441319 0
M  V30 6685 C 649.112 3.45229 0.37868 0
M  V30 6686 C 648.066 4.25564 -0.456012 0
M  V30 6687 C 647.392 5.32848 0.444637 0
M  V30 6688 C 648.692 4.93651 -1.70605 0
M  V30 6689 H 650.386 2.72673 -1.23653 0
M  V30 6690 H 647.932 1.31086 -0.596034 0
M  V30 6691 H 649.885 4.14797 0.743037 0
M  V30 6692 H 648.609 3.01545 1.25453 0
M  V30 6693 H 647.268 3.57704 -0.802704 0
M  V30 6694 H 646.916 4.85408 1.31863 0
M  V30 6695 H 646.616 5.87497 -0.110154 0
M  V30 6696 H 648.14 6.05268 0.805182 0
M  V30 6697 H 649.554 5.55655 -1.41141 0
M  V30 6698 H 647.951 5.58233 -2.20217 0
M  V30 6699 H 649.021 4.18926 -2.4419 0
M  V30 6700 N 650.364 0.662433 1.43002 0
M  V30 6701 C 651.589 0.186003 2.06564 0
M  V30 6702 C 652.014 -1.14314 1.49379 0
M  V30 6703 O 651.372 -1.70824 0.607346 0
M  V30 6704 C 651.42 0.118269 3.60406 0
M  V30 6705 O 650.524 -0.916859 4.02079 0
M  V30 6706 H 649.865 0.0990981 0.656563 0
M  V30 6707 H 652.395 0.907958 1.8335 0
M  V30 6708 H 652.405 -0.0619981 4.07953 0
M  V30 6709 H 651.08 1.08849 4.01403 0
M  V30 6710 H 649.657 -0.708635 3.66105 0
M  V30 6711 N 651.842 -1.52309 0.404946 0
M  V30 6712 C 653.089 -2.01767 -0.1722 0
M  V30 6713 C 653.417 -1.29075 -1.45498 0
M  V30 6714 O 652.672 -0.3843 -1.9189 0
M  V30 6715 C 652.971 -3.54284 -0.470895 0
M  V30 6716 C 652.637 -4.45079 0.722194 0
M  V30 6717 C 651.299 -4.69617 1.04946 0
M  V30 6718 C 653.651 -4.98555 1.51962 0
M  V30 6719 C 650.979 -5.44878 2.17543 0
M  V30 6720 C 653.331 -5.75049 2.63632 0
M  V30 6721 C 651.995 -5.9786 2.9685 0
M  V30 6722 H 651.265 -0.738316 -0.0630125 0
M  V30 6723 H 653.912 -1.83566 0.545506 0
M  V30 6724 H 652.217 -3.70642 -1.27012 0
M  V30 6725 H 653.914 -3.90058 -0.930346 0
M  V30 6726 H 650.504 -4.26155 0.457131 0
M  V30 6727 H 654.688 -4.79509 1.28002 0
M  V30 6728 H 649.944 -5.60762 2.43631 0
M  V30 6729 H 654.118 -6.15483 3.25813 0
M  V30 6730 H 651.745 -6.5596 3.84215 0
M  V30 6731 N 653.32 -0.135238 -1.57019 0
M  V30 6732 C 654.27 0.820408 -2.12728 0
M  V30 6733 C 655.254 1.21735 -1.05211 0
M  V30 6734 O 656.446 1.18574 -1.31413 0
M  V30 6735 C 653.575 2.06414 -2.74314 0
M  V30 6736 C 652.661 1.69083 -3.88937 0
M  V30 6737 N 653.052 1.0251 -4.95303 0
M  V30 6738 C 651.35 1.98434 -3.99425 0
M  V30 6739 C 652.051 0.846749 -5.75504 0
M  V30 6740 N 651.027 1.3769 -5.25873 0
M  V30 6741 H 654.829 0.302426 -2.9234 0
M  V30 6742 H 652.343 0.0667009 -1.62263 0
M  V30 6743 H 654.34 2.75863 -3.12579 0
M  V30 6744 H 653 2.58741 -1.96171 0
M  V30 6745 H 654.011 0.687207 -5.1332 0
M  V30 6746 H 650.688 2.52693 -3.32344 0
M  V30 6747 H 652.078 0.322949 -6.71123 0
M  V30 6748 N 654.798 1.5699 0.138552 0
M  V30 6749 C 655.745 1.98899 1.17081 0
M  V30 6750 C 656.715 0.857922 1.42228 0
M  V30 6751 O 657.9 1.12065 1.54422 0
M  V30 6752 C 655.04 2.38189 2.4972 0
M  V30 6753 C 654.153 3.64624 2.31674 0
M  V30 6754 C 653.288 3.9298 3.57407 0
M  V30 6755 C 652.327 5.1266 3.34435 0
M  V30 6756 N 651.464 5.36983 4.5232 0
M  V30 6757 H 656.304 2.86881 0.80642 0
M  V30 6758 H 653.841 1.41925 0.386727 0
M  V30 6759 H 655.799 2.59 3.2707 0
M  V30 6760 H 654.429 1.53275 2.84089 0
M  V30 6761 H 653.481 3.51542 1.45337 0
M  V30 6762 H 654.793 4.52131 2.10664 0
M  V30 6763 H 653.947 4.14335 4.43183 0
M  V30 6764 H 652.686 3.03912 3.8143 0
M  V30 6765 H 651.691 4.9117 2.47048 0
M  V30 6766 H 652.916 6.03288 3.11802 0
M  V30 6767 H 650.862 4.50871 4.76499 0
M  V30 6768 H 650.779 6.18775 4.34343 0
M  V30 6769 H 652.047 5.62842 5.39285 0
M  V30 6770 N 656.276 -0.40816 1.52223 0
M  V30 6771 C 657.524 -1.15274 1.66001 0
M  V30 6772 C 657.845 -1.91003 0.392803 0
M  V30 6773 O 657.115 -1.8673 -0.592336 0
M  V30 6774 H 655.695 -0.428526 0.611861 0
M  V30 6775 H 658.357 -0.46512 1.89269 0
M  V30 6776 H 657.453 -1.86628 2.50153 0
M  V30 6777 N 657.755 -1.42862 -0.66545 0
M  V30 6778 C 658.665 -1.49491 -1.80803 0
M  V30 6779 C 659.681 -0.382914 -1.69734 0
M  V30 6780 O 660.857 -0.635223 -1.9112 0
M  V30 6781 C 657.922 -1.40383 -3.17007 0
M  V30 6782 C 656.983 -2.62152 -3.39963 0
M  V30 6783 C 656.216 -2.53469 -4.69669 0
M  V30 6784 O 656.439 -1.57568 -5.48205 0
M  V30 6785 O 655.373 -3.43763 -4.94075 0
M  V30 6786 H 659.199 -2.45949 -1.78165 0
M  V30 6787 H 656.784 -1.24728 -0.822387 0
M  V30 6788 H 658.666 -1.377 -3.98267 0
M  V30 6789 H 657.341 -0.470546 -3.20262 0
M  V30 6790 H 656.248 -2.70409 -2.58515 0
M  V30 6791 H 657.581 -3.54411 -3.41546 0
M  V30 6792 N 659.233 0.902656 -1.29189 0
M  V30 6793 C 660.644 1.46809 -1.15343 0
M  V30 6794 C 660.995 1.94568 0.252517 0
M  V30 6795 O 660.12 1.83454 1.14777 0
M  V30 6796 C 660.715 2.66829 -2.08776 0
M  V30 6797 C 659.274 3.19518 -1.98961 0
M  V30 6798 C 658.421 1.92212 -1.99874 0
M  V30 6799 H 661.372 0.714282 -1.41717 0
M  V30 6800 H 661.393 3.42465 -1.65826 0
M  V30 6801 H 660.905 2.32039 -3.11094 0
M  V30 6802 H 659.006 3.59008 -0.99721 0
M  V30 6803 H 659.119 3.84016 -2.86477 0
M  V30 6804 H 657.483 2.0979 -1.44431 0
M  V30 6805 H 658.266 1.59702 -3.03891 0
M  V30 6806 N 660.711 1.11618 1.11262 0
M  V30 6807 C 661.643 0.734015 2.17129 0
M  V30 6808 C 662.656 -0.235243 1.61091 0
M  V30 6809 O 663.845 -0.0178597 1.78491 0
M  V30 6810 C 660.945 0.0643682 3.38839 0
M  V30 6811 C 660.118 1.06092 4.24339 0
M  V30 6812 C 659.177 0.420482 5.24517 0
M  V30 6813 O 658.203 1.07495 5.58957 0
M  V30 6814 N 659.405 -0.815828 5.74739 0
M  V30 6815 H 662.17 1.64492 2.50524 0
M  V30 6816 H 659.731 1.00664 1.26801 0
M  V30 6817 H 661.723 -0.375851 4.02951 0
M  V30 6818 H 660.293 -0.749147 3.03491 0
M  V30 6819 H 659.513 1.67903 3.56654 0
M  V30 6820 H 660.801 1.73507 4.78302 0
M  V30 6821 H 660.199 -1.36668 5.48943 0
M  V30 6822 H 658.756 -1.199 6.40677 0
M  V30 6823 N 662.189 -1.289 0.906776 0
M  V30 6824 C 663.466 -1.90221 0.455537 0
M  V30 6825 C 663.846 -1.82251 -1.06527 0
M  V30 6826 O 663.194 -1.25385 -1.91026 0
M  V30 6827 C 663.404 -3.35015 0.97806 0
M  V30 6828 C 664.752 -4.12018 1.02598 0
M  V30 6829 O 665.776 -3.43947 0.926218 0
M  V30 6830 O 664.635 -5.33677 1.17689 0
M  V30 6831 H 661.729 -0.814505 0.143214 0
M  V30 6832 H 664.275 -1.37317 0.997104 0
M  V30 6833 H 663.047 -3.35006 2.02204 0
M  V30 6834 H 662.67 -3.95408 0.416914 0
M  V30 6835 N 663.667 -0.670007 -1.42649 0
M  V30 6836 C 664.597 -0.00258501 -2.335 0
M  V30 6837 C 665.578 0.794364 -1.50412 0
M  V30 6838 O 666.763 0.75248 -1.79029 0
M  V30 6839 C 663.893 0.952748 -3.33976 0
M  V30 6840 C 662.847 0.264733 -4.2718 0
M  V30 6841 C 662.173 1.33267 -5.17826 0
M  V30 6842 C 663.473 -0.853289 -5.15283 0
M  V30 6843 H 665.167 -0.761326 -2.89559 0
M  V30 6844 H 662.713 -0.367561 -1.3923 0
M  V30 6845 H 664.666 1.4287 -3.96442 0
M  V30 6846 H 663.39 1.74285 -2.7621 0
M  V30 6847 H 662.049 -0.190938 -3.66102 0
M  V30 6848 H 661.697 2.11464 -4.5639 0
M  V30 6849 H 661.397 0.877476 -5.81011 0
M  V30 6850 H 662.921 1.80965 -5.83167 0
M  V30 6851 H 664.335 -0.458763 -5.71462 0
M  V30 6852 H 662.732 -1.23398 -5.87276 0
M  V30 6853 H 663.802 -1.70412 -4.53969 0
M  V30 6854 N 665.145 1.52092 -0.413018 0
M  V30 6855 C 666.37 2.06756 0.163338 0
M  V30 6856 C 666.795 1.28073 1.37764 0
M  V30 6857 O 666.153 0.312015 1.78595 0
M  V30 6858 C 666.201 3.57278 0.488322 0
M  V30 6859 O 665.305 3.80986 1.57871 0
M  V30 6860 H 664.646 0.663882 0.0125068 0
M  V30 6861 H 667.176 1.95988 -0.587339 0
M  V30 6862 H 667.186 4.01125 0.745836 0
M  V30 6863 H 665.861 4.13978 -0.399327 0
M  V30 6864 H 664.438 3.49017 1.31306 0
M  V30 6865 N 666.623 0.143563 1.56945 0
M  V30 6866 C 667.871 -0.507402 1.95627 0
M  V30 6867 C 668.192 -1.65626 1.02922 0
M  V30 6868 O 667.462 -1.95693 0.0901136 0
M  V30 6869 H 666.042 -0.190436 0.722318 0
M  V30 6870 H 668.704 0.218257 1.93674 0
M  V30 6871 H 667.8 -0.885816 2.99265 0
M  V30 6872 N 668.101 -1.57061 -0.130224 0
M  V30 6873 C 669.033 -1.96147 -1.18571 0
M  V30 6874 C 670.046 -0.859347 -1.38272 0
M  V30 6875 O 671.235 -1.13769 -1.37545 0
M  V30 6876 C 668.335 -2.23484 -2.54771 0
M  V30 6877 C 667.508 -3.54786 -2.55824 0
M  V30 6878 C 666.567 -3.70467 -3.73686 0
M  V30 6879 O 665.593 -4.42693 -3.57787 0
M  V30 6880 N 666.795 -3.08389 -4.91809 0
M  V30 6881 H 669.56 -2.87295 -0.853333 0
M  V30 6882 H 667.121 -1.58714 -0.319621 0
M  V30 6883 H 669.113 -2.312 -3.32158 0
M  V30 6884 H 667.683 -1.38518 -2.80235 0
M  V30 6885 H 666.903 -3.5836 -1.64232 0
M  V30 6886 H 668.191 -4.4111 -2.53573 0
M  V30 6887 H 667.589 -2.49656 -5.0763 0
M  V30 6888 H 666.146 -3.21642 -5.66912 0
M  V30 6889 N 669.579 0.400081 -1.52437 0
M  V30 6890 C 670.489 1.51253 -1.79331 0
M  V30 6891 C 671.505 1.60188 -0.679396 0
M  V30 6892 O 672.681 1.76733 -0.965791 0
M  V30 6893 C 669.746 2.869 -1.94652 0
M  V30 6894 C 668.807 2.87777 -3.18564 0
M  V30 6895 C 668.04 4.16954 -3.33145 0
M  V30 6896 O 668.263 5.11329 -2.52783 0
M  V30 6897 O 667.197 4.2487 -4.26343 0
M  V30 6898 H 671.023 1.31461 -2.73773 0
M  V30 6899 H 668.608 0.586834 -1.37392 0
M  V30 6900 H 670.49 3.67336 -2.065 0
M  V30 6901 H 669.165 3.06741 -1.034 0
M  V30 6902 H 668.072 2.06162 -3.12167 0
M  V30 6903 H 669.405 2.72886 -4.09627 0
M  V30 6904 N 671.057 1.43213 0.657864 0
M  V30 6905 C 672.02 1.47687 1.75275 0
M  V30 6906 C 673.02 0.362179 1.56668 0
M  V30 6907 O 674.21 0.623734 1.62651 0
M  V30 6908 C 671.342 1.32497 3.14098 0
M  V30 6909 H 672.535 2.4519 1.7269 0
M  V30 6910 H 670.088 1.2991 0.869087 0
M  V30 6911 H 670.823 0.359831 3.22298 0
M  V30 6912 H 670.608 2.13299 3.29008 0
M  V30 6913 H 672.098 1.38549 3.93946 0
M  V30 6914 N 672.536 -0.895792 1.29666 0
M  V30 6915 C 673.764 -1.68001 1.20761 0
M  V30 6916 C 674.179 -1.87379 -0.231187 0
M  V30 6917 O 673.536 -1.41359 -1.15429 0
M  V30 6918 C 673.587 -3.06236 1.92098 0
M  V30 6919 O 673.308 -2.8774 3.30359 0
M  V30 6920 C 674.809 -4.00652 1.89717 0
M  V30 6921 H 672.029 -0.524591 0.418384 0
M  V30 6922 H 674.573 -1.11995 1.71106 0
M  V30 6923 H 672.728 -3.59007 1.45578 0
M  V30 6924 H 673.142 -3.75359 3.66342 0
M  V30 6925 H 674.616 -4.95051 2.44189 0
M  V30 6926 H 675.093 -4.30424 0.873595 0
M  V30 6927 H 675.699 -3.53815 2.35998 0
M  V30 6928 N 674.014 -1.12206 -1.10668 0
M  V30 6929 C 674.962 -0.782918 -2.19028 0
M  V30 6930 C 675.956 0.229175 -1.67843 0
M  V30 6931 O 677.162 0.0876295 -1.79787 0
M  V30 6932 H 673.537 -0.235339 -0.714227 0
M  V30 6933 H 675.508 -1.70527 -2.44874 0
M  V30 6934 C 674.257 -0.25116 -3.46792 0
M  V30 6935 H 673.58 -1.02123 -3.86537 0
M  V30 6936 H 675.02 -0.0521409 -4.23968 0
M  V30 6937 C 673.479 1.02037 -3.21076 0
M  V30 6938 O 674.009 2.09862 -3.42522 0
M  V30 6939 N 672.215 0.946348 -2.74759 0
M  V30 6940 H 671.762 0.068777 -2.57508 0
M  V30 6941 H 671.72 1.79775 -2.57931 0
M  V30 6942 N 675.492 1.28418 -0.913599 0
M  V30 6943 C 676.44 2.29272 -0.392037 0
M  V30 6944 C 677.434 1.61344 0.516198 0
M  V30 6945 O 678.64 1.75557 0.39746 0
M  V30 6946 H 675.015 0.744178 -0.108178 0
M  V30 6947 H 676.986 2.70691 -1.25574 0
M  V30 6948 C 675.735 3.45905 0.352815 0
M  V30 6949 H 675.058 3.98378 -0.336848 0
M  V30 6950 H 676.498 4.18473 0.682398 0
M  V30 6951 C 674.957 2.98572 1.56065 0
M  V30 6952 O 675.487 3.01033 2.65974 0
M  V30 6953 N 673.693 2.54235 1.40759 0
M  V30 6954 H 673.24 2.52432 0.513403 0
M  V30 6955 H 673.198 2.22925 2.21702 0
M  V30 6956 N 676.97 0.677563 1.42291 0
M  V30 6957 C 677.88 0.000962654 2.346 0
M  V30 6958 C 678.896 -0.785833 1.55244 0
M  V30 6959 O 680.072 -0.727523 1.87801 0
M  V30 6960 C 677.137 -0.936746 3.33805 0
M  V30 6961 C 676.198 -0.144173 4.29058 0
M  V30 6962 C 675.431 -1.03722 5.23524 0
M  V30 6963 O 675.654 -2.27675 5.22992 0
M  V30 6964 O 674.588 -0.496542 5.99848 0
M  V30 6965 H 678.414 0.761397 2.94001 0
M  V30 6966 H 675.999 0.43781 1.42841 0
M  V30 6967 H 677.881 -1.47497 3.94744 0
M  V30 6968 H 676.556 -1.67698 2.76874 0
M  V30 6969 H 675.463 0.438224 3.71524 0
M  V30 6970 H 676.796 0.55701 4.89038 0
M  V30 6971 N 678.448 -1.51871 0.421078 0
M  V30 6972 C 679.678 -2.06057 -0.149723 0
M  V30 6973 C 680.086 -1.29002 -1.38402 0
M  V30 6974 O 679.429 -0.338385 -1.80556 0
M  V30 6975 C 679.491 -3.55216 -0.553339 0
M  V30 6976 C 679.155 -4.53408 0.571879 0
M  V30 6977 C 680.152 -4.99586 1.4391 0
M  V30 6978 C 677.837 -4.967 0.747979 0
M  V30 6979 C 679.831 -5.87711 2.46727 0
M  V30 6980 C 677.518 -5.84619 1.77944 0
M  V30 6981 C 678.516 -6.30021 2.63748 0
M  V30 6982 O 678.204 -7.16197 3.65126 0
M  V30 6983 H 677.936 -0.675744 -0.0186102 0
M  V30 6984 H 680.49 -1.96618 0.594166 0
M  V30 6985 H 678.72 -3.62381 -1.34969 0
M  V30 6986 H 680.409 -3.91992 -1.05342 0
M  V30 6987 H 681.175 -4.66846 1.31451 0
M  V30 6988 H 677.054 -4.60913 0.0897357 0
M  V30 6989 H 680.598 -6.2307 3.13734 0
M  V30 6990 H 676.495 -6.16771 1.90429 0
M  V30 6991 H 677.263 -7.34337 3.61512 0
M  V30 6992 N 679.926 -0.151884 -1.56866 0
M  V30 6993 C 681.151 0.508044 -2.01081 0
M  V30 6994 C 681.576 1.57306 -1.03134 0
M  V30 6995 O 680.934 1.81298 -0.0078309 0
M  V30 6996 C 680.982 1.08106 -3.44014 0
M  V30 6997 O 680.086 2.19577 -3.49084 0
M  V30 6998 H 679.427 0.123757 -0.652365 0
M  V30 6999 H 681.957 -0.250055 -2.03066 0
M  V30 7000 H 681.967 1.40851 -3.82916 0
M  V30 7001 H 680.642 0.301168 -4.14808 0
M  V30 7002 H 679.219 1.88023 -3.22027 0
M  V30 7003 N 681.404 1.57128 0.121893 0
M  V30 7004 C 682.314 2.03425 1.16857 0
M  V30 7005 C 683.33 0.954108 1.45509 0
M  V30 7006 O 684.506 1.26541 1.56682 0
M  V30 7007 C 681.571 2.42685 2.47599 0
M  V30 7008 C 680.632 3.64767 2.2637 0
M  V30 7009 C 679.865 4.02145 3.50878 0
M  V30 7010 O 680.088 3.39897 4.58068 0
M  V30 7011 O 679.022 4.95262 3.42051 0
M  V30 7012 H 682.848 2.92825 0.80544 0
M  V30 7013 H 680.433 1.45654 0.332477 0
M  V30 7014 H 682.315 2.68684 3.24634 0
M  V30 7015 H 680.99 1.56432 2.83392 0
M  V30 7016 H 679.897 3.43922 1.47203 0
M  V30 7017 H 681.23 4.51716 1.95482 0
M  V30 7018 N 682.882 -0.391992 1.52647 0
M  V30 7019 C 684.131 -1.13449 1.6677 0
M  V30 7020 C 684.444 -1.91203 0.412399 0
M  V30 7021 O 685.65 -2.68013 0.433707 0
M  V30 7022 C 684.106 -2.06577 2.9471 0
M  V30 7023 C 683.714 -1.3426 4.27409 0
M  V30 7024 C 685.458 -2.80981 3.18198 0
M  V30 7025 C 683.365 -2.26136 5.46458 0
M  V30 7026 H 682.295 -0.427211 0.621295 0
M  V30 7027 H 684.946 -0.397522 1.79142 0
M  V30 7028 H 683.328 -2.83898 2.76076 0
M  V30 7029 H 684.502 -0.621856 4.56585 0
M  V30 7030 H 682.817 -0.718279 4.10158 0
M  V30 7031 H 685.414 -3.49898 4.04321 0
M  V30 7032 H 685.757 -3.44891 2.33144 0
M  V30 7033 H 686.29 -2.10754 3.37383 0
M  V30 7034 H 683.029 -1.66846 6.33911 0
M  V30 7035 H 682.549 -2.96134 5.21598 0
M  V30 7036 H 684.228 -2.86286 5.80215 0
M  V30 7037 N 684.36 -1.4356 -0.65026 0
M  V30 7038 C 685.307 -1.48948 -1.76304 0
M  V30 7039 C 686.277 -0.338919 -1.62605 0
M  V30 7040 O 687.462 -0.54649 -1.82806 0
M  V30 7041 C 684.602 -1.42131 -3.14472 0
M  V30 7042 C 683.715 -2.67415 -3.39284 0
M  V30 7043 C 682.85 -2.52565 -4.67316 0
M  V30 7044 C 681.889 -3.73103 -4.85243 0
M  V30 7045 N 681.026 -3.57046 -6.04535 0
M  V30 7046 H 685.866 -2.44032 -1.71034 0
M  V30 7047 H 683.403 -1.21131 -0.834601 0
M  V30 7048 H 685.361 -1.36172 -3.94351 0
M  V30 7049 H 683.991 -0.506273 -3.18805 0
M  V30 7050 H 683.043 -2.8364 -2.53481 0
M  V30 7051 H 684.355 -3.56943 -3.48415 0
M  V30 7052 H 683.509 -2.44331 -5.55326 0
M  V30 7053 H 682.248 -1.60566 -4.60511 0
M  V30 7054 H 681.253 -3.81743 -3.95667 0
M  V30 7055 H 682.478 -4.66115 -4.93876 0
M  V30 7056 H 680.424 -2.67783 -5.98856 0
M  V30 7057 H 680.341 -4.40178 -6.14638 0
M  V30 7058 H 681.609 -3.52669 -6.95158 0
M  V30 7059 N 685.838 0.888903 -1.30139 0
M  V30 7060 C 687.087 1.63507 -1.18103 0
M  V30 7061 C 687.4 1.93808 0.264141 0
M  V30 7062 O 688.606 2.66744 0.505966 0
M  V30 7063 C 687.062 2.94673 -2.0663 0
M  V30 7064 C 686.67 2.71926 -3.56034 0
M  V30 7065 C 688.414 3.72626 -2.03346 0
M  V30 7066 C 686.321 3.98884 -4.3663 0
M  V30 7067 H 685.251 0.613426 -0.438435 0
M  V30 7068 H 687.902 0.984427 -1.54859 0
M  V30 7069 H 686.284 3.61009 -1.62754 0
M  V30 7070 H 687.458 2.14116 -4.08033 0
M  V30 7071 H 685.773 2.07353 -3.61101 0
M  V30 7072 H 688.37 4.66775 -2.60816 0
M  V30 7073 H 688.713 4.03712 -1.016 0
M  V30 7074 H 689.246 3.13147 -2.45324 0
M  V30 7075 H 685.985 3.72959 -5.39056 0
M  V30 7076 H 685.505 4.56214 -3.89396 0
M  V30 7077 H 687.184 4.66938 -4.47859 0
M  V30 7078 N 687.317 1.12792 1.10072 0
M  V30 7079 C 688.728 0.899346 1.63611 0
M  V30 7080 C 689.079 -0.565547 1.87872 0
M  V30 7081 O 688.204 -1.43081 1.62348 0
M  V30 7082 C 688.799 1.62608 2.97227 0
M  V30 7083 C 687.358 1.44356 3.47618 0
M  V30 7084 C 686.505 1.65958 2.22156 0
M  V30 7085 H 689.456 1.28216 0.935223 0
M  V30 7086 H 689.477 1.0793 3.64872 0
M  V30 7087 H 688.989 2.69221 2.79538 0
M  V30 7088 H 687.09 0.400148 3.70445 0
M  V30 7089 H 687.203 2.20218 4.25489 0
M  V30 7090 H 685.567 1.08395 2.30484 0
M  V30 7091 H 686.35 2.73877 2.06993 0
M  V30 7092 N 688.795 -1.27931 0.920396 0
M  V30 7093 C 689.742 -2.27085 0.412422 0
M  V30 7094 C 690.712 -1.57858 -0.516725 0
M  V30 7095 O 691.897 -1.85717 -0.437475 0
M  V30 7096 C 689.037 -3.43466 -0.335399 0
M  V30 7097 C 688.15 -4.27425 0.627017 0
M  V30 7098 C 687.285 -5.31016 -0.139916 0
M  V30 7099 C 686.324 -6.06641 0.815683 0
M  V30 7100 N 685.461 -7.02052 0.0818439 0
M  V30 7101 H 690.301 -2.69913 1.26298 0
M  V30 7102 H 687.838 -1.32732 0.634076 0
M  V30 7103 H 689.796 -4.09744 -0.785226 0
M  V30 7104 H 688.426 -3.01611 -1.15025 0
M  V30 7105 H 687.478 -3.6113 1.19537 0
M  V30 7106 H 688.79 -4.79969 1.35763 0
M  V30 7107 H 687.944 -6.03208 -0.649998 0
M  V30 7108 H 686.683 -4.79257 -0.903543 0
M  V30 7109 H 685.688 -5.33294 1.33708 0
M  V30 7110 H 686.913 -6.60489 1.57897 0
M  V30 7111 H 684.859 -6.52634 -0.663671 0
M  V30 7112 H 684.776 -7.52249 0.752163 0
M  V30 7113 H 686.044 -7.78432 -0.407825 0
M  V30 7114 O 690.312 -0.824023 -1.38896 0
M  V30 7115 H 691.003 -0.40654 -1.89386 0
M  V30 END ATOM
M  V30 BEGIN BOND
M  V30 END BOND
M  V30 END CTAB
M  END
$$$$
