drugbank_target|P32055 GDP-L-fucose synthase (DB02897; DB03461)
 OpenBabel12092120013D

  0  0  0     0  0            999 V3000
M  V30 BEGIN CTAB
M  V30 COUNTS 5049 5107 0 0 0
M  V30 BEGIN ATOM
M  V30 1 H -0.908 1.98254 -0.117106 0
M  V30 2 N 0 1.576 0 0
M  V30 3 C 0.933 2.03868 1.02534 0
M  V30 4 C 1.911 0.928543 1.3348 0
M  V30 5 O 3.095 1.19667 1.45644 0
M  V30 6 C 0.222 2.43627 2.35294 0
M  V30 7 C -0.732 3.65373 2.2001 0
M  V30 8 S 0.101 5.13292 1.52614 0
M  V30 9 C 1.257 5.56322 2.86805 0
M  V30 10 H 1.49 2.90518 0.631377 0
M  V30 11 H -0.977 1.52953 0.210867 0
M  V30 12 H 0.981 2.67203 3.11629 0
M  V30 13 H -0.358 1.57376 2.7183 0
M  V30 14 H -1.165 3.90944 3.18086 0
M  V30 15 H -1.563 3.418 1.51819 0
M  V30 16 H 0.729 5.58782 3.83104 0
M  V30 17 H 1.672 6.56266 2.65933 0
M  V30 18 H 2.08 4.83886 2.90714 0
M  V30 19 N 1.4781 -0.272755 1.55222 0
M  V30 20 C 2.7031 -1.02683 1.80197 0
M  V30 21 C 3.1281 -1.79142 0.573551 0
M  V30 22 O 2.4861 -1.74917 -0.476849 0
M  V30 23 C 2.5341 -1.9609 3.02624 0
M  V30 24 O 1.6381 -3.04863 2.77727 0
M  V30 25 H 0.9791 -0.293557 0.595584 0
M  V30 26 H 3.5091 -0.30159 2.02365 0
M  V30 27 H 3.5191 -2.38039 3.31363 0
M  V30 28 H 2.1941 -1.39851 3.91682 0
M  V30 29 H 0.7711 -2.67228 2.60084 0
M  V30 30 N 2.9562 -1.48159 -0.537278 0
M  V30 31 C 3.9032 -1.62138 -1.64256 0
M  V30 32 C 4.8732 -0.463668 -1.59497 0
M  V30 33 O 6.0582 -0.686241 -1.78032 0
M  V30 34 C 3.1982 -1.66028 -3.02537 0
M  V30 35 C 2.3112 -2.92855 -3.17585 0
M  V30 36 C 1.4462 -2.87952 -4.46382 0
M  V30 37 C 0.4852 -4.09516 -4.54932 0
M  V30 38 N -0.3778 -4.02733 -5.75109 0
M  V30 39 H 4.4622 -2.56529 -1.51647 0
M  V30 40 H 1.9992 -1.27224 -0.738414 0
M  V30 41 H 3.9572 -1.66265 -3.82638 0
M  V30 42 H 2.5872 -0.751331 -3.13934 0
M  V30 43 H 1.6392 -3.02395 -2.30784 0
M  V30 44 H 2.9512 -3.82822 -3.19764 0
M  V30 45 H 2.1052 -2.8655 -5.34765 0
M  V30 46 H 0.8442 -1.95702 -4.46712 0
M  V30 47 H -0.1508 -4.11201 -3.64957 0
M  V30 48 H 1.0742 -5.02917 -4.56346 0
M  V30 49 H -0.9798 -3.13299 -5.76351 0
M  V30 50 H -1.0628 -4.86397 -5.78752 0
M  V30 51 H 0.2052 -4.05379 -6.65799 0
M  V30 52 N 4.4343 0.785586 -1.36625 0
M  V30 53 C 5.3663 1.90711 -1.2713 0
M  V30 54 C 6.3793 1.61688 -0.189986 0
M  V30 55 O 7.5683 1.72864 -0.445014 0
M  V30 56 C 4.6683 3.25611 -0.939713 0
M  V30 57 C 3.8413 3.82385 -2.12369 0
M  V30 58 C 2.9003 4.95732 -1.76456 0
M  V30 59 O 1.9263 5.12047 -2.48589 0
M  V30 60 N 3.1283 5.76258 -0.700492 0
M  V30 61 H 5.8933 1.99376 -2.23762 0
M  V30 62 H 3.4543 0.964041 -1.30069 0
M  V30 63 H 5.4463 3.98937 -0.680554 0
M  V30 64 H 4.0163 3.12538 -0.0624074 0
M  V30 65 H 3.2363 3.01001 -2.54543 0
M  V30 66 H 4.5243 4.17047 -2.9146 0
M  V30 67 H 3.9223 5.65609 -0.101624 0
M  V30 68 H 2.4793 6.4987 -0.501165 0
M  V30 69 N 5.9124 1.20967 1.01018 0
M  V30 70 C 7.3284 0.965905 1.27053 0
M  V30 71 C 7.5284 -0.350785 1.98423 0
M  V30 72 O 6.5844 -1.07773 2.28344 0
M  V30 73 C 7.8974 2.15294 2.09926 0
M  V30 74 C 9.4454 2.19463 2.23171 0
M  V30 75 C 9.9204 3.3767 3.09424 0
M  V30 76 N 11.4114 3.37724 3.17012 0
M  V30 77 C 12.1464 4.25837 3.83993 0
M  V30 78 N 11.6424 5.24138 4.53047 0
M  V30 79 N 13.4354 4.1366 3.80581 0
M  V30 80 H 5.5864 2.0565 0.531194 0
M  V30 81 H 7.8494 0.90024 0.297106 0
M  V30 82 H 7.5554 3.10684 1.64828 0
M  V30 83 H 7.4294 2.13923 3.10672 0
M  V30 84 H 9.8164 1.24632 2.6749 0
M  V30 85 H 9.8974 2.2488 1.21912 0
M  V30 86 H 9.5414 4.32791 2.65808 0
M  V30 87 H 9.4714 3.29491 4.10784 0
M  V30 88 H 11.9624 2.6658 2.6785 0
M  V30 89 H 12.2754 5.87684 5.01844 0
M  V30 90 H 10.6204 5.28068 4.5185 0
M  V30 91 H 13.8114 3.36127 3.25785 0
M  V30 92 H 13.9844 4.82538 4.32505 0
M  V30 93 N 7.3905 -1.2043 1.01659 0
M  V30 94 C 8.6365 -1.90079 0.706963 0
M  V30 95 C 8.9695 -1.78648 -0.761474 0
M  V30 96 O 8.2445 -1.17069 -1.55323 0
M  V30 97 C 8.5275 -3.41469 1.14327 0
M  V30 98 C 8.3805 -3.61833 2.67201 0
M  V30 99 C 9.6995 -4.34261 0.714529 0
M  V30 100 H 6.8185 -0.690254 0.2583 0
M  V30 101 H 9.4605 -1.41826 1.26433 0
M  V30 102 H 7.6105 -3.82696 0.669056 0
M  V30 103 H 9.2825 -3.2986 3.22475 0
M  V30 104 H 7.5255 -3.05304 3.08175 0
M  V30 105 H 8.1965 -4.67955 2.92783 0
M  V30 106 H 10.6725 -4.00682 1.12221 0
M  V30 107 H 9.5485 -5.38806 1.04784 0
M  V30 108 H 9.8095 -4.40431 -0.383799 0
M  V30 109 N 8.8686 -0.792821 -1.36206 0
M  V30 110 C 10.1156 -0.366786 -1.99151 0
M  V30 111 C 10.4436 1.06243 -1.62919 0
M  V30 112 O 9.6986 1.74927 -0.877442 0
M  V30 113 C 9.9976 -0.481501 -3.54142 0
M  V30 114 C 9.6636 -1.87202 -4.10203 0
M  V30 115 C 8.3256 -2.25248 -4.25226 0
M  V30 116 C 10.6776 -2.78237 -4.40719 0
M  V30 117 C 8.0056 -3.53723 -4.68078 0
M  V30 118 C 10.3576 -4.06144 -4.85005 0
M  V30 119 C 9.0216 -4.44207 -4.98234 0
M  V30 120 H 8.2916 -0.134217 -0.728743 0
M  V30 121 H 10.9386 -1.01094 -1.62641 0
M  V30 122 H 9.2436 0.246146 -3.91026 0
M  V30 123 H 10.9406 -0.132844 -4.0078 0
M  V30 124 H 7.5306 -1.56639 -3.98951 0
M  V30 125 H 11.7146 -2.50097 -4.28679 0
M  V30 126 H 6.9706 -3.8308 -4.76508 0
M  V30 127 H 11.1446 -4.76796 -5.07581 0
M  V30 128 H 8.7716 -5.43814 -5.31197 0
M  V30 129 N 10.3467 1.47872 -0.545128 0
M  V30 130 C 11.5957 2.01695 -0.0145033 0
M  V30 131 C 11.9087 1.42609 1.33873 0
M  V30 132 O 13.1147 1.88021 1.95858 0
M  V30 133 C 11.5707 3.59892 0.0245068 0
M  V30 134 C 11.1787 4.27966 -1.32475 0
M  V30 135 C 12.9227 4.21507 0.50316 0
M  V30 136 C 10.8297 5.78136 -1.2455 0
M  V30 137 H 9.7597 0.753998 -0.00165172 0
M  V30 138 H 12.4107 1.69985 -0.691175 0
M  V30 139 H 10.7927 3.88509 0.766575 0
M  V30 140 H 11.9667 4.11003 -2.08357 0
M  V30 141 H 10.2817 3.78286 -1.74036 0
M  V30 142 H 12.8787 5.31538 0.580656 0
M  V30 143 H 13.2217 3.87855 1.51243 0
M  V30 144 H 13.7547 3.97376 -0.183681 0
M  V30 145 H 10.4937 6.16388 -2.23039 0
M  V30 146 H 10.0137 5.97469 -0.528282 0
M  V30 147 H 11.6927 6.40099 -0.942488 0
M  V30 148 N 11.8248 0.280983 1.55075 0
M  V30 149 C 12.7878 -0.590896 2.21452 0
M  V30 150 C 13.7878 -1.07682 1.19421 0
M  V30 151 O 14.9778 -0.97605 1.44288 0
M  V30 152 C 12.1098 -1.81587 2.88511 0
M  V30 153 H 13.3028 -0.0112554 2.99898 0
M  V30 154 H 10.8558 0.0316438 1.56268 0
M  V30 155 H 11.5908 -2.43587 2.14093 0
M  V30 156 H 11.3758 -1.4753 3.63287 0
M  V30 157 H 12.8658 -2.43575 3.39206 0
M  V30 158 N 13.3029 -1.57598 0.00835791 0
M  V30 159 C 14.5509 -1.90551 -0.6734 0
M  V30 160 C 14.8719 -0.883301 -1.73847 0
M  V30 161 O 14.1419 0.0781442 -1.95744 0
M  V30 162 H 12.7219 -0.703312 -0.251717 0
M  V30 163 H 15.3839 -1.94833 0.0512592 0
M  V30 164 H 14.4799 -2.9056 -1.13935 0
M  V30 165 N 14.781 0.264519 -1.55364 0
M  V30 166 C 15.731 1.32966 -1.85214 0
M  V30 167 C 16.715 1.44306 -0.711653 0
M  V30 168 O 17.907 1.47844 -0.973192 0
M  V30 169 C 15.036 2.68839 -2.13495 0
M  V30 170 C 14.122 2.61575 -3.33825 0
M  V30 171 N 14.513 2.23933 -4.53528 0
M  V30 172 C 12.811 2.92621 -3.36584 0
M  V30 173 C 13.512 2.26868 -5.35636 0
M  V30 174 N 12.488 2.65677 -4.74254 0
M  V30 175 H 16.29 1.02884 -2.75304 0
M  V30 176 H 13.804 0.473157 -1.55354 0
M  V30 177 H 15.801 3.45685 -2.33039 0
M  V30 178 H 14.461 2.99802 -1.24694 0
M  V30 179 H 15.472 1.95769 -4.79474 0
M  V30 180 H 12.149 3.2824 -2.58002 0
M  V30 181 H 13.539 2.00254 -6.41364 0
M  V30 182 N 16.2591 1.48442 0.529413 0
M  V30 183 C 17.6751 1.34575 0.858004 0
M  V30 184 C 17.8751 0.3572 1.98309 0
M  V30 185 O 16.9311 -0.221379 2.51528 0
M  V30 186 C 18.2441 2.74617 1.22499 0
M  V30 187 C 19.7921 2.83109 1.33484 0
M  V30 188 C 20.2671 4.23854 1.73526 0
M  V30 189 N 21.7581 4.2653 1.80628 0
M  V30 190 C 22.4931 5.32372 2.12997 0
M  V30 191 N 21.9891 6.48491 2.43786 0
M  V30 192 N 23.7821 5.19766 2.14008 0
M  V30 193 H 15.9331 2.1133 -0.212925 0
M  V30 194 H 18.1961 0.947439 -0.0326199 0
M  V30 195 H 17.9021 3.4852 0.471905 0
M  V30 196 H 17.7761 3.08177 2.17501 0
M  V30 197 H 20.1631 2.09462 2.0787 0
M  V30 198 H 20.2441 2.53168 0.366027 0
M  V30 199 H 19.8881 4.98018 0.997013 0
M  V30 200 H 19.8181 4.5124 2.71459 0
M  V30 201 H 22.3091 3.42772 1.59108 0
M  V30 202 H 22.6221 7.24993 2.67592 0
M  V30 203 H 20.9671 6.51765 2.41304 0
M  V30 204 H 24.1581 4.28066 1.89412 0
M  V30 205 H 24.3311 6.02354 2.38902 0
M  V30 206 N 17.7372 -0.778329 1.37039 0
M  V30 207 C 18.9852 -1.53361 1.31623 0
M  V30 208 C 19.3062 -1.94739 -0.100831 0
M  V30 209 O 18.5762 -1.65797 -1.04347 0
M  V30 210 H 17.1562 -0.568794 0.484234 0
M  V30 211 H 19.8182 -0.926742 1.71457 0
M  V30 212 H 18.9142 -2.43606 1.95096 0
M  V30 213 N 19.2153 -1.21501 -1.00376 0
M  V30 214 C 20.1483 -0.918669 -2.08892 0
M  V30 215 C 21.1263 0.134277 -1.62045 0
M  V30 216 O 22.3103 0.00504255 -1.88499 0
M  V30 217 C 19.4373 -0.379645 -3.36566 0
M  V30 218 C 18.4833 -1.41559 -4.02323 0
M  V30 219 S 19.3163 -2.98521 -4.44574 0
M  V30 220 C 20.4723 -2.46228 -5.75433 0
M  V30 221 H 20.7053 -1.83761 -2.33707 0
M  V30 222 H 18.2383 -1.04489 -1.13673 0
M  V30 223 H 20.1963 -0.0752195 -4.10431 0
M  V30 224 H 18.8573 0.518008 -3.09799 0
M  V30 225 H 18.0503 -0.988076 -4.9422 0
M  V30 226 H 17.6523 -1.66815 -3.34737 0
M  V30 227 H 19.9443 -1.86791 -6.51241 0
M  V30 228 H 20.8873 -3.36572 -6.22997 0
M  V30 229 H 21.2953 -1.87894 -5.32312 0
M  V30 230 N 20.6934 1.19889 -1.02296 0
M  V30 231 C 21.9394 1.89701 -0.717033 0
M  V30 232 C 22.2724 1.7905 0.751989 0
M  V30 233 O 21.5474 1.17891 1.547 0
M  V30 234 C 21.8304 3.40858 -1.16136 0
M  V30 235 C 21.6834 3.60411 -2.69117 0
M  V30 236 C 23.0024 4.33876 -0.737549 0
M  V30 237 H 20.1214 0.688874 -0.261957 0
M  V30 238 H 22.7634 1.41154 -1.27183 0
M  V30 239 H 20.9134 3.82335 -0.689342 0
M  V30 240 H 22.5854 3.28145 -3.2422 0
M  V30 241 H 20.8284 3.03665 -3.0979 0
M  V30 242 H 21.4994 4.66396 -2.95261 0
M  V30 243 H 23.9754 4.00081 -1.14344 0
M  V30 244 H 22.8514 5.38242 -1.0764 0
M  V30 245 H 23.1124 4.40628 0.360436 0
M  V30 246 N 22.1715 0.800033 1.35784 0
M  V30 247 C 23.4195 0.376597 1.9856 0
M  V30 248 C 23.7405 -1.05812 1.63795 0
M  V30 249 O 23.0105 -1.73103 0.917171 0
M  V30 250 H 21.5905 0.136261 0.734467 0
M  V30 251 H 24.2525 1.02442 1.65806 0
M  V30 252 H 23.3485 0.477002 3.08433 0
M  V30 253 N 23.6496 -1.47581 0.552962 0
M  V30 254 C 24.8746 -2.07378 0.0300593 0
M  V30 255 C 25.2996 -1.40355 -1.25229 0
M  V30 256 O 24.6576 -0.477099 -1.7491 0
M  V30 257 C 24.7056 -3.60274 -0.153231 0
M  V30 258 O 23.8096 -3.94041 -1.21678 0
M  V30 259 H 23.1506 -0.662158 0.0494182 0
M  V30 260 H 25.6806 -1.89662 0.767434 0
M  V30 261 H 25.6906 -4.0633 -0.368761 0
M  V30 262 H 24.3656 -4.08455 0.783397 0
M  V30 263 H 22.9426 -3.59735 -0.982079 0
M  V30 264 N 25.1277 -0.289203 -1.54924 0
M  V30 265 C 26.0907 0.579144 -2.21762 0
M  V30 266 C 27.0907 1.07047 -1.1999 0
M  V30 267 O 28.2807 0.968384 -1.44803 0
M  V30 268 C 25.4127 1.80055 -2.8947 0
M  V30 269 H 26.6057 -0.00464908 -2.999 0
M  V30 270 H 24.1587 -0.0399306 -1.56249 0
M  V30 271 H 24.8937 2.42449 -2.15381 0
M  V30 272 H 24.6787 1.45602 -3.64064 0
M  V30 273 H 26.1687 2.41773 -3.40493 0
M  V30 274 N 26.6058 1.57591 -0.0167156 0
M  V30 275 C 27.8548 1.90461 0.663877 0
M  V30 276 C 28.1678 0.893515 1.73999 0
M  V30 277 O 29.3738 1.11302 2.47637 0
M  V30 278 C 27.8298 3.38155 1.23204 0
M  V30 279 C 27.4378 4.47597 0.189866 0
M  V30 280 C 29.1818 3.80111 1.88986 0
M  V30 281 C 27.0888 5.86379 0.768964 0
M  V30 282 H 26.0188 0.710738 0.251729 0
M  V30 283 H 28.6698 1.83326 -0.0799926 0
M  V30 284 H 27.0518 3.40182 2.02712 0
M  V30 285 H 28.2258 4.57112 -0.581846 0
M  V30 286 H 26.5408 4.14766 -0.368475 0
M  V30 287 H 29.1378 4.81145 2.33247 0
M  V30 288 H 29.4808 3.14511 2.72743 0
M  V30 289 H 30.0138 3.80454 1.16187 0
M  V30 290 H 26.7528 6.55493 -0.0301957 0
M  V30 291 H 26.2728 5.80496 1.50945 0
M  V30 292 H 27.9518 6.34563 1.26251 0
M  V30 293 N 28.0839 -0.256276 1.55502 0
M  V30 294 C 29.4999 -0.604325 1.47716 0
M  V30 295 C 29.6999 -1.88763 0.705039 0
M  V30 296 O 28.7559 -2.51445 0.230613 0
M  V30 297 C 30.0689 -0.715756 2.92057 0
M  V30 298 C 31.6169 -0.808706 3.02372 0
M  V30 299 C 32.0919 -0.951777 4.48001 0
M  V30 300 N 33.5829 -1.01688 4.519 0
M  V30 301 C 34.3179 -1.14668 5.61817 0
M  V30 302 N 33.8139 -1.24261 6.81565 0
M  V30 303 N 35.6069 -1.1791 5.49594 0
M  V30 304 H 27.7579 0.586291 2.04148 0
M  V30 305 H 30.0209 0.201015 0.926443 0
M  V30 306 H 29.7269 0.157027 3.51349 0
M  V30 307 H 29.6009 -1.59071 3.42018 0
M  V30 308 H 31.9879 -1.67195 2.43166 0
M  V30 309 H 32.0689 0.0912063 2.55637 0
M  V30 310 H 31.7129 -0.0931291 5.07815 0
M  V30 311 H 31.6429 -1.86659 4.92408 0
M  V30 312 H 34.1339 -0.954468 3.65648 0
M  V30 313 H 34.4469 -1.34046 7.61086 0
M  V30 314 H 32.7919 -1.21236 6.84344 0
M  V30 315 H 35.9829 -1.10057 4.54978 0
M  V30 316 H 36.1559 -1.27681 6.35296 0
M  V30 317 N 29.562 -1.4872 -0.521534 0
M  V30 318 C 30.978 -1.35028 -0.850855 0
M  V30 319 C 31.178 -0.367712 -1.98116 0
M  V30 320 O 30.234 0.208037 -2.51642 0
M  V30 321 C 31.547 -2.75263 -1.21041 0
M  V30 322 C 33.095 -2.83813 -1.31981 0
M  V30 323 C 33.57 -4.24769 -1.71276 0
M  V30 324 N 35.061 -4.27482 -1.78363 0
M  V30 325 C 35.796 -5.33494 -2.1017 0
M  V30 326 N 35.292 -6.49775 -2.40343 0
M  V30 327 N 37.085 -5.20894 -2.11248 0
M  V30 328 H 29.236 -2.11214 0.22413 0
M  V30 329 H 31.499 -0.947252 0.0376439 0
M  V30 330 H 31.205 -3.48765 -0.453415 0
M  V30 331 H 31.079 -3.09327 -2.15863 0
M  V30 332 H 33.466 -2.10561 -2.06756 0
M  V30 333 H 33.547 -2.53358 -0.352596 0
M  V30 334 H 33.191 -4.9854 -0.970588 0
M  V30 335 H 33.121 -4.52673 -2.69062 0
M  V30 336 H 35.612 -3.43611 -1.57288 0
M  V30 337 H 35.925 -7.26402 -2.63743 0
M  V30 338 H 34.27 -6.53035 -2.37844 0
M  V30 339 H 37.461 -4.29065 -1.87139 0
M  V30 340 H 37.634 -6.03612 -2.35704 0
M  V30 341 N 31.0401 0.771051 -1.3745 0
M  V30 342 C 31.9721 1.89352 -1.29146 0
M  V30 343 C 32.9851 1.61477 -0.207124 0
M  V30 344 O 34.1741 1.72382 -0.463324 0
M  V30 345 C 31.2741 3.24596 -0.974195 0
M  V30 346 C 30.4471 3.80111 -2.16413 0
M  V30 347 C 29.5061 4.93832 -1.81703 0
M  V30 348 O 28.5321 5.09382 -2.54006 0
M  V30 349 N 29.7341 5.75483 -0.761573 0
M  V30 350 H 32.4991 1.96991 -2.25864 0
M  V30 351 H 30.0601 0.950191 -1.31084 0
M  V30 352 H 32.0521 3.98193 -0.722828 0
M  V30 353 H 30.6221 3.12454 -0.0955527 0
M  V30 354 H 29.8421 2.98284 -2.57721 0
M  V30 355 H 31.1301 4.13932 -2.95867 0
M  V30 356 H 30.5281 5.65469 -0.161609 0
M  V30 357 H 29.0851 6.49302 -0.570064 0
M  V30 358 N 32.5182 1.22032 0.997298 0
M  V30 359 C 33.4482 1.01065 2.10495 0
M  V30 360 C 34.4292 -0.0669542 1.69968 0
M  V30 361 O 35.6142 0.0943987 1.9397 0
M  V30 362 C 32.7442 0.582874 3.42374 0
M  V30 363 C 31.6982 1.60592 3.96729 0
M  V30 364 C 31.0242 1.03412 5.24605 0
M  V30 365 C 32.3242 2.99478 4.27914 0
M  V30 366 H 34.0182 1.93708 2.28292 0
M  V30 367 H 31.5642 0.932761 1.09707 0
M  V30 368 H 33.5172 0.423332 4.19268 0
M  V30 369 H 32.2412 -0.379213 3.24391 0
M  V30 370 H 30.9002 1.75316 3.21963 0
M  V30 371 H 30.5482 0.063518 5.0296 0
M  V30 372 H 30.2482 1.71754 5.61938 0
M  V30 373 H 31.7722 0.886066 6.04137 0
M  V30 374 H 33.1862 2.88153 4.95622 0
M  V30 375 H 31.5832 3.64903 4.76409 0
M  V30 376 H 32.6532 3.49742 3.3587 0
M  V30 377 N 33.9963 -1.19345 1.0293 0
M  V30 378 C 34.9063 -2.26245 0.620515 0
M  V30 379 C 35.9223 -1.70486 -0.347928 0
M  V30 380 O 37.0983 -2.00347 -0.205704 0
M  V30 381 C 34.1633 -3.46693 -0.0218957 0
M  V30 382 C 33.2243 -4.17632 0.994102 0
M  V30 383 C 32.4573 -5.32329 0.382253 0
M  V30 384 O 32.6803 -5.64552 -0.814676 0
M  V30 385 O 31.6143 -5.91664 1.10531 0
M  V30 386 H 35.4403 -2.63453 1.51083 0
M  V30 387 H 33.0253 -1.26207 0.799513 0
M  V30 388 H 34.9073 -4.19683 -0.380072 0
M  V30 389 H 33.5823 -3.11333 -0.886209 0
M  V30 390 H 32.4893 -3.4676 1.40387 0
M  V30 391 H 33.8223 -4.56964 1.8288 0
M  V30 392 N 35.4744 -0.807222 -1.35358 0
M  V30 393 C 36.4064 -0.175717 -2.28525 0
M  V30 394 C 37.4194 0.625354 -1.5031 0
M  V30 395 O 38.6084 0.457611 -1.72535 0
M  V30 396 C 35.7084 0.773471 -3.29956 0
M  V30 397 C 34.8814 0.0186296 -4.37396 0
M  V30 398 C 33.9404 0.886395 -5.18681 0
M  V30 399 O 32.9664 0.337106 -5.68201 0
M  V30 400 N 34.1684 2.20839 -5.36852 0
M  V30 401 H 36.9334 -0.976091 -2.83359 0
M  V30 402 H 34.4944 -0.662737 -1.47714 0
M  V30 403 H 36.4864 1.35824 -3.81227 0
M  V30 404 H 35.0564 1.47465 -2.75632 0
M  V30 405 H 34.2764 -0.747349 -3.87051 0
M  V30 406 H 35.5644 -0.501577 -5.06322 0
M  V30 407 H 34.9624 2.67858 -4.98265 0
M  V30 408 H 33.5194 2.74237 -5.91301 0
M  V30 409 N 36.9525 1.47285 -0.560781 0
M  V30 410 C 38.3685 1.58065 -0.22081 0
M  V30 411 C 38.5685 1.55892 1.27671 0
M  V30 412 O 37.6245 1.46422 2.0571 0
M  V30 413 C 38.9375 2.88418 -0.850625 0
M  V30 414 C 40.4855 3.02009 -0.822184 0
M  V30 415 C 40.9605 4.35066 -1.43113 0
M  V30 416 N 42.4515 4.41711 -1.39448 0
M  V30 417 C 43.1865 5.43237 -1.83525 0
M  V30 418 N 42.6825 6.51555 -2.35474 0
M  V30 419 N 44.4755 5.34304 -1.74574 0
M  V30 420 H 36.6265 1.46941 -1.53369 0
M  V30 421 H 38.8895 0.699558 -0.639783 0
M  V30 422 H 38.5955 2.95755 -1.9032 0
M  V30 423 H 38.4695 3.75612 -0.345773 0
M  V30 424 H 40.8565 2.94266 0.221714 0
M  V30 425 H 40.9375 2.16347 -1.36483 0
M  V30 426 H 40.5815 4.43565 -2.47412 0
M  V30 427 H 40.5115 5.19465 -0.863899 0
M  V30 428 H 43.0025 3.64027 -1.01452 0
M  V30 429 H 43.3155 7.25203 -2.67021 0
M  V30 430 H 41.6605 6.52435 -2.39487 0
M  V30 431 H 44.8515 4.48581 -1.33763 0
M  V30 432 H 45.0245 6.13288 -2.09242 0
M  V30 433 N 38.4306 0.297415 1.54768 0
M  V30 434 C 39.6786 -0.312295 1.99673 0
M  V30 435 C 39.9996 -1.54686 1.18732 0
M  V30 436 O 39.2696 -1.93854 0.282382 0
M  V30 437 H 37.8496 -0.118381 0.73756 0
M  V30 438 H 40.5116 0.407915 1.90583 0
M  V30 439 H 39.6076 -0.586813 3.06534 0
M  V30 440 N 39.9087 -1.5758 0.0250728 0
M  V30 441 C 41.1857 -1.82917 -0.692873 0
M  V30 442 C 41.5657 -0.908137 -1.90568 0
M  V30 443 O 40.9137 0.0372298 -2.2847 0
M  V30 444 C 41.1237 -3.32034 -1.07492 0
M  V30 445 C 42.4717 -3.98406 -1.46826 0
M  V30 446 O 43.4957 -3.36505 -1.16801 0
M  V30 447 O 42.3547 -5.07497 -2.02754 0
M  V30 448 H 39.4487 -0.754079 -0.33955 0
M  V30 449 H 41.9947 -1.69619 0.0524456 0
M  V30 450 H 40.7667 -3.90728 -0.211552 0
M  V30 451 H 40.3897 -3.50424 -1.87854 0
M  V30 452 N 41.3868 0.248026 -1.55636 0
M  V30 453 C 42.6328 0.97767 -1.77678 0
M  V30 454 C 42.9658 1.85016 -0.590135 0
M  V30 455 O 42.2408 1.90095 0.411611 0
M  V30 456 C 42.5238 1.83914 -3.09593 0
M  V30 457 C 42.3768 0.99491 -4.38659 0
M  V30 458 C 43.6958 2.82183 -3.37729 0
M  V30 459 H 40.8148 0.354005 -0.646413 0
M  V30 460 H 43.4568 0.248253 -1.88371 0
M  V30 461 H 41.6068 2.46104 -3.00608 0
M  V30 462 H 43.2788 0.391789 -4.59633 0
M  V30 463 H 41.5218 0.299231 -4.32767 0
M  V30 464 H 42.1928 1.63145 -5.2734 0
M  V30 465 H 44.6688 2.30129 -3.4667 0
M  V30 466 H 43.5448 3.39582 -4.31249 0
M  V30 467 H 43.8058 3.58588 -2.58586 0
M  V30 468 N 42.8649 1.48995 0.513639 0
M  V30 469 C 43.7749 1.67443 1.64317 0
M  V30 470 C 44.7909 0.556947 1.64846 0
M  V30 471 O 45.9669 0.830082 1.83498 0
M  V30 472 C 43.0319 1.72515 3.00732 0
M  V30 473 C 42.0929 2.96009 3.1093 0
M  V30 474 C 41.3259 3.00829 4.40837 0
M  V30 475 O 41.5489 2.13594 5.28898 0
M  V30 476 O 40.4829 3.93168 4.55744 0
M  V30 477 H 44.3089 2.63106 1.51687 0
M  V30 478 H 41.8939 1.32588 0.688543 0
M  V30 479 H 43.7759 1.78277 3.81831 0
M  V30 480 H 42.4509 0.800278 3.13651 0
M  V30 481 H 41.3579 2.9577 2.29065 0
M  V30 482 H 42.6909 3.87934 3.02933 0
M  V30 483 N 44.343 -0.763751 1.37857 0
M  V30 484 C 45.273 -1.89103 1.36975 0
M  V30 485 C 46.254 -1.68439 0.237152 0
M  V30 486 O 47.439 -1.8918 0.438713 0
M  V30 487 C 44.569 -3.26496 1.18395 0
M  V30 488 C 43.523 -3.61741 2.28751 0
M  V30 489 C 42.849 -4.97762 1.95286 0
M  V30 490 C 44.149 -3.67665 3.70972 0
M  V30 491 H 45.843 -1.90099 2.31307 0
M  V30 492 H 43.389 -0.91319 1.11341 0
M  V30 493 H 45.342 -4.05003 1.16406 0
M  V30 494 H 44.066 -3.25955 0.205215 0
M  V30 495 H 42.725 -2.85547 2.29909 0
M  V30 496 H 42.373 -4.93769 0.959221 0
M  V30 497 H 42.073 -5.22313 2.69189 0
M  V30 498 H 43.597 -5.7866 1.94898 0
M  V30 499 H 45.011 -4.36307 3.719 0
M  V30 500 H 43.408 -4.03718 4.43995 0
M  V30 501 H 44.478 -2.68134 4.0402 0
M  V30 502 N 45.8211 -1.22559 -0.990812 0
M  V30 503 C 47.0671 -1.05297 -1.73322 0
M  V30 504 C 47.4001 0.410655 -1.89808 0
M  V30 505 O 46.6751 1.30439 -1.44277 0
M  V30 506 C 46.9581 -1.76713 -3.13759 0
M  V30 507 C 46.8111 -3.30684 -3.04907 0
M  V30 508 C 48.1301 -1.52121 -4.12974 0
M  V30 509 H 45.2491 -0.38392 -0.629106 0
M  V30 510 H 47.8911 -1.50926 -1.15418 0
M  V30 511 H 46.0411 -1.37924 -3.63193 0
M  V30 512 H 47.7131 -3.7893 -2.63077 0
M  V30 513 H 45.9561 -3.60253 -2.41661 0
M  V30 514 H 46.6271 -3.75833 -4.04294 0
M  V30 515 H 49.1031 -1.85819 -3.72304 0
M  V30 516 H 47.9791 -2.04582 -5.0935 0
M  V30 517 H 48.2401 -0.454257 -4.3976 0
M  V30 518 N 47.2992 1.18797 -1.03562 0
M  V30 519 C 48.2292 2.24472 -0.643019 0
M  V30 520 C 49.2102 1.66433 0.351283 0
M  V30 521 O 50.3952 1.92803 0.232505 0
M  V30 522 C 47.5252 3.473 4.24935e-05 0
M  V30 523 C 46.4792 4.18055 -0.917257 0
M  V30 524 C 45.8052 5.34519 -0.138941 0
M  V30 525 C 47.1052 4.72109 -2.23407 0
M  V30 526 H 48.7992 2.57566 -1.52643 0
M  V30 527 H 46.3452 1.23806 -0.735394 0
M  V30 528 H 48.2982 4.20426 0.286383 0
M  V30 529 H 47.0222 3.13424 0.918299 0
M  V30 530 H 45.6812 3.46821 -1.1879 0
M  V30 531 H 45.3292 4.96891 0.781562 0
M  V30 532 H 45.0292 5.82794 -0.750005 0
M  V30 533 H 46.5532 6.10438 0.1405 0
M  V30 534 H 47.9672 5.36955 -2.00879 0
M  V30 535 H 46.3642 5.30897 -2.79765 0
M  V30 536 H 47.4342 3.89807 -2.88407 0
M  V30 537 N 48.7773 0.814389 1.34928 0
M  V30 538 C 50.1933 0.499084 1.51596 0
M  V30 539 C 50.3933 -0.978319 1.76157 0
M  V30 540 O 49.4493 -1.76309 1.80752 0
M  V30 541 C 50.7623 1.35121 2.68631 0
M  V30 542 C 52.3103 1.34746 2.82511 0
M  V30 543 C 52.7853 2.18388 4.0258 0
M  V30 544 N 54.2763 2.15966 4.09772 0
M  V30 545 C 55.0113 2.77437 5.01813 0
M  V30 546 N 54.5073 3.47866 5.99134 0
M  V30 547 N 56.3003 2.67037 4.94619 0
M  V30 548 H 48.4513 1.7711 1.17243 0
M  V30 549 H 50.7143 0.754256 0.574284 0
M  V30 550 H 50.4203 2.40001 2.57085 0
M  V30 551 H 50.2943 1.00991 3.63429 0
M  V30 552 H 52.6813 0.30648 2.93504 0
M  V30 553 H 52.7623 1.72869 1.88547 0
M  V30 554 H 52.4063 3.2253 3.92347 0
M  V30 555 H 52.3363 1.77621 4.9574 0
M  V30 556 H 54.8273 1.64729 3.40107 0
M  V30 557 H 55.1403 3.92038 6.65977 0
M  V30 558 H 53.4853 3.51972 5.99284 0
M  V30 559 H 56.6763 2.11597 4.17546 0
M  V30 560 H 56.8493 3.15232 5.66156 0
M  V30 561 N 50.2554 -1.46986 0.568584 0
M  V30 562 C 51.4834 -2.0683 0.0539956 0
M  V30 563 C 51.8984 -1.41953 -1.24478 0
M  V30 564 O 51.2554 -0.519933 -1.74937 0
M  V30 565 C 51.3064 -3.61254 -0.133362 0
M  V30 566 O 51.0274 -4.237 1.11399 0
M  V30 567 C 52.5284 -4.37992 -0.683927 0
M  V30 568 H 49.7484 -0.669058 0.0510141 0
M  V30 569 H 52.2924 -1.88824 0.785234 0
M  V30 570 H 50.4474 -3.78735 -0.81477 0
M  V30 571 H 50.8614 -5.16388 0.91888 0
M  V30 572 H 52.3354 -5.46684 -0.764263 0
M  V30 573 H 52.8124 -4.05058 -1.69778 0
M  V30 574 H 53.4184 -4.25283 -0.0378494 0
M  V30 575 N 51.7335 -0.305618 -1.54608 0
M  V30 576 C 53.1495 0.0476228 -1.59529 0
M  V30 577 C 53.3495 1.52025 -1.32252 0
M  V30 578 O 52.4055 2.27368 -1.09818 0
M  V30 579 C 53.7185 -0.354471 -2.98603 0
M  V30 580 C 55.2665 -0.303622 -3.11524 0
M  V30 581 C 55.7415 -0.680608 -4.52915 0
M  V30 582 N 57.2325 -0.63332 -4.5885 0
M  V30 583 C 57.9675 -0.897432 -5.66334 0
M  V30 584 N 57.4635 -1.22775 -6.81834 0
M  V30 585 N 59.2565 -0.824186 -5.56025 0
M  V30 586 H 51.4075 -1.2653 -1.70599 0
M  V30 587 H 53.6705 -0.513291 -0.797017 0
M  V30 588 H 53.3765 -1.3798 -3.23503 0
M  V30 589 H 53.2505 0.289568 -3.76087 0
M  V30 590 H 55.6375 0.712472 -2.8637 0
M  V30 591 H 55.7185 -0.982348 -2.36185 0
M  V30 592 H 55.3625 -1.69453 -4.78799 0
M  V30 593 H 55.2925 0.0202385 -5.26596 0
M  V30 594 H 57.7835 -0.389138 -3.75891 0
M  V30 595 H 58.0965 -1.41513 -7.59733 0
M  V30 596 H 56.4415 -1.26583 -6.83375 0
M  V30 597 H 59.6325 -0.565748 -4.64669 0
M  V30 598 H 59.8055 -1.03338 -6.39707 0
M  V30 599 N 53.2116 1.57565 -0.0334293 0
M  V30 600 C 54.4886 1.83282 0.683163 0
M  V30 601 C 54.8686 0.91823 1.90084 0
M  V30 602 O 54.2166 -0.025113 2.28486 0
M  V30 603 C 54.4266 3.32599 1.0573 0
M  V30 604 C 55.7746 3.99179 1.44711 0
M  V30 605 O 56.7986 3.3712 1.15015 0
M  V30 606 O 55.6576 5.08565 2.0006 0
M  V30 607 H 52.7516 0.755869 0.335546 0
M  V30 608 H 55.2976 1.69589 -0.0614402 0
M  V30 609 H 54.0696 3.90834 0.190828 0
M  V30 610 H 53.6926 3.51415 1.85993 0
M  V30 611 N 54.6897 -0.239769 1.55765 0
M  V30 612 C 55.5997 -1.31831 1.94056 0
M  V30 613 C 56.6157 -1.52275 0.841925 0
M  V30 614 O 57.7917 -1.65759 1.14394 0
M  V30 615 C 54.8567 -2.65156 2.23368 0
M  V30 616 C 53.9177 -2.53173 3.46701 0
M  V30 617 C 53.1507 -3.8014 3.74606 0
M  V30 618 O 53.3737 -4.82343 3.04469 0
M  V30 619 O 52.3077 -3.78344 4.68123 0
M  V30 620 H 56.1337 -1.02347 2.85935 0
M  V30 621 H 53.7187 -0.441123 1.42739 0
M  V30 622 H 55.6007 -3.43929 2.43497 0
M  V30 623 H 54.2757 -2.94358 1.34666 0
M  V30 624 H 53.1827 -1.72662 3.31871 0
M  V30 625 H 54.5157 -2.28915 4.35728 0
M  V30 626 N 56.1678 -1.49265 -0.50573 0
M  V30 627 C 57.0978 -1.68495 -1.61653 0
M  V30 628 C 58.0788 -0.53366 -1.61512 0
M  V30 629 O 59.2638 -0.76897 -1.78327 0
M  V30 630 C 56.3938 -1.74709 -3.00157 0
M  V30 631 C 55.3478 -2.89581 -3.15162 0
M  V30 632 C 54.6738 -2.80903 -4.5497 0
M  V30 633 C 55.9738 -4.30578 -2.95634 0
M  V30 634 H 57.6678 -2.61493 -1.45814 0
M  V30 635 H 55.2138 -1.25838 -0.70005 0
M  V30 636 H 57.1668 -1.86748 -3.77761 0
M  V30 637 H 55.8908 -0.783067 -3.17074 0
M  V30 638 H 54.5498 -2.77136 -2.39982 0
M  V30 639 H 54.1978 -1.82419 -4.68756 0
M  V30 640 H 53.8978 -3.57999 -4.65951 0
M  V30 641 H 55.4218 -2.94944 -5.34641 0
M  V30 642 H 56.8358 -4.4373 -3.63011 0
M  V30 643 H 55.2328 -5.0886 -3.18091 0
M  V30 644 H 56.3028 -4.45352 -1.91806 0
M  V30 645 N 57.6459 0.756429 -1.3826 0
M  V30 646 C 58.5939 1.89149 -1.35372 0
M  V30 647 C 59.5879 1.67691 -0.24004 0
M  V30 648 O 60.7939 1.75294 -0.408919 0
M  V30 649 H 57.1689 0.622271 -0.422236 0
M  V30 650 H 59.1399 1.88701 -2.31159 0
M  V30 651 C 57.8889 3.26599 -1.19284 0
M  V30 652 H 57.2119 3.43695 -2.0424 0
M  V30 653 H 58.6519 4.06274 -1.21316 0
M  V30 654 C 57.1109 3.3675 0.100454 0
M  V30 655 O 57.6409 3.86951 1.07851 0
M  V30 656 N 55.8469 2.90179 0.15633 0
M  V30 657 H 55.3939 2.49517 -0.640253 0
M  V30 658 H 55.3519 2.97352 1.02123 0
M  V30 659 N 59.124 1.23083 0.984299 0
M  V30 660 C 60.054 1.03292 2.09411 0
M  V30 661 C 61.035 -0.048923 1.7003 0
M  V30 662 O 62.22 0.114967 1.93859 0
M  V30 663 C 59.35 0.619155 3.41736 0
M  V30 664 C 58.304 1.64791 3.95004 0
M  V30 665 C 57.63 1.0897 5.23478 0
M  V30 666 C 58.93 3.03999 4.24714 0
M  V30 667 H 60.624 1.96119 2.26225 0
M  V30 668 H 58.17 0.944344 1.08711 0
M  V30 669 H 60.123 0.467777 4.18796 0
M  V30 670 H 58.847 -0.344786 3.24775 0
M  V30 671 H 57.506 1.78721 3.20085 0
M  V30 672 H 57.154 0.11686 5.02864 0
M  V30 673 H 56.854 1.77704 5.60085 0
M  V30 674 H 58.378 0.950093 6.03163 0
M  V30 675 H 59.792 2.93393 4.92538 0
M  V30 676 H 58.189 3.69936 4.72512 0
M  V30 677 H 59.259 3.53285 3.32142 0
M  V30 678 N 60.6021 -1.18246 1.0419 0
M  V30 679 C 61.5321 -2.24127 0.654914 0
M  V30 680 C 62.5131 -1.66617 -0.342451 0
M  V30 681 O 63.6981 -1.92924 -0.222277 0
M  V30 682 C 60.8281 -3.47295 0.0183757 0
M  V30 683 C 59.7821 -4.17563 0.939414 0
M  V30 684 C 59.1081 -5.34438 0.167286 0
M  V30 685 C 60.4081 -4.70917 2.25908 0
M  V30 686 H 62.1021 -2.56753 1.54007 0
M  V30 687 H 59.6481 -1.23414 0.74195 0
M  V30 688 H 61.6011 -4.20572 -0.264082 0
M  V30 689 H 60.3251 -3.13907 -0.901664 0
M  V30 690 H 58.9841 -3.46186 1.20628 0
M  V30 691 H 58.6321 -4.97298 -0.7552 0
M  V30 692 H 58.3321 -5.82388 0.780901 0
M  V30 693 H 59.8561 -6.10504 -0.108125 0
M  V30 694 H 61.2701 -5.35882 2.03724 0
M  V30 695 H 59.6671 -5.29406 2.82577 0
M  V30 696 H 60.7371 -3.88272 2.9047 0
M  V30 697 N 62.0802 -0.821533 -1.34494 0
M  V30 698 C 63.3572 -0.33159 -1.92769 0
M  V30 699 C 63.7372 1.18088 -1.74981 0
M  V30 700 O 63.0852 1.98733 -1.12772 0
M  V30 701 C 63.2952 -0.759398 -3.40638 0
M  V30 702 C 64.6432 -0.757433 -4.1779 0
M  V30 703 O 65.6672 -0.70189 -3.49216 0
M  V30 704 O 64.5262 -0.829361 -5.4017 0
M  V30 705 H 61.6202 -0.0902502 -0.822061 0
M  V30 706 H 64.1662 -0.906231 -1.43477 0
M  V30 707 H 62.9382 -1.8012 -3.47379 0
M  V30 708 H 62.5612 -0.160378 -3.97276 0
M  V30 709 N 63.5583 1.46682 -0.576371 0
M  V30 710 C 64.7833 2.07304 -0.0630475 0
M  V30 711 C 65.2083 1.42329 1.2298 0
M  V30 712 O 64.5663 0.504865 1.74129 0
M  V30 713 C 64.6143 3.60472 0.095895 0
M  V30 714 O 63.7183 3.95927 1.15394 0
M  V30 715 H 63.0593 0.661288 -0.0599463 0
M  V30 716 H 65.5893 1.88417 -0.797511 0
M  V30 717 H 65.5993 4.06865 0.304071 0
M  V30 718 H 64.2743 4.07157 -0.84828 0
M  V30 719 H 62.8513 3.61252 0.924724 0
M  V30 720 N 65.0364 0.313813 1.54444 0
M  V30 721 C 66.4524 -0.0391619 1.59552 0
M  V30 722 C 66.6524 -1.51322 1.33056 0
M  V30 723 O 65.7084 -2.26782 1.11022 0
M  V30 724 C 67.0214 0.370302 2.98411 0
M  V30 725 C 68.5694 0.320139 3.11358 0
M  V30 726 C 69.0444 0.704617 4.52547 0
M  V30 727 N 70.5354 0.657645 4.58508 0
M  V30 728 C 71.2704 0.927453 5.6585 0
M  V30 729 N 70.7664 1.26389 6.81174 0
M  V30 730 N 72.5594 0.853662 5.5558 0
M  V30 731 H 64.7104 1.27433 1.69925 0
M  V30 732 H 66.9734 0.517511 0.794284 0
M  V30 733 H 66.6794 1.39694 3.22767 0
M  V30 734 H 66.5534 -0.269619 3.76235 0
M  V30 735 H 68.9404 -0.697275 2.86744 0
M  V30 736 H 69.0214 0.99486 2.35661 0
M  V30 737 H 68.6654 1.7199 4.77893 0
M  V30 738 H 68.5954 0.00768843 5.26599 0
M  V30 739 H 71.0864 0.409067 3.75679 0
M  V30 740 H 71.3994 1.4554 7.58972 0
M  V30 741 H 69.7444 1.30206 6.82694 0
M  V30 742 H 72.9354 0.590383 4.64362 0
M  V30 743 H 73.1084 1.0673 6.3915 0
M  V30 744 N 66.5145 -1.57545 0.0417849 0
M  V30 745 C 67.4775 -2.09885 -0.92093 0
M  V30 746 C 68.4775 -1.01648 -1.24596 0
M  V30 747 O 69.6675 -1.27759 -1.1842 0
M  V30 748 C 66.7995 -2.57527 -2.23367 0
M  V30 749 H 67.9925 -2.96236 -0.467382 0
M  V30 750 H 65.5455 -1.5493 -0.206467 0
M  V30 751 H 66.2805 -1.74542 -2.73323 0
M  V30 752 H 66.0655 -3.36613 -2.01083 0
M  V30 753 H 67.5555 -2.98201 -2.92346 0
M  V30 754 N 67.9926 0.231505 -1.5589 0
M  V30 755 C 69.2386 0.95877 -1.78705 0
M  V30 756 C 69.5716 1.8438 -0.609725 0
M  V30 757 O 68.8466 1.90521 0.391426 0
M  V30 758 C 69.1296 1.8062 -3.11526 0
M  V30 759 C 68.9826 0.948328 -4.39689 0
M  V30 760 C 70.3016 2.78585 -3.40703 0
M  V30 761 H 67.4206 0.347129 -0.650131 0
M  V30 762 H 70.0626 0.228259 -1.88624 0
M  V30 763 H 68.2126 2.42902 -3.03201 0
M  V30 764 H 69.8846 0.343016 -4.60023 0
M  V30 765 H 68.1276 0.253314 -4.3306 0
M  V30 766 H 68.7986 1.57543 -5.29041 0
M  V30 767 H 71.2746 2.26439 -3.49091 0
M  V30 768 H 70.1506 3.34988 -4.34826 0
M  V30 769 H 70.4116 3.55825 -2.62375 0
M  V30 770 N 69.4707 1.49531 0.497807 0
M  V30 771 C 70.4207 1.62829 1.59596 0
M  V30 772 C 71.4047 0.483824 1.53453 0
M  V30 773 O 72.5967 0.736937 1.60929 0
M  V30 774 C 69.7257 1.7011 2.98191 0
M  V30 775 C 68.8117 2.90144 3.09317 0
M  V30 776 N 69.2027 4.1418 2.90324 0
M  V30 777 C 67.5007 2.88148 3.40422 0
M  V30 778 C 68.2017 4.94886 3.05717 0
M  V30 779 N 67.1777 4.28314 3.34736 0
M  V30 780 H 70.9797 2.56446 1.4357 0
M  V30 781 H 68.4937 1.46347 0.704001 0
M  V30 782 H 70.4907 1.77735 3.77115 0
M  V30 783 H 69.1507 0.776315 3.15283 0
M  V30 784 H 70.1617 4.44109 2.66436 0
M  V30 785 H 66.8387 2.05061 3.63671 0
M  V30 786 H 68.2287 6.03432 2.95499 0
M  V30 787 N 70.9488 -0.749086 1.3866 0
M  V30 788 C 72.2258 -1.4992 1.25632 0
M  V30 789 C 72.6058 -2.10633 -0.140317 0
M  V30 790 O 71.9538 -1.97437 -1.15025 0
M  V30 791 C 72.1638 -2.56195 2.36992 0
M  V30 792 C 73.5118 -3.22972 2.75634 0
M  V30 793 O 74.5358 -2.66502 2.36337 0
M  V30 794 O 73.3948 -4.25122 3.43415 0
M  V30 795 H 70.4888 -0.665067 0.491544 0
M  V30 796 H 73.0348 -0.784113 1.50498 0
M  V30 797 H 71.8068 -2.09612 3.30422 0
M  V30 798 H 71.4298 -3.35279 2.13714 0
M  V30 799 N 72.4269 -1.23603 -0.977757 0
M  V30 800 C 73.6739 -1.06971 -1.71941 0
M  V30 801 C 74.0019 0.393009 -1.90488 0
M  V30 802 O 73.2569 1.30719 -1.4564 0
M  V30 803 C 73.5559 -1.7433 -3.11999 0
M  V30 804 C 73.2219 -3.24252 -3.13323 0
M  V30 805 C 71.8839 -3.65156 -3.13392 0
M  V30 806 C 74.2359 -4.20141 -3.08433 0
M  V30 807 C 71.5639 -5.00403 -3.0629 0
M  V30 808 C 73.9159 -5.55384 -3.02873 0
M  V30 809 C 72.5799 -5.95647 -3.01265 0
M  V30 810 H 71.8499 -0.391433 -0.629175 0
M  V30 811 H 74.4969 -1.53572 -1.14403 0
M  V30 812 H 72.8019 -1.20096 -3.7294 0
M  V30 813 H 74.4989 -1.58936 -3.68158 0
M  V30 814 H 71.0889 -2.91692 -3.14029 0
M  V30 815 H 75.2729 -3.89547 -3.07517 0
M  V30 816 H 70.5289 -5.3081 -3.03399 0
M  V30 817 H 74.7029 -6.29398 -2.98046 0
M  V30 818 H 72.3299 -7.0041 -2.95516 0
M  V30 819 N 73.905 1.17692 -1.04816 0
M  V30 820 C 75.152 1.87859 -0.75599 0
M  V30 821 C 75.48 1.80812 0.716752 0
M  V30 822 O 74.735 1.20819 1.53952 0
M  V30 823 C 75.034 3.37462 -1.17703 0
M  V30 824 C 74.7 3.64713 -2.65133 0
M  V30 825 C 73.362 3.71859 -3.05408 0
M  V30 826 C 75.714 3.76492 -3.60421 0
M  V30 827 C 73.042 3.88271 -4.39843 0
M  V30 828 C 75.394 3.94421 -4.94585 0
M  V30 829 C 74.058 3.99806 -5.3452 0
M  V30 830 H 73.328 0.687425 -0.276636 0
M  V30 831 H 75.975 1.39255 -1.31455 0
M  V30 832 H 74.28 3.88097 -0.537395 0
M  V30 833 H 75.977 3.90109 -0.928218 0
M  V30 834 H 72.567 3.59772 -2.32942 0
M  V30 835 H 76.751 3.70295 -3.30447 0
M  V30 836 H 72.007 3.90687 -4.70291 0
M  V30 837 H 76.181 4.02477 -5.68318 0
M  V30 838 H 73.808 4.12276 -6.38696 0
M  V30 839 N 75.3831 0.828654 1.34056 0
M  V30 840 C 76.3461 0.259927 2.27721 0
M  V30 841 C 77.3461 -0.565478 1.50529 0
M  V30 842 O 78.5361 -0.38075 1.69988 0
M  V30 843 C 75.6681 -0.634944 3.34935 0
M  V30 844 H 76.8611 1.0863 2.79534 0
M  V30 845 H 74.4141 0.600951 1.44285 0
M  V30 846 H 75.1491 -1.48416 2.88346 0
M  V30 847 H 74.9341 -0.0444999 3.92075 0
M  V30 848 H 76.4241 -1.02648 4.04788 0
M  V30 849 N 76.8612 -1.46375 0.584142 0
M  V30 850 C 78.0862 -2.07268 0.0740405 0
M  V30 851 C 78.5112 -1.42979 -1.22223 0
M  V30 852 O 77.8692 -0.514092 -1.73859 0
M  V30 853 C 77.9172 -3.60518 -0.0767769 0
M  V30 854 O 77.0212 -3.96533 -1.13292 0
M  V30 855 H 76.3622 -0.660961 0.0634524 0
M  V30 856 H 78.8922 -1.87991 0.807492 0
M  V30 857 H 78.9022 -4.07021 -0.282489 0
M  V30 858 H 77.5772 -4.06702 0.86986 0
M  V30 859 H 76.1542 -3.61738 -0.905553 0
M  V30 860 N 78.3393 -0.321999 -1.54275 0
M  V30 861 C 79.2493 0.553631 -2.27974 0
M  V30 862 C 80.2653 1.13054 -1.32268 0
M  V30 863 O 81.4413 1.15084 -1.6528 0
M  V30 864 C 78.5063 1.69927 -3.02201 0
M  V30 865 C 77.5673 1.15433 -4.1349 0
M  V30 866 C 76.8003 2.24537 -4.84168 0
M  V30 867 O 77.0233 3.44852 -4.5435 0
M  V30 868 O 75.9573 1.90044 -5.7111 0
M  V30 869 H 79.7833 -0.0448345 -3.03667 0
M  V30 870 H 77.3683 -0.0877418 -1.49142 0
M  V30 871 H 79.2503 2.3663 -3.48689 0
M  V30 872 H 77.9253 2.28395 -2.29385 0
M  V30 873 H 76.8323 0.452436 -3.71354 0
M  V30 874 H 78.1653 0.614805 -4.88345 0
M  V30 875 N 79.8174 1.5752 -0.0501392 0
M  V30 876 C 81.2334 1.56631 0.306402 0
M  V30 877 C 81.4334 1.0577 1.71508 0
M  V30 878 O 80.4894 0.713837 2.422 0
M  V30 879 C 81.8024 3.00393 0.135811 0
M  V30 880 C 83.3504 3.12315 0.206993 0
M  V30 881 C 83.8254 4.57954 0.064944 0
M  V30 882 N 85.3164 4.63041 0.121254 0
M  V30 883 C 86.0514 5.73389 0.0354381 0
M  V30 884 N 85.5474 6.92724 -0.102666 0
M  V30 885 N 87.3404 5.62026 0.090946 0
M  V30 886 H 79.4914 1.88903 -0.971046 0
M  V30 887 H 81.7544 0.869876 -0.376855 0
M  V30 888 H 81.4604 3.41635 -0.835384 0
M  V30 889 H 81.3344 3.66373 0.897275 0
M  V30 890 H 83.7214 2.70973 1.16866 0
M  V30 891 H 83.8024 2.49016 -0.585208 0
M  V30 892 H 83.4464 4.99981 -0.893394 0
M  V30 893 H 83.3764 5.19258 0.876277 0
M  V30 894 H 85.8674 3.77216 0.227284 0
M  V30 895 H 86.1804 7.72633 -0.160882 0
M  V30 896 H 84.5254 6.94864 -0.137737 0
M  V30 897 H 87.7164 4.67684 0.197388 0
M  V30 898 H 87.8894 6.47997 0.0206089 0
M  V30 899 N 81.2955 -0.223234 1.56011 0
M  V30 900 C 82.5445 -0.945912 1.78144 0
M  V30 901 C 82.8575 -1.85567 0.618396 0
M  V30 902 O 84.0635 -2.61688 0.723318 0
M  V30 903 C 82.5195 -1.73216 3.15475 0
M  V30 904 C 82.1275 -0.868619 4.39499 0
M  V30 905 C 83.8715 -2.44615 3.46935 0
M  V30 906 C 81.7785 -1.65212 5.67855 0
M  V30 907 H 80.7085 -0.356929 0.664167 0
M  V30 908 H 83.3595 -0.199845 1.82409 0
M  V30 909 H 81.7415 -2.52107 3.05382 0
M  V30 910 H 82.9155 -0.120366 4.60643 0
M  V30 911 H 81.2305 -0.26683 4.15544 0
M  V30 912 H 83.8275 -3.03732 4.40058 0
M  V30 913 H 84.1705 -3.17417 2.69355 0
M  V30 914 H 84.7035 -1.72715 3.58349 0
M  V30 915 H 81.4425 -0.967407 6.48322 0
M  V30 916 H 80.9625 -2.37503 5.50774 0
M  V30 917 H 82.6415 -2.21322 6.07968 0
M  V30 918 N 82.7736 -1.49793 -0.48987 0
M  V30 919 C 84.0506 -1.50348 -1.25119 0
M  V30 920 C 84.4306 -0.237466 -2.0976 0
M  V30 921 O 83.7786 0.77981 -2.14782 0
M  V30 922 C 83.9886 -2.78872 -2.09837 0
M  V30 923 C 85.3366 -3.288 -2.68655 0
M  V30 924 O 86.3606 -2.80065 -2.20096 0
M  V30 925 O 85.2196 -4.13707 -3.57083 0
M  V30 926 H 82.3136 -0.602242 -0.566775 0
M  V30 927 H 84.8596 -1.62067 -0.503229 0
M  V30 928 H 83.6316 -3.62499 -1.47343 0
M  V30 929 H 83.2546 -2.70066 -2.91805 0
M  V30 930 N 84.2517 0.741722 -1.39055 0
M  V30 931 C 85.1837 1.8657 -1.33133 0
M  V30 932 C 86.1967 1.61001 -0.241329 0
M  V30 933 O 87.3857 1.7136 -0.499784 0
M  V30 934 C 84.4857 3.22457 -1.04283 0
M  V30 935 C 83.6587 3.75435 -2.24427 0
M  V30 936 C 82.7177 4.89867 -1.92138 0
M  V30 937 O 81.7437 5.03879 -2.64754 0
M  V30 938 N 82.9457 5.73738 -0.88347 0
M  V30 939 H 85.7107 1.92156 -2.29991 0
M  V30 940 H 83.2717 0.922172 -1.3307 0
M  V30 941 H 85.2637 3.9657 -0.807128 0
M  V30 942 H 83.8337 3.12181 -0.161807 0
M  V30 943 H 83.0537 2.92751 -2.6399 0
M  V30 944 H 84.3417 4.07563 -3.04581 0
M  V30 945 H 83.7397 5.64999 -0.281517 0
M  V30 946 H 82.2967 6.47947 -0.707662 0
M  V30 947 N 85.7298 1.2412 0.971189 0
M  V30 948 C 86.9758 1.08041 1.71625 0
M  V30 949 C 87.3088 -0.380407 1.90438 0
M  V30 950 O 86.5838 -1.28127 1.46334 0
M  V30 951 C 86.8668 1.81682 3.10908 0
M  V30 952 C 86.7198 3.35493 2.99608 0
M  V30 953 C 88.0388 1.58671 4.10501 0
M  V30 954 H 85.1578 0.39388 0.622919 0
M  V30 955 H 87.7998 1.52743 1.13003 0
M  V30 956 H 85.9498 1.43684 3.60953 0
M  V30 957 H 87.6218 3.83068 2.57015 0
M  V30 958 H 85.8648 3.64052 2.35899 0
M  V30 959 H 86.5358 3.82217 3.98264 0
M  V30 960 H 89.0118 1.91719 3.69301 0
M  V30 961 H 87.8878 2.1266 5.06031 0
M  V30 962 H 88.1488 0.524161 4.38982 0
M  V30 963 N 87.2079 -1.17134 1.05439 0
M  V30 964 C 88.4379 -1.91094 0.785274 0
M  V30 965 C 88.8459 -1.77198 -0.663142 0
M  V30 966 O 88.1889 -1.10835 -1.46497 0
M  V30 967 C 88.2509 -3.42594 1.08949 0
M  V30 968 C 87.9149 -3.80274 2.53458 0
M  V30 969 C 88.9119 -3.82912 3.51673 0
M  V30 970 C 86.5969 -4.11162 2.88532 0
M  V30 971 C 88.5909 -4.15913 4.83006 0
M  V30 972 C 86.2779 -4.43831 4.20068 0
M  V30 973 C 87.2759 -4.46185 5.17115 0
M  V30 974 O 86.9639 -4.78083 6.46291 0
M  V30 975 H 86.6959 -0.613073 0.284811 0
M  V30 976 H 89.2499 -1.49461 1.40893 0
M  V30 977 H 87.4799 -3.84534 0.408741 0
M  V30 978 H 89.1689 -3.97817 0.805991 0
M  V30 979 H 89.9349 -3.5917 3.25917 0
M  V30 980 H 85.8139 -4.085 2.13656 0
M  V30 981 H 89.3579 -4.17665 5.5875 0
M  V30 982 H 85.2549 -4.67037 4.45586 0
M  V30 983 H 86.0229 -4.9593 6.51149 0
M  V30 984 N 88.686 -0.835752 -1.33615 0
M  V30 985 C 89.616 -0.281739 -2.31794 0
M  V30 986 C 90.597 0.608833 -1.58831 0
M  V30 987 O 91.782 0.533035 -1.86741 0
M  V30 988 C 88.912 0.546612 -3.42971 0
M  V30 989 C 87.866 -0.247904 -4.27281 0
M  V30 990 C 87.192 0.704001 -5.30045 0
M  V30 991 C 88.492 -1.46324 -5.01385 0
M  V30 992 H 90.186 -1.10206 -2.78379 0
M  V30 993 H 87.732 -0.531388 -1.33837 0
M  V30 994 H 89.685 0.944467 -4.1068 0
M  V30 995 H 88.409 1.40011 -2.95067 0
M  V30 996 H 87.068 -0.627281 -3.61194 0
M  V30 997 H 86.716 1.55381 -4.78399 0
M  V30 998 H 86.416 0.176524 -5.87335 0
M  V30 999 H 87.94 1.09944 -6.0062 0
M  V30 1000 H 89.354 -1.13871 -5.61877 0
M  V30 1001 H 87.751 -1.92728 -5.6831 0
M  V30 1002 H 88.821 -2.23467 -4.30338 0
M  V30 1003 N 90.1641 1.46063 -0.591896 0
M  V30 1004 C 91.1271 2.28854 0.125973 0
M  V30 1005 C 92.1271 1.38903 0.810107 0
M  V30 1006 O 93.3171 1.61186 0.66066 0
M  V30 1007 C 90.4491 3.19526 1.1881 0
M  V30 1008 H 91.6421 2.93802 -0.601717 0
M  V30 1009 H 89.1951 1.52325 -0.350254 0
M  V30 1010 H 89.9301 2.59345 1.94707 0
M  V30 1011 H 89.7151 3.85766 0.701936 0
M  V30 1012 H 91.2051 3.81817 1.69132 0
M  V30 1013 N 91.6422 0.330177 1.54103 0
M  V30 1014 C 92.6052 -0.520144 2.2322 0
M  V30 1015 C 93.6052 -1.03828 1.22786 0
M  V30 1016 O 94.7952 -0.929652 1.4732 0
M  V30 1017 C 91.9272 -1.72317 2.94142 0
M  V30 1018 H 93.1202 0.0841605 2.99782 0
M  V30 1019 H 90.6732 0.0813433 1.56088 0
M  V30 1020 H 91.4082 -2.36653 2.21734 0
M  V30 1021 H 91.1932 -1.35898 3.67796 0
M  V30 1022 H 92.6832 -2.3266 3.46784 0
M  V30 1023 N 93.1203 -1.57491 0.0584922 0
M  V30 1024 C 94.0833 -2.1085 -0.898617 0
M  V30 1025 C 95.0833 -1.02964 -1.23511 0
M  V30 1026 O 96.2733 -1.29007 -1.17059 0
M  V30 1027 C 93.4053 -2.59881 -2.20623 0
M  V30 1028 H 94.5983 -2.96715 -0.435936 0
M  V30 1029 H 92.1513 -1.55141 -0.190023 0
M  V30 1030 H 92.8863 -1.77431 -2.71457 0
M  V30 1031 H 92.6713 -3.38727 -1.97501 0
M  V30 1032 H 94.1613 -3.01285 -2.89166 0
M  V30 1033 N 94.5984 0.214957 -1.56127 0
M  V30 1034 C 95.5454 1.26642 -1.92952 0
M  V30 1035 C 96.5154 1.46244 -0.78753 0
M  V30 1036 O 97.7004 1.59704 -1.04399 0
M  V30 1037 C 94.8404 2.6104 -2.25726 0
M  V30 1038 C 93.9534 2.49183 -3.52891 0
M  V30 1039 C 93.0884 3.76149 -3.7508 0
M  V30 1040 C 92.1274 3.59041 -4.95738 0
M  V30 1041 N 91.2644 4.77972 -5.14283 0
M  V30 1042 H 96.1044 0.945384 -2.82607 0
M  V30 1043 H 93.6414 0.455489 -1.3987 0
M  V30 1044 H 95.5994 3.39313 -2.42739 0
M  V30 1045 H 94.2294 2.91227 -1.39236 0
M  V30 1046 H 93.2814 1.6231 -3.44034 0
M  V30 1047 H 94.5934 2.32466 -4.41318 0
M  V30 1048 H 93.7474 4.62865 -3.92226 0
M  V30 1049 H 92.4864 3.95799 -2.84947 0
M  V30 1050 H 91.4914 2.7071 -4.78535 0
M  V30 1051 H 92.7164 3.40856 -5.87362 0
M  V30 1052 H 90.6624 4.97923 -4.27093 0
M  V30 1053 H 90.5794 4.64006 -5.96853 0
M  V30 1054 H 91.8474 5.66096 -5.35869 0
M  V30 1055 N 96.0765 1.50051 0.48192 0
M  V30 1056 C 97.3225 1.60736 1.2366 0
M  V30 1057 C 97.6555 0.301786 1.91841 0
M  V30 1058 O 96.9305 -0.696025 1.8162 0
M  V30 1059 C 97.2135 2.78009 2.28874 0
M  V30 1060 C 97.0665 4.18416 1.65069 0
M  V30 1061 C 98.3855 2.90867 3.30279 0
M  V30 1062 H 95.5045 0.585031 0.448228 0
M  V30 1063 H 98.1465 1.82402 0.531946 0
M  V30 1064 H 96.2965 2.59667 2.88973 0
M  V30 1065 H 97.9685 4.48322 1.0865 0
M  V30 1066 H 96.2115 4.23177 0.954148 0
M  V30 1067 H 96.8825 4.96381 2.41474 0
M  V30 1068 H 99.3585 3.07623 2.80191 0
M  V30 1069 H 98.2345 3.74566 4.01238 0
M  V30 1070 H 98.4955 2.01021 3.93755 0
M  V30 1071 N 97.5546 -0.734337 1.39446 0
M  V30 1072 C 98.8026 -1.49096 1.36436 0
M  V30 1073 C 99.1236 -1.94961 -0.0388255 0
M  V30 1074 O 98.3936 -1.69033 -0.990191 0
M  V30 1075 H 96.9736 -0.5531 0.502085 0
M  V30 1076 H 99.6356 -0.871725 1.74319 0
M  V30 1077 H 98.7316 -2.37276 2.02747 0
M  V30 1078 N 99.0327 -1.24633 -0.964593 0
M  V30 1079 C 100.281 -1.08573 -1.70459 0
M  V30 1080 C 100.602 0.375655 -1.91347 0
M  V30 1081 O 99.8717 1.26779 -1.49345 0
M  V30 1082 H 98.4517 -0.398784 -0.631649 0
M  V30 1083 H 101.114 -1.56601 -1.16026 0
M  V30 1084 H 100.21 -1.58623 -2.68785 0
M  V30 1085 N 100.511 1.16574 -1.06058 0
M  V30 1086 C 101.76 1.86385 -0.770944 0
M  V30 1087 C 102.073 1.82448 0.705129 0
M  V30 1088 O 103.279 2.47815 1.10905 0
M  V30 1089 C 101.735 3.34466 -1.32893 0
M  V30 1090 C 101.343 3.46883 -2.83507 0
M  V30 1091 C 103.087 4.09548 -1.11672 0
M  V30 1092 C 100.994 4.89036 -3.32562 0
M  V30 1093 H 99.9238 0.698181 -0.284709 0
M  V30 1094 H 102.575 1.31583 -1.27899 0
M  V30 1095 H 100.957 3.88859 -0.748662 0
M  V30 1096 H 102.131 3.02663 -3.47465 0
M  V30 1097 H 100.446 2.85232 -3.03368 0
M  V30 1098 H 103.043 5.14434 -1.45814 0
M  V30 1099 H 103.386 4.16264 -0.0549535 0
M  V30 1100 H 103.919 3.61387 -1.66265 0
M  V30 1101 H 100.658 4.87499 -4.38207 0
M  V30 1102 H 100.178 5.3389 -2.73351 0
M  V30 1103 H 101.857 5.57843 -3.2775 0
M  V30 1104 N 101.989 0.842826 1.3317 0
M  V30 1105 C 103.235 0.441099 1.97945 0
M  V30 1106 C 103.568 -0.998024 1.66593 0
M  V30 1107 O 102.843 -1.69839 0.947898 0
M  V30 1108 C 103.126 0.666841 3.53872 0
M  V30 1109 C 102.979 2.15352 3.94897 0
M  V30 1110 C 104.298 0.115544 4.39948 0
M  V30 1111 H 101.417 0.161739 0.719034 0
M  V30 1112 H 104.059 1.05907 1.57746 0
M  V30 1113 H 102.209 0.140828 3.88245 0
M  V30 1114 H 103.881 2.7447 3.70761 0
M  V30 1115 H 102.124 2.63653 3.44484 0
M  V30 1116 H 102.795 2.26221 5.03516 0
M  V30 1117 H 105.271 0.565213 4.12243 0
M  V30 1118 H 104.147 0.303152 5.48062 0
M  V30 1119 H 104.408 -0.980935 4.3108 0
M  V30 1120 N 103.467 -1.45747 0.599634 0
M  V30 1121 C 104.43 -2.28917 -0.113835 0
M  V30 1122 C 105.43 -1.3933 -0.802729 0
M  V30 1123 O 106.62 -1.61534 -0.652103 0
M  V30 1124 C 103.752 -3.20152 -1.17114 0
M  V30 1125 H 104.945 -2.93478 0.617289 0
M  V30 1126 H 102.498 -1.52137 0.358327 0
M  V30 1127 H 103.233 -2.60374 -1.93329 0
M  V30 1128 H 103.018 -3.86133 -0.681468 0
M  V30 1129 H 104.508 -3.82708 -1.67105 0
M  V30 1130 N 104.945 -0.338344 -1.53925 0
M  V30 1131 C 105.893 0.536231 -2.26335 0
M  V30 1132 C 106.887 1.1063 -1.28286 0
M  V30 1133 O 108.093 1.05264 -1.46012 0
M  V30 1134 H 104.468 0.191602 -0.727181 0
M  V30 1135 H 106.439 -0.0965747 -2.98244 0
M  V30 1136 C 105.188 1.67803 -3.04528 0
M  V30 1137 H 104.511 1.24864 -3.79801 0
M  V30 1138 H 105.951 2.26526 -3.58416 0
M  V30 1139 C 104.41 2.60439 -2.13712 0
M  V30 1140 O 104.94 3.6255 -1.72975 0
M  V30 1141 N 103.146 2.29006 -1.78898 0
M  V30 1142 H 102.693 1.46011 -2.12223 0
M  V30 1143 H 102.651 2.91248 -1.18416 0
M  V30 1144 N 106.423 1.57458 -0.0668435 0
M  V30 1145 C 107.371 2.13639 0.919851 0
M  V30 1146 C 108.365 1.07204 1.31163 0
M  V30 1147 O 109.571 1.25591 1.28945 0
M  V30 1148 H 105.946 0.683048 0.314562 0
M  V30 1149 H 107.917 2.95415 0.421047 0
M  V30 1150 C 106.666 2.70892 2.17975 0
M  V30 1151 H 105.989 3.5246 1.88711 0
M  V30 1152 H 107.429 3.13803 2.85138 0
M  V30 1153 C 105.888 1.65414 2.93496 0
M  V30 1154 O 106.418 1.07619 3.87015 0
M  V30 1155 N 104.624 1.36564 2.56512 0
M  V30 1156 H 104.171 1.83751 1.80536 0
M  V30 1157 H 104.129 0.66223 3.07347 0
M  V30 1158 N 107.901 -0.206675 1.56239 0
M  V30 1159 C 109.129 -0.945345 1.8404 0
M  V30 1160 C 109.544 -1.77336 0.647885 0
M  V30 1161 O 108.901 -1.78425 -0.383511 0
M  V30 1162 C 108.952 -1.8509 3.10522 0
M  V30 1163 O 108.673 -1.05634 4.25174 0
M  V30 1164 C 110.174 -2.70222 3.51418 0
M  V30 1165 H 107.394 -0.276372 0.61144 0
M  V30 1166 H 109.938 -0.217417 2.03341 0
M  V30 1167 H 108.093 -2.53259 2.93153 0
M  V30 1168 H 108.507 -1.67238 4.97124 0
M  V30 1169 H 109.981 -3.29438 4.42916 0
M  V30 1170 H 110.458 -3.43358 2.73864 0
M  V30 1171 H 111.064 -2.07443 3.71278 0
M  V30 1172 N 109.379 -1.50304 -0.473955 0
M  V30 1173 C 110.609 -1.64663 -1.24778 0
M  V30 1174 C 111.017 -0.328174 -1.86332 0
M  V30 1175 O 110.36 0.699536 -1.69859 0
M  V30 1176 C 110.422 -2.6778 -2.39863 0
M  V30 1177 C 110.086 -4.11413 -1.98969 0
M  V30 1178 C 111.083 -4.97372 -1.51385 0
M  V30 1179 C 108.768 -4.57312 -2.07777 0
M  V30 1180 C 110.762 -6.27277 -1.13148 0
M  V30 1181 C 108.449 -5.87223 -1.69152 0
M  V30 1182 C 109.447 -6.72031 -1.21915 0
M  V30 1183 O 109.135 -7.99518 -0.838237 0
M  V30 1184 H 108.867 -0.556602 -0.383627 0
M  V30 1185 H 111.421 -1.9726 -0.572491 0
M  V30 1186 H 109.651 -2.30419 -3.10554 0
M  V30 1187 H 111.34 -2.71388 -3.01833 0
M  V30 1188 H 112.106 -4.63128 -1.44004 0
M  V30 1189 H 107.985 -3.91449 -2.43493 0
M  V30 1190 H 111.529 -6.93425 -0.762077 0
M  V30 1191 H 107.426 -6.20989 -1.76191 0
M  V30 1192 H 108.194 -8.12764 -0.967339 0
M  V30 1193 N 110.857 0.726932 -1.39834 0
M  V30 1194 C 112.268 1.30558 -1.3346 0
M  V30 1195 C 112.619 1.962 -0.00273003 0
M  V30 1196 O 111.744 1.96826 0.899371 0
M  V30 1197 C 112.339 2.37404 -2.41713 0
M  V30 1198 C 110.898 2.90921 -2.38835 0
M  V30 1199 C 110.045 1.64578 -2.2318 0
M  V30 1200 H 112.996 0.523862 -1.49804 0
M  V30 1201 H 113.017 3.17984 -2.08966 0
M  V30 1202 H 112.529 1.89599 -3.38635 0
M  V30 1203 H 110.63 3.42985 -1.45575 0
M  V30 1204 H 110.743 3.43487 -3.33997 0
M  V30 1205 H 109.107 1.89219 -1.70494 0
M  V30 1206 H 109.89 1.18814 -3.22084 0
M  V30 1207 N 112.336 1.25143 0.95797 0
M  V30 1208 C 113.299 1.05321 2.03569 0
M  V30 1209 C 114.299 0.007152 1.60798 0
M  V30 1210 O 115.489 0.24903 1.72411 0
M  V30 1211 C 112.621 0.598394 3.35607 0
M  V30 1212 H 113.814 2.00986 2.22586 0
M  V30 1213 H 111.367 1.07502 1.13459 0
M  V30 1214 H 112.102 -0.361014 3.22284 0
M  V30 1215 H 111.887 1.35351 3.67998 0
M  V30 1216 H 113.377 0.48104 4.1482 0
M  V30 1217 N 113.814 -1.1601 1.06675 0
M  V30 1218 C 115.091 -1.82679 0.699114 0
M  V30 1219 C 115.471 -1.94559 -0.819137 0
M  V30 1220 O 114.819 -1.49169 -1.73092 0
M  V30 1221 C 115.029 -3.19445 1.40555 0
M  V30 1222 C 116.377 -3.95171 1.55323 0
M  V30 1223 O 117.401 -3.28976 1.36577 0
M  V30 1224 O 116.26 -5.13833 1.86112 0
M  V30 1225 H 113.354 -0.788954 0.247951 0
M  V30 1226 H 115.9 -1.23179 1.16726 0
M  V30 1227 H 114.672 -3.05856 2.44065 0
M  V30 1228 H 114.295 -3.86625 0.927733 0
M  V30 1229 N 115.292 -0.849877 -1.32721 0
M  V30 1230 C 116.539 -0.450923 -1.97416 0
M  V30 1231 C 116.867 0.992376 -1.67279 0
M  V30 1232 O 116.122 1.71048 -0.950845 0
M  V30 1233 C 116.421 -0.631272 -3.51781 0
M  V30 1234 C 116.087 -2.04432 -4.01894 0
M  V30 1235 C 114.749 -2.4308 -4.1529 0
M  V30 1236 C 117.101 -2.96679 -4.28522 0
M  V30 1237 C 114.429 -3.73257 -4.52654 0
M  V30 1238 C 116.781 -4.26349 -4.67343 0
M  V30 1239 C 115.445 -4.64939 -4.78945 0
M  V30 1240 H 114.715 -0.165004 -0.722395 0
M  V30 1241 H 117.362 -1.07901 -1.58207 0
M  V30 1242 H 115.667 0.0800767 -3.91718 0
M  V30 1243 H 117.364 -0.302709 -3.99856 0
M  V30 1244 H 113.954 -1.73419 -3.91949 0
M  V30 1245 H 118.138 -2.68054 -4.17685 0
M  V30 1246 H 113.394 -4.02946 -4.59831 0
M  V30 1247 H 117.568 -4.97895 -4.86902 0
M  V30 1248 H 115.195 -5.65855 -5.07654 0
M  V30 1249 N 116.77 1.45427 -0.607355 0
M  V30 1250 C 118.019 2.01452 -0.100036 0
M  V30 1251 C 118.332 1.48159 1.27704 0
M  V30 1252 O 119.538 1.96159 1.87707 0
M  V30 1253 C 117.994 3.59672 -0.128158 0
M  V30 1254 C 117.602 4.21962 -1.50507 0
M  V30 1255 C 119.346 4.23262 0.323932 0
M  V30 1256 C 117.253 5.72333 -1.48959 0
M  V30 1257 H 116.183 0.75325 -0.0336299 0
M  V30 1258 H 118.834 1.66901 -0.76265 0
M  V30 1259 H 117.216 3.91411 0.601105 0
M  V30 1260 H 118.39 4.01796 -2.25602 0
M  V30 1261 H 116.705 3.70565 -1.89923 0
M  V30 1262 H 119.302 5.33522 0.354691 0
M  V30 1263 H 119.645 3.93921 1.34656 0
M  V30 1264 H 120.178 3.96239 -0.352056 0
M  V30 1265 H 116.917 6.06373 -2.48981 0
M  V30 1266 H 116.437 5.94691 -0.781214 0
M  V30 1267 H 118.116 6.35525 -1.21313 0
M  V30 1268 N 118.248 0.346503 1.53744 0
M  V30 1269 C 119.478 -0.250047 2.05081 0
M  V30 1270 C 119.886 -1.44529 1.22098 0
M  V30 1271 O 119.229 -1.81992 0.249917 0
M  V30 1272 C 119.291 -0.725934 3.52094 0
M  V30 1273 C 118.955 0.350053 4.55657 0
M  V30 1274 C 119.952 1.19372 5.0601 0
M  V30 1275 C 117.637 0.504827 4.99757 0
M  V30 1276 C 119.631 2.17768 5.99046 0
M  V30 1277 C 117.318 1.49218 5.92602 0
M  V30 1278 C 118.316 2.32706 6.42135 0
M  V30 1279 O 118.004 3.2976 7.33153 0
M  V30 1280 H 117.736 -0.0515469 0.674032 0
M  V30 1281 H 120.29 0.497559 1.99282 0
M  V30 1282 H 118.52 -1.52483 3.55367 0
M  V30 1283 H 120.209 -1.24336 3.86388 0
M  V30 1284 H 120.975 1.08525 4.72702 0
M  V30 1285 H 116.854 -0.135178 4.60802 0
M  V30 1286 H 120.398 2.82971 6.37631 0
M  V30 1287 H 116.295 1.6012 6.25325 0
M  V30 1288 H 117.063 3.25265 7.51096 0
M  V30 1289 N 119.726 -1.57421 0.075193 0
M  V30 1290 C 120.658 -2.09904 -0.920483 0
M  V30 1291 C 121.671 -1.03191 -1.25918 0
M  V30 1292 O 122.86 -1.30695 -1.21577 0
M  V30 1293 C 119.96 -2.54726 -2.23534 0
M  V30 1294 C 119.133 -3.8505 -2.07498 0
M  V30 1295 C 118.192 -4.15929 -3.22319 0
M  V30 1296 O 117.218 -4.85474 -2.9716 0
M  V30 1297 N 118.42 -3.69745 -4.47514 0
M  V30 1298 H 121.185 -2.95954 -0.472359 0
M  V30 1299 H 118.746 -1.61523 -0.110444 0
M  V30 1300 H 120.738 -2.72443 -2.9926 0
M  V30 1301 H 119.308 -1.73795 -2.59835 0
M  V30 1302 H 118.528 -3.76679 -1.16219 0
M  V30 1303 H 119.816 -4.70348 -1.94038 0
M  V30 1304 H 119.214 -3.13569 -4.7084 0
M  V30 1305 H 117.771 -3.92655 -5.20255 0
M  V30 1306 N 121.204 0.198386 -1.56346 0
M  V30 1307 C 122.152 1.26538 -1.95169 0
M  V30 1308 C 123.146 1.47295 -0.836685 0
M  V30 1309 O 124.352 1.48195 -1.02167 0
M  V30 1310 H 120.727 0.424744 -0.620561 0
M  V30 1311 H 122.698 0.910904 -2.84157 0
M  V30 1312 C 121.447 2.6035 -2.30463 0
M  V30 1313 H 120.77 2.45192 -3.15786 0
M  V30 1314 H 122.21 3.33762 -2.61494 0
M  V30 1315 C 120.669 3.17096 -1.13806 0
M  V30 1316 O 121.199 3.99588 -0.41135 0
M  V30 1317 N 119.405 2.75795 -0.915736 0
M  V30 1318 H 118.952 2.08816 -1.50843 0
M  V30 1319 H 118.91 3.14101 -0.136979 0
M  V30 1320 N 122.682 1.50554 0.465978 0
M  V30 1321 C 123.615 1.64436 1.58227 0
M  V30 1322 C 124.593 0.492367 1.54966 0
M  V30 1323 O 125.777 0.712536 1.74514 0
M  V30 1324 C 122.904 1.63165 2.96808 0
M  V30 1325 C 121.95 2.83987 3.18204 0
M  V30 1326 S 122.783 4.45219 2.97557 0
M  V30 1327 C 123.939 4.46649 4.3847 0
M  V30 1328 H 124.172 2.58861 1.46213 0
M  V30 1329 H 121.705 1.3988 0.653678 0
M  V30 1330 H 123.663 1.63116 3.76701 0
M  V30 1331 H 122.324 0.69967 3.06208 0
M  V30 1332 H 121.517 2.79416 4.19455 0
M  V30 1333 H 121.119 2.81629 2.46092 0
M  V30 1334 H 123.411 4.20526 5.31191 0
M  V30 1335 H 124.354 5.48295 4.48082 0
M  V30 1336 H 124.762 3.76296 4.20787 0
M  V30 1337 N 124.16 -0.719506 1.40217 0
M  V30 1338 C 125.093 -1.84298 1.34571 0
M  V30 1339 C 126.071 -1.61149 0.216741 0
M  V30 1340 O 127.255 -1.84212 0.399756 0
M  V30 1341 C 124.382 -3.20568 1.09335 0
M  V30 1342 C 123.428 -3.62551 2.24631 0
M  V30 1343 S 124.261 -3.7012 3.87004 0
M  V30 1344 C 125.417 -5.09154 3.64024 0
M  V30 1345 H 125.65 -1.88807 2.2965 0
M  V30 1346 H 123.183 -0.885901 1.26456 0
M  V30 1347 H 125.141 -3.99246 0.954602 0
M  V30 1348 H 123.802 -3.13696 0.159164 0
M  V30 1349 H 122.995 -4.61483 2.02606 0
M  V30 1350 H 122.597 -2.91119 2.34789 0
M  V30 1351 H 124.889 -5.95955 3.22248 0
M  V30 1352 H 125.832 -5.36213 4.62473 0
M  V30 1353 H 126.24 -4.79562 2.97793 0
M  V30 1354 N 125.638 -1.25649 -0.95132 0
M  V30 1355 C 126.887 -1.09988 -1.69073 0
M  V30 1356 C 127.2 0.358355 -1.92289 0
M  V30 1357 O 128.406 0.635466 -2.63958 0
M  V30 1358 C 126.862 -1.92012 -3.044 0
M  V30 1359 C 126.47 -3.42347 -2.88968 0
M  V30 1360 C 128.214 -1.8493 -3.82101 0
M  V30 1361 C 126.121 -4.16655 -4.19705 0
M  V30 1362 H 125.051 -0.407993 -0.63408 0
M  V30 1363 H 127.702 -1.49873 -1.05879 0
M  V30 1364 H 126.084 -1.44952 -3.68517 0
M  V30 1365 H 127.258 -3.97104 -2.33762 0
M  V30 1366 H 125.573 -3.50557 -2.24719 0
M  V30 1367 H 128.17 -2.37739 -4.78941 0
M  V30 1368 H 128.513 -0.817883 -4.08187 0
M  V30 1369 H 129.046 -2.29758 -3.2474 0
M  V30 1370 H 125.785 -5.20224 -3.98807 0
M  V30 1371 H 125.305 -3.66681 -4.74663 0
M  V30 1372 H 126.984 -4.24551 -4.88227 0
M  V30 1373 N 127.117 1.15442 -1.07289 0
M  V30 1374 C 128.027 2.23786 -0.704057 0
M  V30 1375 C 129.043 1.7166 0.284413 0
M  V30 1376 O 130.219 2.00972 0.131205 0
M  V30 1377 C 127.284 3.46535 -0.106792 0
M  V30 1378 C 126.345 4.13654 -1.14842 0
M  V30 1379 C 125.578 5.30544 -0.57956 0
M  V30 1380 O 125.801 5.67187 0.604585 0
M  V30 1381 O 124.735 5.87154 -1.32414 0
M  V30 1382 H 128.561 2.57664 -1.60757 0
M  V30 1383 H 126.146 1.23152 -0.845803 0
M  V30 1384 H 128.028 4.20804 0.224048 0
M  V30 1385 H 126.703 3.14407 0.770049 0
M  V30 1386 H 125.61 3.4131 -1.5316 0
M  V30 1387 H 126.943 4.49861 -1.99714 0
M  V30 1388 N 128.595 0.856903 1.32268 0
M  V30 1389 C 129.82 0.474569 2.01897 0
M  V30 1390 C 130.245 -0.921766 1.63967 0
M  V30 1391 O 129.603 -1.60589 0.84148 0
M  V30 1392 C 129.651 0.623799 3.55164 0
M  V30 1393 O 128.755 -0.342459 4.10976 0
M  V30 1394 H 128.096 0.190422 0.63611 0
M  V30 1395 H 130.626 1.15672 1.68764 0
M  V30 1396 H 130.636 0.512169 4.04773 0
M  V30 1397 H 129.311 1.64202 3.82113 0
M  V30 1398 H 127.888 -0.18688 3.72431 0
M  V30 1399 N 130.073 -1.45103 0.615059 0
M  V30 1400 C 131.021 -2.32331 -0.111791 0
M  V30 1401 C 132.015 -1.46409 -0.852102 0
M  V30 1402 O 133.221 -1.62849 -0.766821 0
M  V30 1403 H 129.596 -0.749993 -0.0549072 0
M  V30 1404 H 131.567 -2.91407 0.642225 0
M  V30 1405 C 130.316 -3.3015 -1.09071 0
M  V30 1406 H 129.639 -3.96265 -0.530485 0
M  V30 1407 H 131.079 -3.93898 -1.56908 0
M  V30 1408 C 129.538 -2.57875 -2.168 0
M  V30 1409 O 130.068 -2.36567 -3.24652 0
M  V30 1410 N 128.274 -2.17884 -1.92289 0
M  V30 1411 H 127.821 -2.35413 -1.04587 0
M  V30 1412 H 127.779 -1.6985 -2.64572 0
M  V30 1413 N 131.551 -0.354651 -1.53558 0
M  V30 1414 C 132.8 0.239504 -2.00273 0
M  V30 1415 C 133.113 1.50759 -1.24623 0
M  V30 1416 O 134.319 2.17968 -1.61871 0
M  V30 1417 C 132.775 0.477341 -3.5672 0
M  V30 1418 C 132.383 -0.775488 -4.41237 0
M  V30 1419 C 134.127 1.02975 -4.11821 0
M  V30 1420 C 132.034 -0.507838 -5.89216 0
M  V30 1421 H 130.964 0.0932743 -0.748208 0
M  V30 1422 H 133.615 -0.471701 -1.77334 0
M  V30 1423 H 131.997 1.24953 -3.7577 0
M  V30 1424 H 133.171 -1.54963 -4.33962 0
M  V30 1425 H 131.486 -1.25033 -3.97185 0
M  V30 1426 H 134.083 1.24513 -5.2 0
M  V30 1427 H 134.426 1.98862 -3.65731 0
M  V30 1428 H 134.959 0.317994 -3.96527 0
M  V30 1429 H 131.698 -1.43674 -6.39561 0
M  V30 1430 H 131.218 0.228011 -5.99366 0
M  V30 1431 H 132.897 -0.129238 -6.46871 0
M  V30 1432 N 133.029 1.57378 -0.0835403 0
M  V30 1433 C 134.278 1.93106 0.582498 0
M  V30 1434 C 134.591 0.96651 1.70053 0
M  V30 1435 O 135.797 1.21705 2.42693 0
M  V30 1436 C 134.253 3.43076 1.08751 0
M  V30 1437 C 133.861 4.48 -0.000146404 0
M  V30 1438 C 135.605 3.87785 1.72694 0
M  V30 1439 C 133.512 5.89113 0.519568 0
M  V30 1440 H 132.442 0.720775 0.221358 0
M  V30 1441 H 135.093 1.82821 -0.157675 0
M  V30 1442 H 133.475 3.48474 1.88101 0
M  V30 1443 H 134.649 4.54233 -0.775199 0
M  V30 1444 H 132.964 4.1283 -0.54406 0
M  V30 1445 H 135.561 4.90604 2.1263 0
M  V30 1446 H 135.904 3.25796 2.59158 0
M  V30 1447 H 136.437 3.8504 0.999457 0
M  V30 1448 H 133.176 6.54775 -0.308186 0
M  V30 1449 H 132.696 5.86376 1.26188 0
M  V30 1450 H 134.375 6.39346 0.992237 0
M  V30 1451 N 134.507 -0.190092 1.56449 0
M  V30 1452 C 135.457 -1.23977 1.91347 0
M  V30 1453 C 136.441 -1.40747 0.779693 0
M  V30 1454 O 137.633 -1.43033 1.04262 0
M  V30 1455 C 134.762 -2.58347 2.26079 0
M  V30 1456 C 133.848 -2.4535 3.45925 0
M  V30 1457 N 134.239 -2.02039 4.63696 0
M  V30 1458 C 132.537 -2.76229 3.50162 0
M  V30 1459 C 133.238 -2.01053 5.4585 0
M  V30 1460 N 132.214 -2.42747 4.8639 0
M  V30 1461 H 136.016 -0.896318 2.79899 0
M  V30 1462 H 133.53 -0.398496 1.57435 0
M  V30 1463 H 135.527 -3.34173 2.49267 0
M  V30 1464 H 134.187 -2.93512 1.38856 0
M  V30 1465 H 135.198 -1.7267 4.88268 0
M  V30 1466 H 131.875 -3.15556 2.73369 0
M  V30 1467 H 133.265 -1.69426 6.50188 0
M  V30 1468 N 135.985 -1.50799 -0.457987 0
M  V30 1469 C 136.948 -1.7005 -1.53674 0
M  V30 1470 C 137.948 -0.570881 -1.50325 0
M  V30 1471 O 139.138 -0.838126 -1.52712 0
M  V30 1472 C 136.27 -1.73788 -2.93276 0
M  V30 1473 H 137.463 -2.66306 -1.37917 0
M  V30 1474 H 135.016 -1.40477 -0.685271 0
M  V30 1475 H 135.751 -0.792717 -3.14462 0
M  V30 1476 H 135.536 -2.55864 -2.97113 0
M  V30 1477 H 137.026 -1.90591 -3.71571 0
M  V30 1478 N 137.463 0.71206 -1.40597 0
M  V30 1479 C 138.426 1.80785 -1.40888 0
M  V30 1480 C 139.426 1.57937 -0.302103 0
M  V30 1481 O 140.616 1.64913 -0.561182 0
M  V30 1482 C 137.748 3.18927 -1.20409 0
M  V30 1483 H 138.941 1.81924 -2.38419 0
M  V30 1484 H 136.494 0.91805 -1.26497 0
M  V30 1485 H 137.229 3.23436 -0.236522 0
M  V30 1486 H 137.014 3.36911 -2.00582 0
M  V30 1487 H 138.504 3.98949 -1.23408 0
M  V30 1488 N 138.941 1.26152 0.944643 0
M  V30 1489 C 139.891 1.04081 2.02857 0
M  V30 1490 C 140.875 -0.0256555 1.6088 0
M  V30 1491 O 142.067 0.190884 1.75968 0
M  V30 1492 C 139.196 0.672118 3.36656 0
M  V30 1493 C 138.282 1.77586 3.85128 0
M  V30 1494 N 138.673 3.01272 4.06287 0
M  V30 1495 C 136.971 1.65867 4.1401 0
M  V30 1496 C 137.672 3.72983 4.46384 0
M  V30 1497 N 136.648 3.00653 4.52889 0
M  V30 1498 H 140.45 1.97968 2.17223 0
M  V30 1499 H 137.964 1.16618 1.13022 0
M  V30 1500 H 139.961 0.495166 4.13949 0
M  V30 1501 H 138.621 -0.259307 3.23663 0
M  V30 1502 H 139.632 3.37213 3.93075 0
M  V30 1503 H 136.309 0.796907 4.09824 0
M  V30 1504 H 137.699 4.792 4.70975 0
M  V30 1505 N 140.419 -1.14872 1.07899 0
M  V30 1506 C 141.351 -2.19425 0.662231 0
M  V30 1507 C 142.364 -1.60231 -0.288079 0
M  V30 1508 O 143.553 -1.78336 -0.076534 0
M  V30 1509 C 140.653 -3.38867 -0.0470695 0
M  V30 1510 C 139.826 -4.27597 0.920831 0
M  V30 1511 C 138.885 -5.25616 0.247805 0
M  V30 1512 O 137.911 -5.62189 0.890599 0
M  V30 1513 N 139.113 -5.71746 -1.00435 0
M  V30 1514 H 141.878 -2.55797 1.56166 0
M  V30 1515 H 139.439 -1.30042 0.964404 0
M  V30 1516 H 141.431 -4.01497 -0.50813 0
M  V30 1517 H 140.001 -3.00864 -0.848523 0
M  V30 1518 H 139.221 -3.61982 1.56087 0
M  V30 1519 H 140.509 -4.83748 1.57688 0
M  V30 1520 H 139.907 -5.44153 -1.54642 0
M  V30 1521 H 138.464 -6.36389 -1.40899 0
M  V30 1522 N 141.898 -0.863906 -1.31812 0
M  V30 1523 C 142.846 -0.30422 -2.30602 0
M  V30 1524 C 143.84 0.577419 -1.59255 0
M  V30 1525 O 145.046 0.464194 -1.73912 0
M  V30 1526 H 141.421 -0.0796877 -0.747766 0
M  V30 1527 H 143.392 -1.15148 -2.75288 0
M  V30 1528 C 142.141 0.484617 -3.44306 0
M  V30 1529 H 141.464 -0.18451 -3.99374 0
M  V30 1530 H 142.904 0.841664 -4.15562 0
M  V30 1531 C 141.363 1.6735 -2.92396 0
M  V30 1532 O 141.893 2.77273 -2.90659 0
M  V30 1533 N 140.099 1.50362 -2.48676 0
M  V30 1534 H 139.646 0.609402 -2.50288 0
M  V30 1535 H 139.604 2.30051 -2.14299 0
M  V30 1536 N 143.376 1.44774 -0.622745 0
M  V30 1537 C 144.653 1.95522 -0.0551974 0
M  V30 1538 C 145.033 1.5649 1.41683 0
M  V30 1539 O 144.381 0.834848 2.12703 0
M  V30 1540 C 144.591 3.4796 -0.269242 0
M  V30 1541 C 145.939 4.24306 -0.158014 0
M  V30 1542 O 146.963 3.55637 -0.200162 0
M  V30 1543 O 145.822 5.46471 -0.0558693 0
M  V30 1544 H 142.916 0.826556 0.0271015 0
M  V30 1545 H 145.462 1.54866 -0.693864 0
M  V30 1546 H 144.234 3.6939 -1.29099 0
M  V30 1547 H 143.857 3.95543 0.403966 0
M  V30 1548 N 144.854 0.36279 1.53368 0
M  V30 1549 C 146.1 -0.228113 2.01513 0
M  V30 1550 C 146.433 -1.48648 1.2497 0
M  V30 1551 O 145.708 -1.91459 0.342616 0
M  V30 1552 C 145.991 -0.522884 3.56284 0
M  V30 1553 C 145.844 0.74892 4.43521 0
M  V30 1554 C 147.163 -1.32461 4.19693 0
M  V30 1555 H 144.282 -0.0814343 0.732487 0
M  V30 1556 H 146.924 0.48713 1.83649 0
M  V30 1557 H 145.074 -1.1322 3.71636 0
M  V30 1558 H 146.746 1.38648 4.39971 0
M  V30 1559 H 144.989 1.36986 4.11603 0
M  V30 1560 H 145.66 0.497667 5.49752 0
M  V30 1561 H 148.136 -0.809203 4.08156 0
M  V30 1562 H 147.012 -1.49961 5.28018 0
M  V30 1563 H 147.273 -2.33232 3.75573 0
M  V30 1564 N 146.332 -1.57332 0.0918853 0
M  V30 1565 C 147.28 -2.15075 -0.885747 0
M  V30 1566 C 148.274 -1.09277 -1.29441 0
M  V30 1567 O 149.48 -1.27627 -1.26931 0
M  V30 1568 H 145.855 -0.687966 -0.303656 0
M  V30 1569 H 147.826 -2.96047 -0.373995 0
M  V30 1570 C 146.575 -2.74325 -2.13638 0
M  V30 1571 H 145.898 -3.55418 -1.8308 0
M  V30 1572 H 147.338 -3.183 -2.80109 0
M  V30 1573 C 145.797 -1.70062 -2.90827 0
M  V30 1574 O 146.327 -1.13763 -3.85254 0
M  V30 1575 N 144.533 -1.40628 -2.54307 0
M  V30 1576 H 144.08 -1.866 -1.7759 0
M  V30 1577 H 144.038 -0.711043 -3.06254 0
M  V30 1578 N 147.81 0.181792 -1.56548 0
M  V30 1579 C 148.757 1.22521 -1.95595 0
M  V30 1580 C 149.727 1.4454 -0.818373 0
M  V30 1581 O 150.912 1.57454 -1.07763 0
M  V30 1582 C 148.052 2.56193 -2.31212 0
M  V30 1583 C 147.165 2.41641 -3.58097 0
M  V30 1584 C 146.3 3.68108 -3.82975 0
M  V30 1585 C 145.339 3.48445 -5.03242 0
M  V30 1586 N 144.476 4.66956 -5.24306 0
M  V30 1587 H 149.316 0.885226 -2.84548 0
M  V30 1588 H 146.853 0.425718 -1.40805 0
M  V30 1589 H 148.811 3.34088 -2.49882 0
M  V30 1590 H 147.441 2.88208 -1.45382 0
M  V30 1591 H 146.493 1.54976 -3.474 0
M  V30 1592 H 147.805 2.23052 -4.46149 0
M  V30 1593 H 146.959 4.54441 -4.01956 0
M  V30 1594 H 145.698 3.89666 -2.93278 0
M  V30 1595 H 144.703 2.60499 -4.8417 0
M  V30 1596 H 145.928 3.2832 -5.9446 0
M  V30 1597 H 143.874 4.88752 -4.37559 0
M  V30 1598 H 143.791 4.51242 -6.06561 0
M  V30 1599 H 145.059 5.54602 -5.47756 0
M  V30 1600 N 149.288 1.51039 0.449983 0
M  V30 1601 C 150.218 1.74379 1.55288 0
M  V30 1602 C 151.199 0.593236 1.5942 0
M  V30 1603 O 152.384 0.834625 1.7535 0
M  V30 1604 C 149.514 1.85728 2.93466 0
M  V30 1605 C 148.468 3.01078 3.04197 0
M  V30 1606 C 147.794 2.97595 4.44231 0
M  V30 1607 C 149.094 4.41254 2.7945 0
M  V30 1608 H 150.788 2.66725 1.36008 0
M  V30 1609 H 148.334 1.2835 0.652864 0
M  V30 1610 H 150.287 2.0064 3.70569 0
M  V30 1611 H 149.011 0.900207 3.13949 0
M  V30 1612 H 147.67 2.85851 2.29531 0
M  V30 1613 H 147.318 1.99691 4.61663 0
M  V30 1614 H 147.018 3.75046 4.52343 0
M  V30 1615 H 148.542 3.14583 5.23326 0
M  V30 1616 H 149.956 4.56897 3.46292 0
M  V30 1617 H 148.353 5.20315 2.98985 0
M  V30 1618 H 149.423 4.52164 1.75144 0
M  V30 1619 N 150.766 -0.704594 1.40972 0
M  V30 1620 C 151.696 -1.83124 1.44872 0
M  V30 1621 C 152.677 -1.67281 0.30838 0
M  V30 1622 O 153.862 -1.87149 0.518556 0
M  V30 1623 C 150.992 -3.21181 1.32136 0
M  V30 1624 C 149.946 -3.51714 2.43888 0
M  V30 1625 C 149.272 -4.89032 2.16222 0
M  V30 1626 C 150.572 -3.516 3.86232 0
M  V30 1627 H 152.266 -1.80117 2.39161 0
M  V30 1628 H 149.812 -0.865145 1.15114 0
M  V30 1629 H 151.765 -3.99702 1.33479 0
M  V30 1630 H 150.489 -3.24791 0.343279 0
M  V30 1631 H 149.148 -2.75539 2.41813 0
M  V30 1632 H 148.796 -4.89256 1.16778 0
M  V30 1633 H 148.496 -5.10426 2.911 0
M  V30 1634 H 150.02 -5.69873 2.19265 0
M  V30 1635 H 151.434 -4.2014 3.9007 0
M  V30 1636 H 149.831 -3.84523 4.60719 0
M  V30 1637 H 150.901 -2.50757 4.15029 0
M  V30 1638 N 152.244 -1.26651 -0.937939 0
M  V30 1639 C 153.491 -1.12387 -1.6845 0
M  V30 1640 C 153.819 0.332208 -1.91642 0
M  V30 1641 O 153.074 1.2602 -1.49725 0
M  V30 1642 C 153.373 -1.84168 -3.06295 0
M  V30 1643 C 153.039 -3.34056 -3.02849 0
M  V30 1644 C 151.701 -3.74942 -3.01616 0
M  V30 1645 C 154.053 -4.29741 -2.9491 0
M  V30 1646 C 151.381 -5.09894 -2.90215 0
M  V30 1647 C 153.733 -5.64738 -2.8505 0
M  V30 1648 C 152.397 -6.0493 -2.82162 0
M  V30 1649 H 151.667 -0.411252 -0.616403 0
M  V30 1650 H 154.314 -1.57134 -1.09459 0
M  V30 1651 H 152.619 -1.319 -3.6893 0
M  V30 1652 H 154.316 -1.70569 -3.62915 0
M  V30 1653 H 150.906 -3.01534 -3.0459 0
M  V30 1654 H 155.09 -3.99133 -2.94969 0
M  V30 1655 H 150.346 -5.40194 -2.86358 0
M  V30 1656 H 154.52 -6.38561 -2.77872 0
M  V30 1657 H 152.147 -7.09457 -2.73084 0
M  V30 1658 N 153.722 1.14298 -1.08507 0
M  V30 1659 C 154.652 2.21542 -0.737646 0
M  V30 1660 C 155.633 1.67773 0.280377 0
M  V30 1661 O 156.818 1.93616 0.150521 0
M  V30 1662 C 153.948 3.46988 -0.147259 0
M  V30 1663 C 152.902 4.13789 -1.09374 0
M  V30 1664 C 152.228 5.33449 -0.365524 0
M  V30 1665 C 153.528 4.62208 -2.4323 0
M  V30 1666 H 155.222 2.5086 -1.6343 0
M  V30 1667 H 152.768 1.20576 -0.787243 0
M  V30 1668 H 154.721 4.21262 0.107808 0
M  V30 1669 H 153.445 3.17037 0.784538 0
M  V30 1670 H 152.104 3.4147 -1.33393 0
M  V30 1671 H 151.752 4.99759 0.57011 0
M  V30 1672 H 151.452 5.79088 -0.996512 0
M  V30 1673 H 152.976 6.10485 -0.118534 0
M  V30 1674 H 154.39 5.27952 -2.23472 0
M  V30 1675 H 152.787 5.18553 -3.02031 0
M  V30 1676 H 153.857 3.77224 -3.04681 0
M  V30 1677 N 155.201 0.870884 1.31352 0
M  V30 1678 C 156.449 0.48132 1.96285 0
M  V30 1679 C 156.77 -0.969813 1.69173 0
M  V30 1680 O 156.04 -1.67998 1.00764 0
M  V30 1681 H 154.62 0.175002 0.726212 0
M  V30 1682 H 157.282 1.11087 1.60143 0
M  V30 1683 H 156.378 0.639825 3.05471 0
M  V30 1684 N 156.679 -1.44442 0.630414 0
M  V30 1685 C 157.904 -2.06927 0.139944 0
M  V30 1686 C 158.329 -1.46795 -1.17613 0
M  V30 1687 O 157.687 -0.569144 -1.72135 0
M  V30 1688 C 157.735 -3.6058 0.0379581 0
M  V30 1689 O 156.839 -3.99937 -1.0062 0
M  V30 1690 H 156.18 -0.658608 0.0844483 0
M  V30 1691 H 158.71 -1.85327 0.866891 0
M  V30 1692 H 158.72 -4.07714 -0.152856 0
M  V30 1693 H 157.395 -4.03728 0.998809 0
M  V30 1694 H 155.972 -3.64436 -0.79001 0
M  V30 1695 N 158.157 -0.370918 -1.53173 0
M  V30 1696 C 159.382 0.220293 -2.06227 0
M  V30 1697 C 159.807 1.41243 -1.24225 0
M  V30 1698 O 159.165 1.79387 -0.262645 0
M  V30 1699 C 159.213 0.586663 -3.55796 0
M  V30 1700 O 158.317 1.68317 -3.76488 0
M  V30 1701 H 157.658 0.0308099 -0.663285 0
M  V30 1702 H 160.188 -0.533068 -1.97534 0
M  V30 1703 H 160.198 0.85617 -3.98916 0
M  V30 1704 H 158.873 -0.285013 -4.14922 0
M  V30 1705 H 157.45 1.40881 -3.45264 0
M  V30 1706 N 159.635 1.57281 -0.100228 0
M  V30 1707 C 160.875 1.96419 0.56558 0
M  V30 1708 C 161.239 0.981265 1.65031 0
M  V30 1709 O 162.44 1.26133 2.37369 0
M  V30 1710 C 160.711 3.39996 1.10171 0
M  V30 1711 S 162.27 4.01134 1.77867 0
M  V30 1712 H 159.088 0.68667 0.184406 0
M  V30 1713 H 161.69 1.94662 -0.180851 0
M  V30 1714 H 160.394 4.09296 0.300803 0
M  V30 1715 H 159.925 3.45361 1.88385 0
M  V30 1716 H 161.94 3.90358 3.06326 0
M  V30 1717 N 161.113 -0.173488 1.56642 0
M  V30 1718 C 162.362 -0.888758 1.81063 0
M  V30 1719 C 162.675 -1.83506 0.67712 0
M  V30 1720 O 163.881 -2.59254 0.806206 0
M  V30 1721 C 162.337 -1.63091 3.20826 0
M  V30 1722 C 161.945 -0.728357 4.4204 0
M  V30 1723 C 163.689 -2.33454 3.54541 0
M  V30 1724 C 161.596 -1.47062 5.72823 0
M  V30 1725 H 160.526 -0.335618 0.675186 0
M  V30 1726 H 163.177 -0.141712 1.82952 0
M  V30 1727 H 161.559 -2.42263 3.13248 0
M  V30 1728 H 162.733 0.0262449 4.60793 0
M  V30 1729 H 161.048 -0.134492 4.16183 0
M  V30 1730 H 163.645 -2.89578 4.49498 0
M  V30 1731 H 163.988 -3.08687 2.79317 0
M  V30 1732 H 164.521 -1.61227 3.63663 0
M  V30 1733 H 161.26 -0.760658 6.51072 0
M  V30 1734 H 160.78 -2.1986 5.58052 0
M  V30 1735 H 162.459 -2.01868 6.14702 0
M  V30 1736 N 162.591 -1.51276 -0.441967 0
M  V30 1737 C 163.821 -1.67273 -1.21257 0
M  V30 1738 C 164.229 -0.367624 -1.85594 0
M  V30 1739 O 163.572 0.663349 -1.71305 0
M  V30 1740 C 163.634 -2.72807 -2.34129 0
M  V30 1741 C 163.298 -4.1554 -1.90198 0
M  V30 1742 C 164.295 -5.00471 -1.40801 0
M  V30 1743 C 161.98 -4.61616 -1.9803 0
M  V30 1744 C 163.974 -6.29536 -0.998174 0
M  V30 1745 C 161.661 -5.90679 -1.56658 0
M  V30 1746 C 162.659 -6.74466 -1.07633 0
M  V30 1747 O 162.347 -8.01116 -0.668459 0
M  V30 1748 H 162.079 -0.564614 -0.371734 0
M  V30 1749 H 164.633 -1.9843 -0.530521 0
M  V30 1750 H 162.863 -2.36954 -3.05597 0
M  V30 1751 H 164.552 -2.77729 -2.96009 0
M  V30 1752 H 165.318 -4.66079 -1.34148 0
M  V30 1753 H 161.197 -3.96526 -2.35135 0
M  V30 1754 H 164.741 -6.94885 -0.61482 0
M  V30 1755 H 160.638 -6.24586 -1.62979 0
M  V30 1756 H 161.406 -8.14633 -0.794722 0
M  V30 1757 N 164.069 0.697108 -1.41344 0
M  V30 1758 C 165.48 1.27697 -1.36199 0
M  V30 1759 C 165.831 1.9615 -0.0443463 0
M  V30 1760 O 164.956 1.98689 0.857419 0
M  V30 1761 C 165.551 2.32223 -2.46694 0
M  V30 1762 C 164.11 2.8579 -2.44952 0
M  V30 1763 C 163.257 1.59807 -2.26621 0
M  V30 1764 H 166.208 0.491968 -1.50882 0
M  V30 1765 H 166.229 3.1348 -2.15664 0
M  V30 1766 H 165.741 1.82373 -3.42581 0
M  V30 1767 H 163.842 3.3982 -1.52817 0
M  V30 1768 H 163.955 3.36325 -3.41207 0
M  V30 1769 H 162.319 1.8556 -1.7447 0
M  V30 1770 H 163.102 1.11956 -3.24532 0
M  V30 1771 N 165.547 1.27147 0.931209 0
M  V30 1772 C 166.494 1.09568 2.03134 0
M  V30 1773 C 167.464 -0.00222433 1.661 0
M  V30 1774 O 168.649 0.159439 1.90133 0
M  V30 1775 C 165.789 0.745231 3.36957 0
M  V30 1776 C 164.902 1.92041 3.86968 0
M  V30 1777 C 164.037 1.51216 5.09222 0
M  V30 1778 C 163.076 2.65504 5.5152 0
M  V30 1779 N 162.213 2.25291 6.64972 0
M  V30 1780 H 167.053 2.03708 2.17502 0
M  V30 1781 H 164.59 1.01411 1.06556 0
M  V30 1782 H 166.548 0.522878 4.1391 0
M  V30 1783 H 165.178 -0.159202 3.22407 0
M  V30 1784 H 164.23 2.25541 3.06326 0
M  V30 1785 H 165.542 2.77787 4.1429 0
M  V30 1786 H 164.696 1.25084 5.93666 0
M  V30 1787 H 163.435 0.625749 4.83669 0
M  V30 1788 H 162.44 2.92354 4.65628 0
M  V30 1789 H 163.665 3.54761 5.7907 0
M  V30 1790 H 161.611 1.39098 6.41083 0
M  V30 1791 H 161.528 3.04577 6.91931 0
M  V30 1792 H 162.796 2.02398 7.52765 0
M  V30 1793 N 167.025 -1.13721 1.09112 0
M  V30 1794 C 167.955 -2.21148 0.749385 0
M  V30 1795 C 168.936 -1.6792 -0.271475 0
M  V30 1796 O 170.121 -1.93693 -0.140251 0
M  V30 1797 C 167.251 -3.46905 0.165659 0
M  V30 1798 C 166.205 -4.13203 1.11567 0
M  V30 1799 C 165.531 -5.33248 0.393809 0
M  V30 1800 C 166.831 -4.60912 2.45678 0
M  V30 1801 H 168.525 -2.4999 1.64758 0
M  V30 1802 H 166.071 -1.20156 0.793626 0
M  V30 1803 H 168.024 -4.21313 -0.085466 0
M  V30 1804 H 166.748 -3.17449 -0.767714 0
M  V30 1805 H 165.407 -3.40758 1.35202 0
M  V30 1806 H 165.055 -5.00054 -0.543599 0
M  V30 1807 H 164.755 -5.78552 1.02721 0
M  V30 1808 H 166.279 -6.10413 0.150908 0
M  V30 1809 H 167.693 -5.26759 2.26269 0
M  V30 1810 H 166.09 -5.16944 3.04776 0
M  V30 1811 H 167.16 -3.75603 3.06677 0
M  V30 1812 N 168.503 -0.877838 -1.30888 0
M  V30 1813 C 169.466 -0.344265 -2.266 0
M  V30 1814 C 170.466 0.50922 -1.52524 0
M  V30 1815 O 171.656 0.317398 -1.71284 0
M  V30 1816 C 168.788 0.510198 -3.37061 0
M  V30 1817 H 169.981 -1.1893 -2.7531 0
M  V30 1818 H 167.534 -0.654088 -1.41956 0
M  V30 1819 H 168.269 1.37612 -2.93655 0
M  V30 1820 H 168.054 -0.101047 -3.9197 0
M  V30 1821 H 169.544 0.875537 -4.08319 0
M  V30 1822 N 169.982 1.44106 -0.638065 0
M  V30 1823 C 170.929 2.30715 0.062701 0
M  V30 1824 C 171.899 1.43882 0.829883 0
M  V30 1825 O 173.084 1.72775 0.809532 0
M  V30 1826 C 170.224 3.29258 1.03358 0
M  V30 1827 C 169.337 4.31192 0.26409 0
M  V30 1828 C 168.472 5.16825 1.22741 0
M  V30 1829 C 167.511 6.10462 0.447475 0
M  V30 1830 N 166.648 6.8877 1.36161 0
M  V30 1831 H 171.488 2.90096 -0.681781 0
M  V30 1832 H 169.025 1.42925 -0.347988 0
M  V30 1833 H 170.983 3.84886 1.60992 0
M  V30 1834 H 169.613 2.71562 1.74511 0
M  V30 1835 H 168.665 3.77981 -0.428295 0
M  V30 1836 H 169.977 4.97619 -0.343052 0
M  V30 1837 H 169.131 5.77004 1.87487 0
M  V30 1838 H 167.87 4.50488 1.86847 0
M  V30 1839 H 166.875 5.49386 -0.213433 0
M  V30 1840 H 168.1 6.78837 -0.188968 0
M  V30 1841 H 166.046 6.25096 1.98975 0
M  V30 1842 H 165.963 7.51663 0.808656 0
M  V30 1843 H 167.231 7.53467 1.99769 0
M  V30 1844 N 171.46 0.379036 1.52974 0
M  V30 1845 C 172.392 -0.495963 2.2377 0
M  V30 1846 C 173.405 -1.03517 1.25651 0
M  V30 1847 O 174.594 -0.939249 1.51791 0
M  V30 1848 C 171.694 -1.69894 2.93239 0
M  V30 1849 C 170.867 -1.2889 4.17979 0
M  V30 1850 C 169.926 -2.35543 4.70538 0
M  V30 1851 O 168.952 -1.97375 5.33883 0
M  V30 1852 N 170.154 -3.67318 4.49508 0
M  V30 1853 H 172.919 0.110523 2.99496 0
M  V30 1854 H 170.48 0.204878 1.60598 0
M  V30 1855 H 172.472 -2.40747 3.25304 0
M  V30 1856 H 171.042 -2.212 2.20883 0
M  V30 1857 H 170.262 -0.409676 3.92065 0
M  V30 1858 H 171.55 -0.991443 4.99047 0
M  V30 1859 H 170.948 -4.01095 3.98923 0
M  V30 1860 H 169.505 -4.34235 4.8609 0
M  V30 1861 N 172.938 -1.57226 0.108567 0
M  V30 1862 C 174.349 -1.8195 -0.418464 0
M  V30 1863 C 174.7 -1.02508 -1.67292 0
M  V30 1864 O 173.825 -0.258496 -2.14851 0
M  V30 1865 C 174.42 -3.30028 -0.765979 0
M  V30 1866 C 172.979 -3.55469 -1.23769 0
M  V30 1867 C 172.126 -2.7625 -0.241106 0
M  V30 1868 H 175.077 -1.55149 0.33384 0
M  V30 1869 H 175.098 -3.44086 -1.62434 0
M  V30 1870 H 174.61 -3.87821 0.147219 0
M  V30 1871 H 172.711 -3.03022 -2.16814 0
M  V30 1872 H 172.824 -4.6408 -1.19022 0
M  V30 1873 H 171.188 -2.44133 -0.72602 0
M  V30 1874 H 171.971 -3.36797 0.665007 0
M  V30 1875 N 174.416 0.165178 -1.56732 0
M  V30 1876 C 175.349 1.23336 -1.91998 0
M  V30 1877 C 176.327 1.42476 -0.783531 0
M  V30 1878 O 177.511 1.57384 -1.03743 0
M  V30 1879 C 174.638 2.59533 -2.17625 0
M  V30 1880 C 173.684 2.57093 -3.40302 0
M  V30 1881 S 174.517 2.05571 -4.9447 0
M  V30 1882 C 175.673 3.43532 -5.23198 0
M  V30 1883 H 175.906 0.932387 -2.82301 0
M  V30 1884 H 173.439 0.370013 -1.49901 0
M  V30 1885 H 175.397 3.37918 -2.3307 0
M  V30 1886 H 174.058 2.86827 -1.28019 0
M  V30 1887 H 173.251 3.57308 -3.55453 0
M  V30 1888 H 172.853 1.86806 -3.24005 0
M  V30 1889 H 175.145 4.39559 -5.15552 0
M  V30 1890 H 176.088 3.33251 -6.2478 0
M  V30 1891 H 176.496 3.39828 -4.50752 0
M  V30 1892 N 175.894 1.51508 0.433938 0
M  V30 1893 C 176.857 1.72473 1.50949 0
M  V30 1894 C 177.857 0.594725 1.49398 0
M  V30 1895 O 179.047 0.862315 1.5136 0
M  V30 1896 C 176.179 1.78431 2.90474 0
M  V30 1897 H 177.372 2.68467 1.33662 0
M  V30 1898 H 174.925 1.41549 0.662836 0
M  V30 1899 H 175.66 0.842645 3.13161 0
M  V30 1900 H 175.445 2.60558 2.93005 0
M  V30 1901 H 176.935 1.96479 3.68491 0
M  V30 1902 N 177.372 -0.689602 1.41712 0
M  V30 1903 C 178.282 -1.83314 1.46401 0
M  V30 1904 C 179.298 -1.7036 0.35405 0
M  V30 1905 O 180.474 -1.92171 0.602692 0
M  V30 1906 C 177.539 -3.19344 1.34982 0
M  V30 1907 C 176.6 -3.44363 2.56344 0
M  V30 1908 C 175.833 -4.73904 2.45461 0
M  V30 1909 O 176.056 -5.508 1.48241 0
M  V30 1910 O 174.99 -4.99839 3.35328 0
M  V30 1911 H 178.816 -1.82314 2.42889 0
M  V30 1912 H 176.401 -0.843438 1.23315 0
M  V30 1913 H 178.283 -4.00547 1.3092 0
M  V30 1914 H 176.958 -3.21014 0.41612 0
M  V30 1915 H 175.865 -2.63067 2.65982 0
M  V30 1916 H 177.198 -3.47512 3.48563 0
M  V30 1917 N 178.85 -1.27639 -0.924453 0
M  V30 1918 C 180.075 -1.17101 -1.71179 0
M  V30 1919 C 180.5 0.268134 -1.86179 0
M  V30 1920 O 179.858 1.19415 -1.36418 0
M  V30 1921 C 179.906 -1.86313 -3.08739 0
M  V30 1922 O 179.01 -1.16331 -3.95652 0
M  V30 1923 H 178.351 -0.407091 -0.524569 0
M  V30 1924 H 180.881 -1.68767 -1.15666 0
M  V30 1925 H 180.891 -1.938 -3.59034 0
M  V30 1926 H 179.566 -2.91001 -2.97138 0
M  V30 1927 H 178.143 -1.16935 -3.54091 0
M  V30 1928 N 180.328 1.1314 -1.09713 0
M  V30 1929 C 181.238 2.22242 -0.751367 0
M  V30 1930 C 182.254 1.72224 0.247938 0
M  V30 1931 O 183.43 2.01205 0.0885463 0
M  V30 1932 C 180.495 3.46231 -0.180274 0
M  V30 1933 C 179.556 4.11125 -1.2359 0
M  V30 1934 C 178.789 5.29195 -0.691966 0
M  V30 1935 O 179.012 5.68342 0.48414 0
M  V30 1936 O 177.946 5.84214 -1.44838 0
M  V30 1937 H 181.772 2.54197 -1.66186 0
M  V30 1938 H 179.357 1.21331 -0.871735 0
M  V30 1939 H 181.239 4.21185 0.134739 0
M  V30 1940 H 179.914 3.1597 0.703185 0
M  V30 1941 H 178.821 3.37985 -1.60366 0
M  V30 1942 H 180.154 4.45524 -2.09211 0
M  V30 1943 N 181.806 0.884767 1.30421 0
M  V30 1944 C 182.736 0.367574 2.30589 0
M  V30 1945 C 183.717 -0.549464 1.60981 0
M  V30 1946 O 184.902 -0.46336 1.88591 0
M  V30 1947 C 182.032 -0.418944 3.44764 0
M  V30 1948 C 180.986 0.406316 4.26067 0
M  V30 1949 C 180.312 -0.506793 5.32293 0
M  V30 1950 C 181.612 1.64832 4.95608 0
M  V30 1951 H 183.306 1.20462 2.74097 0
M  V30 1952 H 180.852 0.580695 1.31772 0
M  V30 1953 H 182.805 -0.791395 4.13902 0
M  V30 1954 H 181.529 -1.28964 3.0006 0
M  V30 1955 H 180.188 0.760903 3.58617 0
M  V30 1956 H 179.836 -1.37519 4.83836 0
M  V30 1957 H 179.536 0.0415828 5.87585 0
M  V30 1958 H 181.06 -0.875764 6.04287 0
M  V30 1959 H 182.474 1.34646 5.57264 0
M  V30 1960 H 180.871 2.13688 5.60765 0
M  V30 1961 H 181.941 2.39284 4.21748 0
M  V30 1962 N 183.284 -1.43765 0.645699 0
M  V30 1963 C 184.214 -2.33471 -0.0370477 0
M  V30 1964 C 185.195 -1.49042 -0.819779 0
M  V30 1965 O 186.38 -1.77726 -0.782758 0
M  V30 1966 C 183.51 -3.32311 -1.0093 0
M  V30 1967 C 182.464 -4.2667 -0.337201 0
M  V30 1968 C 181.79 -5.1549 -1.42037 0
M  V30 1969 C 183.09 -5.16657 0.765706 0
M  V30 1970 H 184.784 -2.90809 0.712069 0
M  V30 1971 H 182.33 -1.39834 0.343876 0
M  V30 1972 H 184.283 -3.9396 -1.49578 0
M  V30 1973 H 183.007 -2.73213 -1.78948 0
M  V30 1974 H 181.666 -3.66374 0.128771 0
M  V30 1975 H 181.314 -4.52735 -2.1918 0
M  V30 1976 H 181.014 -5.79438 -0.975966 0
M  V30 1977 H 182.538 -5.80012 -1.90838 0
M  V30 1978 H 183.952 -5.72158 0.361702 0
M  V30 1979 H 182.349 -5.89286 1.13413 0
M  V30 1980 H 183.419 -4.56796 1.62683 0
M  V30 1981 N 184.763 -0.387143 -1.52771 0
M  V30 1982 C 185.695 0.484089 -2.2403 0
M  V30 1983 C 186.708 1.02849 -1.26198 0
M  V30 1984 O 187.897 0.931186 -1.52286 0
M  V30 1985 C 184.997 1.68337 -2.94136 0
M  V30 1986 C 184.17 1.26672 -4.18656 0
M  V30 1987 C 183.229 2.33045 -4.7178 0
M  V30 1988 O 182.255 1.94541 -5.34923 0
M  V30 1989 N 183.457 3.64929 -4.5145 0
M  V30 1990 H 186.222 -0.126404 -2.99433 0
M  V30 1991 H 183.783 -0.213392 -1.60488 0
M  V30 1992 H 185.775 2.39019 -3.26577 0
M  V30 1993 H 184.345 2.20025 -2.22053 0
M  V30 1994 H 183.565 0.388878 -3.92277 0
M  V30 1995 H 184.853 0.964964 -4.99566 0
M  V30 1996 H 184.251 3.98974 -4.01044 0
M  V30 1997 H 182.808 4.31651 -4.88386 0
M  V30 1998 N 186.241 1.57166 -0.116904 0
M  V30 1999 C 187.489 1.94737 0.540533 0
M  V30 2000 C 187.81 1.00096 1.67349 0
M  V30 2001 O 187.08 0.0568854 1.95817 0
M  V30 2002 H 185.66 0.718981 0.202669 0
M  V30 2003 H 188.322 1.94017 -0.185353 0
M  V30 2004 H 187.418 2.97719 0.936483 0
M  V30 2005 N 187.719 -0.156864 1.56817 0
M  V30 2006 C 188.947 -0.886316 1.86955 0
M  V30 2007 C 189.362 -1.75185 0.703975 0
M  V30 2008 O 188.719 -1.79555 -0.326552 0
M  V30 2009 C 188.77 -1.75117 3.16253 0
M  V30 2010 O 188.491 -0.920537 4.2832 0
M  V30 2011 C 189.992 -2.58905 3.59837 0
M  V30 2012 H 187.212 -0.25678 0.619923 0
M  V30 2013 H 189.756 -0.152615 2.0393 0
M  V30 2014 H 187.911 -2.43805 3.01062 0
M  V30 2015 H 188.325 -1.51337 5.02192 0
M  V30 2016 H 189.799 -3.1518 4.53172 0
M  V30 2017 H 190.276 -3.34472 2.84649 0
M  V30 2018 H 190.882 -1.95526 3.7769 0
M  V30 2019 N 189.197 -1.51736 -0.425897 0
M  V30 2020 C 190.127 -1.76827 -1.52494 0
M  V30 2021 C 191.108 -0.618524 -1.58456 0
M  V30 2022 O 192.293 -0.862416 -1.74 0
M  V30 2023 C 189.423 -1.90374 -2.90474 0
M  V30 2024 C 188.377 -3.0588 -2.99369 0
M  V30 2025 C 187.703 -3.04625 -4.3944 0
M  V30 2026 C 189.003 -4.45644 -2.72394 0
M  V30 2027 H 190.697 -2.68855 -1.31748 0
M  V30 2028 H 188.243 -1.29372 -0.632362 0
M  V30 2029 H 190.196 -2.0651 -3.6733 0
M  V30 2030 H 188.92 -0.95004 -3.12477 0
M  V30 2031 H 187.579 -2.89467 -2.24954 0
M  V30 2032 H 187.227 -2.0701 -4.58428 0
M  V30 2033 H 186.927 -3.82195 -4.46319 0
M  V30 2034 H 188.451 -3.22869 -5.18255 0
M  V30 2035 H 189.865 -4.62348 -3.38979 0
M  V30 2036 H 188.262 -5.25006 -2.9067 0
M  V30 2037 H 189.332 -4.54893 -1.67929 0
M  V30 2038 N 190.675 0.682077 -1.42076 0
M  V30 2039 C 191.585 1.82535 -1.47371 0
M  V30 2040 C 192.601 1.7017 -0.363079 0
M  V30 2041 O 193.777 1.91848 -0.612875 0
M  V30 2042 C 190.842 3.18624 -1.36674 0
M  V30 2043 C 189.903 3.42999 -2.58167 0
M  V30 2044 C 189.136 4.72595 -2.4797 0
M  V30 2045 O 189.359 5.50006 -1.5116 0
M  V30 2046 O 188.293 4.98054 -3.37974 0
M  V30 2047 H 192.119 1.81023 -2.43853 0
M  V30 2048 H 189.704 0.836887 -1.2376 0
M  V30 2049 H 191.586 3.99847 -1.33043 0
M  V30 2050 H 190.261 3.20789 -0.433138 0
M  V30 2051 H 189.168 2.61653 -2.67373 0
M  V30 2052 H 190.501 3.45659 -3.50401 0
M  V30 2053 N 192.153 1.28127 0.917671 0
M  V30 2054 C 193.564 1.13622 1.48145 0
M  V30 2055 C 193.915 -0.275207 1.9426 0
M  V30 2056 O 193.04 -1.1691 1.82102 0
M  V30 2057 C 193.635 2.05648 2.69248 0
M  V30 2058 C 192.194 1.95219 3.21818 0
M  V30 2059 C 191.341 1.97618 1.94532 0
M  V30 2060 H 194.292 1.40874 0.730772 0
M  V30 2061 H 194.313 1.61818 3.44377 0
M  V30 2062 H 193.825 3.08365 2.35653 0
M  V30 2063 H 191.926 0.955244 3.60147 0
M  V30 2064 H 192.039 2.81976 3.87333 0
M  V30 2065 H 190.403 1.41973 2.11461 0
M  V30 2066 H 191.186 3.02007 1.63238 0
M  V30 2067 N 193.631 -1.12557 1.10312 0
M  V30 2068 C 194.859 -1.87864 0.866873 0
M  V30 2069 C 195.274 -1.79588 -0.582557 0
M  V30 2070 O 194.631 -1.16887 -1.40156 0
M  V30 2071 C 194.682 -3.37125 1.30496 0
M  V30 2072 O 194.403 -3.45201 2.69755 0
M  V30 2073 C 195.904 -4.29373 1.10243 0
M  V30 2074 H 193.124 -0.594452 0.311236 0
M  V30 2075 H 195.668 -1.42429 1.46745 0
M  V30 2076 H 193.823 -3.80109 0.748081 0
M  V30 2077 H 194.237 -4.38056 2.88457 0
M  V30 2078 H 195.711 -5.32394 1.45811 0
M  V30 2079 H 196.188 -4.39181 0.0409492 0
M  V30 2080 H 196.794 -3.92169 1.64571 0
M  V30 2081 N 195.109 -0.891671 -1.2995 0
M  V30 2082 C 196.057 -0.353066 -2.29905 0
M  V30 2083 C 197.051 0.543509 -1.60444 0
M  V30 2084 O 198.257 0.4272 -1.74857 0
M  V30 2085 H 194.632 -0.095531 -0.745907 0
M  V30 2086 H 196.603 -1.20961 -2.72784 0
M  V30 2087 C 195.352 0.411475 -3.45257 0
M  V30 2088 H 194.675 -0.269182 -3.98893 0
M  V30 2089 H 196.115 0.753328 -4.17254 0
M  V30 2090 C 194.574 1.6111 -2.9588 0
M  V30 2091 O 195.104 2.71045 -2.96475 0
M  V30 2092 N 193.31 1.45054 -2.51809 0
M  V30 2093 H 192.857 0.556175 -2.51524 0
M  V30 2094 H 192.815 2.25453 -2.1913 0
M  V30 2095 N 196.587 1.43421 -0.653314 0
M  V30 2096 C 197.497 2.34568 0.0388565 0
M  V30 2097 C 198.513 1.53888 0.81207 0
M  V30 2098 O 199.689 1.86539 0.759294 0
M  V30 2099 C 196.754 3.32167 0.993269 0
M  V30 2100 C 195.815 4.28751 0.216977 0
M  V30 2101 C 195.048 5.21688 1.12593 0
M  V30 2102 O 195.271 5.19052 2.36519 0
M  V30 2103 O 194.205 5.98919 0.598284 0
M  V30 2104 H 198.031 2.95251 -0.711386 0
M  V30 2105 H 195.616 1.43564 -0.413502 0
M  V30 2106 H 197.498 3.92183 1.54176 0
M  V30 2107 H 196.173 2.73987 1.72374 0
M  V30 2108 H 195.08 3.72215 -0.375101 0
M  V30 2109 H 196.413 4.89913 -0.473924 0
M  V30 2110 N 198.065 0.39524 1.52563 0
M  V30 2111 C 199.476 -0.0774719 1.86539 0
M  V30 2112 C 199.827 -1.45641 1.31466 0
M  V30 2113 O 198.952 -2.06459 0.648367 0
M  V30 2114 C 199.547 -0.147356 3.38479 0
M  V30 2115 C 198.106 -0.564373 3.72145 0
M  V30 2116 C 197.253 0.269919 2.75983 0
M  V30 2117 H 200.204 0.612876 1.46388 0
M  V30 2118 H 200.225 -0.965343 3.68051 0
M  V30 2119 H 199.737 0.856387 3.78534 0
M  V30 2120 H 197.838 -1.57527 3.37663 0
M  V30 2121 H 197.951 -0.318402 4.78041 0
M  V30 2122 H 196.315 -0.265696 2.5331 0
M  V30 2123 H 197.098 1.27175 3.18875 0
M  V30 2124 N 199.544 -1.57102 0.125237 0
M  V30 2125 C 200.774 -1.99472 -0.538015 0
M  V30 2126 C 201.182 -1.00395 -1.60366 0
M  V30 2127 O 200.525 0.0103875 -1.83697 0
M  V30 2128 C 200.587 -3.38262 -1.21734 0
M  V30 2129 C 200.251 -4.56021 -0.298897 0
M  V30 2130 C 201.248 -5.17817 0.464943 0
M  V30 2131 C 198.933 -5.01869 -0.208149 0
M  V30 2132 C 200.927 -6.23852 1.3072 0
M  V30 2133 C 198.614 -6.07763 0.637736 0
M  V30 2134 C 199.612 -6.68622 1.39403 0
M  V30 2135 O 199.3 -7.7247 2.22586 0
M  V30 2136 H 199.032 -0.659934 -0.146501 0
M  V30 2137 H 201.586 -2.04321 0.210267 0
M  V30 2138 H 199.816 -3.30185 -2.01282 0
M  V30 2139 H 201.505 -3.6488 -1.77813 0
M  V30 2140 H 202.271 -4.83308 0.404741 0
M  V30 2141 H 198.15 -4.54241 -0.786522 0
M  V30 2142 H 201.694 -6.71284 1.898 0
M  V30 2143 H 197.591 -6.41701 0.699309 0
M  V30 2144 H 198.359 -7.89595 2.15596 0
M  V30 2145 N 201.022 0.148545 -1.56898 0
M  V30 2146 C 201.985 1.16736 -1.97244 0
M  V30 2147 C 202.985 1.35947 -0.858777 0
M  V30 2148 O 204.175 1.32966 -1.12542 0
M  V30 2149 C 201.307 2.52798 -2.28705 0
M  V30 2150 H 202.5 0.821279 -2.88435 0
M  V30 2151 H 200.053 0.391831 -1.51309 0
M  V30 2152 H 200.788 2.92381 -1.403 0
M  V30 2153 H 200.573 2.40216 -3.09901 0
M  V30 2154 H 202.063 3.26179 -2.60762 0
M  V30 2155 N 202.5 1.5196 0.417844 0
M  V30 2156 C 203.749 1.6482 1.16264 0
M  V30 2157 C 204.062 0.379886 1.91876 0
M  V30 2158 O 205.268 0.388154 2.68711 0
M  V30 2159 C 203.724 2.91161 2.1155 0
M  V30 2160 C 203.332 4.25068 1.41495 0
M  V30 2161 C 205.076 3.13383 2.86341 0
M  V30 2162 C 202.983 5.42541 2.35379 0
M  V30 2163 H 201.913 0.613954 0.437694 0
M  V30 2164 H 204.564 1.78442 0.427871 0
M  V30 2165 H 202.946 2.71218 2.88543 0
M  V30 2166 H 204.12 4.55463 0.699263 0
M  V30 2167 H 202.435 4.0888 0.787792 0
M  V30 2168 H 205.032 3.98324 3.5671 0
M  V30 2169 H 205.375 2.27256 3.48798 0
M  V30 2170 H 205.908 3.33757 2.1645 0
M  V30 2171 H 202.647 6.30987 1.77582 0
M  V30 2172 H 202.167 5.16497 3.04945 0
M  V30 2173 H 203.846 5.75272 2.96093 0
M  V30 2174 N 203.978 -0.674533 1.42435 0
M  V30 2175 C 204.941 -1.76986 1.45632 0
M  V30 2176 C 205.941 -1.5708 0.343871 0
M  V30 2177 O 207.131 -1.63367 0.604709 0
M  V30 2178 C 204.263 -3.15623 1.28822 0
M  V30 2179 H 205.456 -1.75539 2.43158 0
M  V30 2180 H 203.009 -0.884189 1.28887 0
M  V30 2181 H 203.744 -3.22696 0.322193 0
M  V30 2182 H 203.529 -3.31475 2.09444 0
M  V30 2183 H 205.019 -3.95537 1.33942 0
M  V30 2184 N 205.456 -1.28612 -0.910864 0
M  V30 2185 C 206.403 -1.12786 -2.01365 0
M  V30 2186 C 207.373 -0.024201 -1.66082 0
M  V30 2187 O 208.558 -0.189667 -1.89855 0
M  V30 2188 C 205.698 -0.798743 -3.35729 0
M  V30 2189 C 204.811 -1.98173 -3.83864 0
M  V30 2190 C 203.946 -1.59298 -5.06752 0
M  V30 2191 C 202.985 -2.74245 -5.47226 0
M  V30 2192 N 202.122 -2.35842 -6.61304 0
M  V30 2193 H 206.962 -2.07142 -2.14234 0
M  V30 2194 H 204.499 -1.03093 -1.0493 0
M  V30 2195 H 206.457 -0.588662 -4.13026 0
M  V30 2196 H 205.087 0.10789 -3.2262 0
M  V30 2197 H 204.139 -2.30386 -3.02699 0
M  V30 2198 H 205.451 -2.84343 -4.09818 0
M  V30 2199 H 204.605 -1.34513 -5.916 0
M  V30 2200 H 203.344 -0.702618 -4.82612 0
M  V30 2201 H 202.349 -2.99725 -4.60918 0
M  V30 2202 H 203.574 -3.63928 -5.73353 0
M  V30 2203 H 201.52 -1.49279 -6.38789 0
M  V30 2204 H 201.437 -3.15546 -6.86998 0
M  V30 2205 H 202.705 -2.14348 -7.4945 0
M  V30 2206 N 206.934 1.1197 -1.10907 0
M  V30 2207 C 208.183 1.82947 -0.849302 0
M  V30 2208 C 208.496 1.85275 0.627112 0
M  V30 2209 O 209.702 2.52296 1.00295 0
M  V30 2210 C 208.158 3.28529 -1.46959 0
M  V30 2211 C 207.766 3.34546 -2.97965 0
M  V30 2212 C 209.51 4.04443 -1.28942 0
M  V30 2213 C 207.417 4.74491 -3.53004 0
M  V30 2214 H 206.347 0.685477 -0.314065 0
M  V30 2215 H 208.998 1.2604 -1.33365 0
M  V30 2216 H 207.38 3.85333 -0.912917 0
M  V30 2217 H 208.554 2.87654 -3.59989 0
M  V30 2218 H 206.869 2.72108 -3.15192 0
M  V30 2219 H 209.466 5.07787 -1.67502 0
M  V30 2220 H 209.809 4.15656 -0.231456 0
M  V30 2221 H 210.342 3.5401 -1.81443 0
M  V30 2222 H 207.081 4.68474 -4.58489 0
M  V30 2223 H 206.601 5.21816 -2.9575 0
M  V30 2224 H 208.28 5.4344 -3.51115 0
M  V30 2225 N 208.412 0.89855 1.29475 0
M  V30 2226 C 209.375 0.380272 2.26023 0
M  V30 2227 C 210.375 -0.484891 1.53315 0
M  V30 2228 O 211.565 -0.290108 1.71767 0
M  V30 2229 C 208.697 -0.45651 3.3783 0
M  V30 2230 H 209.89 1.23295 2.73383 0
M  V30 2231 H 207.443 0.676589 1.40897 0
M  V30 2232 H 208.178 -1.32922 2.95808 0
M  V30 2233 H 207.963 0.163393 3.91759 0
M  V30 2234 H 209.453 -0.810466 4.0966 0
M  V30 2235 N 209.89 -1.43072 0.660911 0
M  V30 2236 C 211.138 -2.01323 0.177094 0
M  V30 2237 C 211.459 -1.5245 -1.2159 0
M  V30 2238 O 210.729 -0.740322 -1.81373 0
M  V30 2239 H 209.309 -0.744382 0.0624804 0
M  V30 2240 H 211.971 -1.75179 0.854305 0
M  V30 2241 H 211.067 -3.11649 0.167641 0
M  V30 2242 N 211.368 -0.403325 -1.52352 0
M  V30 2243 C 212.617 0.175668 -2.00934 0
M  V30 2244 C 212.93 1.46718 -1.29356 0
M  V30 2245 O 214.136 2.12708 -1.68724 0
M  V30 2246 C 212.592 0.363612 -3.58058 0
M  V30 2247 C 212.2 -0.915472 -4.38547 0
M  V30 2248 C 213.944 0.89821 -4.14888 0
M  V30 2249 C 211.851 -0.695035 -5.87302 0
M  V30 2250 H 210.781 0.0694234 -0.750797 0
M  V30 2251 H 213.432 -0.527879 -1.75743 0
M  V30 2252 H 211.814 1.12935 -3.79555 0
M  V30 2253 H 212.988 -1.68691 -4.28812 0
M  V30 2254 H 211.303 -1.37606 -3.93006 0
M  V30 2255 H 213.9 1.07907 -5.23699 0
M  V30 2256 H 214.243 1.87126 -3.71873 0
M  V30 2257 H 214.776 0.191681 -3.97338 0
M  V30 2258 H 211.515 -1.63948 -6.34666 0
M  V30 2259 H 211.035 0.0372116 -5.99788 0
M  V30 2260 H 212.714 -0.33497 -6.46132 0
M  V30 2261 N 212.846 1.57033 -0.133567 0
M  V30 2262 C 213.793 2.16074 0.811208 0
M  V30 2263 C 214.763 1.08979 1.2535 0
M  V30 2264 O 215.948 1.36958 1.32843 0
M  V30 2265 C 213.088 2.77595 2.05024 0
M  V30 2266 C 212.201 3.99042 1.65498 0
M  V30 2267 C 211.336 4.48603 2.84479 0
M  V30 2268 C 210.375 5.62547 2.41262 0
M  V30 2269 N 209.512 6.06787 3.53206 0
M  V30 2270 H 214.352 2.96477 0.300906 0
M  V30 2271 H 211.889 1.46462 0.136822 0
M  V30 2272 H 213.847 3.11402 2.77642 0
M  V30 2273 H 212.477 1.99859 2.53488 0
M  V30 2274 H 211.529 3.71302 0.826981 0
M  V30 2275 H 212.841 4.81629 1.29748 0
M  V30 2276 H 211.995 4.84395 3.65303 0
M  V30 2277 H 210.734 3.64995 3.23465 0
M  V30 2278 H 209.739 5.26345 1.58874 0
M  V30 2279 H 210.964 6.47931 2.03377 0
M  V30 2280 H 208.91 5.26117 3.91838 0
M  V30 2281 H 208.827 6.84266 3.21427 0
M  V30 2282 H 210.095 6.4722 4.34427 0
M  V30 2283 N 214.325 -0.140222 1.56975 0
M  V30 2284 C 215.255 -1.17456 2.01808 0
M  V30 2285 C 216.236 -1.44415 0.898794 0
M  V30 2286 O 217.421 -1.5522 1.16707 0
M  V30 2287 C 214.551 -2.50607 2.40444 0
M  V30 2288 C 213.505 -2.38155 3.55621 0
M  V30 2289 C 212.831 -3.76078 3.80091 0
M  V30 2290 C 214.131 -1.85991 4.88062 0
M  V30 2291 H 215.825 -0.801743 2.88466 0
M  V30 2292 H 213.371 -0.38422 1.38779 0
M  V30 2293 H 215.324 -3.23197 2.7041 0
M  V30 2294 H 214.048 -2.89737 1.50732 0
M  V30 2295 H 212.707 -1.68016 3.25832 0
M  V30 2296 H 212.355 -4.12656 2.87618 0
M  V30 2297 H 212.055 -3.68606 4.57606 0
M  V30 2298 H 213.579 -4.50206 4.12488 0
M  V30 2299 H 214.993 -2.4838 5.16701 0
M  V30 2300 H 213.39 -1.89393 5.6943 0
M  V30 2301 H 214.46 -0.816023 4.77984 0
M  V30 2302 N 215.803 -1.52179 -0.40978 0
M  V30 2303 C 217.043 -1.67882 -1.16597 0
M  V30 2304 C 217.407 -0.399795 -1.87791 0
M  V30 2305 O 218.608 -0.43292 -2.65291 0
M  V30 2306 C 216.879 -2.86662 -2.13448 0
M  V30 2307 S 218.438 -3.22843 -2.97183 0
M  V30 2308 H 215.256 -0.59118 -0.395002 0
M  V30 2309 H 217.858 -1.9017 -0.453373 0
M  V30 2310 H 216.562 -3.77998 -1.59831 0
M  V30 2311 H 216.093 -2.66645 -2.89247 0
M  V30 2312 H 218.108 -2.71415 -4.15389 0
M  V30 2313 N 217.281 0.66697 -1.42791 0
M  V30 2314 C 218.191 1.80962 -1.49299 0
M  V30 2315 C 219.207 1.69775 -0.381108 0
M  V30 2316 O 220.383 1.91188 -0.633188 0
M  V30 2317 C 217.448 3.17156 -1.40045 0
M  V30 2318 C 216.509 3.40242 -2.6179 0
M  V30 2319 C 215.742 4.69939 -2.52969 0
M  V30 2320 O 215.965 5.48372 -1.56985 0
M  V30 2321 O 214.899 4.94441 -3.43237 0
M  V30 2322 H 218.725 1.78427 -2.45759 0
M  V30 2323 H 216.31 0.823713 -1.24641 0
M  V30 2324 H 218.192 3.98413 -1.37276 0
M  V30 2325 H 216.867 3.20312 -0.467138 0
M  V30 2326 H 215.774 2.58802 -2.70134 0
M  V30 2327 H 217.107 3.41923 -3.54047 0
M  V30 2328 N 218.759 1.29093 0.90403 0
M  V30 2329 C 219.984 1.19809 1.69294 0
M  V30 2330 C 220.409 -0.238481 1.86582 0
M  V30 2331 O 219.767 -1.1723 1.383 0
M  V30 2332 C 219.815 1.91202 3.05736 0
M  V30 2333 O 218.919 1.22611 3.93752 0
M  V30 2334 H 218.26 0.415385 0.518027 0
M  V30 2335 H 220.79 1.70586 1.12967 0
M  V30 2336 H 220.8 1.99487 3.55906 0
M  V30 2337 H 219.475 2.95692 2.92471 0
M  V30 2338 H 218.052 1.22554 3.52186 0
M  V30 2339 N 220.237 -1.11381 1.11499 0
M  V30 2340 C 221.467 -1.86663 0.885464 0
M  V30 2341 C 221.875 -1.80464 -0.568281 0
M  V30 2342 O 221.218 -1.18445 -1.40415 0
M  V30 2343 C 221.28 -3.36337 1.26956 0
M  V30 2344 C 220.944 -3.66304 2.73259 0
M  V30 2345 C 221.941 -3.63733 3.71476 0
M  V30 2346 C 219.626 -3.9529 3.09921 0
M  V30 2347 C 221.62 -3.89725 5.04374 0
M  V30 2348 C 219.307 -4.20941 4.43004 0
M  V30 2349 C 220.305 -4.18147 5.40039 0
M  V30 2350 O 219.993 -4.43153 6.70724 0
M  V30 2351 H 219.725 -0.597114 0.316908 0
M  V30 2352 H 222.279 -1.41782 1.48617 0
M  V30 2353 H 220.509 -3.81826 0.611999 0
M  V30 2354 H 222.198 -3.92986 1.01573 0
M  V30 2355 H 222.964 -3.41389 3.44498 0
M  V30 2356 H 218.843 -3.966 2.35009 0
M  V30 2357 H 222.387 -3.8746 5.80104 0
M  V30 2358 H 218.284 -4.42761 4.69716 0
M  V30 2359 H 219.052 -4.60717 6.76522 0
M  V30 2360 N 221.715 -0.905404 -1.28997 0
M  V30 2361 C 222.663 -0.377431 -2.29517 0
M  V30 2362 C 223.657 0.526461 -1.61012 0
M  V30 2363 O 224.863 0.40863 -1.753 0
M  V30 2364 H 221.238 -0.103437 -0.744852 0
M  V30 2365 H 223.209 -1.23848 -2.71485 0
M  V30 2366 C 221.958 0.374833 -3.45674 0
M  V30 2367 H 221.281 -0.311474 -3.98585 0
M  V30 2368 H 222.721 0.70903 -4.1803 0
M  V30 2369 C 221.18 1.57963 -2.97572 0
M  V30 2370 O 221.71 2.67886 -2.99333 0
M  V30 2371 N 219.916 1.42375 -2.53333 0
M  V30 2372 H 219.463 0.529466 -2.521 0
M  V30 2373 H 219.421 2.23117 -2.21509 0
M  V30 2374 N 223.193 1.4272 -0.668489 0
M  V30 2375 C 224.609 1.55992 -0.33745 0
M  V30 2376 C 224.809 1.64933 1.15756 0
M  V30 2377 O 223.865 1.61278 1.94282 0
M  V30 2378 C 225.178 2.81314 -1.06222 0
M  V30 2379 C 226.726 2.95078 -1.04394 0
M  V30 2380 C 227.201 4.23252 -1.74991 0
M  V30 2381 N 228.692 4.3015 -1.71829 0
M  V30 2382 C 229.427 5.28127 -2.23315 0
M  V30 2383 N 228.923 6.32293 -2.83156 0
M  V30 2384 N 230.716 5.19882 -2.13726 0
M  V30 2385 H 222.867 1.3516 -1.63846 0
M  V30 2386 H 225.13 0.650174 -0.689912 0
M  V30 2387 H 224.836 2.80823 -2.11734 0
M  V30 2388 H 224.71 3.72012 -0.62344 0
M  V30 2389 H 227.097 2.951 0.0028244 0
M  V30 2390 H 227.178 2.05627 -1.52155 0
M  V30 2391 H 226.822 4.2399 -2.79633 0
M  V30 2392 H 226.752 5.11626 -1.24685 0
M  V30 2393 H 229.243 3.55499 -1.28175 0
M  V30 2394 H 229.556 7.03398 -3.20079 0
M  V30 2395 H 227.901 6.32873 -2.87223 0
M  V30 2396 H 231.092 4.37423 -1.66669 0
M  V30 2397 H 231.265 5.96077 -2.54158 0
M  V30 2398 N 224.671 0.411399 1.52136 0
M  V30 2399 C 225.603 -0.448386 2.24771 0
M  V30 2400 C 226.616 -1.00828 1.27818 0
M  V30 2401 O 227.805 -0.906841 1.53749 0
M  V30 2402 C 224.905 -1.63636 2.96777 0
M  V30 2403 C 224.078 -1.19995 4.20618 0
M  V30 2404 C 223.137 -2.25509 4.75428 0
M  V30 2405 O 222.163 -1.86007 5.3795 0
M  V30 2406 N 223.365 -3.577 4.57199 0
M  V30 2407 H 226.13 0.174025 2.99194 0
M  V30 2408 H 223.691 0.238897 1.60128 0
M  V30 2409 H 225.683 -2.33793 3.30338 0
M  V30 2410 H 224.253 -2.16465 2.25526 0
M  V30 2411 H 223.473 -0.326421 3.92846 0
M  V30 2412 H 224.761 -0.885365 5.01038 0
M  V30 2413 H 224.159 -3.92543 4.07341 0
M  V30 2414 H 222.716 -4.23827 4.95191 0
M  V30 2415 N 226.149 -1.5696 0.141893 0
M  V30 2416 C 227.379 -2.00031 -0.516828 0
M  V30 2417 C 227.787 -1.02091 -1.59293 0
M  V30 2418 O 227.13 -0.00909657 -1.83698 0
M  V30 2419 C 227.192 -3.39534 -1.1814 0
M  V30 2420 C 226.856 -4.56313 -0.250513 0
M  V30 2421 C 227.853 -5.17295 0.519839 0
M  V30 2422 C 225.538 -5.02061 -0.154907 0
M  V30 2423 C 227.532 -6.2243 1.3733 0
M  V30 2424 C 225.219 -6.07053 0.702161 0
M  V30 2425 C 226.217 -6.67106 1.46487 0
M  V30 2426 O 225.905 -7.70066 2.30767 0
M  V30 2427 H 225.637 -0.661451 -0.139493 0
M  V30 2428 H 228.191 -2.04086 0.231926 0
M  V30 2429 H 226.421 -3.32302 -1.97769 0
M  V30 2430 H 228.11 -3.66745 -1.73933 0
M  V30 2431 H 228.876 -4.82852 0.45598 0
M  V30 2432 H 224.755 -4.5505 -0.7383 0
M  V30 2433 H 228.299 -6.69233 1.96909 0
M  V30 2434 H 224.196 -6.40923 0.76733 0
M  V30 2435 H 224.964 -7.87264 2.23959 0
M  V30 2436 N 227.627 0.131896 -1.57047 0
M  V30 2437 C 228.875 0.840269 -1.83804 0
M  V30 2438 C 229.196 1.81017 -0.72512 0
M  V30 2439 O 228.466 1.94272 0.251995 0
M  V30 2440 H 227.046 0.313294 -0.678127 0
M  V30 2441 H 229.708 0.122294 -1.94516 0
M  V30 2442 H 228.804 1.39335 -2.79271 0
M  V30 2443 N 229.106 1.52395 0.401703 0
M  V30 2444 C 230.522 1.41363 0.740864 0
M  V30 2445 C 230.722 0.523982 1.94568 0
M  V30 2446 O 229.778 -0.00741204 2.52499 0
M  V30 2447 C 231.091 2.84011 0.987847 0
M  V30 2448 C 232.639 2.93404 1.09011 0
M  V30 2449 C 233.114 4.37036 1.3698 0
M  V30 2450 N 234.605 4.40304 1.43829 0
M  V30 2451 C 235.34 5.48508 1.67112 0
M  V30 2452 N 234.836 6.66819 1.87949 0
M  V30 2453 N 236.629 5.36034 1.69187 0
M  V30 2454 H 228.78 2.08765 -0.391262 0
M  V30 2455 H 231.043 0.941265 -0.112798 0
M  V30 2456 H 230.749 3.51265 0.174835 0
M  V30 2457 H 230.623 3.25502 1.906 0
M  V30 2458 H 233.01 2.26325 1.8937 0
M  V30 2459 H 233.091 2.55359 0.15015 0
M  V30 2460 H 232.735 5.04676 0.571353 0
M  V30 2461 H 232.665 4.72623 2.3224 0
M  V30 2462 H 235.156 3.55024 1.29486 0
M  V30 2463 H 235.469 7.45063 2.05185 0
M  V30 2464 H 233.814 6.6987 1.85199 0
M  V30 2465 H 237.005 4.42579 1.52451 0
M  V30 2466 H 237.178 6.20434 1.86993 0
M  V30 2467 N 230.584 -0.659388 1.43143 0
M  V30 2468 C 231.861 -1.41627 1.34912 0
M  V30 2469 C 232.241 -2.11099 -0.00607785 0
M  V30 2470 O 231.589 -2.04353 -1.02236 0
M  V30 2471 C 231.799 -2.40604 2.52805 0
M  V30 2472 C 233.147 -3.04789 2.95616 0
M  V30 2473 O 234.171 -2.50932 2.52807 0
M  V30 2474 O 233.03 -4.02421 3.69756 0
M  V30 2475 H 230.124 -0.63246 0.532844 0
M  V30 2476 H 232.67 -0.686814 1.5518 0
M  V30 2477 H 231.442 -1.88174 3.43083 0
M  V30 2478 H 231.065 -3.21009 2.34604 0
M  V30 2479 N 232.062 -1.29571 -0.897171 0
M  V30 2480 C 233.292 -1.20408 -1.67886 0
M  V30 2481 C 233.7 0.237429 -1.87704 0
M  V30 2482 O 233.043 1.17048 -1.41582 0
M  V30 2483 C 233.105 -1.84887 -3.08314 0
M  V30 2484 C 232.769 -3.34189 -3.11716 0
M  V30 2485 C 233.766 -4.30374 -2.91675 0
M  V30 2486 C 231.451 -3.75431 -3.33701 0
M  V30 2487 C 233.445 -5.65776 -2.93557 0
M  V30 2488 C 231.132 -5.10955 -3.35214 0
M  V30 2489 C 232.13 -6.05938 -3.15164 0
M  V30 2490 O 231.818 -7.38987 -3.1647 0
M  V30 2491 H 231.55 -0.418289 -0.531046 0
M  V30 2492 H 234.104 -1.71514 -1.13014 0
M  V30 2493 H 232.334 -1.28295 -3.64798 0
M  V30 2494 H 234.023 -1.70011 -3.6858 0
M  V30 2495 H 234.789 -3.99844 -2.74499 0
M  V30 2496 H 230.668 -3.01953 -3.48347 0
M  V30 2497 H 234.212 -6.39889 -2.77826 0
M  V30 2498 H 230.109 -5.4113 -3.51922 0
M  V30 2499 H 230.877 -7.47823 -3.3272 0
M  V30 2500 N 233.54 1.10788 -1.12088 0
M  V30 2501 C 234.956 1.34691 -0.856186 0
M  V30 2502 C 235.156 1.94791 0.515615 0
M  V30 2503 O 234.212 2.18524 1.26505 0
M  V30 2504 C 235.525 2.27208 -1.9697 0
M  V30 2505 C 237.073 2.40755 -2.00016 0
M  V30 2506 C 237.548 3.36598 -3.1059 0
M  V30 2507 N 239.039 3.44164 -3.10008 0
M  V30 2508 C 239.774 4.18284 -3.92206 0
M  V30 2509 N 239.27 4.95322 -4.84384 0
M  V30 2510 N 241.063 4.13865 -3.80357 0
M  V30 2511 H 233.214 0.70144 -2.00483 0
M  V30 2512 H 235.477 0.371405 -0.872217 0
M  V30 2513 H 235.183 1.90251 -2.958 0
M  V30 2514 H 235.057 3.27485 -1.87172 0
M  V30 2515 H 237.444 2.76982 -1.01808 0
M  V30 2516 H 237.525 1.40305 -2.13888 0
M  V30 2517 H 237.169 3.01096 -4.09028 0
M  V30 2518 H 237.099 4.36918 -2.93956 0
M  V30 2519 H 239.59 2.8922 -2.43228 0
M  V30 2520 H 239.903 5.49267 -5.43623 0
M  V30 2521 H 238.248 4.94459 -4.884 0
M  V30 2522 H 241.439 3.52773 -3.07683 0
M  V30 2523 H 241.612 4.71372 -4.44649 0
M  V30 2524 N 235.018 0.912232 1.28515 0
M  V30 2525 C 236.243 0.559774 1.99703 0
M  V30 2526 C 236.668 -0.851393 1.67729 0
M  V30 2527 O 236.026 -1.56875 0.908834 0
M  V30 2528 C 236.074 0.773874 3.52198 0
M  V30 2529 O 235.178 -0.167842 4.12058 0
M  V30 2530 H 234.519 0.21723 0.627461 0
M  V30 2531 H 237.049 1.22725 1.63706 0
M  V30 2532 H 237.059 0.683386 4.02236 0
M  V30 2533 H 235.734 1.80261 3.74805 0
M  V30 2534 H 234.311 -0.0287509 3.72889 0
M  V30 2535 N 236.496 -1.42363 0.676048 0
M  V30 2536 C 237.742 -2.0182 0.199125 0
M  V30 2537 C 238.075 -1.53339 -1.19168 0
M  V30 2538 O 237.35 -0.736124 -1.80032 0
M  V30 2539 C 237.633 -3.59331 0.235144 0
M  V30 2540 C 237.486 -4.17989 1.66149 0
M  V30 2541 C 238.805 -4.3813 -0.41595 0
M  V30 2542 H 235.924 -0.733293 0.0738311 0
M  V30 2543 H 238.566 -1.69368 0.86107 0
M  V30 2544 H 236.716 -3.87109 -0.328487 0
M  V30 2545 H 238.388 -4.0116 2.27747 0
M  V30 2546 H 236.631 -3.7377 2.20178 0
M  V30 2547 H 237.302 -5.27126 1.63837 0
M  V30 2548 H 239.778 -4.16051 0.0638529 0
M  V30 2549 H 238.654 -5.47717 -0.360115 0
M  V30 2550 H 238.915 -4.16101 -1.49373 0
M  V30 2551 N 237.974 -0.419461 -1.51915 0
M  V30 2552 C 238.907 0.445751 -2.23804 0
M  V30 2553 C 239.885 1.03951 -1.25031 0
M  V30 2554 O 241.069 1.08541 -1.54114 0
M  V30 2555 C 238.196 1.61964 -2.97465 0
M  V30 2556 C 237.242 1.14828 -4.10751 0
M  V30 2557 S 238.075 0.104938 -5.35397 0
M  V30 2558 C 239.231 1.28391 -6.1259 0
M  V30 2559 H 239.464 -0.164627 -2.96844 0
M  V30 2560 H 236.997 -0.203833 -1.53049 0
M  V30 2561 H 238.955 2.29271 -3.40507 0
M  V30 2562 H 237.616 2.20139 -2.24048 0
M  V30 2563 H 236.809 2.02561 -4.61503 0
M  V30 2564 H 236.411 0.553712 -3.69878 0
M  V30 2565 H 238.703 2.20563 -6.40592 0
M  V30 2566 H 239.646 0.816724 -7.03374 0
M  V30 2567 H 240.054 1.51439 -5.43807 0
M  V30 2568 N 239.452 1.56882 -0.150215 0
M  V30 2569 C 240.863 1.82995 0.370076 0
M  V30 2570 C 241.214 1.06907 1.64515 0
M  V30 2571 O 240.339 0.315369 2.1409 0
M  V30 2572 C 240.934 3.31942 0.678208 0
M  V30 2573 C 239.493 3.58625 1.14301 0
M  V30 2574 C 238.64 2.76792 0.167778 0
M  V30 2575 H 241.591 1.54209 -0.374858 0
M  V30 2576 H 241.612 3.48272 1.53254 0
M  V30 2577 H 241.124 3.87294 -0.249991 0
M  V30 2578 H 239.225 3.08664 2.08704 0
M  V30 2579 H 239.338 4.67073 1.06676 0
M  V30 2580 H 237.702 2.45972 0.661037 0
M  V30 2581 H 238.485 3.34916 -0.754069 0
M  V30 2582 N 240.93 -0.123565 1.57115 0
M  V30 2583 C 242.158 -0.846461 1.88793 0
M  V30 2584 C 242.573 -1.73652 0.740976 0
M  V30 2585 O 241.93 -1.80207 -0.288393 0
M  V30 2586 C 241.981 -1.6837 3.19897 0
M  V30 2587 O 241.702 -0.829477 4.30176 0
M  V30 2588 C 243.203 -2.51214 3.65248 0
M  V30 2589 H 240.423 -0.243573 0.625231 0
M  V30 2590 H 242.967 -0.109324 2.04208 0
M  V30 2591 H 241.122 -2.37364 3.06165 0
M  V30 2592 H 241.536 -1.40651 5.0529 0
M  V30 2593 H 243.01 -3.05497 4.59756 0
M  V30 2594 H 243.487 -3.28359 2.9168 0
M  V30 2595 H 244.093 -1.8747 3.81752 0
M  V30 2596 N 242.408 -1.52605 -0.393616 0
M  V30 2597 C 243.356 -1.77688 -1.50099 0
M  V30 2598 C 244.35 -0.644615 -1.56656 0
M  V30 2599 O 245.556 -0.826997 -1.59877 0
M  V30 2600 H 241.931 -0.562159 -0.499481 0
M  V30 2601 H 243.902 -2.7043 -1.26135 0
M  V30 2602 C 242.651 -1.95858 -2.87289 0
M  V30 2603 H 241.974 -2.8241 -2.82992 0
M  V30 2604 H 243.414 -2.174 -3.64024 0
M  V30 2605 C 241.873 -0.729848 -3.28899 0
M  V30 2606 O 242.403 0.0949217 -4.01588 0
M  V30 2607 N 240.609 -0.561283 -2.85128 0
M  V30 2608 H 240.156 -1.23357 -2.26143 0
M  V30 2609 H 240.114 0.2595 -3.13327 0
M  V30 2610 N 243.887 0.651787 -1.4349 0
M  V30 2611 C 244.817 1.77621 -1.51569 0
M  V30 2612 C 245.798 1.66022 -0.370253 0
M  V30 2613 O 246.983 1.85095 -0.587658 0
M  V30 2614 C 244.113 3.16056 -1.43966 0
M  V30 2615 C 243.067 3.4242 -2.56774 0
M  V30 2616 C 242.393 4.8067 -2.34223 0
M  V30 2617 C 243.693 3.37023 -3.99015 0
M  V30 2618 H 245.387 1.71117 -2.45681 0
M  V30 2619 H 242.933 0.821825 -1.18246 0
M  V30 2620 H 244.886 3.94472 -1.48221 0
M  V30 2621 H 243.61 3.23293 -0.463586 0
M  V30 2622 H 242.269 2.66375 -2.51873 0
M  V30 2623 H 241.917 4.84585 -1.34856 0
M  V30 2624 H 241.617 4.9927 -3.09844 0
M  V30 2625 H 243.141 5.61342 -2.40265 0
M  V30 2626 H 244.555 4.05374 -4.05395 0
M  V30 2627 H 242.952 3.67159 -4.74673 0
M  V30 2628 H 244.022 2.3518 -4.2405 0
M  V30 2629 N 245.365 1.30045 0.890287 0
M  V30 2630 C 246.595 1.21296 1.67245 0
M  V30 2631 C 247.003 -0.227471 1.87828 0
M  V30 2632 O 246.346 -1.16296 1.422 0
M  V30 2633 C 246.408 1.86519 3.07329 0
M  V30 2634 C 246.072 3.35837 3.09939 0
M  V30 2635 C 247.069 4.31915 2.89389 0
M  V30 2636 C 244.754 3.77196 3.31706 0
M  V30 2637 C 246.748 5.67325 2.90552 0
M  V30 2638 C 244.435 5.12725 3.32499 0
M  V30 2639 C 245.433 6.076 3.11947 0
M  V30 2640 O 245.121 7.40655 3.12547 0
M  V30 2641 H 244.853 0.4211 0.528821 0
M  V30 2642 H 247.407 1.72111 1.12103 0
M  V30 2643 H 245.637 1.30228 3.64112 0
M  V30 2644 H 247.326 1.71963 3.67673 0
M  V30 2645 H 248.092 4.01294 2.72375 0
M  V30 2646 H 243.971 3.03796 3.4674 0
M  V30 2647 H 247.515 6.41354 2.74429 0
M  V30 2648 H 243.412 5.42988 3.49047 0
M  V30 2649 H 244.18 7.49577 3.28749 0
M  V30 2650 N 246.843 -1.10192 1.12674 0
M  V30 2651 C 248.091 -1.81845 0.881861 0
M  V30 2652 C 248.412 -1.85737 -0.593867 0
M  V30 2653 O 247.682 -1.33724 -1.4316 0
M  V30 2654 H 246.262 -0.673432 0.323261 0
M  V30 2655 H 248.924 -1.33316 1.42172 0
M  V30 2656 H 248.02 -2.85288 1.2656 0
M  V30 2657 N 248.321 -0.919034 -1.28029 0
M  V30 2658 C 249.732 -0.600735 -1.76771 0
M  V30 2659 C 250.083 0.884024 -1.75156 0
M  V30 2660 O 249.208 1.69163 -1.34956 0
M  V30 2661 C 249.803 -1.08372 -3.21 0
M  V30 2662 C 248.362 -0.816248 -3.67443 0
M  V30 2663 C 247.509 -1.24742 -2.47658 0
M  V30 2664 H 250.46 -1.09974 -1.14418 0
M  V30 2665 H 250.481 -0.427512 -3.78091 0
M  V30 2666 H 249.993 -2.16437 -3.22144 0
M  V30 2667 H 248.094 0.250968 -3.71754 0
M  V30 2668 H 248.207 -1.4277 -4.57333 0
M  V30 2669 H 246.571 -0.666083 -2.45836 0
M  V30 2670 H 247.354 -2.33653 -2.51518 0
M  V30 2671 N 249.799 1.42003 -0.683588 0
M  V30 2672 C 250.749 2.27997 0.0121992 0
M  V30 2673 C 251.733 1.4156 0.764822 0
M  V30 2674 O 252.925 1.64935 0.642287 0
M  V30 2675 C 250.054 3.29706 0.956482 0
M  V30 2676 C 249.14 4.23625 0.200739 0
M  V30 2677 N 249.531 4.99448 -0.799087 0
M  V30 2678 C 247.829 4.43845 0.437937 0
M  V30 2679 C 248.53 5.68102 -1.25041 0
M  V30 2680 N 247.506 5.40511 -0.578648 0
M  V30 2681 H 251.308 2.84048 -0.754564 0
M  V30 2682 H 248.822 1.54071 -0.513398 0
M  V30 2683 H 250.819 3.90124 1.47 0
M  V30 2684 H 249.479 2.75216 1.72297 0
M  V30 2685 H 250.49 5.04303 -1.17893 0
M  V30 2686 H 247.167 4.00382 1.18325 0
M  V30 2687 H 248.557 6.38913 -2.07942 0
M  V30 2688 N 251.277 0.427512 1.51691 0
M  V30 2689 C 252.554 -0.201684 1.94557 0
M  V30 2690 C 252.934 -1.60981 1.36559 0
M  V30 2691 O 252.282 -2.21814 0.548702 0
M  V30 2692 C 252.492 -0.189394 3.48486 0
M  V30 2693 C 253.84 -0.39978 4.22714 0
M  V30 2694 O 254.864 -0.267945 3.55191 0
M  V30 2695 O 253.723 -0.661249 5.42485 0
M  V30 2696 H 250.817 -0.135261 0.815864 0
M  V30 2697 H 253.363 0.484782 1.62628 0
M  V30 2698 H 252.135 0.795431 3.8313 0
M  V30 2699 H 251.758 -0.919187 3.86829 0
M  V30 2700 N 252.755 -1.56801 0.158532 0
M  V30 2701 C 253.703 -2.18638 -0.793729 0
M  V30 2702 C 254.697 -1.14669 -1.24689 0
M  V30 2703 O 255.903 -1.32895 -1.21403 0
M  V30 2704 H 252.278 -0.700226 -0.274204 0
M  V30 2705 H 254.249 -2.97367 -0.248095 0
M  V30 2706 C 252.998 -2.83139 -2.0181 0
M  V30 2707 H 252.321 -3.62863 -1.67841 0
M  V30 2708 H 253.761 -3.29894 -2.66357 0
M  V30 2709 C 252.22 -1.82244 -2.83353 0
M  V30 2710 O 252.75 -1.3 -3.80083 0
M  V30 2711 N 250.956 -1.51288 -2.48114 0
M  V30 2712 H 250.503 -1.93964 -1.69516 0
M  V30 2713 H 250.461 -0.840296 -3.02963 0
M  V30 2714 N 254.233 0.115231 -1.57178 0
M  V30 2715 C 255.48 0.822351 -1.8505 0
M  V30 2716 C 255.808 1.79701 -0.744168 0
M  V30 2717 O 255.063 1.93909 0.26414 0
M  V30 2718 C 255.362 1.60324 -3.19423 0
M  V30 2719 C 255.028 0.772536 -4.44233 0
M  V30 2720 C 253.69 0.543468 -4.78121 0
M  V30 2721 C 256.042 0.193746 -5.2084 0
M  V30 2722 C 253.37 -0.274583 -5.86057 0
M  V30 2723 C 255.722 -0.611517 -6.29637 0
M  V30 2724 C 254.386 -0.850867 -6.62055 0
M  V30 2725 H 253.656 0.30092 -0.677147 0
M  V30 2726 H 256.303 0.0845802 -1.91313 0
M  V30 2727 H 254.608 2.41203 -3.08753 0
M  V30 2728 H 256.305 2.1544 -3.38211 0
M  V30 2729 H 252.895 0.96117 -4.17683 0
M  V30 2730 H 257.079 0.357926 -4.95008 0
M  V30 2731 H 252.335 -0.469206 -6.09597 0
M  V30 2732 H 256.509 -1.06697 -6.88178 0
M  V30 2733 H 254.136 -1.48657 -7.45523 0
M  V30 2734 N 255.711 1.52812 0.385517 0
M  V30 2735 C 256.661 1.74219 1.47078 0
M  V30 2736 C 257.645 0.59632 1.49442 0
M  V30 2737 O 258.837 0.85428 1.5502 0
M  V30 2738 C 255.966 1.9176 2.84751 0
M  V30 2739 C 255.052 3.12289 2.86943 0
M  V30 2740 N 255.443 4.34575 2.58802 0
M  V30 2741 C 253.741 3.12605 3.1811 0
M  V30 2742 C 254.442 5.162 2.68166 0
M  V30 2743 N 253.418 4.51964 3.02043 0
M  V30 2744 H 257.22 2.6639 1.24152 0
M  V30 2745 H 254.734 1.51166 0.593504 0
M  V30 2746 H 256.731 2.05218 3.62893 0
M  V30 2747 H 255.391 1.00805 3.08656 0
M  V30 2748 H 256.402 4.62649 2.32759 0
M  V30 2749 H 253.079 2.31472 3.47458 0
M  V30 2750 H 254.469 6.23689 2.49923 0
M  V30 2751 N 257.189 -0.644168 1.43834 0
M  V30 2752 C 258.6 -1.22554 1.40845 0
M  V30 2753 C 258.951 -1.9585 0.117115 0
M  V30 2754 O 258.076 -2.01734 -0.783086 0
M  V30 2755 C 258.671 -2.22907 2.55143 0
M  V30 2756 C 257.23 -2.76501 2.5539 0
M  V30 2757 C 256.377 -1.51287 2.32396 0
M  V30 2758 H 259.328 -0.43563 1.52604 0
M  V30 2759 H 259.349 -3.05259 2.2715 0
M  V30 2760 H 258.861 -1.69533 3.49114 0
M  V30 2761 H 256.962 -3.33914 1.65324 0
M  V30 2762 H 257.075 -3.23429 3.53455 0
M  V30 2763 H 255.439 -1.78957 1.81236 0
M  V30 2764 H 256.222 -0.998336 3.28463 0
M  V30 2765 N 258.668 -1.30515 -0.883378 0
M  V30 2766 C 259.893 -1.22487 -1.67367 0
M  V30 2767 C 260.318 0.208767 -1.86938 0
M  V30 2768 O 259.676 1.15015 -1.40148 0
M  V30 2769 C 259.724 -1.96041 -3.02655 0
M  V30 2770 O 258.828 -1.28859 -3.91751 0
M  V30 2771 H 258.169 -0.423573 -0.511353 0
M  V30 2772 H 260.699 -1.72362 -1.10239 0
M  V30 2773 H 260.709 -2.05124 -3.52687 0
M  V30 2774 H 259.384 -3.00307 -2.8773 0
M  V30 2775 H 257.961 -1.28141 -3.50192 0
M  V30 2776 N 260.146 1.09593 -1.13257 0
M  V30 2777 C 261.094 2.18271 -0.803783 0
M  V30 2778 C 262.088 1.68054 0.213148 0
M  V30 2779 O 263.294 1.79862 0.0704699 0
M  V30 2780 H 259.669 0.711949 -0.242143 0
M  V30 2781 H 261.64 2.43235 -1.72856 0
M  V30 2782 C 260.389 3.46536 -0.28424 0
M  V30 2783 H 259.712 3.85545 -1.05807 0
M  V30 2784 H 261.152 4.23899 -0.0925945 0
M  V30 2785 C 259.611 3.22036 0.989684 0
M  V30 2786 O 260.141 3.44509 2.06584 0
M  V30 2787 N 258.347 2.7565 0.920086 0
M  V30 2788 H 257.894 2.57562 0.0442019 0
M  V30 2789 H 257.852 2.59635 1.77306 0
M  V30 2790 N 261.624 0.925811 1.2754 0
M  V30 2791 C 262.849 0.580924 1.99098 0
M  V30 2792 C 263.274 -0.833555 1.68622 0
M  V30 2793 O 262.632 -1.55903 0.925422 0
M  V30 2794 C 262.68 0.811186 3.51358 0
M  V30 2795 O 261.784 -0.124129 4.12213 0
M  V30 2796 H 261.125 0.223873 0.625122 0
M  V30 2797 H 263.655 1.24455 1.62395 0
M  V30 2798 H 263.665 0.72601 4.01489 0
M  V30 2799 H 262.34 1.84227 3.72872 0
M  V30 2800 H 260.917 0.0108006 3.72898 0
M  V30 2801 N 263.102 -1.41638 0.69111 0
M  V30 2802 C 264.052 -2.28 -0.000107832 0
M  V30 2803 C 265.036 -1.41964 -0.757304 0
M  V30 2804 O 266.228 -1.65274 -0.633532 0
M  V30 2805 C 263.357 -3.30209 -0.938983 0
M  V30 2806 C 262.443 -4.23725 -0.17827 0
M  V30 2807 N 262.834 -4.99017 0.825563 0
M  V30 2808 C 261.132 -4.44071 -0.414392 0
M  V30 2809 C 261.833 -5.67431 1.28052 0
M  V30 2810 N 260.809 -5.40197 0.607304 0
M  V30 2811 H 264.611 -2.83644 0.769617 0
M  V30 2812 H 262.125 -1.53797 0.521562 0
M  V30 2813 H 264.122 -3.90898 -1.44929 0
M  V30 2814 H 262.782 -2.76126 -1.70836 0
M  V30 2815 H 263.793 -5.03671 1.20566 0
M  V30 2816 H 260.47 -4.01004 -1.162 0
M  V30 2817 H 261.86 -6.37801 2.11327 0
M  V30 2818 N 264.58 -0.43555 -1.51462 0
M  V30 2819 C 265.826 0.131709 -2.02372 0
M  V30 2820 C 266.159 1.42516 -1.3192 0
M  V30 2821 O 265.434 1.89606 -0.433573 0
M  V30 2822 C 265.717 0.352301 -3.58373 0
M  V30 2823 C 265.57 -0.959676 -4.39443 0
M  V30 2824 C 266.889 1.12286 -4.25535 0
M  V30 2825 H 264.008 0.0463936 -0.735538 0
M  V30 2826 H 266.65 -0.574197 -1.81116 0
M  V30 2827 H 264.8 0.9536 -3.76615 0
M  V30 2828 H 266.472 -1.59482 -4.32855 0
M  V30 2829 H 264.715 -1.56468 -4.04599 0
M  V30 2830 H 265.386 -0.759394 -5.46752 0
M  V30 2831 H 267.862 0.613545 -4.11552 0
M  V30 2832 H 266.738 1.24598 -5.34571 0
M  V30 2833 H 266.999 2.15048 -3.86273 0
M  V30 2834 N 266.058 1.56714 -0.166846 0
M  V30 2835 C 267.307 1.95922 0.479318 0
M  V30 2836 C 267.62 1.05529 1.6469 0
M  V30 2837 O 268.826 1.34399 2.35901 0
M  V30 2838 C 267.282 3.48359 0.90412 0
M  V30 2839 C 266.89 4.47369 -0.237621 0
M  V30 2840 C 268.634 3.96394 1.51896 0
M  V30 2841 C 266.541 5.91039 0.206561 0
M  V30 2842 H 265.471 0.731495 0.18284 0
M  V30 2843 H 268.122 1.81728 -0.254363 0
M  V30 2844 H 266.504 3.57955 1.69365 0
M  V30 2845 H 267.678 4.49485 -1.01489 0
M  V30 2846 H 265.993 4.09366 -0.762128 0
M  V30 2847 H 268.59 5.01186 1.86325 0
M  V30 2848 H 268.933 3.39075 2.41524 0
M  V30 2849 H 269.466 3.89796 0.79395 0
M  V30 2850 H 266.205 6.52221 -0.654834 0
M  V30 2851 H 265.725 5.9224 0.949282 0
M  V30 2852 H 267.404 6.43707 0.651939 0
M  V30 2853 N 267.536 -0.106894 1.57237 0
M  V30 2854 C 268.947 -0.662723 1.74542 0
M  V30 2855 C 269.298 -1.7971 0.787319 0
M  V30 2856 O 268.423 -2.16368 -0.0369636 0
M  V30 2857 C 269.018 -1.20896 3.16496 0
M  V30 2858 C 267.577 -1.71096 3.35266 0
M  V30 2859 C 266.724 -0.615642 2.7038 0
M  V30 2860 H 269.675 0.119106 1.58252 0
M  V30 2861 H 269.696 -2.07847 3.18716 0
M  V30 2862 H 269.208 -0.383122 3.86204 0
M  V30 2863 H 267.309 -2.56119 2.70618 0
M  V30 2864 H 267.422 -1.81208 4.43509 0
M  V30 2865 H 265.786 -1.05222 2.31949 0
M  V30 2866 H 266.569 0.199419 3.4272 0
M  V30 2867 N 269.014 -1.53014 -0.377408 0
M  V30 2868 C 269.977 -1.77957 -1.44444 0
M  V30 2869 C 270.977 -0.649763 -1.47087 0
M  V30 2870 O 272.167 -0.917897 -1.48055 0
M  V30 2871 C 269.299 -1.89089 -2.83651 0
M  V30 2872 H 270.492 -2.73243 -1.23606 0
M  V30 2873 H 268.045 -1.43912 -0.609844 0
M  V30 2874 H 268.78 -0.958293 -3.09818 0
M  V30 2875 H 268.565 -2.71254 -2.83132 0
M  V30 2876 H 270.055 -2.1002 -3.60945 0
M  V30 2877 N 270.492 0.636531 -1.44174 0
M  V30 2878 C 271.422 1.76003 -1.53444 0
M  V30 2879 C 272.403 1.65619 -0.387841 0
M  V30 2880 O 273.588 1.84461 -0.607257 0
M  V30 2881 C 270.718 3.14511 -1.4731 0
M  V30 2882 C 269.672 3.39677 -2.60391 0
M  V30 2883 C 268.998 4.78159 -2.39308 0
M  V30 2884 C 270.298 3.32772 -4.02567 0
M  V30 2885 H 271.992 1.68501 -2.47483 0
M  V30 2886 H 269.538 0.809237 -1.19111 0
M  V30 2887 H 271.491 3.92878 -1.52397 0
M  V30 2888 H 270.215 3.22783 -0.49785 0
M  V30 2889 H 268.874 2.63688 -2.54684 0
M  V30 2890 H 268.522 4.83128 -1.39988 0
M  V30 2891 H 268.222 4.95956 -3.15122 0
M  V30 2892 H 269.746 5.58762 -2.46205 0
M  V30 2893 H 271.16 4.01051 -4.09672 0
M  V30 2894 H 269.557 3.62104 -4.7854 0
M  V30 2895 H 270.627 2.30669 -4.2652 0
M  V30 2896 N 271.97 1.30982 0.876444 0
M  V30 2897 C 272.9 1.20668 1.99903 0
M  V30 2898 C 273.881 0.095354 1.69833 0
M  V30 2899 O 275.066 0.27885 1.92188 0
M  V30 2900 C 272.196 0.90655 3.3526 0
M  V30 2901 C 271.15 1.97675 3.79617 0
M  V30 2902 C 270.476 1.52943 5.1236 0
M  V30 2903 C 271.776 3.389 3.97422 0
M  V30 2904 H 273.47 2.14586 2.0879 0
M  V30 2905 H 271.016 1.03308 1.00317 0
M  V30 2906 H 272.969 0.821025 4.13324 0
M  V30 2907 H 271.693 -0.0682969 3.26529 0
M  V30 2908 H 270.352 2.05205 3.03787 0
M  V30 2909 H 270 0.54262 5.00065 0
M  V30 2910 H 269.7 2.24532 5.43009 0
M  V30 2911 H 271.224 1.45786 5.92941 0
M  V30 2912 H 272.638 3.34081 4.659 0
M  V30 2913 H 271.035 4.0865 4.3946 0
M  V30 2914 H 272.105 3.80163 3.01006 0
M  V30 2915 N 273.449 -1.08991 1.13837 0
M  V30 2916 C 274.865 -1.33312 0.877506 0
M  V30 2917 C 275.065 -1.95587 -0.48456 0
M  V30 2918 O 274.121 -2.20509 -1.23013 0
M  V30 2919 C 275.434 -2.24045 2.0056 0
M  V30 2920 C 276.982 -2.37542 2.03821 0
M  V30 2921 C 277.457 -3.31614 3.15905 0
M  V30 2922 N 278.948 -3.39189 3.15445 0
M  V30 2923 C 279.683 -4.11992 3.98811 0
M  V30 2924 N 279.179 -4.87553 4.92203 0
M  V30 2925 N 280.972 -4.07762 3.86894 0
M  V30 2926 H 273.123 -0.669456 2.01574 0
M  V30 2927 H 275.386 -0.357482 0.878015 0
M  V30 2928 H 275.092 -1.85521 2.98789 0
M  V30 2929 H 274.966 -3.24466 1.92359 0
M  V30 2930 H 277.353 -2.75327 1.06202 0
M  V30 2931 H 277.434 -1.36884 2.16093 0
M  V30 2932 H 277.078 -2.94551 4.13766 0
M  V30 2933 H 277.008 -4.32186 3.0087 0
M  V30 2934 H 279.499 -2.85314 2.47799 0
M  V30 2935 H 279.812 -5.40549 5.52292 0
M  V30 2936 H 278.157 -4.86627 4.96205 0
M  V30 2937 H 281.348 -3.47833 3.13257 0
M  V30 2938 H 281.521 -4.64238 4.52092 0
M  V30 2939 N 274.927 -0.932562 -1.27047 0
M  V30 2940 C 276.343 -0.633544 -1.46487 0
M  V30 2941 C 276.543 0.815746 -1.84249 0
M  V30 2942 O 275.599 1.59319 -1.95892 0
M  V30 2943 C 276.912 -1.58758 -2.55375 0
M  V30 2944 C 278.46 -1.59634 -2.69232 0
M  V30 2945 C 278.935 -2.53747 -3.81283 0
M  V30 2946 N 280.426 -2.51982 -3.88664 0
M  V30 2947 C 281.161 -3.21491 -4.74796 0
M  V30 2948 N 280.657 -4.00395 -5.65381 0
M  V30 2949 N 282.45 -3.10485 -4.68568 0
M  V30 2950 H 274.601 -1.86946 -1.00821 0
M  V30 2951 H 276.864 -0.802897 -0.504044 0
M  V30 2952 H 276.57 -2.62172 -2.34432 0
M  V30 2953 H 276.444 -1.33301 -3.52861 0
M  V30 2954 H 278.831 -0.569488 -2.89553 0
M  V30 2955 H 278.912 -1.89142 -1.72218 0
M  V30 2956 H 278.556 -3.56545 -3.61715 0
M  V30 2957 H 278.486 -2.21532 -4.77735 0
M  V30 2958 H 280.977 -1.94681 -3.23895 0
M  V30 2959 H 281.29 -4.50406 -6.27976 0
M  V30 2960 H 279.635 -4.04498 -5.65161 0
M  V30 2961 H 282.826 -2.48331 -3.96799 0
M  V30 2962 H 282.999 -3.64925 -5.35475 0
M  V30 2963 N 276.405 1.4127 -0.698611 0
M  V30 2964 C 277.652 2.0118 -0.230865 0
M  V30 2965 C 277.98 1.55338 1.17049 0
M  V30 2966 O 277.235 0.756775 1.80475 0
M  V30 2967 C 277.534 3.56592 -0.240192 0
M  V30 2968 C 277.2 4.21955 -1.58948 0
M  V30 2969 C 275.862 4.39524 -1.95887 0
M  V30 2970 C 278.214 4.58576 -2.47704 0
M  V30 2971 C 275.542 4.90992 -3.2116 0
M  V30 2972 C 277.894 5.11435 -3.72313 0
M  V30 2973 C 276.558 5.27215 -4.0939 0
M  V30 2974 H 275.828 0.736169 -0.0844796 0
M  V30 2975 H 278.475 1.69124 -0.8983 0
M  V30 2976 H 276.78 3.88456 0.510797 0
M  V30 2977 H 278.477 4.00758 0.139296 0
M  V30 2978 H 275.067 4.08657 -1.29219 0
M  V30 2979 H 279.251 4.44654 -2.20445 0
M  V30 2980 H 274.507 5.01393 -3.49878 0
M  V30 2981 H 278.681 5.38752 -4.4127 0
M  V30 2982 H 276.308 5.66859 -5.06533 0
M  V30 2983 N 277.883 0.443576 1.51229 0
M  V30 2984 C 278.833 -0.382787 2.24764 0
M  V30 2985 C 279.817 -0.984836 1.27239 0
M  V30 2986 O 281.009 -0.901943 1.52296 0
M  V30 2987 C 278.138 -1.47989 3.09765 0
M  V30 2988 C 277.224 -0.886931 4.14722 0
M  V30 2989 N 277.615 -0.0237103 5.05794 0
M  V30 2990 C 275.913 -1.15385 4.30816 0
M  V30 2991 C 276.614 0.309971 5.80874 0
M  V30 2992 N 275.59 -0.307989 5.42727 0
M  V30 2993 H 279.392 0.282624 2.92538 0
M  V30 2994 H 276.906 0.256027 1.60369 0
M  V30 2995 H 278.903 -2.08482 3.61027 0
M  V30 2996 H 277.563 -2.14758 2.43535 0
M  V30 2997 H 278.574 0.34318 5.16762 0
M  V30 2998 H 275.251 -1.81857 3.75812 0
M  V30 2999 H 276.641 1.01279 6.64223 0
M  V30 3000 N 279.361 -1.56624 0.175154 0
M  V30 3001 C 280.271 -2.21741 -0.766042 0
M  V30 3002 C 281.287 -1.21023 -1.25018 0
M  V30 3003 O 282.463 -1.53697 -1.3015 0
M  V30 3004 C 279.528 -2.84839 -1.97655 0
M  V30 3005 C 278.589 -4.00769 -1.53892 0
M  V30 3006 C 277.822 -4.60849 -2.69173 0
M  V30 3007 O 278.045 -4.19823 -3.86141 0
M  V30 3008 O 276.979 -5.50655 -2.43028 0
M  V30 3009 H 280.805 -3.02738 -0.241585 0
M  V30 3010 H 278.39 -1.49305 -0.053222 0
M  V30 3011 H 280.272 -3.24834 -2.68442 0
M  V30 3012 H 278.947 -2.06836 -2.48999 0
M  V30 3013 H 277.854 -3.65436 -0.80044 0
M  V30 3014 H 279.187 -4.80376 -1.07236 0
M  V30 3015 N 280.839 0.0985539 -1.57292 0
M  V30 3016 C 281.802 1.10402 -2.00858 0
M  V30 3017 C 282.802 1.33146 -0.901593 0
M  V30 3018 O 283.992 1.29318 -1.16716 0
M  V30 3019 C 281.124 2.45394 -2.36632 0
M  V30 3020 H 282.317 0.729099 -2.90902 0
M  V30 3021 H 279.87 0.343495 -1.52479 0
M  V30 3022 H 280.605 2.87769 -1.49531 0
M  V30 3023 H 280.39 2.30235 -3.17387 0
M  V30 3024 H 281.88 3.17718 -2.71007 0
M  V30 3025 N 282.317 1.53212 0.369288 0
M  V30 3026 C 283.545 1.73119 1.13303 0
M  V30 3027 C 283.96 0.458455 1.83149 0
M  V30 3028 O 283.317 -0.568403 1.73423 0
M  V30 3029 C 283.368 2.89413 2.16616 0
M  V30 3030 O 283.089 4.11761 1.49614 0
M  V30 3031 C 284.59 3.21161 3.05566 0
M  V30 3032 H 281.81 0.579107 0.338934 0
M  V30 3033 H 284.354 1.99942 0.429338 0
M  V30 3034 H 282.509 2.64994 2.82589 0
M  V30 3035 H 282.923 4.76858 2.18419 0
M  V30 3036 H 284.397 4.05949 3.74045 0
M  V30 3037 H 284.874 2.36369 3.70171 0
M  V30 3038 H 285.48 3.47492 2.45213 0
M  V30 3039 N 283.795 -0.628877 1.44509 0
M  V30 3040 C 284.758 -1.72263 1.51188 0
M  V30 3041 C 285.758 -1.55907 0.39367 0
M  V30 3042 O 286.948 -1.61361 0.656377 0
M  V30 3043 C 284.08 -3.11365 1.38798 0
M  V30 3044 H 285.273 -1.67714 2.4862 0
M  V30 3045 H 282.826 -0.842737 1.31634 0
M  V30 3046 H 283.561 -3.21507 0.424693 0
M  V30 3047 H 283.346 -3.24644 2.19884 0
M  V30 3048 H 284.836 -3.91075 1.46458 0
M  V30 3049 N 285.273 -1.31445 -0.869486 0
M  V30 3050 C 286.205 -1.14955 -1.98287 0
M  V30 3051 C 287.218 -0.0885037 -1.62559 0
M  V30 3052 O 288.407 -0.336044 -1.75308 0
M  V30 3053 C 285.507 -0.734255 -3.3085 0
M  V30 3054 C 284.68 -1.88042 -3.94917 0
M  V30 3055 C 283.739 -1.4511 -5.05796 0
M  V30 3056 O 282.765 -2.16082 -5.2659 0
M  V30 3057 N 283.967 -0.338763 -5.79511 0
M  V30 3058 H 286.732 -2.10856 -2.12979 0
M  V30 3059 H 284.293 -1.23786 -1.04349 0
M  V30 3060 H 286.285 -0.42975 -4.02412 0
M  V30 3061 H 284.855 0.133158 -3.12316 0
M  V30 3062 H 284.075 -2.35222 -3.1633 0
M  V30 3063 H 285.363 -2.6481 -4.34457 0
M  V30 3064 H 284.761 0.252274 -5.65137 0
M  V30 3065 H 283.318 -0.0937925 -6.51733 0
M  V30 3066 N 286.751 1.08385 -1.14413 0
M  V30 3067 C 287.699 2.17406 -0.826888 0
M  V30 3068 C 288.693 1.6827 0.195312 0
M  V30 3069 O 289.899 1.79927 0.0513892 0
M  V30 3070 H 286.274 0.70934 -0.249681 0
M  V30 3071 H 288.245 2.41388 -1.75426 0
M  V30 3072 C 286.994 3.46215 -0.320979 0
M  V30 3073 H 286.317 3.84401 -1.0989 0
M  V30 3074 H 287.757 4.23777 -0.137549 0
M  V30 3075 C 286.216 3.23067 0.955472 0
M  V30 3076 O 286.746 3.4668 2.02918 0
M  V30 3077 N 284.952 2.7661 0.890798 0
M  V30 3078 H 284.499 2.57594 0.0168815 0
M  V30 3079 H 284.457 2.61501 1.74542 0
M  V30 3080 N 288.23 0.939286 1.26551 0
M  V30 3081 C 289.193 0.451987 2.24699 0
M  V30 3082 C 290.193 -0.435869 1.5478 0
M  V30 3083 O 291.383 -0.235314 1.72603 0
M  V30 3084 C 288.515 -0.348801 3.39111 0
M  V30 3085 H 289.708 1.3193 2.69322 0
M  V30 3086 H 287.261 0.721072 1.38673 0
M  V30 3087 H 287.996 -1.23444 2.99887 0
M  V30 3088 H 287.781 0.287945 3.91041 0
M  V30 3089 H 289.271 -0.679726 4.12031 0
M  V30 3090 N 289.708 -1.40897 0.706093 0
M  V30 3091 C 291.119 -1.84023 0.315052 0
M  V30 3092 C 291.47 -1.5906 -1.14866 0
M  V30 3093 O 290.595 -1.06651 -1.88293 0
M  V30 3094 C 291.19 -3.34055 0.565038 0
M  V30 3095 C 289.749 -3.7571 0.227806 0
M  V30 3096 C 288.896 -2.64204 0.842122 0
M  V30 3097 H 291.847 -1.303 0.905963 0
M  V30 3098 H 291.868 -3.80107 -0.172843 0
M  V30 3099 H 291.38 -3.52192 1.63042 0
M  V30 3100 H 289.481 -3.63172 -0.832895 0
M  V30 3101 H 289.594 -4.74103 0.690174 0
M  V30 3102 H 287.958 -2.53255 0.270893 0
M  V30 3103 H 288.741 -2.85155 1.91158 0
M  V30 3104 N 291.186 -0.45159 -1.50991 0
M  V30 3105 C 292.463 0.170707 -1.94854 0
M  V30 3106 C 292.843 1.58788 -1.39103 0
M  V30 3107 O 292.191 2.20913 -0.583921 0
M  V30 3108 C 292.401 0.133929 -3.48743 0
M  V30 3109 C 293.749 0.33248 -4.23296 0
M  V30 3110 O 294.773 0.211403 -3.55572 0
M  V30 3111 O 293.632 0.57486 -5.43468 0
M  V30 3112 H 290.726 0.122264 -0.817912 0
M  V30 3113 H 293.272 -0.510594 -1.61836 0
M  V30 3114 H 292.044 -0.856283 -3.81816 0
M  V30 3115 H 291.667 0.857529 -3.88242 0
M  V30 3116 N 292.664 1.56529 -0.183458 0
M  V30 3117 C 293.91 1.97537 0.459036 0
M  V30 3118 C 294.243 1.06989 1.62071 0
M  V30 3119 O 293.518 0.11948 1.94133 0
M  V30 3120 C 293.801 3.47874 0.930368 0
M  V30 3121 C 293.654 4.492 -0.232317 0
M  V30 3122 C 294.973 4.01612 1.79989 0
M  V30 3123 H 292.092 0.718204 0.165383 0
M  V30 3124 H 294.734 1.88042 -0.272038 0
M  V30 3125 H 292.884 3.56095 1.55333 0
M  V30 3126 H 294.556 4.53027 -0.86972 0
M  V30 3127 H 292.799 4.24657 -0.885928 0
M  V30 3128 H 293.47 5.51823 0.139796 0
M  V30 3129 H 295.946 3.96097 1.27461 0
M  V30 3130 H 294.822 5.07195 2.09867 0
M  V30 3131 H 295.083 3.46163 2.74998 0
M  V30 3132 N 294.142 -0.090211 1.57342 0
M  V30 3133 C 295.388 -0.793982 1.86611 0
M  V30 3134 C 295.721 -1.78142 0.773252 0
M  V30 3135 O 294.996 -1.93271 -0.218304 0
M  V30 3136 C 295.279 -1.51839 3.26523 0
M  V30 3137 C 295.132 -0.548609 4.46442 0
M  V30 3138 C 296.451 -2.46779 3.64401 0
M  V30 3139 H 293.57 -0.287186 0.678744 0
M  V30 3140 H 296.212 -0.0575076 1.89913 0
M  V30 3141 H 294.362 -2.14617 3.23839 0
M  V30 3142 H 296.034 0.0725513 4.61243 0
M  V30 3143 H 294.277 0.137614 4.33582 0
M  V30 3144 H 294.948 -1.09271 5.41076 0
M  V30 3145 H 297.424 -1.94089 3.68061 0
M  V30 3146 H 296.3 -2.94479 4.63221 0
M  V30 3147 H 296.561 -3.30758 2.93346 0
M  V30 3148 N 295.62 -1.53406 -0.361157 0
M  V30 3149 C 296.866 -1.70054 -1.10496 0
M  V30 3150 C 297.199 -0.453278 -1.88836 0
M  V30 3151 O 296.474 0.5495 -1.86576 0
M  V30 3152 C 296.757 -2.95317 -2.06058 0
M  V30 3153 C 296.61 -4.3021 -1.31298 0
M  V30 3154 C 297.929 -3.16193 -3.06121 0
M  V30 3155 H 295.048 -0.618799 -0.400321 0
M  V30 3156 H 297.69 -1.86052 -0.385318 0
M  V30 3157 H 295.84 -2.81809 -2.67425 0
M  V30 3158 H 297.512 -4.55538 -0.726807 0
M  V30 3159 H 295.755 -4.29421 -0.614853 0
M  V30 3160 H 296.426 -5.14 -2.01265 0
M  V30 3161 H 298.902 -3.28916 -2.5486 0
M  V30 3162 H 297.778 -4.05266 -3.70204 0
M  V30 3163 H 298.039 -2.31676 -3.76535 0
M  V30 3164 N 297.098 0.621204 -1.44841 0
M  V30 3165 C 298.344 1.38073 -1.49357 0
M  V30 3166 C 298.699 1.91973 -0.128115 0
M  V30 3167 O 297.992 1.71311 0.858087 0
M  V30 3168 C 298.186 2.55675 -2.4973 0
M  V30 3169 C 298.015 2.13289 -3.95901 0
M  V30 3170 C 296.785 2.001 -4.63991 0
M  V30 3171 C 298.983 1.7159 -4.84831 0
M  V30 3172 N 296.965 1.51381 -5.94943 0
M  V30 3173 C 298.336 1.34188 -6.05304 0
M  V30 3174 C 300.391 1.59059 -4.7181 0
M  V30 3175 C 299.094 0.855085 -7.14199 0
M  V30 3176 C 301.12 1.11784 -5.8074 0
M  V30 3177 C 300.482 0.753385 -7.0036 0
M  V30 3178 H 296.581 0.499675 -0.601539 0
M  V30 3179 H 299.165 0.711609 -1.8123 0
M  V30 3180 H 297.336 3.20201 -2.19832 0
M  V30 3181 H 299.068 3.22509 -2.4448 0
M  V30 3182 H 295.823 2.20863 -4.18947 0
M  V30 3183 H 296.247 1.29293 -6.64539 0
M  V30 3184 H 300.889 1.85865 -3.79755 0
M  V30 3185 H 298.607 0.574552 -8.06055 0
M  V30 3186 H 302.193 1.02533 -5.72694 0
M  V30 3187 H 301.073 0.393183 -7.83214 0
M  V30 3188 N 298.576 1.31904 0.862503 0
M  V30 3189 C 299.824 1.21776 1.61292 0
M  V30 3190 C 300.145 -0.222413 1.93727 0
M  V30 3191 O 299.415 -1.1451 1.58947 0
M  V30 3192 H 297.995 0.447717 0.597962 0
M  V30 3193 H 300.657 1.65326 1.03215 0
M  V30 3194 H 299.753 1.7948 2.5533 0
M  V30 3195 N 300.054 -1.07777 1.14986 0
M  V30 3196 C 301.279 -1.84558 0.946213 0
M  V30 3197 C 301.704 -1.81323 -0.500362 0
M  V30 3198 O 301.062 -1.20301 -1.35637 0
M  V30 3199 C 301.11 -3.29736 1.45968 0
M  V30 3200 O 300.214 -4.07149 0.65601 0
M  V30 3201 H 299.555 -0.571641 0.33782 0
M  V30 3202 H 302.085 -1.35991 1.52865 0
M  V30 3203 H 302.095 -3.80574 1.47063 0
M  V30 3204 H 300.77 -3.31406 2.51283 0
M  V30 3205 H 299.347 -3.65994 0.714322 0
M  V30 3206 N 301.532 -0.945985 -1.26051 0
M  V30 3207 C 302.78 -0.594941 -1.93145 0
M  V30 3208 C 303.101 0.86953 -1.7454 0
M  V30 3209 O 302.371 1.61838 -1.10387 0
M  V30 3210 H 300.951 -0.217044 -0.714773 0
M  V30 3211 H 303.613 -1.20235 -1.53393 0
M  V30 3212 H 302.709 -0.816835 -3.01221 0
M  V30 3213 N 303.011 1.40521 -0.713556 0
M  V30 3214 C 304.239 2.05237 -0.261775 0
M  V30 3215 C 304.654 1.53755 1.09567 0
M  V30 3216 O 304.011 0.693268 1.6882 0
M  V30 3217 C 304.062 3.60763 -0.230706 0
M  V30 3218 O 303.783 4.10345 -1.53455 0
M  V30 3219 C 305.284 4.42651 0.239874 0
M  V30 3220 H 302.504 0.660533 -0.118057 0
M  V30 3221 H 305.048 1.79967 -0.971192 0
M  V30 3222 H 303.203 3.8501 0.429661 0
M  V30 3223 H 303.617 5.04526 -1.43366 0
M  V30 3224 H 305.091 5.51599 0.210468 0
M  V30 3225 H 305.568 4.20082 1.28171 0
M  V30 3226 H 306.174 4.23507 -0.390142 0
M  V30 3227 N 304.489 0.459591 1.5075 0
M  V30 3228 C 305.9 0.00171547 1.867 0
M  V30 3229 C 306.251 -1.39934 1.37525 0
M  V30 3230 O 305.376 -2.03523 0.735349 0
M  V30 3231 C 305.971 -0.00366298 3.388 0
M  V30 3232 C 304.53 -0.406026 3.74204 0
M  V30 3233 C 303.677 0.38673 2.7459 0
M  V30 3234 H 306.628 0.674413 1.43657 0
M  V30 3235 H 306.649 -0.808371 3.71814 0
M  V30 3236 H 306.161 1.01617 3.74561 0
M  V30 3237 H 304.262 -1.43063 3.4404 0
M  V30 3238 H 304.375 -0.115362 4.78961 0
M  V30 3239 H 302.739 -0.158019 2.54209 0
M  V30 3240 H 303.522 1.40585 3.13194 0
M  V30 3241 N 305.967 -1.56429 0.191757 0
M  V30 3242 C 306.9 -2.14829 -0.76967 0
M  V30 3243 C 307.878 -1.08405 -1.2119 0
M  V30 3244 O 309.062 -1.36498 -1.30002 0
M  V30 3245 C 306.189 -2.70446 -2.03903 0
M  V30 3246 C 305.235 -3.89428 -1.7392 0
M  V30 3247 S 306.068 -5.28048 -0.890265 0
M  V30 3248 C 307.224 -5.87085 -2.16984 0
M  V30 3249 H 307.457 -2.96042 -0.273204 0
M  V30 3250 H 304.99 -1.54383 -0.0231975 0
M  V30 3251 H 306.948 -3.03134 -2.76803 0
M  V30 3252 H 305.609 -1.89281 -2.50662 0
M  V30 3253 H 304.802 -4.26742 -2.68155 0
M  V30 3254 H 304.404 -3.57732 -1.09103 0
M  V30 3255 H 306.696 -6.01244 -3.12269 0
M  V30 3256 H 307.639 -6.83747 -1.84108 0
M  V30 3257 H 308.047 -5.15663 -2.29678 0
M  V30 3258 N 307.445 0.0818655 -1.57387 0
M  V30 3259 C 308.861 0.436412 -1.53517 0
M  V30 3260 C 309.061 1.79758 -0.910459 0
M  V30 3261 O 308.117 2.47324 -0.508636 0
M  V30 3262 C 309.43 0.386734 -2.98203 0
M  V30 3263 C 310.978 0.467644 -3.09487 0
M  V30 3264 C 311.453 0.447978 -4.55804 0
M  V30 3265 N 312.944 0.508348 -4.60402 0
M  V30 3266 C 313.679 0.515184 -5.71081 0
M  V30 3267 N 313.175 0.477435 -6.91153 0
M  V30 3268 N 314.968 0.560988 -5.59294 0
M  V30 3269 H 307.119 -0.809546 -1.96367 0
M  V30 3270 H 309.382 -0.302733 -0.898363 0
M  V30 3271 H 309.088 -0.546539 -3.47427 0
M  V30 3272 H 308.962 1.20075 -3.57578 0
M  V30 3273 H 311.349 1.39134 -2.60242 0
M  V30 3274 H 311.43 -0.374753 -2.5304 0
M  V30 3275 H 311.074 -0.471826 -5.05704 0
M  V30 3276 H 311.004 1.30777 -5.10103 0
M  V30 3277 H 313.495 0.54218 -3.7399 0
M  V30 3278 H 313.808 0.486299 -7.71268 0
M  V30 3279 H 312.153 0.444278 -6.93579 0
M  V30 3280 H 315.344 0.5881 -4.64391 0
M  V30 3281 H 315.517 0.562846 -6.45551 0
M  V30 3282 N 308.923 1.53595 0.353017 0
M  V30 3283 C 309.833 1.83897 1.45667 0
M  V30 3284 C 310.849 0.728334 1.58023 0
M  V30 3285 O 312.025 1.01968 1.73679 0
M  V30 3286 C 309.09 2.03383 2.80778 0
M  V30 3287 C 308.151 3.27262 2.77845 0
M  V30 3288 C 307.384 3.45809 4.06512 0
M  V30 3289 O 307.607 2.68387 5.03314 0
M  V30 3290 O 306.541 4.39207 4.11559 0
M  V30 3291 H 310.367 2.77686 1.2298 0
M  V30 3292 H 307.952 1.39132 0.544308 0
M  V30 3293 H 309.834 2.17698 3.60812 0
M  V30 3294 H 308.509 1.12783 3.03417 0
M  V30 3295 H 307.416 3.18359 1.96465 0
M  V30 3296 H 308.749 4.17824 2.60161 0
M  V30 3297 N 310.401 -0.613514 1.45168 0
M  V30 3298 C 311.648 -1.37268 1.48875 0
M  V30 3299 C 311.976 -1.94077 0.128161 0
M  V30 3300 O 311.231 -1.75178 -0.872416 0
M  V30 3301 C 311.53 -2.54347 2.51083 0
M  V30 3302 C 311.196 -2.1572 3.95949 0
M  V30 3303 C 309.858 -2.04899 4.35396 0
M  V30 3304 C 312.21 -1.85485 4.87078 0
M  V30 3305 C 309.538 -1.62057 5.63875 0
M  V30 3306 C 311.89 -1.4413 6.15962 0
M  V30 3307 C 310.554 -1.31863 6.54346 0
M  V30 3308 H 309.824 -0.502299 0.544773 0
M  V30 3309 H 312.471 -0.694021 1.78481 0
M  V30 3310 H 310.776 -3.27524 2.15024 0
M  V30 3311 H 312.473 -3.12577 2.51191 0
M  V30 3312 H 309.063 -2.25066 3.64751 0
M  V30 3313 H 313.247 -1.92745 4.57343 0
M  V30 3314 H 308.503 -1.51177 5.92415 0
M  V30 3315 H 312.677 -1.19778 6.86022 0
M  V30 3316 H 310.304 -0.984392 7.538 0
M  V30 3317 N 311.879 -1.3236 -0.855495 0
M  V30 3318 C 312.809 -1.23833 -1.97958 0
M  V30 3319 C 313.79 -0.122361 -1.69659 0
M  V30 3320 O 314.975 -0.30939 -1.9172 0
M  V30 3321 C 312.105 -0.959772 -3.33775 0
M  V30 3322 C 311.059 -2.03689 -3.76424 0
M  V30 3323 C 310.385 -1.61075 -5.09862 0
M  V30 3324 C 311.685 -3.4518 -3.9198 0
M  V30 3325 H 313.379 -2.1788 -2.0535 0
M  V30 3326 H 310.925 -1.04891 -0.986605 0
M  V30 3327 H 312.878 -0.886678 -4.11966 0
M  V30 3328 H 311.602 0.0163404 -3.26596 0
M  V30 3329 H 310.261 -2.10012 -3.00484 0
M  V30 3330 H 309.909 -0.622107 -4.99138 0
M  V30 3331 H 309.609 -2.33143 -5.39368 0
M  V30 3332 H 311.133 -1.55201 -5.90546 0
M  V30 3333 H 312.547 -3.4145 -4.60526 0
M  V30 3334 H 310.944 -4.1559 -4.32903 0
M  V30 3335 H 312.014 -3.84903 -2.94919 0
M  V30 3336 N 313.357 1.07166 -1.15556 0
M  V30 3337 C 314.307 2.12649 -0.82247 0
M  V30 3338 C 315.291 1.59725 0.194129 0
M  V30 3339 O 316.483 1.76999 -0.00540402 0
M  V30 3340 C 313.612 3.41847 -0.315572 0
M  V30 3341 C 312.698 4.0162 -1.36244 0
M  V30 3342 N 313.089 4.35625 -2.5703 0
M  V30 3343 C 311.387 4.29114 -1.21562 0
M  V30 3344 C 312.088 4.83017 -3.24144 0
M  V30 3345 N 311.064 4.81906 -2.51531 0
M  V30 3346 H 314.866 2.36776 -1.74111 0
M  V30 3347 H 312.38 1.24622 -1.0413 0
M  V30 3348 H 314.377 4.16859 -0.0585855 0
M  V30 3349 H 313.037 3.19163 0.597105 0
M  V30 3350 H 314.048 4.26253 -2.94158 0
M  V30 3351 H 310.725 4.15919 -0.362988 0
M  V30 3352 H 312.115 5.18605 -4.27198 0
M  V30 3353 N 314.835 0.952656 1.25548 0
M  V30 3354 C 316.081 0.607272 1.93494 0
M  V30 3355 C 316.414 -0.853245 1.74452 0
M  V30 3356 O 315.689 -1.61194 1.08843 0
M  V30 3357 C 315.972 0.96435 3.46947 0
M  V30 3358 C 315.825 2.48045 3.75225 0
M  V30 3359 C 317.144 0.487987 4.37386 0
M  V30 3360 H 314.263 0.222096 0.702739 0
M  V30 3361 H 316.905 1.18895 1.48203 0
M  V30 3362 H 315.055 0.469361 3.85654 0
M  V30 3363 H 316.727 3.04905 3.46166 0
M  V30 3364 H 314.97 2.919 3.209 0
M  V30 3365 H 315.641 2.6808 4.82532 0
M  V30 3366 H 318.117 0.912558 4.0597 0
M  V30 3367 H 316.993 0.766547 5.43521 0
M  V30 3368 H 317.254 -0.612063 4.37843 0
M  V30 3369 N 316.313 -1.40141 0.720998 0
M  V30 3370 C 317.59 -1.94677 0.189757 0
M  V30 3371 C 317.97 -1.65879 -1.30566 0
M  V30 3372 O 317.318 -0.979391 -2.06447 0
M  V30 3373 C 317.528 -3.45279 0.508304 0
M  V30 3374 C 318.876 -4.22209 0.449934 0
M  V30 3375 O 319.9 -3.53413 0.444677 0
M  V30 3376 O 318.759 -5.44788 0.432189 0
M  V30 3377 H 315.853 -0.826459 0.0299026 0
M  V30 3378 H 318.399 -1.49719 0.7989 0
M  V30 3379 H 317.171 -3.59619 1.54239 0
M  V30 3380 H 316.794 -3.97386 -0.130525 0
M  V30 3381 N 317.792 -0.46758 -1.50504 0
M  V30 3382 C 319.069 0.15003 -1.95024 0
M  V30 3383 C 319.449 1.57304 -1.40779 0
M  V30 3384 O 318.797 2.20281 -0.607319 0
M  V30 3385 C 319.007 0.0969324 -3.48865 0
M  V30 3386 C 320.355 0.287565 -4.23625 0
M  V30 3387 O 321.379 0.173678 -3.55776 0
M  V30 3388 O 320.238 0.517186 -5.44047 0
M  V30 3389 H 317.332 0.113582 -0.819163 0
M  V30 3390 H 319.878 -0.52773 -1.61286 0
M  V30 3391 H 318.65 -0.896732 -3.80886 0
M  V30 3392 H 318.273 0.816303 -3.8913 0
M  V30 3393 N 319.27 1.56325 -0.20005 0
M  V30 3394 C 320.203 2.15234 0.758267 0
M  V30 3395 C 321.181 1.09046 1.20614 0
M  V30 3396 O 322.365 1.37186 1.29276 0
M  V30 3397 C 319.492 2.71524 2.02466 0
M  V30 3398 C 318.538 3.90345 1.71852 0
M  V30 3399 S 319.371 5.28513 0.862249 0
M  V30 3400 C 320.527 5.88227 2.13868 0
M  V30 3401 H 320.76 2.96183 0.2575 0
M  V30 3402 H 318.293 1.54393 0.0150099 0
M  V30 3403 H 320.251 3.04598 2.75191 0
M  V30 3404 H 318.912 1.90607 2.49655 0
M  V30 3405 H 318.105 4.28158 2.65888 0
M  V30 3406 H 317.707 3.58306 1.07205 0
M  V30 3407 H 319.999 6.02891 3.09076 0
M  V30 3408 H 320.942 6.84714 1.80479 0
M  V30 3409 H 321.35 5.16874 2.2694 0
M  V30 3410 N 320.748 -0.0735177 1.57428 0
M  V30 3411 C 321.711 -1.07192 2.02589 0
M  V30 3412 C 322.711 -1.31695 0.922661 0
M  V30 3413 O 323.901 -1.27445 1.18758 0
M  V30 3414 C 321.033 -2.41599 2.40506 0
M  V30 3415 H 322.226 -0.682727 2.92025 0
M  V30 3416 H 319.779 -0.319193 1.53006 0
M  V30 3417 H 320.514 -2.85354 1.5409 0
M  V30 3418 H 320.299 -2.25156 3.21009 0
M  V30 3419 H 321.789 -3.13367 2.76027 0
M  V30 3420 N 322.226 -1.5378 -0.344866 0
M  V30 3421 C 323.189 -1.80981 -1.40637 0
M  V30 3422 C 324.189 -0.680816 -1.45676 0
M  V30 3423 O 325.379 -0.949095 -1.46075 0
M  V30 3424 C 322.511 -1.95063 -2.79577 0
M  V30 3425 H 323.704 -2.75803 -1.17783 0
M  V30 3426 H 321.257 -1.45173 -0.579181 0
M  V30 3427 H 321.992 -1.02379 -3.07716 0
M  V30 3428 H 321.777 -2.77198 -2.77315 0
M  V30 3429 H 323.267 -2.17629 -3.56409 0
M  V30 3430 N 323.704 0.605807 -1.45491 0
M  V30 3431 C 324.667 1.69836 -1.5391 0
M  V30 3432 C 325.667 1.55261 -0.418424 0
M  V30 3433 O 326.857 1.60296 -0.681965 0
M  V30 3434 C 323.989 3.09117 -1.43734 0
M  V30 3435 H 325.182 1.63738 -2.51257 0
M  V30 3436 H 322.735 0.821689 -1.32959 0
M  V30 3437 H 323.47 3.20791 -0.475788 0
M  V30 3438 H 323.255 3.21104 -2.25021 0
M  V30 3439 H 324.745 3.88696 -1.52661 0
M  V30 3440 N 325.182 1.32811 0.848464 0
M  V30 3441 C 326.407 1.26882 1.6406 0
M  V30 3442 C 326.832 -0.15913 1.87426 0
M  V30 3443 O 326.19 -1.11258 1.43148 0
M  V30 3444 C 326.238 2.03997 2.97351 0
M  V30 3445 O 325.342 1.39201 3.88197 0
M  V30 3446 H 324.683 0.436982 0.499943 0
M  V30 3447 H 327.213 1.75224 1.0563 0
M  V30 3448 H 327.223 2.14403 3.47124 0
M  V30 3449 H 325.898 3.0783 2.79666 0
M  V30 3450 H 324.475 1.37381 3.46671 0
M  V30 3451 N 326.66 -1.06551 1.16123 0
M  V30 3452 C 327.909 -1.78687 0.935622 0
M  V30 3453 C 328.222 -1.88056 -0.538001 0
M  V30 3454 O 329.428 -2.56794 -0.88143 0
M  V30 3455 C 327.884 -3.21143 1.62466 0
M  V30 3456 C 327.492 -3.19949 3.13587 0
M  V30 3457 C 329.236 -3.9783 1.48092 0
M  V30 3458 C 327.143 -4.57108 3.75241 0
M  V30 3459 H 326.073 -0.669712 0.346412 0
M  V30 3460 H 328.724 -1.19534 1.39226 0
M  V30 3461 H 327.106 -3.80539 1.09572 0
M  V30 3462 H 328.28 -2.70151 3.73303 0
M  V30 3463 H 326.595 -2.5676 3.27816 0
M  V30 3464 H 329.192 -4.99217 1.91538 0
M  V30 3465 H 329.535 -4.14078 0.429507 0
M  V30 3466 H 330.068 -3.4495 1.98127 0
M  V30 3467 H 326.807 -4.46065 4.80319 0
M  V30 3468 H 326.327 -5.07111 3.20309 0
M  V30 3469 H 328.006 -5.26069 3.76644 0
M  V30 3470 N 328.138 -0.959301 -1.25041 0
M  V30 3471 C 329.088 -0.453888 -2.23436 0
M  V30 3472 C 330.072 0.459461 -1.542 0
M  V30 3473 O 331.264 0.291752 -1.74579 0
M  V30 3474 C 328.393 0.262667 -3.42294 0
M  V30 3475 C 327.479 -0.669022 -4.1879 0
M  V30 3476 N 327.87 -1.80267 -4.72586 0
M  V30 3477 C 326.168 -0.47814 -4.4343 0
M  V30 3478 C 326.869 -2.38475 -5.3057 0
M  V30 3479 N 325.845 -1.67078 -5.17287 0
M  V30 3480 H 329.647 -1.319 -2.6264 0
M  V30 3481 H 327.161 -0.817358 -1.40332 0
M  V30 3482 H 329.158 0.641911 -4.11929 0
M  V30 3483 H 327.818 1.12432 -3.04613 0
M  V30 3484 H 328.829 -2.18442 -4.69578 0
M  V30 3485 H 325.506 0.340249 -4.16111 0
M  V30 3486 H 326.896 -3.34094 -5.8295 0
M  V30 3487 N 329.616 1.39756 -0.72842 0
M  V30 3488 C 330.862 2.00942 -0.273892 0
M  V30 3489 C 331.195 1.57656 1.13394 0
M  V30 3490 O 330.47 0.802434 1.77176 0
M  V30 3491 C 330.753 3.58211 -0.368346 0
M  V30 3492 C 330.606 4.11534 -1.81548 0
M  V30 3493 C 331.925 4.39372 0.253054 0
M  V30 3494 H 329.044 0.730047 -0.100996 0
M  V30 3495 H 331.686 1.66056 -0.923337 0
M  V30 3496 H 329.836 3.88061 0.184588 0
M  V30 3497 H 331.508 3.92431 -2.42478 0
M  V30 3498 H 329.751 3.65341 -2.33898 0
M  V30 3499 H 330.422 5.20682 -1.83288 0
M  V30 3500 H 332.898 4.15527 -0.218224 0
M  V30 3501 H 331.774 5.48677 0.156585 0
M  V30 3502 H 332.035 4.21358 1.33826 0
M  V30 3503 N 331.094 0.475555 1.50254 0
M  V30 3504 C 332.027 -0.362381 2.25304 0
M  V30 3505 C 333.005 -0.992393 1.28803 0
M  V30 3506 O 334.189 -1.02746 1.58036 0
M  V30 3507 C 331.316 -1.50813 3.03271 0
M  V30 3508 C 330.362 -0.995044 4.1473 0
M  V30 3509 S 331.195 0.0938436 5.35418 0
M  V30 3510 C 332.351 -1.05567 6.16933 0
M  V30 3511 H 332.584 0.274686 2.96028 0
M  V30 3512 H 330.117 0.260495 1.52187 0
M  V30 3513 H 332.075 -2.16476 3.48781 0
M  V30 3514 H 330.736 -2.11672 2.32064 0
M  V30 3515 H 329.929 -1.85293 4.68703 0
M  V30 3516 H 329.531 -0.416052 3.71679 0
M  V30 3517 H 331.823 -1.96636 6.48337 0
M  V30 3518 H 332.766 -0.555109 7.05921 0
M  V30 3519 H 333.174 -1.31151 5.49053 0
M  V30 3520 N 332.573 -1.56217 0.208337 0
M  V30 3521 C 333.483 -2.23316 -0.718836 0
M  V30 3522 C 334.499 -1.23648 -1.22422 0
M  V30 3523 O 335.675 -1.56423 -1.26861 0
M  V30 3524 C 332.74 -2.88968 -1.91568 0
M  V30 3525 C 331.801 -4.03943 -1.45357 0
M  V30 3526 C 331.034 -4.66455 -2.59337 0
M  V30 3527 O 331.257 -4.27919 -3.77149 0
M  V30 3528 O 330.191 -5.55686 -2.31293 0
M  V30 3529 H 334.017 -3.03182 -0.177315 0
M  V30 3530 H 331.602 -1.49384 -0.0215402 0
M  V30 3531 H 333.484 -3.30455 -2.61491 0
M  V30 3532 H 332.159 -2.12071 -2.44556 0
M  V30 3533 H 331.066 -3.67052 -0.722746 0
M  V30 3534 H 332.399 -4.82543 -0.970219 0
M  V30 3535 N 334.051 0.0651679 -1.57465 0
M  V30 3536 C 334.981 1.07693 -2.07182 0
M  V30 3537 C 335.962 1.39962 -0.966673 0
M  V30 3538 O 337.147 1.49475 -1.2398 0
M  V30 3539 C 334.277 2.3885 -2.52127 0
M  V30 3540 C 333.231 2.20917 -3.66579 0
M  V30 3541 C 332.557 3.57515 -3.97601 0
M  V30 3542 C 333.857 1.62493 -4.9638 0
M  V30 3543 H 335.551 0.663199 -2.91962 0
M  V30 3544 H 333.097 0.317569 -1.40455 0
M  V30 3545 H 335.05 3.09928 -2.85522 0
M  V30 3546 H 333.774 2.82215 -1.64384 0
M  V30 3547 H 332.433 1.52279 -3.33477 0
M  V30 3548 H 332.081 3.98463 -3.06979 0
M  V30 3549 H 331.781 3.46353 -4.74672 0
M  V30 3550 H 333.305 4.30013 -4.33499 0
M  V30 3551 H 334.719 2.23445 -5.27963 0
M  V30 3552 H 333.116 1.62009 -5.77818 0
M  V30 3553 H 334.186 0.587041 -4.81333 0
M  V30 3554 N 335.529 1.53961 0.336706 0
M  V30 3555 C 336.492 1.81724 1.39675 0
M  V30 3556 C 337.492 0.688532 1.45313 0
M  V30 3557 O 338.682 0.956829 1.45569 0
M  V30 3558 C 335.814 1.96543 2.78538 0
M  V30 3559 H 337.007 2.76424 1.16318 0
M  V30 3560 H 334.56 1.45478 0.571474 0
M  V30 3561 H 335.295 1.0401 3.07168 0
M  V30 3562 H 335.08 2.78665 2.75841 0
M  V30 3563 H 336.57 2.19516 3.5525 0
M  V30 3564 N 337.007 -0.598083 1.45811 0
M  V30 3565 C 337.957 -1.70272 1.51629 0
M  V30 3566 C 338.941 -1.56382 0.378629 0
M  V30 3567 O 340.133 -1.65557 0.626087 0
M  V30 3568 C 337.262 -3.09042 1.49493 0
M  V30 3569 C 336.348 -3.28284 2.68496 0
M  V30 3570 N 336.739 -3.17748 3.93535 0
M  V30 3571 C 335.037 -3.59182 2.64394 0
M  V30 3572 C 335.738 -3.38579 4.7301 0
M  V30 3573 N 334.714 -3.63016 4.04624 0
M  V30 3574 H 338.516 -1.60634 2.46118 0
M  V30 3575 H 336.03 -0.801642 1.41235 0
M  V30 3576 H 338.027 -3.88302 1.51747 0
M  V30 3577 H 336.687 -3.19823 0.560683 0
M  V30 3578 H 337.698 -2.95944 4.25014 0
M  V30 3579 H 334.375 -3.76742 1.79922 0
M  V30 3580 H 335.765 -3.35747 5.82 0
M  V30 3581 N 338.485 -1.33259 -0.841409 0
M  V30 3582 C 339.395 -1.25332 -1.98316 0
M  V30 3583 C 340.411 -0.164364 -1.73222 0
M  V30 3584 O 341.587 -0.387486 -1.97637 0
M  V30 3585 C 338.652 -0.990078 -3.32262 0
M  V30 3586 C 337.713 -2.16879 -3.70489 0
M  V30 3587 C 336.946 -1.91801 -4.98044 0
M  V30 3588 O 337.169 -0.867075 -5.63771 0
M  V30 3589 O 336.103 -2.78267 -5.33714 0
M  V30 3590 H 339.929 -2.21344 -2.07944 0
M  V30 3591 H 337.514 -1.1328 -0.974058 0
M  V30 3592 H 339.396 -0.860321 -4.12524 0
M  V30 3593 H 338.071 -0.0602155 -3.23644 0
M  V30 3594 H 336.978 -2.35407 -2.90748 0
M  V30 3595 H 338.311 -3.0819 -3.8377 0
M  V30 3596 N 339.963 1.05934 -1.16686 0
M  V30 3597 C 341.209 1.79065 -0.95203 0
M  V30 3598 C 341.542 1.87147 0.518629 0
M  V30 3599 O 340.817 1.36574 1.38484 0
M  V30 3600 C 341.1 3.23359 -1.58464 0
M  V30 3601 C 340.953 3.23336 -3.12689 0
M  V30 3602 C 342.272 4.21004 -1.28232 0
M  V30 3603 H 339.391 0.65005 -0.34728 0
M  V30 3604 H 342.033 1.23868 -1.44072 0
M  V30 3605 H 340.183 3.70493 -1.16908 0
M  V30 3606 H 341.855 2.84336 -3.6325 0
M  V30 3607 H 340.098 2.61886 -3.4583 0
M  V30 3608 H 340.769 4.25144 -3.52075 0
M  V30 3609 H 343.245 3.8233 -1.64203 0
M  V30 3610 H 342.121 5.20225 -1.75092 0
M  V30 3611 H 342.382 4.41639 -0.201791 0
M  V30 3612 N 341.441 0.965919 1.2453 0
M  V30 3613 C 342.687 0.637349 1.93156 0
M  V30 3614 C 343.042 -0.818261 1.74133 0
M  V30 3615 O 342.335 -1.58079 1.08266 0
M  V30 3616 C 342.529 0.945428 3.44669 0
M  V30 3617 C 342.358 2.42944 3.78429 0
M  V30 3618 C 341.128 3.08895 3.9989 0
M  V30 3619 C 343.326 3.40941 3.8505 0
M  V30 3620 N 341.308 4.47052 4.20735 0
M  V30 3621 C 342.679 4.64448 4.10717 0
M  V30 3622 C 344.734 3.35624 3.67779 0
M  V30 3623 C 343.437 5.83292 4.20907 0
M  V30 3624 C 345.463 4.53818 3.79214 0
M  V30 3625 C 344.825 5.76114 4.05304 0
M  V30 3626 H 340.924 0.284034 0.728594 0
M  V30 3627 H 343.508 1.24041 1.50073 0
M  V30 3628 H 341.679 0.371193 3.86622 0
M  V30 3629 H 343.411 0.575613 4.00586 0
M  V30 3630 H 340.166 2.59432 3.96222 0
M  V30 3631 H 340.59 5.18634 4.35141 0
M  V30 3632 H 345.232 2.4211 3.46616 0
M  V30 3633 H 342.95 6.77236 4.40883 0
M  V30 3634 H 346.536 4.51263 3.67224 0
M  V30 3635 H 345.416 6.66045 4.13949 0
M  V30 3636 N 342.919 -1.39368 0.735821 0
M  V30 3637 C 343.849 -2.33234 0.111506 0
M  V30 3638 C 344.83 -1.53954 -0.723334 0
M  V30 3639 O 346.015 -1.82344 -0.668147 0
M  V30 3640 C 343.145 -3.38057 -0.795917 0
M  V30 3641 C 342.099 -4.2795 -0.065172 0
M  V30 3642 C 341.425 -5.23479 -1.08967 0
M  V30 3643 C 342.725 -5.10741 1.09273 0
M  V30 3644 H 344.419 -2.85692 0.895571 0
M  V30 3645 H 341.965 -1.37364 0.432109 0
M  V30 3646 H 343.918 -4.02675 -1.24221 0
M  V30 3647 H 342.642 -2.8404 -1.61211 0
M  V30 3648 H 341.301 -3.64813 0.361511 0
M  V30 3649 H 340.949 -4.65758 -1.89944 0
M  V30 3650 H 340.649 -5.84472 -0.605489 0
M  V30 3651 H 342.173 -5.90974 -1.53565 0
M  V30 3652 H 343.587 -5.68699 0.724841 0
M  V30 3653 H 341.984 -5.8088 1.50659 0
M  V30 3654 H 343.054 -4.45525 1.91404 0
M  V30 3655 N 344.397 -0.483516 -1.5 0
M  V30 3656 C 345.307 0.309172 -2.32554 0
M  V30 3657 C 346.323 0.984159 -1.43493 0
M  V30 3658 O 347.499 0.969399 -1.76535 0
M  V30 3659 C 344.564 1.36979 -3.18493 0
M  V30 3660 C 343.625 0.710095 -4.23387 0
M  V30 3661 C 342.858 1.72018 -5.05218 0
M  V30 3662 O 343.081 2.94813 -4.88305 0
M  V30 3663 O 342.015 1.28515 -5.8802 0
M  V30 3664 H 345.841 -0.366064 -3.01486 0
M  V30 3665 H 343.426 -0.24514 -1.47375 0
M  V30 3666 H 345.308 1.98385 -3.71781 0
M  V30 3667 H 343.983 2.02828 -2.52275 0
M  V30 3668 H 342.89 0.0567539 -3.74057 0
M  V30 3669 H 344.223 0.0943557 -4.9211 0
M  V30 3670 N 345.875 1.56104 -0.216619 0
M  V30 3671 C 346.823 2.21434 0.712036 0
M  V30 3672 C 347.817 1.19218 1.20348 0
M  V30 3673 O 349.023 1.3731 1.16387 0
M  V30 3674 H 345.398 0.70992 0.248026 0
M  V30 3675 H 347.369 2.98083 0.137558 0
M  V30 3676 C 346.118 2.90434 1.91163 0
M  V30 3677 H 345.441 3.68842 1.54258 0
M  V30 3678 H 346.881 3.39552 2.5393 0
M  V30 3679 C 345.34 1.92635 2.76394 0
M  V30 3680 O 345.87 1.44017 3.74996 0
M  V30 3681 N 344.076 1.60392 2.42328 0
M  V30 3682 H 343.623 2.00122 1.622 0
M  V30 3683 H 343.581 0.952159 2.99635 0
M  V30 3684 N 347.353 -0.0568162 1.57498 0
M  V30 3685 C 348.581 -0.765626 1.92213 0
M  V30 3686 C 348.996 -1.70353 0.813961 0
M  V30 3687 O 348.353 -1.81268 -0.211701 0
M  V30 3688 C 348.404 -1.5465 3.2675 0
M  V30 3689 O 348.125 -0.646278 4.33307 0
M  V30 3690 C 349.626 -2.35497 3.75574 0
M  V30 3691 H 346.846 -0.216835 0.634999 0
M  V30 3692 H 349.39 -0.0226146 2.04487 0
M  V30 3693 H 347.545 -2.24165 3.15957 0
M  V30 3694 H 347.959 -1.19093 5.108 0
M  V30 3695 H 349.433 -2.85722 4.72299 0
M  V30 3696 H 349.91 -3.15692 3.05344 0
M  V30 3697 H 350.516 -1.7111 3.8936 0
M  V30 3698 N 348.832 -1.54138 -0.328536 0
M  V30 3699 C 349.764 -1.79509 -1.4251 0
M  V30 3700 C 350.777 -0.67688 -1.48061 0
M  V30 3701 O 351.966 -0.953898 -1.50874 0
M  V30 3702 C 349.066 -1.89337 -2.81078 0
M  V30 3703 C 348.239 -3.19443 -2.98789 0
M  V30 3704 C 347.298 -3.20036 -4.17688 0
M  V30 3705 O 346.324 -3.93697 -4.11086 0
M  V30 3706 N 347.526 -2.43467 -5.26976 0
M  V30 3707 H 350.291 -2.74139 -1.21111 0
M  V30 3708 H 347.852 -1.53373 -0.518499 0
M  V30 3709 H 349.844 -1.87167 -3.58818 0
M  V30 3710 H 348.414 -1.01826 -2.95551 0
M  V30 3711 H 347.634 -3.34614 -2.08391 0
M  V30 3712 H 348.922 -4.05354 -3.07515 0
M  V30 3713 H 348.32 -1.83201 -5.35214 0
M  V30 3714 H 346.877 -2.4708 -6.03154 0
M  V30 3715 N 350.31 0.590341 -1.46126 0
M  V30 3716 C 351.721 1.17243 -1.45296 0
M  V30 3717 C 352.072 1.95281 -0.189723 0
M  V30 3718 O 351.197 2.04502 0.707674 0
M  V30 3719 C 351.792 2.13284 -2.6324 0
M  V30 3720 C 350.351 2.66832 -2.65476 0
M  V30 3721 C 349.498 1.42557 -2.3785 0
M  V30 3722 H 352.449 0.378692 -1.54116 0
M  V30 3723 H 352.47 2.96619 -2.38323 0
M  V30 3724 H 351.982 1.56459 -3.55165 0
M  V30 3725 H 350.083 3.27548 -1.77603 0
M  V30 3726 H 350.196 3.10088 -3.65215 0
M  V30 3727 H 348.56 1.72107 -1.87753 0
M  V30 3728 H 349.343 0.875741 -3.31942 0
M  V30 3729 N 351.788 1.33704 0.83433 0
M  V30 3730 C 352.721 1.18675 1.94914 0
M  V30 3731 C 353.699 0.0811145 1.62398 0
M  V30 3732 O 354.883 0.244186 1.86912 0
M  V30 3733 C 352.01 0.821231 3.28593 0
M  V30 3734 C 351.056 1.93501 3.80079 0
M  V30 3735 S 351.889 3.54671 4.01209 0
M  V30 3736 C 353.045 3.20136 5.37833 0
M  V30 3737 H 353.278 2.13043 2.07364 0
M  V30 3738 H 350.811 1.18598 0.988624 0
M  V30 3739 H 352.769 0.617123 4.05835 0
M  V30 3740 H 351.43 -0.103927 3.13928 0
M  V30 3741 H 350.623 1.63273 4.76821 0
M  V30 3742 H 350.225 2.09601 3.09747 0
M  V30 3743 H 352.517 2.71242 6.20833 0
M  V30 3744 H 353.46 4.15975 5.73036 0
M  V30 3745 H 353.868 2.56613 5.02802 0
M  V30 3746 N 353.266 -1.05314 1.17247 0
M  V30 3747 C 354.196 -2.1498 0.911362 0
M  V30 3748 C 355.177 -1.69471 -0.146169 0
M  V30 3749 O 356.362 -1.942 0.003812 0
M  V30 3750 C 353.492 -3.4472 0.422528 0
M  V30 3751 C 352.446 -4.03789 1.4191 0
M  V30 3752 C 351.772 -5.28858 0.788274 0
M  V30 3753 C 353.072 -4.41418 2.7919 0
M  V30 3754 H 354.766 -2.3708 1.82848 0
M  V30 3755 H 352.312 -1.13938 0.880569 0
M  V30 3756 H 354.265 -4.20787 0.227289 0
M  V30 3757 H 352.989 -3.22269 -0.530123 0
M  V30 3758 H 351.648 -3.2979 1.60106 0
M  V30 3759 H 351.296 -5.02709 -0.171173 0
M  V30 3760 H 350.996 -5.69338 1.45353 0
M  V30 3761 H 352.52 -6.07612 0.603282 0
M  V30 3762 H 353.934 -5.08524 2.64719 0
M  V30 3763 H 352.331 -4.92913 3.42282 0
M  V30 3764 H 353.401 -3.51819 3.33693 0
M  V30 3765 N 354.744 -0.972509 -1.24016 0
M  V30 3766 C 355.969 -0.654417 -1.96805 0
M  V30 3767 C 356.394 0.770398 -1.716 0
M  V30 3768 O 355.752 1.52361 -0.982647 0
M  V30 3769 C 355.8 -0.941031 -3.48105 0
M  V30 3770 O 354.904 -0.0289472 -4.1239 0
M  V30 3771 H 354.245 -0.24692 -0.616382 0
M  V30 3772 H 356.775 -1.30396 -1.57664 0
M  V30 3773 H 356.785 -0.87452 -3.98517 0
M  V30 3774 H 355.46 -1.97939 -3.65777 0
M  V30 3775 H 354.037 -0.149192 -3.72601 0
M  V30 3776 N 356.222 1.38976 -0.743202 0
M  V30 3777 C 357.172 2.27843 -0.084513 0
M  V30 3778 C 358.156 1.44677 0.704094 0
M  V30 3779 O 359.348 1.67511 0.571755 0
M  V30 3780 C 356.477 3.33466 0.815781 0
M  V30 3781 C 355.563 4.24095 0.0208844 0
M  V30 3782 N 355.954 4.95609 -1.0102 0
M  V30 3783 C 354.252 4.45303 0.249293 0
M  V30 3784 C 354.953 5.62287 -1.49024 0
M  V30 3785 N 353.929 5.37571 -0.807377 0
M  V30 3786 H 357.731 2.80593 -0.87436 0
M  V30 3787 H 355.245 1.51755 -0.578283 0
M  V30 3788 H 357.242 3.96008 1.30321 0
M  V30 3789 H 355.902 2.82276 1.6047 0
M  V30 3790 H 356.913 4.98849 -1.39176 0
M  V30 3791 H 353.59 4.0504 1.01237 0
M  V30 3792 H 354.98 6.29519 -2.34853 0
M  V30 3793 N 357.7 0.491464 1.49741 0
M  V30 3794 C 358.949 -0.0582189 2.01616 0
M  V30 3795 C 359.262 -1.38927 1.3769 0
M  V30 3796 O 360.468 -2.02509 1.80838 0
M  V30 3797 C 358.924 -0.154235 3.59569 0
M  V30 3798 C 358.532 1.1696 4.32463 0
M  V30 3799 C 360.276 -0.65479 4.1942 0
M  V30 3800 C 358.183 1.03627 5.8225 0
M  V30 3801 H 357.113 -0.0255317 0.753568 0
M  V30 3802 H 359.764 0.629445 1.72367 0
M  V30 3803 H 358.146 -0.906138 3.85493 0
M  V30 3804 H 359.32 1.93405 4.18248 0
M  V30 3805 H 357.635 1.60285 3.84315 0
M  V30 3806 H 360.232 -0.771903 5.29099 0
M  V30 3807 H 360.575 -1.65127 3.8215 0
M  V30 3808 H 361.108 0.040304 3.9778 0
M  V30 3809 H 357.847 2.00672 6.24028 0
M  V30 3810 H 357.367 0.312546 5.98985 0
M  V30 3811 H 359.046 0.711114 6.4308 0
M  V30 3812 N 359.178 -1.55987 0.224894 0
M  V30 3813 C 360.126 -2.21808 -0.700283 0
M  V30 3814 C 361.12 -1.19854 -1.19714 0
M  V30 3815 O 362.326 -1.37925 -1.15658 0
M  V30 3816 H 358.701 -0.711226 -0.244258 0
M  V30 3817 H 360.672 -2.98152 -0.121749 0
M  V30 3818 C 359.421 -2.91444 -1.8962 0
M  V30 3819 H 358.744 -3.69655 -1.52299 0
M  V30 3820 H 360.184 -3.40894 -2.52125 0
M  V30 3821 C 358.643 -1.94098 -2.75368 0
M  V30 3822 O 359.173 -1.46004 -3.74227 0
M  V30 3823 N 357.379 -1.61675 -2.41474 0
M  V30 3824 H 356.926 -2.00979 -1.61137 0
M  V30 3825 H 356.884 -0.968036 -2.99126 0
M  V30 3826 N 360.656 0.0484629 -1.57525 0
M  V30 3827 C 361.902 0.744226 -1.88651 0
M  V30 3828 C 362.235 1.76029 -0.820212 0
M  V30 3829 O 361.51 1.93782 0.166985 0
M  V30 3830 C 361.793 1.43128 -3.30434 0
M  V30 3831 C 361.646 0.43005 -4.47739 0
M  V30 3832 C 362.965 2.37031 -3.70816 0
M  V30 3833 H 360.084 0.269089 -0.68612 0
M  V30 3834 H 362.726 0.00713532 -1.89999 0
M  V30 3835 H 360.876 2.05956 -3.29415 0
M  V30 3836 H 362.548 -0.194816 -4.60888 0
M  V30 3837 H 360.791 -0.252522 -4.33064 0
M  V30 3838 H 361.462 0.948874 -5.43783 0
M  V30 3839 H 363.938 1.84263 -3.73077 0
M  V30 3840 H 362.814 2.82094 -4.70865 0
M  V30 3841 H 363.075 3.22864 -3.02012 0
M  V30 3842 N 362.134 1.5431 0.320358 0
M  V30 3843 C 363.382 1.72327 1.05583 0
M  V30 3844 C 363.703 0.50149 1.88441 0
M  V30 3845 O 362.973 -0.48448 1.89815 0
M  V30 3846 H 361.553 0.635387 0.3928 0
M  V30 3847 H 364.215 1.91621 0.356019 0
M  V30 3848 H 363.311 2.60426 1.72003 0
M  V30 3849 N 363.613 -0.582584 1.46437 0
M  V30 3850 C 364.841 -1.36682 1.55324 0
M  V30 3851 C 365.256 -1.87796 0.194409 0
M  V30 3852 O 364.613 -1.63623 -0.808318 0
M  V30 3853 C 364.664 -2.55426 2.55812 0
M  V30 3854 O 364.385 -2.0643 3.86417 0
M  V30 3855 C 365.886 -3.47976 2.74641 0
M  V30 3856 H 363.106 -0.417545 0.525259 0
M  V30 3857 H 365.65 -0.708219 1.91845 0
M  V30 3858 H 363.805 -3.17275 2.22295 0
M  V30 3859 H 364.219 -2.83762 4.41111 0
M  V30 3860 H 365.693 -4.27775 3.48874 0
M  V30 3861 H 366.17 -3.99919 1.81553 0
M  V30 3862 H 366.776 -2.91962 3.09255 0
M  V30 3863 N 365.091 -1.34144 -0.827227 0
M  V30 3864 C 366.339 -1.26009 -1.58007 0
M  V30 3865 C 366.66 0.170971 -1.94249 0
M  V30 3866 O 365.93 1.10256 -1.61927 0
M  V30 3867 H 364.51 -0.463414 -0.585881 0
M  V30 3868 H 367.172 -1.68005 -0.987951 0
M  V30 3869 H 366.268 -1.86187 -2.50481 0
M  V30 3870 N 366.569 1.04691 -1.17803 0
M  V30 3871 C 367.815 1.78045 -0.970969 0
M  V30 3872 C 368.148 1.87686 0.498751 0
M  V30 3873 O 367.423 1.38035 1.37027 0
M  V30 3874 C 367.706 3.2166 -1.61884 0
M  V30 3875 C 367.559 3.20001 -3.161 0
M  V30 3876 C 368.878 4.1962 -1.3269 0
M  V30 3877 H 365.997 0.64633 -0.354155 0
M  V30 3878 H 368.639 1.22333 -1.45378 0
M  V30 3879 H 366.789 3.69232 -1.20831 0
M  V30 3880 H 368.461 2.80467 -3.66246 0
M  V30 3881 H 366.704 2.58203 -3.48588 0
M  V30 3882 H 367.375 4.21386 -3.56564 0
M  V30 3883 H 369.851 3.80567 -1.68249 0
M  V30 3884 H 368.727 5.18339 -1.80599 0
M  V30 3885 H 368.988 4.414 -0.248622 0
M  V30 3886 N 368.047 0.979072 1.23499 0
M  V30 3887 C 369.324 0.563674 1.87302 0
M  V30 3888 C 369.704 -0.959199 1.88049 0
M  V30 3889 O 369.052 -1.83535 1.36114 0
M  V30 3890 C 369.262 1.16822 3.28867 0
M  V30 3891 C 370.61 1.26014 4.0547 0
M  V30 3892 O 371.634 1.12158 3.38082 0
M  V30 3893 O 370.493 1.48044 5.26066 0
M  V30 3894 H 367.587 0.189602 0.804972 0
M  V30 3895 H 370.133 1.07407 1.31384 0
M  V30 3896 H 368.905 2.21049 3.22883 0
M  V30 3897 H 368.528 0.642564 3.92373 0
M  V30 3898 N 369.525 -1.3858 0.750561 0
M  V30 3899 C 370.765 -2.02032 0.310258 0
M  V30 3900 C 371.129 -1.58288 -1.08668 0
M  V30 3901 O 372.33 -2.14049 -1.62593 0
M  V30 3902 C 370.601 -3.54856 0.425647 0
M  V30 3903 S 372.16 -4.38748 0.0674797 0
M  V30 3904 H 368.978 -0.700705 0.120554 0
M  V30 3905 H 371.58 -1.69134 0.980512 0
M  V30 3906 H 370.284 -3.84182 1.44335 0
M  V30 3907 H 369.815 -3.92527 -0.261894 0
M  V30 3908 H 371.83 -4.82835 -1.14388 0
M  V30 3909 N 371.003 -0.499398 -1.49478 0
M  V30 3910 C 372.231 0.0425456 -2.06856 0
M  V30 3911 C 372.646 1.30964 -1.35992 0
M  V30 3912 O 372.003 1.77172 -0.437762 0
M  V30 3913 C 372.054 0.301735 -3.60239 0
M  V30 3914 O 371.775 -0.915127 -4.28436 0
M  V30 3915 C 373.276 0.887499 -4.34325 0
M  V30 3916 H 370.496 -0.0197482 -0.670709 0
M  V30 3917 H 373.04 -0.696297 -1.92281 0
M  V30 3918 H 371.195 0.990556 -3.74522 0
M  V30 3919 H 371.609 -0.676993 -5.20113 0
M  V30 3920 H 373.083 1.01845 -5.42523 0
M  V30 3921 H 373.56 1.88488 -3.96698 0
M  V30 3922 H 374.166 0.236196 -4.24644 0
M  V30 3923 N 372.481 1.55866 -0.233164 0
M  V30 3924 C 373.73 1.97779 0.39579 0
M  V30 3925 C 374.043 1.12419 1.60066 0
M  V30 3926 O 375.249 1.44283 2.29988 0
M  V30 3927 C 373.705 3.5188 0.755556 0
M  V30 3928 C 373.313 4.45959 -0.427152 0
M  V30 3929 C 375.057 4.02479 1.34946 0
M  V30 3930 C 372.964 5.91383 -0.0443043 0
M  V30 3931 H 371.894 0.738592 0.15165 0
M  V30 3932 H 374.545 1.80486 -0.331212 0
M  V30 3933 H 372.927 3.64816 1.5403 0
M  V30 3934 H 374.101 4.44776 -1.20462 0
M  V30 3935 H 372.416 4.05765 -0.935068 0
M  V30 3936 H 375.013 5.08637 1.649 0
M  V30 3937 H 375.356 3.49014 2.26925 0
M  V30 3938 H 375.889 3.92813 0.62791 0
M  V30 3939 H 372.628 6.48857 -0.930874 0
M  V30 3940 H 372.148 5.95734 0.697238 0
M  V30 3941 H 373.827 6.45893 0.378334 0
M  V30 3942 N 373.959 -0.0401083 1.57549 0
M  V30 3943 C 375.375 -0.395556 1.54621 0
M  V30 3944 C 375.575 -1.77281 0.957799 0
M  V30 3945 O 374.631 -2.45888 0.574031 0
M  V30 3946 C 375.944 -0.307535 2.99123 0
M  V30 3947 C 377.492 -0.385425 3.10618 0
M  V30 3948 C 377.967 -0.326973 4.56831 0
M  V30 3949 N 379.458 -0.386102 4.61588 0
M  V30 3950 C 380.193 -0.363591 5.72246 0
M  V30 3951 N 379.689 -0.29402 6.92176 0
M  V30 3952 N 381.482 -0.412503 5.60584 0
M  V30 3953 H 373.633 0.861325 1.94152 0
M  V30 3954 H 375.896 0.326445 0.890021 0
M  V30 3955 H 375.602 0.638461 3.45856 0
M  V30 3956 H 375.476 -1.10552 3.60636 0
M  V30 3957 H 377.863 -1.32185 2.63839 0
M  V30 3958 H 377.944 0.44171 2.51957 0
M  V30 3959 H 377.588 0.605738 5.04275 0
M  V30 3960 H 377.518 -1.17207 5.13391 0
M  V30 3961 H 380.009 -0.442832 3.75296 0
M  V30 3962 H 380.322 -0.28164 7.72287 0
M  V30 3963 H 378.667 -0.260232 6.94513 0
M  V30 3964 H 381.858 -0.464769 4.65787 0
M  V30 3965 H 382.031 -0.391492 6.46816 0
M  V30 3966 N 375.437 -1.54477 -0.31217 0
M  V30 3967 C 376.347 -1.87695 -1.4074 0
M  V30 3968 C 377.363 -0.769975 -1.56036 0
M  V30 3969 O 378.539 -1.06537 -1.70915 0
M  V30 3970 C 375.604 -2.10755 -2.75287 0
M  V30 3971 C 374.665 -3.34514 -2.69071 0
M  V30 3972 C 373.898 -3.56465 -3.97201 0
M  V30 3973 O 374.121 -2.81637 -4.96021 0
M  V30 3974 O 373.055 -4.49964 -3.9977 0
M  V30 3975 H 376.881 -2.80849 -1.15574 0
M  V30 3976 H 374.466 -1.40526 -0.507228 0
M  V30 3977 H 376.348 -2.27188 -3.54913 0
M  V30 3978 H 375.023 -1.20788 -3.0032 0
M  V30 3979 H 373.93 -3.23456 -1.87955 0
M  V30 3980 H 375.263 -4.24575 -2.48992 0
M  V30 3981 N 376.915 0.57481 -1.46744 0
M  V30 3982 C 377.845 1.69337 -1.60771 0
M  V30 3983 C 378.826 1.63825 -0.457736 0
M  V30 3984 O 380.011 1.8172 -0.684947 0
M  V30 3985 C 377.141 3.0798 -1.60517 0
M  V30 3986 C 376.095 3.28327 -2.74564 0
M  V30 3987 C 375.421 4.67578 -2.59373 0
M  V30 3988 C 376.721 3.15398 -4.16319 0
M  V30 3989 H 378.415 1.57853 -2.54407 0
M  V30 3990 H 375.961 0.75799 -1.22436 0
M  V30 3991 H 377.914 3.86061 -1.68923 0
M  V30 3992 H 376.638 3.20381 -0.634305 0
M  V30 3993 H 375.297 2.52649 -2.65639 0
M  V30 3994 H 374.945 4.76755 -1.60353 0
M  V30 3995 H 374.645 4.82144 -3.35873 0
M  V30 3996 H 376.169 5.47817 -2.69682 0
M  V30 3997 H 377.583 3.83315 -4.26313 0
M  V30 3998 H 375.98 3.41482 -4.93468 0
M  V30 3999 H 377.05 2.12372 -4.3592 0
M  V30 4000 N 378.394 1.34581 0.820102 0
M  V30 4001 C 379.357 1.2628 1.91275 0
M  V30 4002 C 380.357 0.177344 1.59819 0
M  V30 4003 O 381.547 0.430156 1.68806 0
M  V30 4004 C 378.679 0.950327 3.27386 0
M  V30 4005 H 379.872 2.23421 2.00057 0
M  V30 4006 H 377.425 1.1891 1.0144 0
M  V30 4007 H 378.16 -0.0177938 3.24295 0
M  V30 4008 H 377.945 1.73549 3.51601 0
M  V30 4009 H 379.435 0.917492 4.07396 0
M  V30 4010 N 379.872 -1.04064 1.18357 0
M  V30 4011 C 380.804 -2.12114 0.868358 0
M  V30 4012 C 381.817 -1.62247 -0.134045 0
M  V30 4013 O 383.006 -1.78253 0.0937933 0
M  V30 4014 C 380.106 -3.37773 0.276132 0
M  V30 4015 C 379.279 -4.16874 1.3242 0
M  V30 4016 C 378.338 -5.20861 0.747662 0
M  V30 4017 O 377.364 -5.51141 1.42239 0
M  V30 4018 N 378.566 -5.78715 -0.454823 0
M  V30 4019 H 381.331 -2.39748 1.79836 0
M  V30 4020 H 378.892 -1.20258 1.08396 0
M  V30 4021 H 380.884 -4.04513 -0.123133 0
M  V30 4022 H 379.454 -3.07581 -0.557895 0
M  V30 4023 H 378.674 -3.45456 1.89878 0
M  V30 4024 H 379.962 -4.66516 2.03078 0
M  V30 4025 H 379.36 -5.56415 -1.02073 0
M  V30 4026 H 377.917 -6.46921 -0.79601 0
M  V30 4027 N 381.35 -0.985608 -1.22978 0
M  V30 4028 C 382.578 -0.675582 -1.95559 0
M  V30 4029 C 382.993 0.758413 -1.72897 0
M  V30 4030 O 382.35 1.51094 -1.02357 0
M  V30 4031 C 382.401 -0.96293 -3.48439 0
M  V30 4032 O 382.122 -2.34057 -3.70336 0
M  V30 4033 C 383.623 -0.669585 -4.38214 0
M  V30 4034 H 380.843 -0.250523 -0.622478 0
M  V30 4035 H 383.387 -1.3184 -1.56328 0
M  V30 4036 H 381.542 -0.366033 -3.85667 0
M  V30 4037 H 381.956 -2.43424 -4.64591 0
M  V30 4038 H 383.43 -0.920967 -5.44263 0
M  V30 4039 H 383.907 0.396383 -4.37408 0
M  V30 4040 H 384.513 -1.2472 -4.06602 0
M  V30 4041 N 382.828 1.3818 -0.7579 0
M  V30 4042 C 384.077 1.99261 -0.312744 0
M  V30 4043 C 384.39 1.60846 1.11301 0
M  V30 4044 O 385.596 2.14929 1.65885 0
M  V30 4045 C 384.052 3.56294 -0.50821 0
M  V30 4046 C 383.66 4.03657 -1.94333 0
M  V30 4047 C 385.404 4.24313 -0.125982 0
M  V30 4048 C 383.311 5.53347 -2.08712 0
M  V30 4049 H 382.241 0.745456 -0.113185 0
M  V30 4050 H 384.892 1.57889 -0.935056 0
M  V30 4051 H 383.274 3.95575 0.183353 0
M  V30 4052 H 384.448 3.75655 -2.66871 0
M  V30 4053 H 382.763 3.48376 -2.28086 0
M  V30 4054 H 385.36 5.34279 -0.212125 0
M  V30 4055 H 385.703 4.05962 0.921964 0
M  V30 4056 H 386.236 3.90285 -0.769563 0
M  V30 4057 H 382.975 5.76607 -3.11777 0
M  V30 4058 H 382.495 5.83078 -1.4064 0
M  V30 4059 H 384.174 6.19111 -1.87912 0
M  V30 4060 N 384.306 0.507319 1.49211 0
M  V30 4061 C 385.269 -0.256763 2.27757 0
M  V30 4062 C 386.269 -0.888287 1.34038 0
M  V30 4063 O 387.459 -0.751841 1.5714 0
M  V30 4064 C 384.591 -1.36905 3.12202 0
M  V30 4065 H 385.784 0.432557 2.96764 0
M  V30 4066 H 383.337 0.262488 1.5408 0
M  V30 4067 H 384.072 -2.09233 2.47775 0
M  V30 4068 H 383.857 -0.921599 3.81115 0
M  V30 4069 H 385.347 -1.9071 3.7151 0
M  V30 4070 N 385.784 -1.5574 0.241426 0
M  V30 4071 C 386.731 -2.21149 -0.660432 0
M  V30 4072 C 387.701 -1.17356 -1.17545 0
M  V30 4073 O 388.886 -1.45784 -1.23093 0
M  V30 4074 C 386.026 -2.91059 -1.85414 0
M  V30 4075 C 385.139 -4.09495 -1.37616 0
M  V30 4076 C 384.274 -4.67135 -2.529 0
M  V30 4077 C 383.313 -5.77831 -2.01936 0
M  V30 4078 N 382.45 -6.29677 -3.10566 0
M  V30 4079 H 387.29 -2.97845 -0.095955 0
M  V30 4080 H 384.827 -1.47057 -0.0356024 0
M  V30 4081 H 386.785 -3.29788 -2.5553 0
M  V30 4082 H 385.415 -2.16846 -2.39118 0
M  V30 4083 H 384.467 -3.76117 -0.569235 0
M  V30 4084 H 385.779 -4.89423 -0.962618 0
M  V30 4085 H 384.933 -5.08409 -3.31067 0
M  V30 4086 H 383.672 -3.86411 -2.97553 0
M  V30 4087 H 382.677 -5.36039 -1.22238 0
M  V30 4088 H 383.902 -6.60402 -1.58259 0
M  V30 4089 H 381.848 -5.5186 -3.54664 0
M  V30 4090 H 381.765 -7.04783 -2.73526 0
M  V30 4091 H 383.033 -6.75609 -3.88809 0
M  V30 4092 N 387.262 0.0317525 -1.57568 0
M  V30 4093 C 388.508 0.724175 -1.8943 0
M  V30 4094 C 388.841 1.75149 -0.838836 0
M  V30 4095 O 388.116 1.93948 0.146422 0
M  V30 4096 C 388.399 1.39615 -3.31933 0
M  V30 4097 C 388.252 0.382537 -4.4817 0
M  V30 4098 C 389.571 2.33084 -3.73309 0
M  V30 4099 H 386.69 0.261797 -0.688935 0
M  V30 4100 H 389.332 -0.013017 -1.89996 0
M  V30 4101 H 387.482 2.02451 -3.31581 0
M  V30 4102 H 389.154 -0.243689 -4.60656 0
M  V30 4103 H 387.397 -0.29844 -4.32772 0
M  V30 4104 H 388.068 0.891145 -5.44759 0
M  V30 4105 H 390.544 1.80295 -3.7501 0
M  V30 4106 H 389.42 2.77084 -4.73831 0
M  V30 4107 H 389.681 3.19643 -3.05419 0
M  V30 4108 N 388.74 1.54641 0.303973 0
M  V30 4109 C 389.986 1.74038 1.04109 0
M  V30 4110 C 390.319 0.523051 1.87024 0
M  V30 4111 O 389.594 -0.479874 1.88487 0
M  V30 4112 C 389.877 3.02761 1.94955 0
M  V30 4113 C 389.73 4.34787 1.1524 0
M  V30 4114 C 391.049 3.27336 2.94175 0
M  V30 4115 H 388.168 0.63323 0.377079 0
M  V30 4116 H 390.81 1.87354 0.316001 0
M  V30 4117 H 388.96 2.9154 2.56782 0
M  V30 4118 H 390.632 4.57922 0.557236 0
M  V30 4119 H 388.875 4.31407 0.455053 0
M  V30 4120 H 389.546 5.21116 1.8205 0
M  V30 4121 H 392.022 3.38148 2.42477 0
M  V30 4122 H 390.898 4.18726 3.54908 0
M  V30 4123 H 391.159 2.45491 3.67677 0
M  V30 4124 N 390.218 -0.567019 1.47046 0
M  V30 4125 C 391.466 -1.322 1.52864 0
M  V30 4126 C 391.787 -1.94088 0.188388 0
M  V30 4127 O 391.057 -1.7941 -0.786693 0
M  V30 4128 H 389.637 -0.490894 0.563056 0
M  V30 4129 H 392.299 -0.662879 1.83281 0
M  V30 4130 H 391.395 -2.12062 2.2899 0
M  V30 4131 N 391.696 -1.35014 -0.812953 0
M  V30 4132 C 392.926 -1.30841 -1.59888 0
M  V30 4133 C 393.334 0.117576 -1.88834 0
M  V30 4134 O 392.677 1.07807 -1.48739 0
M  V30 4135 C 392.739 -2.0412 -2.95931 0
M  V30 4136 C 392.403 -3.53336 -2.89832 0
M  V30 4137 C 393.4 -4.48052 -2.63714 0
M  V30 4138 C 391.085 -3.95894 -3.0915 0
M  V30 4139 C 393.079 -5.833 -2.56982 0
M  V30 4140 C 390.766 -5.31239 -3.0204 0
M  V30 4141 C 391.764 -6.24754 -2.75991 0
M  V30 4142 O 391.452 -7.57617 -2.68833 0
M  V30 4143 H 391.184 -0.451215 -0.50337 0
M  V30 4144 H 393.738 -1.78354 -1.01877 0
M  V30 4145 H 391.968 -1.51235 -3.559 0
M  V30 4146 H 393.657 -1.93107 -3.57022 0
M  V30 4147 H 394.423 -4.16492 -2.48515 0
M  V30 4148 H 390.302 -3.23495 -3.28438 0
M  V30 4149 H 393.846 -6.56263 -2.36569 0
M  V30 4150 H 389.743 -5.62415 -3.16796 0
M  V30 4151 H 390.511 -7.67469 -2.84487 0
M  V30 4152 N 393.175 1.03435 -1.18907 0
M  V30 4153 C 394.122 2.11591 -0.921837 0
M  V30 4154 C 395.092 1.65499 0.141226 0
M  V30 4155 O 396.277 1.908 0.000242829 0
M  V30 4156 C 393.417 3.42012 -0.460616 0
M  V30 4157 C 392.53 4.01682 -1.58982 0
M  V30 4158 C 391.665 5.20091 -1.08069 0
M  V30 4159 C 390.704 5.71805 -2.18416 0
M  V30 4160 N 389.841 6.81494 -1.68849 0
M  V30 4161 H 394.681 2.33787 -1.8479 0
M  V30 4162 H 392.218 1.1467 -0.921373 0
M  V30 4163 H 394.176 4.16834 -0.174642 0
M  V30 4164 H 392.806 3.19944 0.428467 0
M  V30 4165 H 391.858 3.24127 -1.99113 0
M  V30 4166 H 393.17 4.36084 -2.4214 0
M  V30 4167 H 392.324 6.02051 -0.749615 0
M  V30 4168 H 391.063 4.87209 -0.218771 0
M  V30 4169 H 390.068 4.88461 -2.5236 0
M  V30 4170 H 391.293 6.06728 -3.05054 0
M  V30 4171 H 389.239 6.50475 -0.849572 0
M  V30 4172 H 389.156 7.14994 -2.45601 0
M  V30 4173 H 390.424 7.67063 -1.38689 0
M  V30 4174 N 394.653 0.992116 1.22453 0
M  V30 4175 C 395.901 0.666215 1.90804 0
M  V30 4176 C 396.222 -0.804152 1.77647 0
M  V30 4177 O 395.492 -1.57629 1.16318 0
M  V30 4178 H 394.072 0.243423 0.706225 0
M  V30 4179 H 396.734 1.25845 1.48825 0
M  V30 4180 H 395.83 0.928069 2.97982 0
M  V30 4181 N 396.131 -1.37776 0.765217 0
M  V30 4182 C 397.547 -1.53297 0.444108 0
M  V30 4183 C 397.747 -1.72515 -1.04119 0
M  V30 4184 O 396.803 -1.74278 -1.82711 0
M  V30 4185 C 398.116 -2.73328 1.25349 0
M  V30 4186 C 399.664 -2.87185 1.24473 0
M  V30 4187 C 400.139 -4.10191 2.03733 0
M  V30 4188 N 401.63 -4.17291 2.01053 0
M  V30 4189 C 402.365 -5.11488 2.59166 0
M  V30 4190 N 401.861 -6.11285 3.26041 0
M  V30 4191 N 403.654 -5.03924 2.49032 0
M  V30 4192 H 395.805 -1.23552 1.72768 0
M  V30 4193 H 398.068 -0.601103 0.733062 0
M  V30 4194 H 397.774 -2.6557 2.30577 0
M  V30 4195 H 397.648 -3.66834 0.87823 0
M  V30 4196 H 400.035 -2.94418 0.20047 0
M  V30 4197 H 400.116 -1.94657 1.65959 0
M  V30 4198 H 399.76 -4.0372 3.08176 0
M  V30 4199 H 399.69 -5.01821 1.59633 0
M  V30 4200 H 402.181 -3.45825 1.5236 0
M  V30 4201 H 402.494 -6.79678 3.67774 0
M  V30 4202 H 400.839 -6.11583 3.30138 0
M  V30 4203 H 404.03 -4.24902 1.96407 0
M  V30 4204 H 404.203 -5.77152 2.94617 0
M  V30 4205 N 397.609 -0.515225 -1.4894 0
M  V30 4206 C 398.855 0.0242508 -2.02785 0
M  V30 4207 C 399.188 1.35323 -1.39289 0
M  V30 4208 O 398.463 1.87041 -0.533469 0
M  V30 4209 C 398.746 0.16184 -3.59736 0
M  V30 4210 C 398.599 -1.19127 -4.33738 0
M  V30 4211 C 399.918 0.895719 -4.30888 0
M  V30 4212 H 397.037 0.00733914 -0.736963 0
M  V30 4213 H 399.679 -0.669395 -1.77818 0
M  V30 4214 H 397.829 0.752624 -3.8114 0
M  V30 4215 H 399.501 -1.82202 -4.23792 0
M  V30 4216 H 397.744 -1.77695 -3.95736 0
M  V30 4217 H 398.415 -1.04815 -5.41957 0
M  V30 4218 H 400.891 0.394528 -4.14225 0
M  V30 4219 H 399.767 0.960859 -5.40425 0
M  V30 4220 H 400.028 1.9427 -3.97129 0
M  V30 4221 N 399.087 1.5561 -0.249682 0
M  V30 4222 C 400.333 1.99306 0.374841 0
M  V30 4223 C 400.666 1.13767 1.57387 0
M  V30 4224 O 399.941 0.201711 1.93451 0
M  V30 4225 C 400.224 3.51507 0.781986 0
M  V30 4226 C 400.077 4.4781 -0.422629 0
M  V30 4227 C 401.396 4.08884 1.62793 0
M  V30 4228 H 398.515 0.724572 0.134773 0
M  V30 4229 H 401.157 1.86719 -0.351549 0
M  V30 4230 H 399.307 3.62363 1.4009 0
M  V30 4231 H 400.979 4.48931 -1.06108 0
M  V30 4232 H 399.222 4.20518 -1.06524 0
M  V30 4233 H 399.893 5.51919 -0.0943766 0
M  V30 4234 H 402.369 4.01147 1.10547 0
M  V30 4235 H 401.245 5.1564 1.88166 0
M  V30 4236 H 401.506 3.57515 2.60068 0
M  V30 4237 N 400.565 -0.0233959 1.57583 0
M  V30 4238 C 401.812 -0.713063 1.8953 0
M  V30 4239 C 402.14 -1.75056 0.847673 0
M  V30 4240 O 401.395 -1.95119 -0.150636 0
M  V30 4241 C 401.694 -1.41428 3.28227 0
M  V30 4242 C 401.36 -0.512222 4.47981 0
M  V30 4243 C 400.022 -0.263785 4.80476 0
M  V30 4244 C 402.374 0.110248 5.21083 0
M  V30 4245 C 399.702 0.615804 5.83459 0
M  V30 4246 C 402.054 0.977573 6.25001 0
M  V30 4247 C 400.718 1.23542 6.55968 0
M  V30 4248 H 399.988 -0.260928 0.69354 0
M  V30 4249 H 402.635 0.0271047 1.91481 0
M  V30 4250 H 400.94 -2.22791 3.22291 0
M  V30 4251 H 402.637 -1.95355 3.50196 0
M  V30 4252 H 399.227 -0.716013 4.22577 0
M  V30 4253 H 403.411 -0.0687137 4.96252 0
M  V30 4254 H 398.667 0.82382 6.05824 0
M  V30 4255 H 402.841 1.46638 6.80786 0
M  V30 4256 H 400.468 1.91871 7.35588 0
M  V30 4257 N 402.043 -1.548 -0.295768 0
M  V30 4258 C 403.32 -1.65014 -1.05023 0
M  V30 4259 C 403.7 -0.501805 -2.05049 0
M  V30 4260 O 403.048 0.500869 -2.22943 0
M  V30 4261 C 403.258 -3.03252 -1.72741 0
M  V30 4262 C 404.606 -3.60242 -2.24746 0
M  V30 4263 O 405.63 -3.05737 -1.82765 0
M  V30 4264 O 404.489 -4.55687 -3.01681 0
M  V30 4265 H 401.583 -0.669314 -0.485744 0
M  V30 4266 H 404.129 -1.67144 -0.293438 0
M  V30 4267 H 402.901 -3.7827 -1.00138 0
M  V30 4268 H 402.524 -3.04922 -2.55163 0
M  V30 4269 N 403.521 0.559213 -1.47345 0
M  V30 4270 C 404.484 1.64854 -1.59235 0
M  V30 4271 C 405.484 1.53851 -0.467607 0
M  V30 4272 O 406.674 1.58045 -0.732617 0
M  V30 4273 C 403.806 3.04388 -1.53496 0
M  V30 4274 H 404.999 1.55662 -2.56339 0
M  V30 4275 H 402.552 0.778973 -1.35505 0
M  V30 4276 H 403.287 3.19115 -0.577604 0
M  V30 4277 H 403.072 3.13783 -2.35123 0
M  V30 4278 H 404.562 3.83642 -1.6495 0
M  V30 4279 N 404.999 1.35443 0.805782 0
M  V30 4280 C 406.224 1.32037 1.59941 0
M  V30 4281 C 406.649 -0.0994215 1.87837 0
M  V30 4282 O 406.007 -1.06648 1.46615 0
M  V30 4283 C 406.055 2.13354 2.90711 0
M  V30 4284 O 405.159 1.5148 3.83572 0
M  V30 4285 H 404.5 0.452666 0.485787 0
M  V30 4286 H 407.03 1.78496 1.00002 0
M  V30 4287 H 407.04 2.25338 3.40128 0
M  V30 4288 H 405.715 3.16572 2.69732 0
M  V30 4289 H 404.292 1.4834 3.42125 0
M  V30 4290 N 406.477 -1.02803 1.19454 0
M  V30 4291 C 407.424 -2.11099 0.933046 0
M  V30 4292 C 408.394 -1.65571 -0.132447 0
M  V30 4293 O 409.579 -1.90797 0.00987576 0
M  V30 4294 C 406.719 -3.41763 0.478747 0
M  V30 4295 C 405.832 -4.00833 1.6111 0
M  V30 4296 C 404.967 -5.19511 1.10825 0
M  V30 4297 C 404.006 -5.70639 2.21445 0
M  V30 4298 N 403.143 -6.80589 1.72461 0
M  V30 4299 H 407.983 -2.32804 1.86028 0
M  V30 4300 H 405.52 -1.14179 0.927441 0
M  V30 4301 H 407.478 -4.16736 0.196745 0
M  V30 4302 H 406.108 -3.20166 -0.411493 0
M  V30 4303 H 405.16 -3.23066 2.00829 0
M  V30 4304 H 406.472 -4.34794 2.4445 0
M  V30 4305 H 405.626 -6.01645 0.781533 0
M  V30 4306 H 404.365 -4.87086 0.244606 0
M  V30 4307 H 403.37 -4.87116 2.54947 0
M  V30 4308 H 404.595 -6.05102 3.08267 0
M  V30 4309 H 402.541 -6.50016 0.884056 0
M  V30 4310 H 402.458 -7.13681 2.49389 0
M  V30 4311 H 403.726 -7.66317 1.42755 0
M  V30 4312 N 407.956 -0.998596 -1.21925 0
M  V30 4313 C 409.367 -0.711939 -1.72593 0
M  V30 4314 C 409.718 0.770842 -1.80423 0
M  V30 4315 O 408.843 1.60237 -1.4544 0
M  V30 4316 C 409.438 -1.28567 -3.13458 0
M  V30 4317 C 407.997 -1.04828 -3.61508 0
M  V30 4318 C 407.144 -1.4024 -2.39224 0
M  V30 4319 H 410.095 -1.17027 -1.07193 0
M  V30 4320 H 410.116 -0.667098 -3.74607 0
M  V30 4321 H 409.628 -2.36486 -3.07727 0
M  V30 4322 H 407.729 0.0140383 -3.72597 0
M  V30 4323 H 407.842 -1.71566 -4.47328 0
M  V30 4324 H 406.206 -0.821077 -2.41103 0
M  V30 4325 H 406.989 -2.49176 -2.36149 0
M  V30 4326 N 409.434 1.37368 -0.772513 0
M  V30 4327 C 410.711 1.93839 -0.26188 0
M  V30 4328 C 411.091 1.7061 1.24319 0
M  V30 4329 O 410.439 1.05534 2.02669 0
M  V30 4330 C 410.649 3.43154 -0.636102 0
M  V30 4331 C 411.997 4.20249 -0.606324 0
M  V30 4332 O 413.021 3.5152 -0.575538 0
M  V30 4333 O 411.88 5.42809 -0.634086 0
M  V30 4334 H 408.974 0.82478 -0.0605555 0
M  V30 4335 H 411.52 1.4665 -0.853917 0
M  V30 4336 H 410.292 3.53647 -1.6748 0
M  V30 4337 H 409.915 3.97596 -0.0170516 0
M  V30 4338 N 410.912 0.523116 1.48665 0
M  V30 4339 C 412.16 -0.0134497 2.02096 0
M  V30 4340 C 412.481 -1.35418 1.40311 0
M  V30 4341 O 411.751 -1.87543 0.566074 0
M  V30 4342 H 410.331 -0.00795915 0.746958 0
M  V30 4343 H 412.993 0.685388 1.82451 0
M  V30 4344 H 412.089 -0.126849 3.11842 0
M  V30 4345 N 412.39 -1.55475 0.257931 0
M  V30 4346 C 413.618 -2.03609 -0.367559 0
M  V30 4347 C 414.033 -1.13687 -1.50734 0
M  V30 4348 O 413.39 -0.153479 -1.81853 0
M  V30 4349 C 413.441 -3.51001 -0.864908 0
M  V30 4350 O 413.162 -4.37499 0.229465 0
M  V30 4351 C 414.663 -4.14946 -1.55997 0
M  V30 4352 H 411.883 -0.665459 -0.0860521 0
M  V30 4353 H 414.427 -2.00843 0.385014 0
M  V30 4354 H 412.582 -3.54266 -1.56762 0
M  V30 4355 H 412.996 -5.24286 -0.14998 0
M  V30 4356 H 414.47 -5.19735 -1.85956 0
M  V30 4357 H 414.947 -3.6209 -2.4857 0
M  V30 4358 H 415.553 -4.15635 -0.901543 0
M  V30 4359 N 413.868 0.0150385 -1.57593 0
M  V30 4360 C 415.279 0.559832 -1.78109 0
M  V30 4361 C 415.63 1.74814 -0.890756 0
M  V30 4362 O 414.755 2.16216 -0.0892482 0
M  V30 4363 C 415.35 1.02238 -3.23006 0
M  V30 4364 C 413.909 1.51258 -3.44671 0
M  V30 4365 C 413.056 0.456955 -2.73509 0
M  V30 4366 H 416.007 -0.211169 -1.57289 0
M  V30 4367 H 416.028 1.88912 -3.30292 0
M  V30 4368 H 415.54 0.157302 -3.87781 0
M  V30 4369 H 413.641 2.39905 -2.8509 0
M  V30 4370 H 413.754 1.55042 -4.5332 0
M  V30 4371 H 412.118 0.915196 -2.37689 0
M  V30 4372 H 412.901 -0.398896 -3.40975 0
M  V30 4373 N 415.346 1.54954 0.287554 0
M  V30 4374 C 416.762 1.46469 0.633964 0
M  V30 4375 C 416.962 0.666865 1.90145 0
M  V30 4376 O 416.018 0.179906 2.51858 0
M  V30 4377 C 417.331 2.90556 0.774454 0
M  V30 4378 C 418.879 3.00681 0.869462 0
M  V30 4379 C 419.354 4.45993 1.04184 0
M  V30 4380 N 420.845 4.4976 1.10772 0
M  V30 4381 C 421.58 5.59393 1.25964 0
M  V30 4382 N 421.076 6.78923 1.37968 0
M  V30 4383 N 422.869 5.47107 1.28959 0
M  V30 4384 H 415.02 2.05288 -0.545041 0
M  V30 4385 H 417.283 0.930305 -0.182308 0
M  V30 4386 H 416.989 3.51594 -0.086207 0
M  V30 4387 H 416.863 3.38743 1.6593 0
M  V30 4388 H 419.25 2.39749 1.7206 0
M  V30 4389 H 419.331 2.55769 -0.0396831 0
M  V30 4390 H 418.975 5.07524 0.195422 0
M  V30 4391 H 418.905 4.88548 1.96542 0
M  V30 4392 H 421.396 3.63651 1.02794 0
M  V30 4393 H 421.709 7.58231 1.49353 0
M  V30 4394 H 420.054 6.81763 1.34999 0
M  V30 4395 H 423.245 4.52668 1.19202 0
M  V30 4396 H 423.418 6.32595 1.40455 0
M  V30 4397 N 416.824 -0.551391 1.4764 0
M  V30 4398 C 417.771 -1.65796 1.60563 0
M  V30 4399 C 418.741 -1.59932 0.448428 0
M  V30 4400 O 419.926 -1.78679 0.669222 0
M  V30 4401 C 417.066 -3.04108 1.63133 0
M  V30 4402 C 416.179 -3.20365 2.89811 0
M  V30 4403 C 415.314 -4.49109 2.8368 0
M  V30 4404 C 414.353 -4.58819 4.05156 0
M  V30 4405 N 413.49 -5.78926 3.97227 0
M  V30 4406 H 418.33 -1.54088 2.5507 0
M  V30 4407 H 415.867 -0.75052 1.26513 0
M  V30 4408 H 417.825 -3.84207 1.62606 0
M  V30 4409 H 416.455 -3.14637 0.721341 0
M  V30 4410 H 415.507 -2.33659 3.00179 0
M  V30 4411 H 416.819 -3.23402 3.79753 0
M  V30 4412 H 415.973 -5.37475 2.81434 0
M  V30 4413 H 414.712 -4.4856 1.91431 0
M  V30 4414 H 413.717 -3.68864 4.077 0
M  V30 4415 H 414.942 -4.61124 4.98539 0
M  V30 4416 H 412.888 -5.79314 3.07785 0
M  V30 4417 H 412.805 -5.83367 4.80853 0
M  V30 4418 H 414.073 -6.69637 3.99007 0
M  V30 4419 N 418.302 -1.35869 -0.798587 0
M  V30 4420 C 419.232 -1.32118 -1.92528 0
M  V30 4421 C 420.213 -0.194209 -1.68988 0
M  V30 4422 O 421.398 -0.390426 -1.90235 0
M  V30 4423 C 418.528 -1.10047 -3.29404 0
M  V30 4424 C 417.482 -2.19471 -3.67446 0
M  V30 4425 C 416.808 -1.82555 -5.02571 0
M  V30 4426 C 418.108 -3.61495 -3.76987 0
M  V30 4427 H 419.802 -2.26394 -1.95924 0
M  V30 4428 H 417.348 -1.08981 -0.94123 0
M  V30 4429 H 419.301 -1.06061 -4.07835 0
M  V30 4430 H 418.025 -0.122195 -3.26371 0
M  V30 4431 H 416.684 -2.22568 -2.91306 0
M  V30 4432 H 416.332 -0.833249 -4.9605 0
M  V30 4433 H 416.032 -2.5581 -5.28995 0
M  V30 4434 H 417.556 -1.80108 -5.83432 0
M  V30 4435 H 418.97 -3.60676 -4.4563 0
M  V30 4436 H 417.367 -4.33577 -4.14887 0
M  V30 4437 H 418.437 -3.97065 -2.78329 0
M  V30 4438 N 419.78 1.02168 -1.19998 0
M  V30 4439 C 420.71 2.12488 -0.96804 0
M  V30 4440 C 421.691 1.69799 0.101185 0
M  V30 4441 O 422.876 1.94121 -0.0552993 0
M  V30 4442 C 420.006 3.43479 -0.513776 0
M  V30 4443 C 418.96 3.99884 -1.52566 0
M  V30 4444 C 418.286 5.26582 -0.928214 0
M  V30 4445 C 419.586 4.33861 -2.90795 0
M  V30 4446 H 421.28 2.32149 -1.89069 0
M  V30 4447 H 418.826 1.11564 -0.910468 0
M  V30 4448 H 420.779 4.20036 -0.338774 0
M  V30 4449 H 419.503 3.23561 0.444493 0
M  V30 4450 H 418.162 3.25429 -1.68794 0
M  V30 4451 H 417.81 5.02986 0.0378289 0
M  V30 4452 H 417.51 5.65284 -1.60397 0
M  V30 4453 H 419.034 6.05799 -0.764167 0
M  V30 4454 H 420.448 5.01327 -2.78109 0
M  V30 4455 H 418.845 4.83664 -3.55231 0
M  V30 4456 H 419.915 3.42848 -3.42904 0
M  V30 4457 N 421.258 1.00505 1.21394 0
M  V30 4458 C 422.535 0.603277 1.86064 0
M  V30 4459 C 422.915 -0.919095 1.90042 0
M  V30 4460 O 422.263 -1.80607 1.39977 0
M  V30 4461 C 422.473 1.23772 3.26315 0
M  V30 4462 C 423.821 1.34586 4.02705 0
M  V30 4463 O 424.845 1.19304 3.35626 0
M  V30 4464 O 423.704 1.59169 5.22807 0
M  V30 4465 H 420.798 0.206634 0.800769 0
M  V30 4466 H 423.344 1.1017 1.29076 0
M  V30 4467 H 422.116 2.27848 3.18121 0
M  V30 4468 H 421.739 0.725648 3.90922 0
M  V30 4469 N 422.737 -1.36956 0.779787 0
M  V30 4470 C 423.983 -1.99787 0.348281 0
M  V30 4471 C 424.316 -1.61756 -1.07465 0
M  V30 4472 O 423.591 -0.867639 -1.74075 0
M  V30 4473 C 423.874 -3.56597 0.50104 0
M  V30 4474 C 423.727 -4.04513 1.96697 0
M  V30 4475 C 425.046 -4.40008 -0.0898097 0
M  V30 4476 H 422.165 -0.725796 0.128022 0
M  V30 4477 H 424.807 -1.62514 0.984331 0
M  V30 4478 H 422.957 -3.88479 -0.0404347 0
M  V30 4479 H 424.629 -3.83161 2.56876 0
M  V30 4480 H 422.872 -3.56408 2.47297 0
M  V30 4481 H 423.543 -5.1352 2.02486 0
M  V30 4482 H 426.019 -4.14431 0.372293 0
M  V30 4483 H 424.895 -5.4888 0.0471605 0
M  V30 4484 H 425.156 -4.26035 -1.18096 0
M  V30 4485 N 424.215 -0.530993 -1.48385 0
M  V30 4486 C 425.443 -0.00134122 -2.069 0
M  V30 4487 C 425.858 1.2805 -1.3874 0
M  V30 4488 O 425.215 1.76204 -0.475244 0
M  V30 4489 C 425.266 0.225256 -3.60798 0
M  V30 4490 O 424.987 -1.0058 -4.26398 0
M  V30 4491 C 426.488 0.795172 -4.3611 0
M  V30 4492 H 423.708 -0.0339704 -0.67014 0
M  V30 4493 H 426.252 -0.736926 -1.90761 0
M  V30 4494 H 424.407 0.910891 -3.76539 0
M  V30 4495 H 424.821 -0.787165 -5.1856 0
M  V30 4496 H 426.295 0.903143 -5.44562 0
M  V30 4497 H 426.772 1.80031 -4.00606 0
M  V30 4498 H 427.378 0.146069 -4.25049 0
M  V30 4499 N 425.693 1.55336 -0.266172 0
M  V30 4500 C 427.109 1.59356 0.0882065 0
M  V30 4501 C 427.309 1.2834 1.55342 0
M  V30 4502 O 426.365 1.03996 2.30089 0
M  V30 4503 C 427.678 2.99409 -0.278364 0
M  V30 4504 C 429.226 3.12196 -0.224243 0
M  V30 4505 C 429.701 4.545 -0.565123 0
M  V30 4506 N 431.192 4.60313 -0.51634 0
M  V30 4507 C 431.927 5.68434 -0.753013 0
M  V30 4508 N 431.423 6.84738 -1.05383 0
M  V30 4509 N 433.216 5.57942 -0.682414 0
M  V30 4510 H 425.367 1.73764 -1.22147 0
M  V30 4511 H 427.63 0.809822 -0.492841 0
M  V30 4512 H 427.336 3.2691 -1.29703 0
M  V30 4513 H 427.21 3.75228 0.385186 0
M  V30 4514 H 429.597 2.84464 0.78512 0
M  V30 4515 H 429.678 2.38609 -0.921922 0
M  V30 4516 H 429.322 4.82956 -1.57213 0
M  V30 4517 H 429.252 5.26374 0.154248 0
M  V30 4518 H 431.743 3.7676 -0.29335 0
M  V30 4519 H 432.056 7.63088 -1.22133 0
M  V30 4520 H 430.401 6.86375 -1.09151 0
M  V30 4521 H 433.592 4.65958 -0.44731 0
M  V30 4522 H 433.765 6.4213 -0.870248 0
M  V30 4523 N 427.171 -0.0066808 1.57599 0
M  V30 4524 C 428.101 -0.999296 2.11036 0
M  V30 4525 C 429.082 -1.36278 1.01795 0
M  V30 4526 O 430.267 -1.4477 1.29442 0
M  V30 4527 C 427.397 -2.29328 2.60818 0
M  V30 4528 C 426.351 -2.07159 3.74525 0
M  V30 4529 C 425.677 -3.42512 4.10596 0
M  V30 4530 C 426.977 -1.43959 5.02069 0
M  V30 4531 H 428.671 -0.554382 2.94223 0
M  V30 4532 H 426.217 -0.265221 1.41536 0
M  V30 4533 H 428.17 -2.99117 2.96828 0
M  V30 4534 H 426.894 -2.7592 1.74745 0
M  V30 4535 H 425.553 -1.39797 3.38899 0
M  V30 4536 H 425.201 -3.86795 3.21556 0
M  V30 4537 H 424.901 -3.28498 4.87199 0
M  V30 4538 H 426.425 -4.13628 4.4916 0
M  V30 4539 H 427.839 -2.03696 5.35893 0
M  V30 4540 H 426.236 -1.40452 5.83432 0
M  V30 4541 H 427.306 -0.407992 4.83181 0
M  V30 4542 N 428.649 -1.55105 -0.279332 0
M  V30 4543 C 429.599 -1.83937 -1.34727 0
M  V30 4544 C 430.583 -0.69785 -1.44979 0
M  V30 4545 O 431.775 -0.95904 -1.48766 0
M  V30 4546 C 428.904 -2.1092 -2.70864 0
M  V30 4547 C 427.99 -3.31314 -2.64748 0
M  V30 4548 N 428.381 -4.51371 -2.2825 0
M  V30 4549 C 426.679 -3.33777 -2.95819 0
M  V30 4550 C 427.38 -5.33447 -2.31969 0
M  V30 4551 N 426.356 -4.71697 -2.7019 0
M  V30 4552 H 430.158 -2.74309 -1.05506 0
M  V30 4553 H 427.672 -1.54896 -0.487959 0
M  V30 4554 H 429.669 -2.2973 -3.47893 0
M  V30 4555 H 428.329 -1.21828 -3.00979 0
M  V30 4556 H 429.34 -4.77584 -2.00335 0
M  V30 4557 H 426.017 -2.54858 -3.30687 0
M  V30 4558 H 427.407 -6.39424 -2.06365 0
M  V30 4559 N 430.127 0.543554 -1.4793 0
M  V30 4560 C 431.059 1.665 -1.57513 0
M  V30 4561 C 432.072 1.56156 -0.460333 0
M  V30 4562 O 433.261 1.62865 -0.730573 0
M  V30 4563 C 430.361 3.05063 -1.47614 0
M  V30 4564 C 429.534 3.41024 -2.739 0
M  V30 4565 C 428.593 4.58809 -2.57645 0
M  V30 4566 O 427.619 4.62707 -3.31498 0
M  V30 4567 N 428.821 5.56149 -1.66368 0
M  V30 4568 H 431.586 1.5872 -2.5422 0
M  V30 4569 H 429.147 0.730517 -1.44482 0
M  V30 4570 H 431.139 3.81712 -1.34455 0
M  V30 4571 H 429.709 3.06994 -0.589359 0
M  V30 4572 H 428.929 2.53687 -3.01723 0
M  V30 4573 H 430.217 3.61831 -3.57709 0
M  V30 4574 H 429.615 5.55767 -1.05543 0
M  V30 4575 H 428.172 6.32071 -1.59154 0
M  V30 4576 N 431.605 1.3629 0.791371 0
M  V30 4577 C 432.535 1.33137 1.91825 0
M  V30 4578 C 433.516 0.203168 1.68882 0
M  V30 4579 O 434.701 0.400509 1.90025 0
M  V30 4580 C 431.831 1.11793 3.28816 0
M  V30 4581 C 430.785 2.21417 3.66277 0
M  V30 4582 C 430.111 1.85218 5.01596 0
M  V30 4583 C 431.411 3.63489 3.75064 0
M  V30 4584 H 433.105 2.2743 1.9472 0
M  V30 4585 H 430.651 1.09479 0.935437 0
M  V30 4586 H 432.604 1.08222 4.07266 0
M  V30 4587 H 431.328 0.139501 3.26302 0
M  V30 4588 H 429.987 2.2411 2.90121 0
M  V30 4589 H 429.635 0.859544 4.95602 0
M  V30 4590 H 429.335 2.58611 5.27631 0
M  V30 4591 H 430.859 1.832 5.82469 0
M  V30 4592 H 432.273 3.63034 4.43711 0
M  V30 4593 H 430.67 4.35771 4.12582 0
M  V30 4594 H 431.74 3.98536 2.76219 0
M  V30 4595 N 433.083 -1.0153 1.20538 0
M  V30 4596 C 434.331 -1.74803 1.01432 0
M  V30 4597 C 434.652 -1.8963 -0.454456 0
M  V30 4598 O 433.922 -1.43975 -1.32846 0
M  V30 4599 H 432.502 -0.647598 0.372324 0
M  V30 4600 H 435.164 -1.22402 1.5167 0
M  V30 4601 H 434.26 -2.75114 1.47373 0
M  V30 4602 N 434.561 -1.01147 -1.20859 0
M  V30 4603 C 435.807 -0.708598 -1.90658 0
M  V30 4604 C 436.162 0.753069 -1.7705 0
M  V30 4605 O 435.455 1.53952 -1.14059 0
M  V30 4606 C 435.649 -1.0727 -3.40922 0
M  V30 4607 C 435.478 -2.56821 -3.69152 0
M  V30 4608 C 434.248 -3.23524 -3.8815 0
M  V30 4609 C 436.446 -3.54997 -3.72131 0
M  V30 4610 N 434.428 -4.62359 -4.03853 0
M  V30 4611 C 435.799 -4.79371 -3.93196 0
M  V30 4612 C 437.854 -3.49042 -3.55069 0
M  V30 4613 C 436.557 -5.98512 -3.98969 0
M  V30 4614 C 438.583 -4.67579 -3.6211 0
M  V30 4615 C 437.945 -5.9076 -3.83643 0
M  V30 4616 H 434.044 -0.31088 -0.71755 0
M  V30 4617 H 436.628 -1.29526 -1.45366 0
M  V30 4618 H 434.799 -0.51443 -3.84978 0
M  V30 4619 H 436.531 -0.723891 -3.98173 0
M  V30 4620 H 433.286 -2.73958 -3.86321 0
M  V30 4621 H 433.71 -5.34427 -4.15592 0
M  V30 4622 H 438.352 -2.54808 -3.37391 0
M  V30 4623 H 436.07 -6.93132 -4.15444 0
M  V30 4624 H 439.656 -4.64581 -3.50222 0
M  V30 4625 H 438.536 -6.8095 -3.88944 0
M  V30 4626 N 436.039 1.36541 -0.78704 0
M  V30 4627 C 437.269 2.03266 -0.369662 0
M  V30 4628 C 437.677 1.59481 1.01796 0
M  V30 4629 O 437.02 0.778612 1.66383 0
M  V30 4630 C 437.082 3.57779 -0.351371 0
M  V30 4631 C 436.746 4.24756 -1.68617 0
M  V30 4632 C 437.743 4.47811 -2.64124 0
M  V30 4633 C 435.428 4.62277 -1.96481 0
M  V30 4634 C 437.422 5.07464 -3.85693 0
M  V30 4635 C 435.109 5.21649 -3.18317 0
M  V30 4636 C 436.107 5.44182 -4.12741 0
M  V30 4637 O 435.795 6.02307 -5.32429 0
M  V30 4638 H 435.527 0.658977 -0.150751 0
M  V30 4639 H 438.081 1.75548 -1.0664 0
M  V30 4640 H 436.311 3.84606 0.401847 0
M  V30 4641 H 438 4.05879 0.0410147 0
M  V30 4642 H 438.766 4.19221 -2.43883 0
M  V30 4643 H 434.645 4.44065 -1.23805 0
M  V30 4644 H 438.189 5.24968 -4.59407 0
M  V30 4645 H 434.086 5.49664 -3.38437 0
M  V30 4646 H 434.854 6.20775 -5.33461 0
M  V30 4647 N 437.518 0.538854 1.48102 0
M  V30 4648 C 438.468 -0.23907 2.26743 0
M  V30 4649 C 439.452 -0.901923 1.33245 0
M  V30 4650 O 440.644 -0.803263 1.57723 0
M  V30 4651 C 437.773 -1.2799 3.18549 0
M  V30 4652 C 436.859 -0.621388 4.19523 0
M  V30 4653 N 437.25 0.298004 5.04921 0
M  V30 4654 C 435.548 -0.877533 4.37282 0
M  V30 4655 C 436.249 0.678757 5.77726 0
M  V30 4656 N 435.225 0.0377881 5.43587 0
M  V30 4657 H 439.027 0.468096 2.90148 0
M  V30 4658 H 436.541 0.357497 1.58416 0
M  V30 4659 H 438.538 -1.851 3.73555 0
M  V30 4660 H 437.198 -1.98835 2.567 0
M  V30 4661 H 438.209 0.671126 5.13533 0
M  V30 4662 H 434.886 -1.57588 3.86616 0
M  V30 4663 H 436.276 1.43316 6.56437 0
M  V30 4664 N 438.996 -1.55193 0.274407 0
M  V30 4665 C 439.906 -2.26164 -0.623473 0
M  V30 4666 C 440.922 -1.28729 -1.17068 0
M  V30 4667 O 442.098 -1.61663 -1.20112 0
M  V30 4668 C 439.163 -2.96833 -1.7914 0
M  V30 4669 C 438.224 -4.09745 -1.28093 0
M  V30 4670 C 437.457 -4.77034 -2.3932 0
M  V30 4671 O 437.68 -4.4353 -3.5866 0
M  V30 4672 O 436.614 -5.64996 -2.07516 0
M  V30 4673 H 440.44 -3.03661 -0.0485661 0
M  V30 4674 H 438.025 -1.49341 0.0418382 0
M  V30 4675 H 439.907 -3.41248 -2.4724 0
M  V30 4676 H 438.582 -2.22253 -2.35341 0
M  V30 4677 H 437.489 -3.69787 -0.566416 0
M  V30 4678 H 438.822 -4.86224 -0.764683 0
M  V30 4679 N 440.474 -0.00167713 -1.576 0
M  V30 4680 C 441.723 0.682021 -1.89819 0
M  V30 4681 C 442.036 1.74844 -0.876871 0
M  V30 4682 O 443.242 2.48688 -1.08934 0
M  V30 4683 C 441.698 1.26425 -3.36964 0
M  V30 4684 C 441.306 0.232568 -4.47396 0
M  V30 4685 C 443.05 1.92604 -3.78291 0
M  V30 4686 C 440.957 0.824882 -5.85619 0
M  V30 4687 H 439.887 0.258499 -0.708304 0
M  V30 4688 H 442.538 -0.0624957 -1.83394 0
M  V30 4689 H 440.92 2.05949 -3.38232 0
M  V30 4690 H 442.094 -0.5382 -4.57646 0
M  V30 4691 H 440.409 -0.32888 -4.15099 0
M  V30 4692 H 443.006 2.37827 -4.78897 0
M  V30 4693 H 443.349 2.75732 -3.11894 0
M  V30 4694 H 443.882 1.19812 -3.79328 0
M  V30 4695 H 440.621 0.0323542 -6.55492 0
M  V30 4696 H 440.141 1.56477 -5.79029 0
M  V30 4697 H 441.82 1.32301 -6.33329 0
M  V30 4698 N 441.952 1.55251 0.271103 0
M  V30 4699 C 443.177 1.80306 1.02491 0
M  V30 4700 C 443.602 0.575457 1.79081 0
M  V30 4701 O 442.96 -0.474987 1.74967 0
M  V30 4702 C 443.008 3.02832 1.95768 0
M  V30 4703 O 442.112 2.78051 3.04568 0
M  V30 4704 H 441.453 0.595896 0.292923 0
M  V30 4705 H 443.983 2.02397 0.299436 0
M  V30 4706 H 443.993 3.31616 2.37686 0
M  V30 4707 H 442.668 3.9183 1.39434 0
M  V30 4708 H 441.245 2.60369 2.66951 0
M  V30 4709 N 443.43 -0.535701 1.48216 0
M  V30 4710 C 444.36 -1.65014 1.65204 0
M  V30 4711 C 445.341 -1.62554 0.501011 0
M  V30 4712 O 446.526 -1.7984 0.732886 0
M  V30 4713 C 443.656 -3.03616 1.68626 0
M  V30 4714 C 442.61 -3.20932 2.83172 0
M  V30 4715 C 441.936 -4.60537 2.71679 0
M  V30 4716 C 443.236 -3.04249 4.24535 0
M  V30 4717 H 444.93 -1.51053 2.58502 0
M  V30 4718 H 442.476 -0.725262 1.24402 0
M  V30 4719 H 444.429 -3.81446 1.79099 0
M  V30 4720 H 443.153 -3.18587 0.719026 0
M  V30 4721 H 441.812 -2.45517 2.72244 0
M  V30 4722 H 441.46 -4.72336 1.72937 0
M  V30 4723 H 441.16 -4.73069 3.48538 0
M  V30 4724 H 442.684 -5.40475 2.84112 0
M  V30 4725 H 444.098 -3.71877 4.36326 0
M  V30 4726 H 442.495 -3.28278 5.02348 0
M  V30 4727 H 443.565 -2.00739 4.41397 0
M  V30 4728 N 444.908 -1.36708 -0.784132 0
M  V30 4729 C 445.818 -1.3363 -1.92822 0
M  V30 4730 C 446.834 -0.237686 -1.72369 0
M  V30 4731 O 448.01 -0.470962 -1.95816 0
M  V30 4732 C 445.075 -1.13011 -3.27764 0
M  V30 4733 C 444.136 -2.32397 -3.60957 0
M  V30 4734 C 443.369 -2.12752 -4.89461 0
M  V30 4735 O 443.592 -1.10541 -5.59586 0
M  V30 4736 O 442.526 -3.00653 -5.21432 0
M  V30 4737 H 446.352 -2.29964 -1.98369 0
M  V30 4738 H 443.937 -1.1731 -0.925136 0
M  V30 4739 H 445.819 -1.03451 -4.08504 0
M  V30 4740 H 444.494 -0.19743 -3.23097 0
M  V30 4741 H 443.401 -2.47527 -2.80502 0
M  V30 4742 H 444.734 -3.2419 -3.70354 0
M  V30 4743 N 446.386 1.0089 -1.21074 0
M  V30 4744 C 447.349 2.0775 -0.968129 0
M  V30 4745 C 448.349 1.6069 0.0593445 0
M  V30 4746 O 449.539 1.73293 -0.177525 0
M  V30 4747 C 446.671 3.37794 -0.459108 0
M  V30 4748 H 447.864 2.30707 -1.9161 0
M  V30 4749 H 445.417 1.17807 -1.02719 0
M  V30 4750 H 446.152 3.20516 0.49397 0
M  V30 4751 H 445.937 3.7328 -1.20019 0
M  V30 4752 H 447.427 4.16454 -0.309099 0
M  V30 4753 N 447.864 1.01787 1.20321 0
M  V30 4754 C 449.112 0.706538 1.89347 0
M  V30 4755 C 449.433 -0.766289 1.79313 0
M  V30 4756 O 448.703 -1.55126 1.19635 0
M  V30 4757 H 447.283 0.258348 0.700903 0
M  V30 4758 H 449.945 1.28974 1.46122 0
M  V30 4759 H 449.041 0.991066 2.95946 0
M  V30 4760 N 449.342 -1.36122 0.79427 0
M  V30 4761 C 450.272 -2.32551 0.210328 0
M  V30 4762 C 451.253 -1.56884 -0.657386 0
M  V30 4763 O 452.438 -1.85014 -0.590207 0
M  V30 4764 C 449.568 -3.41128 -0.651819 0
M  V30 4765 C 448.522 -4.27842 0.116395 0
M  V30 4766 C 447.848 -5.2763 -0.86666 0
M  V30 4767 C 449.148 -5.05647 1.30837 0
M  V30 4768 H 450.842 -2.81636 1.01594 0
M  V30 4769 H 448.388 -1.35407 0.489981 0
M  V30 4770 H 450.341 -4.07581 -1.07031 0
M  V30 4771 H 449.065 -2.90622 -1.49019 0
M  V30 4772 H 447.724 -3.62952 0.515915 0
M  V30 4773 H 447.372 -4.73395 -1.70019 0
M  V30 4774 H 447.072 -5.86514 -0.35705 0
M  V30 4775 H 448.596 -5.96955 -1.28361 0
M  V30 4776 H 450.01 -5.65113 0.965393 0
M  V30 4777 H 448.407 -5.73967 1.75161 0
M  V30 4778 H 449.477 -4.37006 2.10128 0
M  V30 4779 N 450.82 -0.546701 -1.47814 0
M  V30 4780 C 451.783 0.196287 -2.28358 0
M  V30 4781 C 452.783 0.852437 -1.36346 0
M  V30 4782 O 453.973 0.709913 -1.59078 0
M  V30 4783 C 451.105 1.28579 -3.15722 0
M  V30 4784 H 452.298 -0.511086 -2.95513 0
M  V30 4785 H 449.851 -0.303248 -1.5333 0
M  V30 4786 H 450.586 2.0259 -2.53235 0
M  V30 4787 H 450.371 0.820229 -3.83425 0
M  V30 4788 H 451.861 1.80793 -3.76435 0
M  V30 4789 N 452.299 1.55045 -0.282633 0
M  V30 4790 C 453.524 2.04628 0.337977 0
M  V30 4791 C 453.949 1.15937 1.48123 0
M  V30 4792 O 453.307 0.159532 1.80597 0
M  V30 4793 C 453.355 3.51854 0.78936 0
M  V30 4794 O 452.459 3.66236 1.89592 0
M  V30 4795 H 451.8 0.660434 0.0687261 0
M  V30 4796 H 454.33 2.00261 -0.419124 0
M  V30 4797 H 454.34 3.93361 1.08311 0
M  V30 4798 H 453.015 4.15873 -0.0470419 0
M  V30 4799 H 451.592 3.36633 1.60413 0
M  V30 4800 N 453.777 0.010035 1.57597 0
M  V30 4801 C 455.005 -0.683413 1.95287 0
M  V30 4802 C 455.42 -1.66747 0.885481 0
M  V30 4803 O 454.777 -1.82003 -0.134629 0
M  V30 4804 C 454.828 -1.40652 3.33015 0
M  V30 4805 O 454.549 -0.461916 4.35658 0
M  V30 4806 C 456.05 -2.19356 3.85225 0
M  V30 4807 H 453.27 -0.189708 0.643624 0
M  V30 4808 H 455.814 0.0641359 2.04399 0
M  V30 4809 H 453.969 -2.10562 3.2518 0
M  V30 4810 H 454.383 -0.973215 5.15392 0
M  V30 4811 H 455.857 -2.65433 4.83993 0
M  V30 4812 H 456.334 -3.02457 3.18459 0
M  V30 4813 H 456.94 -1.54442 3.96267 0
M  V30 4814 N 455.255 -1.55392 -0.262866 0
M  V30 4815 C 456.485 -1.80251 -1.00961 0
M  V30 4816 C 456.893 -0.58117 -1.80053 0
M  V30 4817 O 456.236 0.459427 -1.77862 0
M  V30 4818 C 456.298 -2.98207 -2.00781 0
M  V30 4819 C 455.962 -4.34856 -1.40533 0
M  V30 4820 C 456.959 -5.13459 -0.815853 0
M  V30 4821 C 454.644 -4.8153 -1.42948 0
M  V30 4822 C 456.638 -6.36875 -0.258562 0
M  V30 4823 C 454.325 -6.04899 -0.868334 0
M  V30 4824 C 455.323 -6.8241 -0.283884 0
M  V30 4825 O 455.011 -8.03451 0.268644 0
M  V30 4826 H 454.743 -0.604049 -0.303482 0
M  V30 4827 H 457.297 -2.03257 -0.295926 0
M  V30 4828 H 455.527 -2.70917 -2.75936 0
M  V30 4829 H 457.216 -3.10299 -2.61667 0
M  V30 4830 H 457.982 -4.78526 -0.789812 0
M  V30 4831 H 453.861 -4.21201 -1.87378 0
M  V30 4832 H 457.405 -6.97318 0.198257 0
M  V30 4833 H 453.302 -6.39312 -0.891649 0
M  V30 4834 H 454.07 -8.18346 0.158974 0
M  V30 4835 N 456.733 0.527833 -1.48498 0
M  V30 4836 C 457.665 1.6482 -1.5927 0
M  V30 4837 C 458.678 1.55659 -0.476869 0
M  V30 4838 O 459.867 1.62081 -0.747806 0
M  V30 4839 C 456.967 3.0348 -1.50842 0
M  V30 4840 C 456.14 3.381 -2.77502 0
M  V30 4841 C 455.199 4.5605 -2.62497 0
M  V30 4842 O 454.225 4.59165 -3.36387 0
M  V30 4843 N 455.427 5.54353 -1.72257 0
M  V30 4844 H 458.192 1.56015 -2.55889 0
M  V30 4845 H 455.753 0.715152 -1.45249 0
M  V30 4846 H 457.745 3.80264 -1.38496 0
M  V30 4847 H 456.315 3.06352 -0.621887 0
M  V30 4848 H 455.535 2.50473 -3.04396 0
M  V30 4849 H 456.823 3.58017 -3.61527 0
M  V30 4850 H 456.221 5.54617 -1.11431 0
M  V30 4851 H 454.778 6.30347 -1.65849 0
M  V30 4852 N 458.211 1.37122 0.776871 0
M  V30 4853 C 459.457 1.3325 1.53675 0
M  V30 4854 C 459.812 -0.0839891 1.92217 0
M  V30 4855 O 459.105 -1.04145 1.60824 0
M  V30 4856 C 459.299 2.20068 2.81611 0
M  V30 4857 C 459.128 3.70016 2.55574 0
M  V30 4858 C 457.898 4.39144 2.4996 0
M  V30 4859 C 460.096 4.62996 2.23917 0
M  V30 4860 N 458.078 5.74663 2.15953 0
M  V30 4861 C 459.449 5.86854 2.00005 0
M  V30 4862 C 461.504 4.51433 2.1003 0
M  V30 4863 C 460.207 7.00446 1.63609 0
M  V30 4864 C 462.233 5.64905 1.75033 0
M  V30 4865 C 461.595 6.8781 1.51977 0
M  V30 4866 H 457.694 0.542878 0.562856 0
M  V30 4867 H 460.278 1.72295 0.906784 0
M  V30 4868 H 458.449 1.83248 3.42454 0
M  V30 4869 H 460.181 2.07492 3.47461 0
M  V30 4870 H 456.936 3.92088 2.65639 0
M  V30 4871 H 457.36 6.46268 2.0166 0
M  V30 4872 H 462.002 3.56987 2.26539 0
M  V30 4873 H 459.72 7.94831 1.45837 0
M  V30 4874 H 463.306 5.57926 1.64952 0
M  V30 4875 H 462.186 7.74126 1.25296 0
M  V30 4876 N 459.689 -1.00246 1.21608 0
M  V30 4877 C 460.936 -1.74061 1.03485 0
M  V30 4878 C 461.264 -1.89658 -0.431308 0
M  V30 4879 O 460.519 -1.42976 -1.33627 0
M  V30 4880 C 460.818 -3.15448 1.68009 0
M  V30 4881 C 460.484 -3.19792 3.17874 0
M  V30 4882 C 459.146 -3.20685 3.58768 0
M  V30 4883 C 461.498 -3.16835 4.13842 0
M  V30 4884 C 458.826 -3.16309 4.94131 0
M  V30 4885 C 461.178 -3.14001 5.49169 0
M  V30 4886 C 459.842 -3.13204 5.89457 0
M  V30 4887 H 459.112 -0.636934 0.378677 0
M  V30 4888 H 461.759 -1.17473 1.51236 0
M  V30 4889 H 460.064 -3.75284 1.12557 0
M  V30 4890 H 461.761 -3.71285 1.51487 0
M  V30 4891 H 458.351 -3.19842 2.85305 0
M  V30 4892 H 462.535 -3.15303 3.83272 0
M  V30 4893 H 457.791 -3.14032 5.24589 0
M  V30 4894 H 461.965 -3.10667 6.23265 0
M  V30 4895 H 459.592 -3.09568 6.94314 0
M  V30 4896 N 461.167 -1.02423 -1.1978 0
M  V30 4897 C 462.097 -0.62157 -2.25075 0
M  V30 4898 C 463.078 0.367148 -1.6609 0
M  V30 4899 O 464.263 0.250892 -1.92573 0
M  V30 4900 C 461.393 0.0331826 -3.47284 0
M  V30 4901 C 460.347 -0.877323 -4.18912 0
M  V30 4902 C 459.673 -0.0879296 -5.34628 0
M  V30 4903 C 460.973 -2.18892 -4.74219 0
M  V30 4904 H 462.667 -1.50179 -2.59011 0
M  V30 4905 H 460.213 -0.723547 -1.24502 0
M  V30 4906 H 462.166 0.326488 -4.20133 0
M  V30 4907 H 460.89 0.948164 -3.12534 0
M  V30 4908 H 459.549 -1.15475 -3.47938 0
M  V30 4909 H 459.197 0.828941 -4.96123 0
M  V30 4910 H 458.897 -0.694359 -5.83483 0
M  V30 4911 H 460.421 0.198743 -6.10276 0
M  V30 4912 H 461.835 -1.95746 -5.38847 0
M  V30 4913 H 460.232 -2.74686 -5.33542 0
M  V30 4914 H 461.302 -2.84674 -3.92541 0
M  V30 4915 N 462.645 1.35699 -0.801477 0
M  V30 4916 C 463.555 2.33661 -0.209691 0
M  V30 4917 C 464.571 1.6162 0.644591 0
M  V30 4918 O 465.747 1.93529 0.557545 0
M  V30 4919 C 462.812 3.40816 0.636033 0
M  V30 4920 C 461.873 4.28639 -0.238147 0
M  V30 4921 C 461.106 5.30676 0.567307 0
M  V30 4922 O 461.329 5.41174 1.8024 0
M  V30 4923 O 460.263 6.01887 -0.0391336 0
M  V30 4924 H 464.089 2.8606 -1.01996 0
M  V30 4925 H 461.674 1.38379 -0.563164 0
M  V30 4926 H 463.556 4.06301 1.11791 0
M  V30 4927 H 462.231 2.90696 1.42399 0
M  V30 4928 H 461.138 3.66152 -0.767044 0
M  V30 4929 H 462.471 4.82143 -0.989915 0
M  V30 4930 N 464.123 0.554532 1.47522 0
M  V30 4931 C 465.071 -0.207765 2.3167 0
M  V30 4932 C 466.065 -0.911914 1.4276 0
M  V30 4933 O 467.271 -0.833504 1.59539 0
M  V30 4934 H 463.646 -0.0858726 0.747081 0
M  V30 4935 H 465.617 0.521178 2.93813 0
M  V30 4936 C 464.366 -1.2263 3.25357 0
M  V30 4937 H 463.689 -0.693887 3.93732 0
M  V30 4938 H 465.129 -1.73062 3.87073 0
M  V30 4939 C 463.588 -2.27278 2.4869 0
M  V30 4940 O 464.118 -3.34156 2.22941 0
M  V30 4941 N 462.324 -2.01134 2.09746 0
M  V30 4942 H 461.871 -1.14232 2.30887 0
M  V30 4943 H 461.829 -2.71369 1.58765 0
M  V30 4944 N 465.601 -1.54893 0.290851 0
M  V30 4945 C 466.533 -2.20564 -0.623236 0
M  V30 4946 C 467.546 -1.19519 -1.1054 0
M  V30 4947 O 468.735 -1.46165 -1.02459 0
M  V30 4948 C 465.835 -2.83033 -1.86401 0
M  V30 4949 C 465.008 -4.09916 -1.52604 0
M  V30 4950 C 464.067 -4.56284 -2.62091 0
M  V30 4951 O 463.093 -5.2171 -2.27612 0
M  V30 4952 N 464.295 -4.27746 -3.92446 0
M  V30 4953 H 467.06 -2.99638 -0.0610915 0
M  V30 4954 H 464.621 -1.61508 0.112615 0
M  V30 4955 H 466.613 -3.1099 -2.58973 0
M  V30 4956 H 465.183 -2.0786 -2.33481 0
M  V30 4957 H 464.403 -3.89078 -0.633424 0
M  V30 4958 H 465.691 -4.92554 -1.27547 0
M  V30 4959 H 465.089 -3.7531 -4.23272 0
M  V30 4960 H 463.646 -4.60437 -4.61347 0
M  V30 4961 N 467.08 -0.0183926 -1.57589 0
M  V30 4962 C 468.357 0.700621 -1.82622 0
M  V30 4963 C 468.737 1.90951 -0.90005 0
M  V30 4964 O 468.085 2.28452 0.0469145 0
M  V30 4965 C 468.295 1.08899 -3.31575 0
M  V30 4966 C 469.643 1.48514 -3.9778 0
M  V30 4967 O 470.667 1.18227 -3.36007 0
M  V30 4968 O 469.526 2.04903 -5.06633 0
M  V30 4969 H 466.62 0.342743 -0.752633 0
M  V30 4970 H 469.166 -0.0452548 -1.6964 0
M  V30 4971 H 467.938 0.228113 -3.90635 0
M  V30 4972 H 467.561 1.89338 -3.49624 0
M  V30 4973 N 468.558 1.5553 0.254621 0
M  V30 4974 C 469.974 1.4778 0.602753 0
M  V30 4975 C 470.174 0.707047 1.88688 0
M  V30 4976 O 469.23 0.233288 2.5142 0
M  V30 4977 C 470.543 2.92133 0.712648 0
M  V30 4978 C 472.091 3.02458 0.805488 0
M  V30 4979 C 472.566 4.48102 0.947009 0
M  V30 4980 N 474.057 4.52008 1.01207 0
M  V30 4981 C 474.792 5.61939 1.1407 0
M  V30 4982 N 474.288 6.81697 1.23536 0
M  V30 4983 N 476.081 5.49719 1.17325 0
M  V30 4984 H 468.232 2.04085 -0.588463 0
M  V30 4985 H 470.495 0.926229 -0.202001 0
M  V30 4986 H 470.201 3.51332 -0.160766 0
M  V30 4987 H 470.075 3.42187 1.58707 0
M  V30 4988 H 472.462 2.43344 1.66936 0
M  V30 4989 H 472.543 2.55627 -0.0939266 0
M  V30 4990 H 472.187 5.07824 0.087725 0
M  V30 4991 H 472.117 4.92607 1.86135 0
M  V30 4992 H 474.608 3.65749 0.950577 0
M  V30 4993 H 474.921 7.61228 1.33236 0
M  V30 4994 H 473.266 6.84473 1.20508 0
M  V30 4995 H 476.457 4.55095 1.09573 0
M  V30 4996 H 476.63 6.35432 1.27005 0
M  V30 4997 N 470.036 -0.519951 1.48776 0
M  V30 4998 C 471.283 -1.27522 1.57303 0
M  V30 4999 C 471.611 -1.92869 0.251328 0
M  V30 5000 O 470.866 -1.80372 -0.759243 0
M  V30 5001 C 471.165 -2.37864 2.6675 0
M  V30 5002 C 470.831 -1.90103 4.08867 0
M  V30 5003 C 469.493 -1.76795 4.47546 0
M  V30 5004 C 471.845 -1.54133 4.97888 0
M  V30 5005 C 469.173 -1.25868 5.73039 0
M  V30 5006 C 471.525 -1.04665 6.23881 0
M  V30 5007 C 470.189 -0.899823 6.61407 0
M  V30 5008 H 469.459 -0.466636 0.575614 0
M  V30 5009 H 472.106 -0.579109 1.82534 0
M  V30 5010 H 470.411 -3.13186 2.35418 0
M  V30 5011 H 472.108 -2.95969 2.70561 0
M  V30 5012 H 468.698 -2.01414 3.78326 0
M  V30 5013 H 472.882 -1.6327 4.68675 0
M  V30 5014 H 468.138 -1.13196 6.0083 0
M  V30 5015 H 472.312 -0.759074 6.92251 0
M  V30 5016 H 469.939 -0.503011 7.58534 0
M  V30 5017 N 471.514 -1.37532 -0.769588 0
M  V30 5018 C 472.93 -1.18379 -1.07045 0
M  V30 5019 C 473.13 -0.0214312 -2.01489 0
M  V30 5020 O 472.186 0.637809 -2.44312 0
M  V30 5021 C 473.499 -2.50338 -1.66588 0
M  V30 5022 C 475.047 -2.56879 -1.78835 0
M  V30 5023 C 475.522 -3.88974 -2.41792 0
M  V30 5024 N 477.013 -3.90428 -2.4924 0
M  V30 5025 C 477.748 -4.89388 -2.98809 0
M  V30 5026 N 477.244 -5.98745 -3.48535 0
M  V30 5027 N 479.037 -4.76791 -2.97703 0
M  V30 5028 H 471.188 -2.11921 -0.142541 0
M  V30 5029 H 473.451 -0.939608 -0.125863 0
M  V30 5030 H 473.157 -3.35767 -1.0466 0
M  V30 5031 H 473.031 -2.67583 -2.65856 0
M  V30 5032 H 475.418 -1.71856 -2.39895 0
M  V30 5033 H 475.499 -2.43516 -0.783166 0
M  V30 5034 H 475.143 -4.74412 -1.81371 0
M  V30 5035 H 475.073 -3.99641 -3.4292 0
M  V30 5036 H 477.564 -3.11433 -2.14052 0
M  V30 5037 H 477.877 -6.70205 -3.84767 0
M  V30 5038 H 476.222 -6.02387 -3.46634 0
M  V30 5039 H 479.413 -3.90478 -2.58157 0
M  V30 5040 H 479.586 -5.54069 -3.36024 0
M  V30 5041 N 472.992 0.995999 -1.22138 0
M  V30 5042 C 474.24 1.73167 -1.042 0
M  V30 5043 C 474.561 1.90329 0.42423 0
M  V30 5044 O 473.831 1.4607 1.30539 0
M  V30 5045 H 472.411 0.641593 -0.38258 0
M  V30 5046 H 475.073 1.19974 -1.53598 0
M  V30 5047 H 474.169 2.72734 -1.51731 0
M  V30 5048 O 474.509 1.15683 1.12693 0
M  V30 5049 H 475.2 0.884984 1.72301 0
M  V30 END ATOM
M  V30 BEGIN BOND
M  V30 END BOND
M  V30 END CTAB
M  END
$$$$
