drugbank_target|P45983 Mitogen-activated protein kinase 8 (DB00675; DB01782; DB07218; DB07268; DB07272; DB07276; DB07845)
 OpenBabel12092120403D

  0  0  0     0  0            999 V3000
M  V30 BEGIN CTAB
M  V30 COUNTS 6774 6846 0 0 0
M  V30 BEGIN ATOM
M  V30 1 H -0.908 1.98254 -0.117106 0
M  V30 2 N 0 1.576 0 0
M  V30 3 C 0.933 2.03868 1.02534 0
M  V30 4 C 1.911 0.928543 1.3348 0
M  V30 5 O 3.095 1.19667 1.45644 0
M  V30 6 C 0.222 2.43627 2.35294 0
M  V30 7 C -0.732 3.65373 2.2001 0
M  V30 8 S 0.101 5.13292 1.52614 0
M  V30 9 C 1.257 5.56322 2.86805 0
M  V30 10 H 1.49 2.90518 0.631377 0
M  V30 11 H -0.977 1.52953 0.210867 0
M  V30 12 H 0.981 2.67203 3.11629 0
M  V30 13 H -0.358 1.57376 2.7183 0
M  V30 14 H -1.165 3.90944 3.18086 0
M  V30 15 H -1.563 3.418 1.51819 0
M  V30 16 H 0.729 5.58782 3.83104 0
M  V30 17 H 1.672 6.56266 2.65933 0
M  V30 18 H 2.08 4.83886 2.90714 0
M  V30 19 N 1.4781 -0.272755 1.55222 0
M  V30 20 C 2.7031 -1.02683 1.80197 0
M  V30 21 C 3.1281 -1.79142 0.573551 0
M  V30 22 O 2.4861 -1.74917 -0.476849 0
M  V30 23 C 2.5341 -1.9609 3.02624 0
M  V30 24 O 1.6381 -3.04863 2.77727 0
M  V30 25 H 0.9791 -0.293557 0.595584 0
M  V30 26 H 3.5091 -0.30159 2.02365 0
M  V30 27 H 3.5191 -2.38039 3.31363 0
M  V30 28 H 2.1941 -1.39851 3.91682 0
M  V30 29 H 0.7711 -2.67228 2.60084 0
M  V30 30 N 2.9562 -1.48159 -0.537278 0
M  V30 31 C 4.3722 -1.34118 -0.865129 0
M  V30 32 C 4.5722 -0.346678 -1.98495 0
M  V30 33 O 3.6282 0.234715 -2.51407 0
M  V30 34 C 4.9412 -2.73963 -1.23954 0
M  V30 35 C 6.4892 -2.82397 -1.34984 0
M  V30 36 C 6.9642 -4.22928 -1.75772 0
M  V30 37 N 8.4552 -4.25566 -1.82887 0
M  V30 38 C 9.1902 -5.31235 -2.15817 0
M  V30 39 N 8.6862 -6.47189 -2.47222 0
M  V30 40 N 10.4792 -5.18624 -2.16761 0
M  V30 41 H 2.6302 -2.1144 0.201715 0
M  V30 42 H 4.8932 -0.947598 0.0275949 0
M  V30 43 H 4.5992 -3.48264 -0.490381 0
M  V30 44 H 4.4732 -3.0702 -2.19132 0
M  V30 45 H 6.8602 -2.08356 -2.08978 0
M  V30 46 H 6.9412 -2.5297 -0.379448 0
M  V30 47 H 6.5852 -4.97482 -1.02341 0
M  V30 48 H 6.5152 -4.49794 -2.73848 0
M  V30 49 H 9.0062 -3.41924 -1.60924 0
M  V30 50 H 9.3192 -7.23564 -2.71433 0
M  V30 51 H 7.6642 -6.50476 -2.44757 0
M  V30 52 H 10.8552 -4.27056 -1.91679 0
M  V30 53 H 11.0282 -6.01078 -2.42093 0
M  V30 54 N 4.4343 0.785586 -1.36625 0
M  V30 55 C 5.6593 1.57963 -1.34397 0
M  V30 56 C 6.0843 1.87964 0.071526 0
M  V30 57 O 5.4423 1.48182 1.0446 0
M  V30 58 C 5.4903 2.87511 -2.17646 0
M  V30 59 O 4.5943 3.81281 -1.57158 0
M  V30 60 H 3.9353 0.479014 -0.459828 0
M  V30 61 H 6.4653 0.973411 -1.79961 0
M  V30 62 H 6.4753 3.36745 -2.30362 0
M  V30 63 H 5.1503 2.65002 -3.20541 0
M  V30 64 H 3.7273 3.39885 -1.53403 0
M  V30 65 N 5.9124 1.20967 1.01018 0
M  V30 66 C 6.8594 0.964281 2.09691 0
M  V30 67 C 7.8294 -0.107853 1.65749 0
M  V30 68 O 9.0144 0.0381987 1.90762 0
M  V30 69 C 6.1544 0.52943 3.41015 0
M  V30 70 C 5.2674 1.67043 3.98398 0
M  V30 71 C 4.4024 1.18525 5.17808 0
M  V30 72 C 3.4414 2.29892 5.67288 0
M  V30 73 N 2.5784 1.82546 6.77954 0
M  V30 74 H 7.4184 1.89463 2.30017 0
M  V30 75 H 4.9554 0.944289 1.1279 0
M  V30 76 H 6.9134 0.258588 4.16398 0
M  V30 77 H 5.5434 -0.363919 3.20742 0
M  V30 78 H 4.5954 2.05603 3.20049 0
M  V30 79 H 5.9074 2.50877 4.31117 0
M  V30 80 H 5.0614 0.870762 6.00419 0
M  V30 81 H 3.8004 0.316887 4.86669 0
M  V30 82 H 2.8054 2.6215 4.83278 0
M  V30 83 H 4.0304 3.17216 6.00459 0
M  V30 84 H 1.9764 0.980454 6.48632 0
M  V30 85 H 1.8934 2.59956 7.09901 0
M  V30 86 H 3.1614 1.54115 7.64113 0
M  V30 87 N 7.3905 -1.2043 1.01659 0
M  V30 88 C 8.8065 -1.41852 0.731442 0
M  V30 89 C 9.0065 -1.89358 -0.688898 0
M  V30 90 O 8.0625 -2.06247 -1.45666 0
M  V30 91 C 9.3755 -2.44019 1.75714 0
M  V30 92 C 10.9235 -2.57785 1.77527 0
M  V30 93 C 11.3985 -3.63194 2.79023 0
M  V30 94 N 12.8895 -3.70678 2.77763 0
M  V30 95 C 13.6245 -4.51897 3.52954 0
M  V30 96 N 13.1205 -5.36921 4.37821 0
M  V30 97 N 14.9135 -4.4643 3.41551 0
M  V30 98 H 7.0645 -0.879093 1.93354 0
M  V30 99 H 9.3275 -0.448425 0.835236 0
M  V30 100 H 9.0335 -2.1611 2.77469 0
M  V30 101 H 8.9075 -3.43007 1.56927 0
M  V30 102 H 11.2945 -2.85023 0.764569 0
M  V30 103 H 11.3755 -1.58992 2.00387 0
M  V30 104 H 11.0195 -3.36699 3.80258 0
M  V30 105 H 10.9495 -4.61609 2.53425 0
M  V30 106 H 13.4405 -3.09944 2.16201 0
M  V30 107 H 13.7535 -5.95981 4.91962 0
M  V30 108 H 12.0985 -5.36424 4.41899 0
M  V30 109 H 15.2895 -3.79042 2.74672 0
M  V30 110 H 15.4625 -5.09491 4.00404 0
M  V30 111 N 8.8686 -0.792821 -1.36206 0
M  V30 112 C 10.1456 -0.290627 -1.93429 0
M  V30 113 C 10.5256 1.21773 -1.72437 0
M  V30 114 O 9.8736 2.0108 -1.08531 0
M  V30 115 C 10.0836 -0.686973 -3.42172 0
M  V30 116 C 11.4316 -0.668643 -4.19302 0
M  V30 117 O 12.4556 -0.627658 -3.50626 0
M  V30 118 O 11.3146 -0.714597 -5.41808 0
M  V30 119 H 8.4086 -0.0727927 -0.82379 0
M  V30 120 H 10.9546 -0.875593 -1.45367 0
M  V30 121 H 9.7266 -1.72711 -3.51122 0
M  V30 122 H 9.3496 -0.0760733 -3.97527 0
M  V30 123 N 10.3467 1.47872 -0.545128 0
M  V30 124 C 11.2947 2.31533 0.222512 0
M  V30 125 C 12.2887 1.42177 0.920985 0
M  V30 126 O 13.4947 1.59005 0.843645 0
M  V30 127 H 9.8697 0.746519 0.0906278 0
M  V30 128 H 11.8407 2.94139 -0.50246 0
M  V30 129 C 10.5897 3.2457 1.24699 0
M  V30 130 H 9.9127 3.93283 0.718944 0
M  V30 131 H 11.3527 3.85963 1.75523 0
M  V30 132 C 9.8117 2.47237 2.28856 0
M  V30 133 O 10.3417 2.20808 3.35569 0
M  V30 134 N 8.5477 2.08461 2.02466 0
M  V30 135 H 8.0947 2.30155 1.157 0
M  V30 136 H 8.0527 1.57033 2.72375 0
M  V30 137 N 11.8248 0.280983 1.55075 0
M  V30 138 C 12.7728 -0.619864 2.24188 0
M  V30 139 C 13.7668 -1.15315 1.24092 0
M  V30 140 O 14.9728 -1.1061 1.42005 0
M  V30 141 H 11.3478 -0.218459 0.719569 0
M  V30 142 H 13.3188 -0.0141831 2.98397 0
M  V30 143 C 12.0678 -1.7899 2.98091 0
M  V30 144 H 11.3908 -1.38874 3.74905 0
M  V30 145 H 12.8308 -2.39672 3.49762 0
M  V30 146 C 11.2898 -2.68192 2.03899 0
M  V30 147 O 11.8198 -3.6872 1.594 0
M  V30 148 N 10.0258 -2.35488 1.70275 0
M  V30 149 H 9.5728 -1.53787 2.06658 0
M  V30 150 H 9.5308 -2.95442 1.07524 0
M  V30 151 N 13.3029 -1.57598 0.00835791 0
M  V30 152 C 14.5499 -1.90928 -0.674732 0
M  V30 153 C 14.8779 -0.88277 -1.73313 0
M  V30 154 O 14.1329 0.111294 -1.95383 0
M  V30 155 C 14.4319 -3.3101 -1.34787 0
M  V30 156 C 14.0979 -4.48922 -0.421861 0
M  V30 157 C 12.7599 -4.8091 -0.166927 0
M  V30 158 C 15.1119 -5.20755 0.215211 0
M  V30 159 C 12.4399 -5.821 0.733232 0
M  V30 160 C 14.7919 -6.22905 1.1033 0
M  V30 161 C 13.4559 -6.53346 1.36733 0
M  V30 162 H 12.7259 -0.698656 -0.246902 0
M  V30 163 H 15.3729 -1.91387 0.0656779 0
M  V30 164 H 13.6779 -3.26714 -2.16253 0
M  V30 165 H 15.3749 -3.54061 -1.8826 0
M  V30 166 H 11.9649 -4.23934 -0.630729 0
M  V30 167 H 16.1489 -4.9629 0.0312829 0
M  V30 168 H 11.4049 -6.04042 0.945712 0
M  V30 169 H 15.5789 -6.77694 1.60325 0
M  V30 170 H 13.2059 -7.31573 2.06652 0
M  V30 171 N 14.781 0.264519 -1.55364 0
M  V30 172 C 16.011 1.01153 -1.80143 0
M  V30 173 C 16.419 1.80115 -0.579253 0
M  V30 174 O 15.762 1.77813 0.46132 0
M  V30 175 C 15.824 2.01098 -2.97993 0
M  V30 176 C 15.488 1.40995 -4.34706 0
M  V30 177 C 16.485 0.821316 -5.13372 0
M  V30 178 C 14.17 1.43461 -4.81378 0
M  V30 179 C 16.164 0.265339 -6.36847 0
M  V30 180 C 13.851 0.874771 -6.04807 0
M  V30 181 C 14.849 0.291146 -6.82379 0
M  V30 182 O 14.537 -0.260093 -8.03479 0
M  V30 183 H 14.269 0.304125 -0.603725 0
M  V30 184 H 16.823 0.298089 -2.03225 0
M  V30 185 H 15.053 2.76224 -2.70623 0
M  V30 186 H 16.742 2.61997 -3.1002 0
M  V30 187 H 17.508 0.794903 -4.78442 0
M  V30 188 H 13.387 1.87826 -4.21002 0
M  V30 189 H 16.931 -0.190837 -6.97339 0
M  V30 190 H 12.828 0.898452 -6.39217 0
M  V30 191 H 13.596 -0.150265 -8.18362 0
M  V30 192 N 16.2591 1.48442 0.529413 0
M  V30 193 C 17.4841 1.60406 1.31471 0
M  V30 194 C 17.9091 0.264738 1.86228 0
M  V30 195 O 17.2671 -0.763668 1.64432 0
M  V30 196 C 17.3151 2.65419 2.44101 0
M  V30 197 O 16.4191 2.22618 3.47153 0
M  V30 198 H 15.7601 0.537863 0.389357 0
M  V30 199 H 18.2901 1.94432 0.636965 0
M  V30 200 H 18.3001 2.86709 2.90279 0
M  V30 201 H 16.9751 3.62652 2.03608 0
M  V30 202 H 15.5521 2.11543 3.0709 0
M  V30 203 N 17.7372 -0.778329 1.37039 0
M  V30 204 C 18.9832 -1.53892 1.32079 0
M  V30 205 C 19.3162 -1.9396 -0.0965386 0
M  V30 206 O 18.5912 -1.63568 -1.05242 0
M  V30 207 C 18.8742 -2.80847 2.25382 0
M  V30 208 C 18.7272 -2.47076 3.75864 0
M  V30 209 C 20.0462 -3.82741 2.1725 0
M  V30 210 H 17.1652 -0.558303 0.48111 0
M  V30 211 H 19.8072 -0.893397 1.67685 0
M  V30 212 H 17.9572 -3.35931 1.95148 0
M  V30 213 H 19.6292 -1.97957 4.16666 0
M  V30 214 H 17.8722 -1.79863 3.94755 0
M  V30 215 H 18.5432 -3.37798 4.36574 0
M  V30 216 H 21.0192 -3.37133 2.43887 0
M  V30 217 H 19.8952 -4.69303 2.84686 0
M  V30 218 H 20.1562 -4.2652 1.16331 0
M  V30 219 N 19.2153 -1.21501 -1.00376 0
M  V30 220 C 20.1253 -0.991447 -2.12621 0
M  V30 221 C 21.1413 0.0568446 -1.73907 0
M  V30 222 O 22.3173 -0.13348 -2.00957 0
M  V30 223 C 19.3823 -0.560312 -3.42142 0
M  V30 224 C 18.4433 -1.68096 -3.95022 0
M  V30 225 C 17.6763 -1.2703 -5.18362 0
M  V30 226 O 17.8993 -0.144438 -5.70217 0
M  V30 227 O 16.8333 -2.08269 -5.64719 0
M  V30 228 H 20.6593 -1.93158 -2.34358 0
M  V30 229 H 18.2443 -0.999999 -1.10997 0
M  V30 230 H 20.1263 -0.329724 -4.20108 0
M  V30 231 H 18.8013 0.351089 -3.2179 0
M  V30 232 H 17.7083 -1.96597 -3.18278 0
M  V30 233 H 19.0413 -2.56983 -4.19786 0
M  V30 234 N 20.6934 1.19889 -1.02296 0
M  V30 235 C 21.9424 1.88743 -0.711257 0
M  V30 236 C 22.2554 1.80112 0.762817 0
M  V30 237 O 23.4614 2.44161 1.18733 0
M  V30 238 C 21.9174 3.38525 -1.22185 0
M  V30 239 C 21.5254 3.55727 -2.72328 0
M  V30 240 C 23.2694 4.12893 -0.985864 0
M  V30 241 C 21.1764 4.99369 -3.16835 0
M  V30 242 H 20.1064 0.706885 -0.262353 0
M  V30 243 H 22.7574 1.35586 -1.23648 0
M  V30 244 H 21.1394 3.91044 -0.624571 0
M  V30 245 H 22.3134 3.13564 -3.3766 0
M  V30 246 H 20.6284 2.94739 -2.9414 0
M  V30 247 H 23.2254 5.18813 -1.29374 0
M  V30 248 H 23.5684 4.16228 0.0775055 0
M  V30 249 H 24.1014 3.66494 -1.54684 0
M  V30 250 H 20.8404 5.01193 -4.22476 0
M  V30 251 H 20.3604 5.42317 -2.56228 0
M  V30 252 H 22.0394 5.67988 -3.09837 0
M  V30 253 N 22.1715 0.800033 1.35784 0
M  V30 254 C 23.4195 0.376597 1.9856 0
M  V30 255 C 23.7405 -1.05812 1.63795 0
M  V30 256 O 23.0105 -1.73103 0.917171 0
M  V30 257 H 21.5905 0.136261 0.734467 0
M  V30 258 H 24.2525 1.02442 1.65806 0
M  V30 259 H 23.3485 0.477002 3.08433 0
M  V30 260 N 23.6496 -1.47581 0.552962 0
M  V30 261 C 24.9266 -1.95563 -0.0381515 0
M  V30 262 C 25.3066 -1.49552 -1.48988 0
M  V30 263 O 24.6546 -0.732414 -2.16444 0
M  V30 264 C 24.8646 -3.48848 0.102919 0
M  V30 265 C 26.2126 -4.24577 -0.0446082 0
M  V30 266 O 27.2366 -3.56187 0.0302548 0
M  V30 267 O 26.0956 -5.46116 -0.204923 0
M  V30 268 H 23.1896 -0.824321 -0.0665067 0
M  V30 269 H 25.7356 -1.58001 0.619186 0
M  V30 270 H 24.5076 -3.75129 1.11328 0
M  V30 271 H 24.1306 -3.93165 -0.592224 0
M  V30 272 N 25.1277 -0.289203 -1.54924 0
M  V30 273 C 26.3527 0.329299 -2.04769 0
M  V30 274 C 26.7777 1.4763 -1.16564 0
M  V30 275 O 26.1357 1.80527 -0.167186 0
M  V30 276 C 26.1837 0.774438 -3.52186 0
M  V30 277 O 25.2877 1.88038 -3.67036 0
M  V30 278 H 24.6287 0.0659259 -0.660719 0
M  V30 279 H 27.1587 -0.42761 -2.00082 0
M  V30 280 H 27.1687 1.06642 -3.93816 0
M  V30 281 H 25.8437 -0.0646707 -4.1585 0
M  V30 282 H 24.4207 1.58985 -3.3731 0
M  V30 283 N 26.6058 1.57591 -0.0167156 0
M  V30 284 C 27.8338 1.95575 0.675128 0
M  V30 285 C 28.2488 0.892542 1.6637 0
M  V30 286 O 27.6058 -0.126912 1.82058 0
M  V30 287 C 27.6568 3.33608 1.39239 0
M  V30 288 O 27.3778 4.3585 0.443444 0
M  V30 289 C 28.8788 3.86151 2.17721 0
M  V30 290 H 26.0988 0.644423 0.186978 0
M  V30 291 H 28.6428 2.0437 -0.0728 0
M  V30 292 H 26.7978 3.2607 2.09182 0
M  V30 293 H 27.2118 5.158 0.951358 0
M  V30 294 H 28.6858 4.85114 2.63379 0
M  V30 295 H 29.1628 3.19738 3.01105 0
M  V30 296 H 29.7688 3.96918 1.52761 0
M  V30 297 N 28.0839 -0.256276 1.55502 0
M  V30 298 C 29.3309 -0.985619 1.76895 0
M  V30 299 C 29.6589 -1.85671 0.579355 0
M  V30 300 O 28.9139 -1.90744 -0.437651 0
M  V30 301 C 29.2129 -1.88432 3.03691 0
M  V30 302 C 28.8789 -1.16936 4.35473 0
M  V30 303 C 27.5409 -0.97173 4.71286 0
M  V30 304 C 29.8929 -0.661889 5.1698 0
M  V30 305 C 27.2209 -0.254179 5.86149 0
M  V30 306 C 29.5729 0.042149 6.32586 0
M  V30 307 C 28.2369 0.25134 6.67027 0
M  V30 308 H 27.5069 -0.360663 0.647304 0
M  V30 309 H 30.1539 -0.256483 1.89775 0
M  V30 310 H 28.4589 -2.68021 2.85783 0
M  V30 311 H 30.1559 -2.45015 3.1744 0
M  V30 312 H 26.7459 -1.33332 4.07333 0
M  V30 313 H 30.9299 -0.802145 4.89775 0
M  V30 314 H 26.1859 -0.0815408 6.11346 0
M  V30 315 H 30.3599 0.443049 6.94989 0
M  V30 316 H 27.9869 0.809314 7.5588 0
M  V30 317 N 29.562 -1.4872 -0.521534 0
M  V30 318 C 30.79 -1.60843 -1.30142 0
M  V30 319 C 31.205 -0.271897 -1.86832 0
M  V30 320 O 30.562 0.739969 -1.66825 0
M  V30 321 C 30.613 -2.66155 -2.4463 0
M  V30 322 O 30.334 -3.94623 -1.90275 0
M  V30 323 C 31.835 -2.88795 -3.36322 0
M  V30 324 H 29.055 -0.542075 -0.395468 0
M  V30 325 H 31.599 -1.94609 -0.628285 0
M  V30 326 H 29.754 -2.35224 -3.07812 0
M  V30 327 H 30.168 -4.52468 -2.65279 0
M  V30 328 H 31.642 -3.66264 -4.12983 0
M  V30 329 H 32.119 -1.97934 -3.9207 0
M  V30 330 H 32.725 -3.21063 -2.78924 0
M  V30 331 N 31.0401 0.771051 -1.3745 0
M  V30 332 C 32.2861 1.5319 -1.32894 0
M  V30 333 C 32.6191 1.94008 0.0862511 0
M  V30 334 O 31.8941 1.64124 1.04373 0
M  V30 335 C 32.1771 2.79648 -2.26868 0
M  V30 336 C 32.0301 2.45079 -3.77169 0
M  V30 337 C 33.3491 3.81583 -2.19277 0
M  V30 338 H 30.4681 0.555744 -0.484064 0
M  V30 339 H 33.1101 0.884492 -1.68157 0
M  V30 340 H 31.2601 3.34891 -1.96926 0
M  V30 341 H 32.9321 1.95745 -4.1771 0
M  V30 342 H 31.1751 1.77767 -3.95704 0
M  V30 343 H 31.8461 3.35478 -4.38359 0
M  V30 344 H 34.3221 3.35835 -2.45671 0
M  V30 345 H 33.1981 4.67787 -2.87171 0
M  V30 346 H 33.4591 4.25897 -1.18592 0
M  V30 347 N 32.5182 1.22032 0.997298 0
M  V30 348 C 33.4482 1.01065 2.10495 0
M  V30 349 C 34.4292 -0.0669542 1.69968 0
M  V30 350 O 35.6142 0.0943987 1.9397 0
M  V30 351 C 32.7442 0.582874 3.42374 0
M  V30 352 C 31.6982 1.60592 3.96729 0
M  V30 353 C 31.0242 1.03412 5.24605 0
M  V30 354 C 32.3242 2.99478 4.27914 0
M  V30 355 H 34.0182 1.93708 2.28292 0
M  V30 356 H 31.5642 0.932761 1.09707 0
M  V30 357 H 33.5172 0.423332 4.19268 0
M  V30 358 H 32.2412 -0.379213 3.24391 0
M  V30 359 H 30.9002 1.75316 3.21963 0
M  V30 360 H 30.5482 0.063518 5.0296 0
M  V30 361 H 30.2482 1.71754 5.61938 0
M  V30 362 H 31.7722 0.886066 6.04137 0
M  V30 363 H 33.1862 2.88153 4.95622 0
M  V30 364 H 31.5832 3.64903 4.76409 0
M  V30 365 H 32.6532 3.49742 3.3587 0
M  V30 366 N 33.9963 -1.19345 1.0293 0
M  V30 367 C 34.9433 -2.2258 0.610464 0
M  V30 368 C 35.9133 -1.6179 -0.375946 0
M  V30 369 O 37.0983 -1.88844 -0.272511 0
M  V30 370 C 34.2383 -3.45085 -0.0321473 0
M  V30 371 C 33.3513 -4.20258 1.00035 0
M  V30 372 C 32.4863 -5.3019 0.32746 0
M  V30 373 C 31.5253 -5.97121 1.34584 0
M  V30 374 N 30.6623 -6.98615 0.698726 0
M  V30 375 H 35.5023 -2.57764 1.49538 0
M  V30 376 H 33.0393 -1.26644 0.748311 0
M  V30 377 H 34.9973 -4.15061 -0.421966 0
M  V30 378 H 33.6273 -3.10555 -0.88064 0
M  V30 379 H 32.6793 -3.49223 1.50823 0
M  V30 380 H 33.9913 -4.66175 1.77433 0
M  V30 381 H 33.1453 -6.06587 -0.11718 0
M  V30 382 H 31.8843 -4.85345 -0.478713 0
M  V30 383 H 30.8893 -5.19474 1.80074 0
M  V30 384 H 32.1143 -6.4405 2.15352 0
M  V30 385 H 30.0603 -6.55942 -0.0873471 0
M  V30 386 H 29.9773 -7.42724 1.41058 0
M  V30 387 H 31.2453 -7.79004 0.278102 0
M  V30 388 N 35.4744 -0.807222 -1.35358 0
M  V30 389 C 36.8904 -0.491038 -1.51858 0
M  V30 390 C 37.0904 0.987648 -1.75635 0
M  V30 391 O 36.1464 1.77265 -1.79815 0
M  V30 392 C 37.4594 -1.33695 -2.69344 0
M  V30 393 C 39.0074 -1.33246 -2.83222 0
M  V30 394 C 39.4824 -2.1625 -4.03733 0
M  V30 395 N 40.9734 -2.1379 -4.10911 0
M  V30 396 C 41.7084 -2.74772 -5.03277 0
M  V30 397 N 41.2044 -3.44684 -6.0097 0
M  V30 398 N 42.9974 -2.6441 -4.96028 0
M  V30 399 H 35.1484 -1.76485 -1.18181 0
M  V30 400 H 37.4114 -0.751199 -0.578276 0
M  V30 401 H 37.1174 -2.38634 -2.58354 0
M  V30 402 H 36.9914 -0.990618 -3.6396 0
M  V30 403 H 39.3784 -0.290911 -2.93663 0
M  V30 404 H 39.4594 -1.71866 -1.89461 0
M  V30 405 H 39.1034 -3.20445 -3.94052 0
M  V30 406 H 39.0334 -1.74989 -4.96675 0
M  V30 407 H 41.5244 -1.62923 -3.40976 0
M  V30 408 H 41.8374 -3.88501 -6.68047 0
M  V30 409 H 40.1824 -3.48788 -6.01142 0
M  V30 410 H 43.3734 -2.0938 -4.18662 0
M  V30 411 H 43.5464 -3.12225 -5.6782 0
M  V30 412 N 36.9525 1.47285 -0.560781 0
M  V30 413 C 38.1825 2.06555 -0.0429638 0
M  V30 414 C 38.5905 1.41339 1.25777 0
M  V30 415 O 37.9335 0.505182 1.76617 0
M  V30 416 C 37.9955 3.58827 0.219887 0
M  V30 417 C 37.6595 4.46105 -0.991944 0
M  V30 418 C 38.6565 4.84 -1.89843 0
M  V30 419 C 36.3415 4.87567 -1.20762 0
M  V30 420 C 38.3355 5.6216 -3.00425 0
M  V30 421 C 36.0225 5.65491 -2.31653 0
M  V30 422 C 37.0205 6.02699 -3.21315 0
M  V30 423 O 36.7085 6.79052 -4.30283 0
M  V30 424 H 36.4405 0.674537 -0.0444468 0
M  V30 425 H 38.9945 1.90225 -0.774818 0
M  V30 426 H 37.2245 3.73383 1.00609 0
M  V30 427 H 38.9135 4.00103 0.683522 0
M  V30 428 H 39.6795 4.52564 -1.74387 0
M  V30 429 H 35.5585 4.5807 -0.518893 0
M  V30 430 H 39.1025 5.9112 -3.70436 0
M  V30 431 H 34.9995 5.9634 -2.47081 0
M  V30 432 H 35.7675 6.9745 -4.28376 0
M  V30 433 N 38.4306 0.297415 1.54768 0
M  V30 434 C 39.3626 -0.613881 2.20826 0
M  V30 435 C 40.3756 -1.10032 1.19987 0
M  V30 436 O 41.5646 -1.01839 1.46598 0
M  V30 437 C 38.6646 -1.852 2.83821 0
M  V30 438 C 37.8376 -1.50865 4.10559 0
M  V30 439 C 36.8966 -2.60154 4.57391 0
M  V30 440 O 35.9226 -2.25398 5.2267 0
M  V30 441 N 37.1246 -3.90629 4.29406 0
M  V30 442 H 39.8896 -0.048389 2.99661 0
M  V30 443 H 37.4506 0.11946 1.61459 0
M  V30 444 H 39.4426 -2.57652 3.12086 0
M  V30 445 H 38.0126 -2.32597 2.08847 0
M  V30 446 H 37.2326 -0.616925 3.89343 0
M  V30 447 H 38.5206 -1.25458 4.9309 0
M  V30 448 H 37.9186 -4.21677 3.77101 0
M  V30 449 H 36.4756 -4.59391 4.62388 0
M  V30 450 N 39.9087 -1.5758 0.0250728 0
M  V30 451 C 40.8567 -2.11125 -0.97617 0
M  V30 452 C 41.8507 -1.03689 -1.33959 0
M  V30 453 O 43.0567 -1.22128 -1.3223 0
M  V30 454 H 39.4317 -0.674468 -0.332561 0
M  V30 455 H 41.4027 -2.94194 -0.499223 0
M  V30 456 C 40.1517 -2.65017 -2.2508 0
M  V30 457 H 39.4747 -3.47333 -1.9799 0
M  V30 458 H 40.9147 -3.06133 -2.93357 0
M  V30 459 C 39.3737 -1.57574 -2.97779 0
M  V30 460 O 39.9037 -0.973203 -3.89733 0
M  V30 461 N 38.1097 -1.29716 -2.60043 0
M  V30 462 H 37.6567 -1.789 -1.85345 0
M  V30 463 H 37.6147 -0.58051 -3.08994 0
M  V30 464 N 41.3868 0.248026 -1.55636 0
M  V30 465 C 42.3168 1.31079 -1.93237 0
M  V30 466 C 43.2978 1.50264 -0.797174 0
M  V30 467 O 44.4828 1.62891 -1.05737 0
M  V30 468 C 41.6128 2.66575 -2.22609 0
M  V30 469 C 40.5668 2.62087 -3.3837 0
M  V30 470 C 39.8928 4.01369 -3.53281 0
M  V30 471 C 41.1928 2.19171 -4.7409 0
M  V30 472 H 42.8868 0.998556 -2.82257 0
M  V30 473 H 40.4328 0.47891 -1.35803 0
M  V30 474 H 42.3858 3.41057 -2.47503 0
M  V30 475 H 41.1098 2.99432 -1.30414 0
M  V30 476 H 39.7688 1.90063 -3.13483 0
M  V30 477 H 39.4168 4.31489 -2.58508 0
M  V30 478 H 39.1168 3.99254 -4.31127 0
M  V30 479 H 40.6408 4.77552 -3.80495 0
M  V30 480 H 42.0548 2.83384 -4.98363 0
M  V30 481 H 40.4518 2.2817 -5.5503 0
M  V30 482 H 41.5218 1.14336 -4.71227 0
M  V30 483 N 42.8649 1.48995 0.513639 0
M  V30 484 C 43.8119 1.6473 1.61656 0
M  V30 485 C 44.7819 0.488984 1.58739 0
M  V30 486 O 45.9669 0.714478 1.76918 0
M  V30 487 C 43.1069 1.7082 2.99858 0
M  V30 488 C 42.2199 2.9787 3.12885 0
M  V30 489 C 41.3549 2.95017 4.41744 0
M  V30 490 C 40.3939 4.16702 4.48359 0
M  V30 491 N 39.5309 4.11832 5.68629 0
M  V30 492 H 44.3709 2.58909 1.47547 0
M  V30 493 H 41.9079 1.28382 0.71808 0
M  V30 494 H 43.8659 1.72331 3.79944 0
M  V30 495 H 42.4959 0.801181 3.12699 0
M  V30 496 H 41.5479 3.06029 2.25944 0
M  V30 497 H 42.8599 3.8786 3.13633 0
M  V30 498 H 42.0139 2.95021 5.30139 0
M  V30 499 H 40.7529 2.02784 4.43542 0
M  V30 500 H 39.7579 4.16955 3.58369 0
M  V30 501 H 40.9829 5.10113 4.48287 0
M  V30 502 H 38.9289 3.22428 5.71293 0
M  V30 503 H 38.8459 4.95543 5.7094 0
M  V30 504 H 40.1139 4.1592 6.59266 0
M  V30 505 N 44.343 -0.763751 1.37857 0
M  V30 506 C 45.754 -1.3405 1.29952 0
M  V30 507 C 46.105 -1.96138 -0.0492898 0
M  V30 508 O 45.23 -1.94372 -0.951239 0
M  V30 509 C 45.825 -2.43729 2.35333 0
M  V30 510 C 44.384 -2.97151 2.31037 0
M  V30 511 C 43.531 -1.70438 2.18738 0
M  V30 512 H 46.482 -0.563396 1.48363 0
M  V30 513 H 46.503 -3.23412 2.00462 0
M  V30 514 H 46.015 -1.9851 3.33489 0
M  V30 515 H 44.116 -3.46724 1.3643 0
M  V30 516 H 44.229 -3.52221 3.24772 0
M  V30 517 H 42.593 -1.93673 1.65418 0
M  V30 518 H 43.376 -1.27312 3.18821 0
M  V30 519 N 45.8211 -1.22559 -0.990812 0
M  V30 520 C 47.0701 -1.04553 -1.72486 0
M  V30 521 C 47.3831 0.419349 -1.91052 0
M  V30 522 O 48.5891 0.719121 -2.61803 0
M  V30 523 C 47.0451 -1.82231 -3.10355 0
M  V30 524 C 46.6531 -3.32981 -2.99713 0
M  V30 525 C 48.3971 -1.7268 -3.87791 0
M  V30 526 C 46.3041 -4.03091 -4.32748 0
M  V30 527 H 45.2341 -0.387614 -0.646739 0
M  V30 528 H 47.8851 -1.46429 -1.10593 0
M  V30 529 H 46.2671 -1.33155 -3.72942 0
M  V30 530 H 47.4411 -3.89466 -2.46278 0
M  V30 531 H 45.7561 -3.43231 -2.35758 0
M  V30 532 H 48.3531 -2.22381 -4.86262 0
M  V30 533 H 48.6961 -0.687607 -4.10582 0
M  V30 534 H 49.2291 -2.1931 -3.31885 0
M  V30 535 H 45.9681 -5.07273 -4.15156 0
M  V30 536 H 45.4881 -3.51394 -4.86089 0
M  V30 537 H 47.1671 -4.08804 -5.01486 0
M  V30 538 N 47.2992 1.18797 -1.03562 0
M  V30 539 C 48.5472 1.88278 -0.734569 0
M  V30 540 C 48.8682 1.8043 0.739586 0
M  V30 541 O 48.1382 1.21925 1.53333 0
M  V30 542 H 46.7182 0.696991 -0.268725 0
M  V30 543 H 49.3802 1.44192 -1.31129 0
M  V30 544 H 48.4762 2.94443 -1.03489 0
M  V30 545 N 48.7773 0.814389 1.34928 0
M  V30 546 C 50.0023 0.410097 2.03305 0
M  V30 547 C 50.4273 -0.973464 1.60951 0
M  V30 548 O 49.7853 -1.63185 0.789964 0
M  V30 549 C 49.8333 0.51049 3.56968 0
M  V30 550 O 48.9373 -0.473035 4.09678 0
M  V30 551 H 48.2783 0.170088 0.641846 0
M  V30 552 H 50.8083 1.10244 1.72358 0
M  V30 553 H 50.8183 0.383135 4.06197 0
M  V30 554 H 49.4933 1.51963 3.87144 0
M  V30 555 H 48.0703 -0.305272 3.71648 0
M  V30 556 N 50.2554 -1.46986 0.568584 0
M  V30 557 C 51.5034 -2.02041 0.0487022 0
M  V30 558 C 51.8244 -1.44408 -1.31039 0
M  V30 559 O 51.0944 -0.623477 -1.85714 0
M  V30 560 H 49.6744 -0.746849 0.015014 0
M  V30 561 H 52.3364 -1.80257 0.741168 0
M  V30 562 H 51.4324 -3.12085 -0.0308961 0
M  V30 563 N 51.7335 -0.305618 -1.54608 0
M  V30 564 C 52.6965 0.555591 -2.22364 0
M  V30 565 C 53.6965 1.05768 -1.21119 0
M  V30 566 O 54.8865 0.952972 -1.45822 0
M  V30 567 C 52.0185 1.76974 -2.91364 0
M  V30 568 H 53.2115 -0.0364572 -2.99878 0
M  V30 569 H 50.7645 -0.0565007 -1.56198 0
M  V30 570 H 51.4995 2.40151 -2.17941 0
M  V30 571 H 51.2845 1.41732 -3.65588 0
M  V30 572 H 52.7745 2.38148 -3.43038 0
M  V30 573 N 53.2116 1.57565 -0.0334293 0
M  V30 574 C 54.1436 2.0739 0.975811 0
M  V30 575 C 55.1566 0.998166 1.2861 0
M  V30 576 O 56.3456 1.27426 1.25 0
M  V30 577 C 53.4456 2.4871 2.30209 0
M  V30 578 C 52.6186 3.79413 2.17634 0
M  V30 579 C 51.6776 4.07237 3.33233 0
M  V30 580 O 50.7036 4.77425 3.09927 0
M  V30 581 N 51.9056 3.5775 4.5716 0
M  V30 582 H 54.6706 2.94598 0.55066 0
M  V30 583 H 52.2316 1.61173 0.15323 0
M  V30 584 H 54.2236 2.64413 3.06378 0
M  V30 585 H 52.7936 1.66845 2.64351 0
M  V30 586 H 52.0136 3.73465 1.26165 0
M  V30 587 H 53.3016 4.65038 2.0644 0
M  V30 588 H 52.6996 3.00976 4.78989 0
M  V30 589 H 51.2566 3.78724 5.30482 0
M  V30 590 N 54.6897 -0.239769 1.55765 0
M  V30 591 C 55.9377 -0.964892 1.77579 0
M  V30 592 C 56.2587 -1.85582 0.598699 0
M  V30 593 O 55.5287 -1.92075 -0.385226 0
M  V30 594 H 54.1087 -0.359265 0.654933 0
M  V30 595 H 56.7707 -0.256001 1.93211 0
M  V30 596 H 55.8667 -1.58243 2.69009 0
M  V30 597 N 56.1678 -1.49265 -0.50573 0
M  V30 598 C 57.4168 -1.57761 -1.25675 0
M  V30 599 C 57.7298 -0.267371 -1.93764 0
M  V30 600 O 58.9358 -0.230827 -2.70517 0
M  V30 601 C 57.3918 -2.78332 -2.28165 0
M  V30 602 C 56.9998 -4.16096 -1.66037 0
M  V30 603 C 58.7438 -2.96155 -3.04125 0
M  V30 604 C 56.6508 -5.27895 -2.6661 0
M  V30 605 H 55.5808 -0.587391 -0.472745 0
M  V30 606 H 58.2318 -1.75644 -0.53118 0
M  V30 607 H 56.6138 -2.53934 -3.03865 0
M  V30 608 H 57.7878 -4.50612 -0.963622 0
M  V30 609 H 56.1028 -4.03591 -1.02484 0
M  V30 610 H 58.6998 -3.76849 -3.79327 0
M  V30 611 H 59.0428 -2.06534 -3.61455 0
M  V30 612 H 59.5758 -3.2057 -2.35541 0
M  V30 613 H 56.3148 -6.1956 -2.14068 0
M  V30 614 H 55.8348 -4.97839 -3.34539 0
M  V30 615 H 57.5138 -5.57031 -3.29129 0
M  V30 616 N 57.6459 0.756429 -1.3826 0
M  V30 617 C 58.8919 1.51772 -1.34511 0
M  V30 618 C 59.2249 1.94089 0.0656691 0
M  V30 619 O 58.4999 1.65221 1.02626 0
M  V30 620 C 58.7829 2.77226 -2.29821 0
M  V30 621 C 58.6359 2.41065 -3.79747 0
M  V30 622 C 59.9549 3.79236 -2.23312 0
M  V30 623 H 57.0739 0.550578 -0.489931 0
M  V30 624 H 59.7159 0.866607 -1.69086 0
M  V30 625 H 57.8659 3.32784 -2.00467 0
M  V30 626 H 59.5379 1.91303 -4.19763 0
M  V30 627 H 57.7809 1.7356 -3.97567 0
M  V30 628 H 58.4519 3.3081 -4.41892 0
M  V30 629 H 60.9279 3.3321 -2.49219 0
M  V30 630 H 59.8039 4.64714 -2.92116 0
M  V30 631 H 60.0649 4.24615 -1.23102 0
M  V30 632 N 59.124 1.23083 0.984299 0
M  V30 633 C 60.364 1.07226 1.74017 0
M  V30 634 C 60.728 -0.384766 1.88105 0
M  V30 635 O 61.929 -0.664411 2.60459 0
M  V30 636 C 60.2 1.77348 3.10294 0
M  V30 637 S 61.759 1.77014 4.01512 0
M  V30 638 H 58.577 0.383819 0.598502 0
M  V30 639 H 61.179 1.56158 1.17622 0
M  V30 640 H 59.883 2.82506 2.97689 0
M  V30 641 H 59.414 1.28682 3.71759 0
M  V30 642 H 61.429 0.825956 4.89277 0
M  V30 643 N 60.6021 -1.18246 1.0419 0
M  V30 644 C 61.5651 -2.20128 0.638452 0
M  V30 645 C 62.5651 -1.57885 -0.304805 0
M  V30 646 O 63.7551 -1.73967 -0.0900369 0
M  V30 647 C 60.8871 -3.4084 -0.0637751 0
M  V30 648 H 62.0801 -2.57336 1.54007 0
M  V30 649 H 59.6331 -1.32152 0.834598 0
M  V30 650 H 60.3681 -3.09166 -0.979136 0
M  V30 651 H 60.1531 -3.8726 0.614198 0
M  V30 652 H 61.6431 -4.16274 -0.332512 0
M  V30 653 N 62.0802 -0.821533 -1.34494 0
M  V30 654 C 63.0432 -0.247847 -2.27856 0
M  V30 655 C 64.0432 0.573453 -1.50227 0
M  V30 656 O 65.2332 0.389759 -1.69784 0
M  V30 657 C 62.3652 0.652698 -3.34593 0
M  V30 658 H 63.5582 -1.07146 -2.80107 0
M  V30 659 H 61.1112 -0.593291 -1.44602 0
M  V30 660 H 61.8462 1.49943 -2.87555 0
M  V30 661 H 61.6312 0.065292 -3.92046 0
M  V30 662 H 63.1212 1.04793 -4.04238 0
M  V30 663 N 63.5583 1.46682 -0.576371 0
M  V30 664 C 64.7883 2.06498 -0.0648694 0
M  V30 665 C 65.1963 1.42665 1.24271 0
M  V30 666 O 64.5393 0.523886 1.76071 0
M  V30 667 C 64.6013 3.5904 0.181816 0
M  V30 668 C 64.2653 4.45028 -1.0392 0
M  V30 669 C 65.2623 4.81959 -1.94966 0
M  V30 670 C 62.9473 4.86259 -1.25927 0
M  V30 671 C 64.9413 5.58942 -3.06371 0
M  V30 672 C 62.6283 5.63002 -2.37638 0
M  V30 673 C 63.6263 5.99257 -3.2769 0
M  V30 674 O 63.3143 6.7445 -4.37461 0
M  V30 675 H 63.0463 0.674028 -0.0515987 0
M  V30 676 H 65.6003 1.89393 -0.794951 0
M  V30 677 H 63.8303 3.74429 0.966436 0
M  V30 678 H 65.5193 4.00806 0.641047 0
M  V30 679 H 66.2853 4.50689 -1.79177 0
M  V30 680 H 62.1643 4.57494 -0.567448 0
M  V30 681 H 65.7083 5.87158 -3.76684 0
M  V30 682 H 61.6053 5.93686 -2.53392 0
M  V30 683 H 62.3733 6.92867 -4.35749 0
M  V30 684 N 65.0364 0.313813 1.54444 0
M  V30 685 C 66.3134 -0.345447 1.92525 0
M  V30 686 C 66.6934 -1.70667 1.24242 0
M  V30 687 O 66.0414 -2.25273 0.382654 0
M  V30 688 C 66.2514 -0.44737 3.46121 0
M  V30 689 C 67.5994 -0.712238 4.18584 0
M  V30 690 O 68.6234 -0.530678 3.52225 0
M  V30 691 O 67.4824 -1.06183 5.36085 0
M  V30 692 H 64.5764 -0.195407 0.803583 0
M  V30 693 H 67.1224 0.362813 1.65776 0
M  V30 694 H 65.8944 0.509043 3.87975 0
M  V30 695 H 65.5174 -1.20359 3.78945 0
M  V30 696 N 66.5145 -1.57545 0.0417849 0
M  V30 697 C 67.4775 -2.09885 -0.92093 0
M  V30 698 C 68.4775 -1.01648 -1.24596 0
M  V30 699 O 69.6675 -1.27759 -1.1842 0
M  V30 700 C 66.7995 -2.57527 -2.23367 0
M  V30 701 H 67.9925 -2.96236 -0.467382 0
M  V30 702 H 65.5455 -1.5493 -0.206467 0
M  V30 703 H 66.2805 -1.74542 -2.73323 0
M  V30 704 H 66.0655 -3.36613 -2.01083 0
M  V30 705 H 67.5555 -2.98201 -2.92346 0
M  V30 706 N 67.9926 0.231505 -1.5589 0
M  V30 707 C 69.2416 0.955346 -1.7764 0
M  V30 708 C 69.5546 1.85893 -0.608546 0
M  V30 709 O 70.7606 2.62067 -0.70943 0
M  V30 710 C 69.2166 1.74886 -3.14552 0
M  V30 711 C 68.8246 0.891915 -4.39032 0
M  V30 712 C 70.5686 2.46452 -3.45633 0
M  V30 713 C 68.4756 1.68221 -5.66971 0
M  V30 714 H 67.4056 0.360446 -0.662265 0
M  V30 715 H 70.0566 0.209516 -1.823 0
M  V30 716 H 68.4386 2.53723 -3.04041 0
M  V30 717 H 69.6126 0.144793 -4.60572 0
M  V30 718 H 67.9276 0.288863 -4.15397 0
M  V30 719 H 70.5246 3.06061 -4.38441 0
M  V30 720 H 70.8676 3.18841 -2.67668 0
M  V30 721 H 71.4006 1.74613 -3.57428 0
M  V30 722 H 68.1396 1.00178 -6.478 0
M  V30 723 H 67.6596 2.4042 -5.49507 0
M  V30 724 H 69.3386 2.24544 -6.06786 0
M  V30 725 N 69.4707 1.49531 0.497807 0
M  V30 726 C 70.4007 1.6935 1.60757 0
M  V30 727 C 71.3817 0.542218 1.61227 0
M  V30 728 O 72.5667 0.778417 1.77917 0
M  V30 729 C 69.6967 1.76298 2.99226 0
M  V30 730 C 68.6507 2.91248 3.13622 0
M  V30 731 C 67.9767 2.83312 4.53474 0
M  V30 732 C 69.2767 4.3214 2.93346 0
M  V30 733 H 70.9707 2.62263 1.44425 0
M  V30 734 H 68.5167 1.26208 0.693367 0
M  V30 735 H 70.4697 1.88749 3.76765 0
M  V30 736 H 69.1937 0.799871 3.16654 0
M  V30 737 H 67.8527 2.78404 2.38509 0
M  V30 738 H 67.5007 1.84902 4.67782 0
M  V30 739 H 67.2007 3.60465 4.64046 0
M  V30 740 H 68.7247 2.97775 5.33069 0
M  V30 741 H 70.1387 4.45649 3.60652 0
M  V30 742 H 68.5357 5.1054 3.15387 0
M  V30 743 H 69.6057 4.46363 1.89441 0
M  V30 744 N 70.9488 -0.749086 1.3866 0
M  V30 745 C 71.8588 -1.89358 1.38494 0
M  V30 746 C 72.8748 -1.71708 0.281476 0
M  V30 747 O 74.0508 -1.94554 0.520643 0
M  V30 748 C 71.1158 -3.24782 1.21316 0
M  V30 749 C 70.1768 -3.54926 2.41508 0
M  V30 750 C 69.4098 -4.83888 2.2514 0
M  V30 751 O 69.6328 -5.56592 1.24746 0
M  V30 752 O 68.5668 -5.13612 3.13826 0
M  V30 753 H 72.3928 -1.92452 2.34938 0
M  V30 754 H 69.9778 -0.894981 1.19626 0
M  V30 755 H 71.8598 -4.05739 1.13814 0
M  V30 756 H 70.5348 -3.2249 0.279592 0
M  V30 757 H 69.4418 -2.74112 2.54585 0
M  V30 758 H 70.7748 -3.61983 3.3351 0
M  V30 759 N 72.4269 -1.23603 -0.977757 0
M  V30 760 C 73.8429 -0.999251 -1.24447 0
M  V30 761 C 74.0429 0.298053 -1.99283 0
M  V30 762 O 73.0989 1.01681 -2.31122 0
M  V30 763 C 74.4119 -2.20784 -2.04144 0
M  V30 764 C 75.9599 -2.25303 -2.17273 0
M  V30 765 C 76.4349 -3.45755 -3.00362 0
M  V30 766 N 77.9259 -3.4601 -3.07947 0
M  V30 767 C 78.6609 -4.35868 -3.72568 0
M  V30 768 N 78.1569 -5.35966 -4.38991 0
M  V30 769 N 79.9499 -4.23605 -3.6948 0
M  V30 770 H 72.1009 -2.06986 -0.476483 0
M  V30 771 H 74.3639 -0.907801 -0.273134 0
M  V30 772 H 74.0699 -3.14945 -1.56533 0
M  V30 773 H 73.9439 -2.22085 -3.04891 0
M  V30 774 H 76.3309 -1.3168 -2.64092 0
M  V30 775 H 76.4119 -2.28033 -1.15907 0
M  V30 776 H 76.0559 -4.39687 -2.5424 0
M  V30 777 H 75.9859 -3.40266 -4.01904 0
M  V30 778 H 78.4769 -2.73588 -2.60688 0
M  V30 779 H 78.7899 -6.00783 -4.86086 0
M  V30 780 H 77.1349 -5.39863 -4.37691 0
M  V30 781 H 80.3259 -3.44647 -3.16759 0
M  V30 782 H 80.4989 -4.93836 -4.1956 0
M  V30 783 N 73.905 1.17692 -1.04816 0
M  V30 784 C 74.853 2.23632 -0.63966 0
M  V30 785 C 75.847 1.6601 0.337219 0
M  V30 786 O 77.053 1.78844 0.203693 0
M  V30 787 H 73.428 0.727949 -0.188665 0
M  V30 788 H 75.399 2.55387 -1.54337 0
M  V30 789 C 74.148 3.4769 -0.0264051 0
M  V30 790 H 73.471 3.92331 -0.769164 0
M  V30 791 H 74.911 4.23418 0.222098 0
M  V30 792 C 73.37 3.13807 1.22584 0
M  V30 793 O 73.9 3.28236 2.31569 0
M  V30 794 N 72.106 2.68065 1.12202 0
M  V30 795 H 71.653 2.56525 0.235133 0
M  V30 796 H 71.611 2.45767 1.96076 0
M  V30 797 N 75.3831 0.828654 1.34056 0
M  V30 798 C 76.6291 0.42008 1.98402 0
M  V30 799 C 76.9621 -1.01564 1.65525 0
M  V30 800 O 76.2371 -1.70834 0.929831 0
M  V30 801 C 76.5201 0.62927 3.54559 0
M  V30 802 C 76.3731 2.11152 3.97159 0
M  V30 803 C 77.6921 0.0688756 4.40046 0
M  V30 804 H 74.8111 0.154104 0.720709 0
M  V30 805 H 77.4531 1.04228 1.5886 0
M  V30 806 H 75.6031 0.0996418 3.88372 0
M  V30 807 H 77.2751 2.70522 3.73651 0
M  V30 808 H 75.5181 2.59985 3.47261 0
M  V30 809 H 76.1891 2.20868 5.05887 0
M  V30 810 H 78.6651 0.521458 4.1282 0
M  V30 811 H 77.5411 0.245006 5.48353 0
M  V30 812 H 77.8021 -1.0266 4.30015 0
M  V30 813 N 76.8612 -1.46375 0.584142 0
M  V30 814 C 77.8242 -2.28784 -0.138108 0
M  V30 815 C 78.8242 -1.38471 -0.817462 0
M  V30 816 O 80.0142 -1.60833 -0.669199 0
M  V30 817 C 77.1462 -3.18892 -1.20503 0
M  V30 818 H 78.3392 -2.94117 0.586127 0
M  V30 819 H 75.8922 -1.52509 0.342171 0
M  V30 820 H 76.6272 -2.58309 -1.96079 0
M  V30 821 H 76.4122 -3.85388 -0.722384 0
M  V30 822 H 77.9022 -3.80914 -1.71155 0
M  V30 823 N 78.3393 -0.321999 -1.54275 0
M  V30 824 C 79.5883 0.281931 -1.9972 0
M  V30 825 C 79.9013 1.53369 -1.21397 0
M  V30 826 O 81.1073 2.21352 -1.57211 0
M  V30 827 C 79.5633 0.5529 -3.55628 0
M  V30 828 C 79.1713 -0.681721 -4.42783 0
M  V30 829 C 80.9153 1.11687 -4.09544 0
M  V30 830 C 78.8223 -0.382742 -5.9016 0
M  V30 831 H 77.7523 0.109124 -0.746062 0
M  V30 832 H 80.4033 -0.43398 -1.78294 0
M  V30 833 H 78.7853 1.32896 -3.73035 0
M  V30 834 H 79.9593 -1.45723 -4.37151 0
M  V30 835 H 78.2743 -1.1658 -3.99748 0
M  V30 836 H 80.8713 1.35515 -5.17242 0
M  V30 837 H 81.2143 2.06575 -3.61431 0
M  V30 838 H 81.7473 0.402032 -3.95763 0
M  V30 839 H 78.4863 -1.30076 -6.42464 0
M  V30 840 H 78.0063 0.355094 -5.98748 0
M  V30 841 H 79.6853 0.00800157 -6.47 0
M  V30 842 N 79.8174 1.5752 -0.0501392 0
M  V30 843 C 80.7644 2.1147 0.924603 0
M  V30 844 C 81.7344 1.02182 1.30951 0
M  V30 845 O 82.9194 1.29723 1.39916 0
M  V30 846 C 80.0594 2.66337 2.19451 0
M  V30 847 C 79.1724 3.89708 1.86418 0
M  V30 848 C 78.3074 4.32893 3.07859 0
M  V30 849 C 77.3464 5.48967 2.70742 0
M  V30 850 N 76.4834 5.87211 3.84874 0
M  V30 851 H 81.3234 2.94465 0.457639 0
M  V30 852 H 78.8604 1.45531 0.214266 0
M  V30 853 H 80.8184 2.96247 2.93758 0
M  V30 854 H 79.4484 1.86141 2.63726 0
M  V30 855 H 78.5004 3.66396 1.02264 0
M  V30 856 H 79.8124 4.74074 1.55096 0
M  V30 857 H 78.9664 4.6435 3.90466 0
M  V30 858 H 77.7054 3.47336 3.42358 0
M  V30 859 H 76.7104 5.17183 1.86551 0
M  V30 860 H 77.9354 6.3624 2.37436 0
M  V30 861 H 75.8814 5.04607 4.19175 0
M  V30 862 H 75.7984 6.66266 3.57247 0
M  V30 863 H 77.0664 6.23282 4.68123 0
M  V30 864 N 81.2955 -0.223234 1.56011 0
M  V30 865 C 82.2425 -1.27664 1.92277 0
M  V30 866 C 83.2125 -1.46659 0.779763 0
M  V30 867 O 84.3975 -1.60256 1.03551 0
M  V30 868 C 81.5375 -2.62234 2.24338 0
M  V30 869 C 80.6505 -2.51051 3.51564 0
M  V30 870 C 79.7855 -3.78133 3.7308 0
M  V30 871 C 78.8245 -3.61665 4.93827 0
M  V30 872 N 77.9615 -4.80693 5.11741 0
M  V30 873 H 82.8015 -0.960358 2.82101 0
M  V30 874 H 80.3385 -0.462901 1.39627 0
M  V30 875 H 82.2965 -3.40596 2.40936 0
M  V30 876 H 80.9265 -2.91961 1.3769 0
M  V30 877 H 79.9785 -1.64132 3.43169 0
M  V30 878 H 81.2905 -2.34803 4.40079 0
M  V30 879 H 80.4445 -4.64938 3.89766 0
M  V30 880 H 79.1835 -3.97304 2.82844 0
M  V30 881 H 78.1885 -2.73244 4.77093 0
M  V30 882 H 79.4135 -3.43966 5.85546 0
M  V30 883 H 77.3595 -5.00181 4.24446 0
M  V30 884 H 77.2765 -4.67165 5.94384 0
M  V30 885 H 78.5445 -5.6893 5.3286 0
M  V30 886 N 82.7736 -1.49793 -0.48987 0
M  V30 887 C 83.7036 -1.70201 -1.59856 0
M  V30 888 C 84.6846 -0.55076 -1.60937 0
M  V30 889 O 85.8696 -0.787841 -1.77501 0
M  V30 890 C 82.9996 -1.77882 -2.98287 0
M  V30 891 C 81.9536 -2.92907 -3.12073 0
M  V30 892 C 81.2796 -2.85712 -4.51965 0
M  V30 893 C 82.5796 -4.3369 -2.91051 0
M  V30 894 H 84.2736 -2.63025 -1.43032 0
M  V30 895 H 81.8196 -1.26574 -0.686664 0
M  V30 896 H 83.7726 -1.90744 -3.75759 0
M  V30 897 H 82.4966 -0.816653 -3.16225 0
M  V30 898 H 81.1556 -2.79665 -2.37029 0
M  V30 899 H 80.8036 -1.8738 -4.66795 0
M  V30 900 H 80.5036 -3.62921 -4.62128 0
M  V30 901 H 82.0276 -3.00598 -5.31482 0
M  V30 902 H 83.4416 -4.47555 -3.58284 0
M  V30 903 H 81.8386 -5.12205 -3.12675 0
M  V30 904 H 82.9086 -4.47362 -1.87071 0
M  V30 905 N 84.2517 0.741722 -1.39055 0
M  V30 906 C 85.4767 1.53607 -1.39354 0
M  V30 907 C 85.9017 1.88096 0.0116905 0
M  V30 908 O 85.2597 1.5143 0.996924 0
M  V30 909 C 85.3077 2.80441 -2.26682 0
M  V30 910 O 84.4117 3.76088 -1.69208 0
M  V30 911 H 83.7527 0.464142 -0.474835 0
M  V30 912 H 86.2827 0.915665 -1.82967 0
M  V30 913 H 86.2927 3.29246 -2.40959 0
M  V30 914 H 84.9677 2.5467 -3.2881 0
M  V30 915 H 83.5447 3.34833 -1.64138 0
M  V30 916 N 85.7298 1.2412 0.971189 0
M  V30 917 C 87.1458 1.00584 1.23916 0
M  V30 918 C 87.3458 -0.287481 1.99439 0
M  V30 919 O 86.4018 -1.00454 2.31658 0
M  V30 920 C 87.7148 2.21864 2.0297 0
M  V30 921 C 89.2628 2.26452 2.16076 0
M  V30 922 C 89.7378 3.47343 2.98524 0
M  V30 923 N 91.2288 3.47639 3.06107 0
M  V30 924 C 91.9638 4.37837 3.70251 0
M  V30 925 N 91.4598 5.38286 4.36142 0
M  V30 926 N 93.2528 4.25558 3.67228 0
M  V30 927 H 85.4038 2.07236 0.465499 0
M  V30 928 H 87.6668 0.909236 0.268315 0
M  V30 929 H 87.3728 3.15771 1.54861 0
M  V30 930 H 87.2468 2.23698 3.03709 0
M  V30 931 H 89.6338 1.33078 2.6339 0
M  V30 932 H 89.7148 2.28645 1.14696 0
M  V30 933 H 89.3588 4.41029 2.51905 0
M  V30 934 H 89.2888 3.42393 4.00093 0
M  V30 935 H 91.7798 2.74966 2.59233 0
M  V30 936 H 92.0928 6.03352 4.82894 0
M  V30 937 H 90.4378 5.42176 4.34822 0
M  V30 938 H 93.6288 3.46322 3.14927 0
M  V30 939 H 93.8018 4.96054 4.16935 0
M  V30 940 N 87.2079 -1.17134 1.05439 0
M  V30 941 C 88.6189 -1.69084 0.791676 0
M  V30 942 C 88.9699 -1.83822 -0.685839 0
M  V30 943 O 88.0949 -1.52757 -1.53278 0
M  V30 944 C 88.6899 -3.07119 1.4305 0
M  V30 945 C 87.2489 -3.56225 1.21577 0
M  V30 946 C 86.3959 -2.32421 1.51247 0
M  V30 947 H 89.3469 -1.01617 1.219 0
M  V30 948 H 89.3679 -3.71087 0.84112 0
M  V30 949 H 88.8799 -2.9636 2.50584 0
M  V30 950 H 86.9809 -3.72257 0.159787 0
M  V30 951 H 87.0939 -4.38837 1.92246 0
M  V30 952 H 85.4579 -2.3701 0.932653 0
M  V30 953 H 86.2409 -2.24268 2.5992 0
M  V30 954 N 88.686 -0.835752 -1.33615 0
M  V30 955 C 89.933 -0.429959 -1.97883 0
M  V30 956 C 90.261 1.01006 -1.66217 0
M  V30 957 O 89.516 1.72047 -0.93265 0
M  V30 958 C 89.815 -0.593925 -3.52431 0
M  V30 959 C 89.481 -2.00158 -4.04039 0
M  V30 960 C 88.143 -2.38662 -4.17844 0
M  V30 961 C 90.495 -2.92117 -4.31644 0
M  V30 962 C 87.823 -3.68435 -4.56588 0
M  V30 963 C 90.175 -4.21368 -4.71838 0
M  V30 964 C 88.839 -4.59833 -4.83849 0
M  V30 965 H 88.109 -0.157333 -0.724104 0
M  V30 966 H 90.756 -1.06217 -1.59343 0
M  V30 967 H 89.061 0.121619 -3.91611 0
M  V30 968 H 90.758 -0.260282 -4.00154 0
M  V30 969 H 87.348 -1.69252 -3.93766 0
M  V30 970 H 91.532 -2.63608 -4.20505 0
M  V30 971 H 86.788 -3.98046 -4.64079 0
M  V30 972 H 90.962 -4.92703 -4.92155 0
M  V30 973 H 88.589 -5.60438 -5.13627 0
M  V30 974 N 90.1641 1.46063 -0.591896 0
M  V30 975 C 91.0961 2.28539 0.174001 0
M  V30 976 C 92.1091 1.39047 0.846753 0
M  V30 977 O 93.2981 1.63564 0.714774 0
M  V30 978 C 90.3981 3.14347 1.26645 0
M  V30 979 C 89.5711 4.32021 0.683856 0
M  V30 980 C 88.6301 4.99157 1.66518 0
M  V30 981 O 87.6561 5.56458 1.19763 0
M  V30 982 N 88.8581 4.97005 2.99943 0
M  V30 983 H 91.6231 2.94911 -0.533633 0
M  V30 984 H 89.1841 1.56077 -0.430294 0
M  V30 985 H 91.1761 3.56125 1.92242 0
M  V30 986 H 89.7461 2.49988 1.87682 0
M  V30 987 H 88.9661 3.93915 -0.1498 0
M  V30 988 H 90.2541 5.08059 0.274567 0
M  V30 989 H 89.6521 4.51714 3.40545 0
M  V30 990 H 88.2091 5.42696 3.61004 0
M  V30 991 N 91.6422 0.330177 1.54103 0
M  V30 992 C 92.5902 -0.548226 2.26047 0
M  V30 993 C 93.5842 -1.11309 1.27698 0
M  V30 994 O 94.7902 -1.06036 1.45452 0
M  V30 995 H 91.1652 -0.195456 0.726155 0
M  V30 996 H 93.1362 0.0807567 2.98291 0
M  V30 997 C 91.8852 -1.69415 3.03634 0
M  V30 998 H 91.2082 -1.26876 3.79134 0
M  V30 999 H 92.6482 -2.28423 3.5721 0
M  V30 1000 C 91.1072 -2.61569 2.12328 0
M  V30 1001 O 91.6372 -3.63462 1.7105 0
M  V30 1002 N 89.8432 -2.29952 1.77681 0
M  V30 1003 H 89.3902 -1.47134 2.11446 0
M  V30 1004 H 89.3482 -2.91871 1.16869 0
M  V30 1005 N 93.1203 -1.57491 0.0584922 0
M  V30 1006 C 94.0523 -2.08916 -0.942694 0
M  V30 1007 C 95.0653 -1.0185 -1.27006 0
M  V30 1008 O 96.2543 -1.29398 -1.22957 0
M  V30 1009 C 93.3543 -2.52341 -2.26224 0
M  V30 1010 C 92.5273 -3.82827 -2.1157 0
M  V30 1011 C 91.5863 -4.12487 -3.26712 0
M  V30 1012 O 90.6123 -4.82295 -3.02292 0
M  V30 1013 N 91.8143 -3.64978 -4.5141 0
M  V30 1014 H 94.5793 -2.95437 -0.503722 0
M  V30 1015 H 92.1403 -1.61397 -0.12757 0
M  V30 1016 H 94.1323 -2.69254 -3.02133 0
M  V30 1017 H 92.7023 -1.7103 -2.61663 0
M  V30 1018 H 91.9223 -3.75425 -1.20208 0
M  V30 1019 H 93.2103 -4.68263 -1.99015 0
M  V30 1020 H 92.6083 -3.08558 -4.7414 0
M  V30 1021 H 91.1653 -3.87115 -5.2439 0
M  V30 1022 N 94.5984 0.214957 -1.56127 0
M  V30 1023 C 95.8264 0.955092 -1.83536 0
M  V30 1024 C 96.2414 1.77677 -0.638472 0
M  V30 1025 O 95.5984 1.78219 0.392968 0
M  V30 1026 C 95.6494 1.86734 -3.09536 0
M  V30 1027 O 95.3704 1.07887 -4.24608 0
M  V30 1028 C 96.8714 2.72082 -3.4998 0
M  V30 1029 H 94.0914 0.279611 -0.609966 0
M  V30 1030 H 96.6354 0.228197 -2.03223 0
M  V30 1031 H 94.7904 2.5481 -2.91806 0
M  V30 1032 H 95.2044 1.69872 -4.9623 0
M  V30 1033 H 96.6784 3.31782 -4.41163 0
M  V30 1034 H 97.1554 3.44806 -2.7204 0
M  V30 1035 H 97.7614 2.09409 -3.70173 0
M  V30 1036 N 96.0765 1.50051 0.48192 0
M  V30 1037 C 97.0265 1.64512 1.5786 0
M  V30 1038 C 98.0105 0.500073 1.52932 0
M  V30 1039 O 99.2025 0.753964 1.60139 0
M  V30 1040 C 96.3315 1.73263 2.9637 0
M  V30 1041 C 95.4175 2.93409 3.06222 0
M  V30 1042 N 95.8085 4.17236 2.85915 0
M  V30 1043 C 94.1065 2.91742 3.37346 0
M  V30 1044 C 94.8075 4.981 3.00451 0
M  V30 1045 N 93.7835 4.3184 3.30174 0
M  V30 1046 H 97.5855 2.57955 1.40842 0
M  V30 1047 H 95.0995 1.47086 0.688439 0
M  V30 1048 H 97.0965 1.81724 3.75209 0
M  V30 1049 H 95.7565 0.809711 3.14442 0
M  V30 1050 H 96.7675 4.46909 2.6171 0
M  V30 1051 H 93.4445 2.08907 3.61475 0
M  V30 1052 H 94.8345 6.06532 2.89082 0
M  V30 1053 N 97.5546 -0.734337 1.39446 0
M  V30 1054 C 98.5176 -1.83004 1.37994 0
M  V30 1055 C 99.5176 -1.58397 0.276938 0
M  V30 1056 O 100.708 -1.65785 0.534875 0
M  V30 1057 C 97.8396 -3.20802 1.1532 0
M  V30 1058 H 99.0326 -1.85694 2.35494 0
M  V30 1059 H 96.5856 -0.938059 1.25021 0
M  V30 1060 H 97.3206 -3.23772 0.185036 0
M  V30 1061 H 97.1056 -3.4006 1.95197 0
M  V30 1062 H 98.5956 -4.00862 1.17046 0
M  V30 1063 N 99.0327 -1.24633 -0.964593 0
M  V30 1064 C 99.9797 -1.04144 -2.05968 0
M  V30 1065 C 100.95 0.046262 -1.66036 0
M  V30 1066 O 102.135 -0.108972 -1.90489 0
M  V30 1067 C 99.2747 -0.65563 -3.38815 0
M  V30 1068 C 98.3877 -1.81714 -3.91923 0
M  V30 1069 C 97.5227 -1.37662 -5.13052 0
M  V30 1070 C 96.5617 -2.50788 -5.58365 0
M  V30 1071 N 95.6987 -2.07582 -6.70712 0
M  V30 1072 H 100.539 -1.9787 -2.22827 0
M  V30 1073 H 98.0757 -0.9855 -1.09208 0
M  V30 1074 H 100.034 -0.412954 -4.15151 0
M  V30 1075 H 98.6637 0.244627 -3.21872 0
M  V30 1076 H 97.7157 -2.1734 -3.12198 0
M  V30 1077 H 99.0277 -2.66705 -4.21509 0
M  V30 1078 H 98.1817 -1.093 -5.96773 0
M  V30 1079 H 96.9207 -0.497293 -4.85158 0
M  V30 1080 H 95.9257 -2.79906 -4.73215 0
M  V30 1081 H 97.1507 -3.39283 -5.88272 0
M  V30 1082 H 95.0967 -1.22051 -6.44546 0
M  V30 1083 H 95.0137 -2.86125 -6.99763 0
M  V30 1084 H 96.2817 -1.82369 -7.57867 0
M  V30 1085 N 100.511 1.16574 -1.06058 0
M  V30 1086 C 101.927 1.3904 -0.783585 0
M  V30 1087 C 102.127 1.91784 0.618145 0
M  V30 1088 O 101.183 2.11511 1.37911 0
M  V30 1089 C 102.496 2.37329 -1.84649 0
M  V30 1090 C 104.044 2.51018 -1.86973 0
M  V30 1091 C 104.519 3.52588 -2.92311 0
M  V30 1092 N 106.01 3.60113 -2.91329 0
M  V30 1093 C 106.745 4.38486 -3.69482 0
M  V30 1094 N 106.241 5.20302 -4.57447 0
M  V30 1095 N 108.034 4.33446 -3.57885 0
M  V30 1096 H 100.185 0.806725 -1.96483 0
M  V30 1097 H 102.448 0.417117 -0.851303 0
M  V30 1098 H 102.154 2.05663 -2.85299 0
M  V30 1099 H 102.028 3.36946 -1.6955 0
M  V30 1100 H 104.415 2.81989 -0.869827 0
M  V30 1101 H 104.496 1.51445 -2.0615 0
M  V30 1102 H 104.14 3.22354 -3.92492 0
M  V30 1103 H 104.07 4.51886 -2.70383 0
M  V30 1104 H 106.561 3.01707 -2.27555 0
M  V30 1105 H 106.874 5.77311 -5.13743 0
M  V30 1106 H 105.219 5.19653 -4.61503 0
M  V30 1107 H 108.41 3.68586 -2.88551 0
M  V30 1108 H 108.583 4.94279 -4.19037 0
M  V30 1109 N 101.989 0.842826 1.3317 0
M  V30 1110 C 102.952 0.284065 2.27433 0
M  V30 1111 C 103.952 -0.54948 1.5112 0
M  V30 1112 O 105.142 -0.362699 1.70382 0
M  V30 1113 C 102.274 -0.599384 3.35589 0
M  V30 1114 H 103.467 1.11589 2.78366 0
M  V30 1115 H 101.02 0.616221 1.4364 0
M  V30 1116 H 101.755 -1.45349 2.89904 0
M  V30 1117 H 101.54 -0.00291266 3.921 0
M  V30 1118 H 103.03 -0.983488 4.05854 0
M  V30 1119 N 103.467 -1.45747 0.599634 0
M  V30 1120 C 104.697 -2.06369 0.0977132 0
M  V30 1121 C 105.105 -1.44624 -1.21985 0
M  V30 1122 O 104.448 -0.551831 -1.75216 0
M  V30 1123 C 104.51 -3.59284 -0.124673 0
M  V30 1124 C 104.174 -4.43318 1.10987 0
M  V30 1125 C 105.171 -4.78796 2.02609 0
M  V30 1126 C 102.856 -4.84194 1.33647 0
M  V30 1127 C 104.85 -5.53997 3.15224 0
M  V30 1128 C 102.537 -5.5915 2.46565 0
M  V30 1129 C 103.535 -5.93968 3.37182 0
M  V30 1130 O 103.223 -6.67405 4.48136 0
M  V30 1131 H 102.955 -0.673122 0.0623153 0
M  V30 1132 H 105.509 -1.88104 0.824981 0
M  V30 1133 H 103.739 -3.75919 -0.906745 0
M  V30 1134 H 105.428 -4.01775 -0.577201 0
M  V30 1135 H 106.194 -4.47781 1.86325 0
M  V30 1136 H 102.073 -4.56534 0.64016 0
M  V30 1137 H 105.617 -5.81091 3.85978 0
M  V30 1138 H 101.514 -5.89579 2.62805 0
M  V30 1139 H 102.282 -6.85847 4.46717 0
M  V30 1140 N 104.945 -0.338344 -1.53925 0
M  V30 1141 C 106.361 0.0137736 -1.59594 0
M  V30 1142 C 106.561 1.49186 -1.35447 0
M  V30 1143 O 105.617 2.24987 -1.14616 0
M  V30 1144 C 106.93 -0.41773 -2.97784 0
M  V30 1145 C 108.478 -0.369633 -3.1081 0
M  V30 1146 C 108.953 -0.776524 -4.51369 0
M  V30 1147 N 110.444 -0.730506 -4.57403 0
M  V30 1148 C 111.179 -1.01736 -5.64303 0
M  V30 1149 N 110.675 -1.3721 -6.79077 0
M  V30 1150 N 112.468 -0.941942 -5.54151 0
M  V30 1151 H 104.619 -1.3012 -1.67876 0
M  V30 1152 H 106.882 -0.530082 -0.78595 0
M  V30 1153 H 106.588 -1.44811 -3.20504 0
M  V30 1154 H 106.462 0.209729 -3.76616 0
M  V30 1155 H 108.849 0.651568 -2.87817 0
M  V30 1156 H 108.93 -1.03223 -2.34049 0
M  V30 1157 H 108.574 -1.79571 -4.75096 0
M  V30 1158 H 108.504 -0.0914649 -5.26521 0
M  V30 1159 H 110.995 -0.468783 -3.74981 0
M  V30 1160 H 111.308 -1.57597 -7.5656 0
M  V30 1161 H 109.653 -1.4105 -6.80536 0
M  V30 1162 H 112.844 -0.664184 -4.63364 0
M  V30 1163 H 113.017 -1.16884 -6.37371 0
M  V30 1164 N 106.423 1.57458 -0.0668435 0
M  V30 1165 C 107.333 2.15937 0.916975 0
M  V30 1166 C 108.349 1.12123 1.33058 0
M  V30 1167 O 109.525 1.44366 1.40429 0
M  V30 1168 C 106.59 2.70547 2.16807 0
M  V30 1169 C 105.651 3.89215 1.81135 0
M  V30 1170 C 104.884 4.41211 3.0028 0
M  V30 1171 O 105.107 3.92225 4.14144 0
M  V30 1172 O 104.041 5.32605 2.80384 0
M  V30 1173 H 107.867 3.00354 0.449561 0
M  V30 1174 H 105.452 1.48584 0.155949 0
M  V30 1175 H 107.334 3.0557 2.90181 0
M  V30 1176 H 106.009 1.89192 2.62656 0
M  V30 1177 H 104.916 3.59054 1.05028 0
M  V30 1178 H 106.249 4.71848 1.40073 0
M  V30 1179 N 107.901 -0.206675 1.56239 0
M  V30 1180 C 108.831 -1.25909 1.96645 0
M  V30 1181 C 109.812 -1.48097 0.836734 0
M  V30 1182 O 110.997 -1.6003 1.10019 0
M  V30 1183 C 108.127 -2.6058 2.29599 0
M  V30 1184 C 107.081 -2.53024 3.452 0
M  V30 1185 C 106.407 -3.91861 3.63798 0
M  V30 1186 C 107.707 -2.06524 4.79734 0
M  V30 1187 H 109.401 -0.923369 2.84806 0
M  V30 1188 H 106.947 -0.442735 1.37025 0
M  V30 1189 H 108.9 -3.34375 2.56459 0
M  V30 1190 H 107.624 -2.95869 1.38307 0
M  V30 1191 H 106.283 -1.81684 3.18412 0
M  V30 1192 H 105.931 -4.24483 2.69857 0
M  V30 1193 H 105.631 -3.87683 4.4156 0
M  V30 1194 H 107.155 -4.67296 3.93022 0
M  V30 1195 H 108.569 -2.70072 5.05702 0
M  V30 1196 H 106.966 -2.13374 5.60885 0
M  V30 1197 H 108.036 -1.01802 4.74093 0
M  V30 1198 N 109.379 -1.50304 -0.473955 0
M  V30 1199 C 110.625 -1.61389 -1.22806 0
M  V30 1200 C 110.958 -0.311955 -1.91678 0
M  V30 1201 O 110.233 0.686384 -1.81986 0
M  V30 1202 C 110.516 -2.79219 -2.27396 0
M  V30 1203 C 110.369 -4.19286 -1.62848 0
M  V30 1204 C 111.688 -2.92614 -3.28732 0
M  V30 1205 H 108.807 -0.587399 -0.445119 0
M  V30 1206 H 111.449 -1.82681 -0.522265 0
M  V30 1207 H 109.599 -2.61195 -2.87592 0
M  V30 1208 H 111.271 -4.48892 -1.06271 0
M  V30 1209 H 109.514 -4.23677 -0.931693 0
M  V30 1210 H 110.185 -4.97655 -2.38838 0
M  V30 1211 H 112.661 -3.09105 -2.78556 0
M  V30 1212 H 111.537 -3.76688 -3.99246 0
M  V30 1213 H 111.798 -2.03107 -3.92683 0
M  V30 1214 N 110.857 0.726932 -1.39834 0
M  V30 1215 C 111.787 1.85405 -1.41941 0
M  V30 1216 C 112.768 1.67751 -0.281728 0
M  V30 1217 O 113.953 1.8795 -0.488717 0
M  V30 1218 C 111.083 3.23243 -1.2701 0
M  V30 1219 C 110.037 3.55549 -2.38262 0
M  V30 1220 C 109.363 4.9241 -2.08415 0
M  V30 1221 C 110.663 3.577 -3.80589 0
M  V30 1222 H 112.357 1.83899 -2.36266 0
M  V30 1223 H 109.903 0.883349 -1.13723 0
M  V30 1224 H 111.856 4.01775 -1.27103 0
M  V30 1225 H 110.58 3.25296 -0.291564 0
M  V30 1226 H 109.239 2.79351 -2.37399 0
M  V30 1227 H 108.887 4.91052 -1.0898 0
M  V30 1228 H 108.587 5.14992 -2.82943 0
M  V30 1229 H 110.111 5.73289 -2.10171 0
M  V30 1230 H 111.525 4.26293 -3.83337 0
M  V30 1231 H 109.922 3.91804 -4.54543 0
M  V30 1232 H 110.992 2.57328 -4.10987 0
M  V30 1233 N 112.336 1.25143 0.95797 0
M  V30 1234 C 113.269 0.995565 2.05338 0
M  V30 1235 C 114.247 -0.0740423 1.62431 0
M  V30 1236 O 115.431 0.0649212 1.88388 0
M  V30 1237 C 112.558 0.504298 3.34925 0
M  V30 1238 C 111.604 1.56393 3.96792 0
M  V30 1239 S 112.437 3.14815 4.33188 0
M  V30 1240 C 113.593 2.67415 5.65898 0
M  V30 1241 H 113.826 1.92309 2.26726 0
M  V30 1242 H 111.359 1.08635 1.09716 0
M  V30 1243 H 113.317 0.227497 4.09869 0
M  V30 1244 H 111.978 -0.402671 3.11508 0
M  V30 1245 H 111.171 1.17082 4.90212 0
M  V30 1246 H 110.773 1.79124 3.28315 0
M  V30 1247 H 113.065 2.10833 6.4386 0
M  V30 1248 H 114.008 3.59463 6.10076 0
M  V30 1249 H 114.416 2.07521 5.24972 0
M  V30 1250 N 113.814 -1.1601 1.06675 0
M  V30 1251 C 114.761 -2.20525 0.680967 0
M  V30 1252 C 115.731 -1.62904 -0.324283 0
M  V30 1253 O 116.916 -1.89615 -0.212294 0
M  V30 1254 C 114.056 -3.45013 0.0776551 0
M  V30 1255 C 113.169 -4.16863 1.13355 0
M  V30 1256 C 112.304 -5.2888 0.49597 0
M  V30 1257 C 111.343 -5.92537 1.53513 0
M  V30 1258 N 110.48 -6.96038 0.920631 0
M  V30 1259 H 115.32 -2.52876 1.57663 0
M  V30 1260 H 112.857 -1.24199 0.788223 0
M  V30 1261 H 114.815 -4.16193 -0.289704 0
M  V30 1262 H 113.445 -3.132 -0.781393 0
M  V30 1263 H 112.497 -3.44248 1.61857 0
M  V30 1264 H 113.809 -4.60294 1.92174 0
M  V30 1265 H 112.963 -6.06653 0.0758604 0
M  V30 1266 H 111.702 -4.86622 -0.324062 0
M  V30 1267 H 110.707 -5.13482 1.9651 0
M  V30 1268 H 111.932 -6.36873 2.35733 0
M  V30 1269 H 109.878 -6.55888 0.12138 0
M  V30 1270 H 109.795 -7.3786 1.64616 0
M  V30 1271 H 111.063 -7.77725 0.525795 0
M  V30 1272 N 115.292 -0.849877 -1.32721 0
M  V30 1273 C 116.532 -0.457146 -1.99222 0
M  V30 1274 C 116.896 0.968038 -1.6581 0
M  V30 1275 O 118.097 1.46507 -2.25364 0
M  V30 1276 C 116.368 -0.683966 -3.50794 0
M  V30 1277 S 117.927 -0.388095 -4.3708 0
M  V30 1278 H 114.745 -0.171464 -0.690015 0
M  V30 1279 H 117.347 -1.10155 -1.61512 0
M  V30 1280 H 116.051 -1.72038 -3.726 0
M  V30 1281 H 115.582 -0.0258086 -3.93392 0
M  V30 1282 H 117.597 0.787791 -4.89906 0
M  V30 1283 N 116.77 1.45427 -0.607355 0
M  V30 1284 C 118.016 2.0254 -0.102607 0
M  V30 1285 C 118.349 1.47478 1.26348 0
M  V30 1286 O 117.624 0.64939 1.83339 0
M  V30 1287 C 117.907 3.60044 -0.0634347 0
M  V30 1288 C 117.76 4.2544 -1.46017 0
M  V30 1289 C 119.079 4.35646 0.624514 0
M  V30 1290 H 116.198 0.73598 -0.0387607 0
M  V30 1291 H 118.84 1.73284 -0.779282 0
M  V30 1292 H 116.99 3.85101 0.512808 0
M  V30 1293 H 118.662 4.11569 -2.08347 0
M  V30 1294 H 116.905 3.83849 -2.02094 0
M  V30 1295 H 117.576 5.34342 -1.385 0
M  V30 1296 H 120.052 4.15882 0.134723 0
M  V30 1297 H 118.928 5.45376 0.621028 0
M  V30 1298 H 119.189 4.08501 1.69055 0
M  V30 1299 N 118.248 0.346503 1.53744 0
M  V30 1300 C 119.196 -0.52422 2.26616 0
M  V30 1301 C 120.19 -1.09948 1.28871 0
M  V30 1302 O 121.396 -1.04488 1.46568 0
M  V30 1303 H 117.771 -0.187743 0.728187 0
M  V30 1304 H 119.742 0.11239 2.98188 0
M  V30 1305 C 118.491 -1.66186 3.05414 0
M  V30 1306 H 117.814 -1.22848 3.80458 0
M  V30 1307 H 119.254 -2.24622 3.59612 0
M  V30 1308 C 117.713 -2.59302 2.1509 0
M  V30 1309 O 118.243 -3.61628 1.74895 0
M  V30 1310 N 116.449 -2.28055 1.8011 0
M  V30 1311 H 115.996 -1.44883 2.12994 0
M  V30 1312 H 115.954 -2.90615 1.19958 0
M  V30 1313 N 119.726 -1.57421 0.075193 0
M  V30 1314 C 120.676 -2.09441 -0.901025 0
M  V30 1315 C 121.66 -1.00486 -1.25663 0
M  V30 1316 O 122.852 -1.2679 -1.23504 0
M  V30 1317 C 119.981 -2.66233 -2.16737 0
M  V30 1318 C 119.067 -3.82198 -1.83808 0
M  V30 1319 N 119.458 -4.91028 -1.21345 0
M  V30 1320 C 117.756 -3.91558 -2.13538 0
M  V30 1321 C 118.457 -5.71852 -1.06585 0
M  V30 1322 N 117.433 -5.20233 -1.57667 0
M  V30 1323 H 121.235 -2.90972 -0.413815 0
M  V30 1324 H 118.749 -1.6189 -0.128601 0
M  V30 1325 H 120.746 -3.01819 -2.87595 0
M  V30 1326 H 119.406 -1.8615 -2.66042 0
M  V30 1327 H 120.417 -5.10323 -0.88268 0
M  V30 1328 H 117.094 -3.22454 -2.65197 0
M  V30 1329 H 118.484 -6.69401 -0.578933 0
M  V30 1330 N 121.204 0.198386 -1.56346 0
M  V30 1331 C 122.151 1.24589 -1.94284 0
M  V30 1332 C 123.121 1.454 -0.802997 0
M  V30 1333 O 124.306 1.58588 -1.06087 0
M  V30 1334 C 121.446 2.58631 -2.28482 0
M  V30 1335 C 120.559 2.45426 -3.55514 0
M  V30 1336 C 119.694 3.7215 -3.79049 0
M  V30 1337 C 118.733 3.53763 -4.99518 0
M  V30 1338 N 117.87 4.72491 -5.19323 0
M  V30 1339 H 122.71 0.915356 -2.83593 0
M  V30 1340 H 120.247 0.440629 -1.40346 0
M  V30 1341 H 122.205 3.3672 -2.46324 0
M  V30 1342 H 120.835 2.89734 -1.42317 0
M  V30 1343 H 119.887 1.58652 -3.45737 0
M  V30 1344 H 121.199 2.27772 -4.43758 0
M  V30 1345 H 120.353 4.58679 -3.97113 0
M  V30 1346 H 119.092 3.92754 -2.89129 0
M  V30 1347 H 118.097 2.65619 -4.8138 0
M  V30 1348 H 119.322 3.34607 -5.90944 0
M  V30 1349 H 117.268 4.93365 -4.3235 0
M  V30 1350 H 117.185 4.5765 -6.01741 0
M  V30 1351 H 118.453 5.6038 -5.41843 0
M  V30 1352 N 122.682 1.50554 0.465978 0
M  V30 1353 C 123.63 1.70324 1.58406 0
M  V30 1354 C 124.624 0.569139 1.59553 0
M  V30 1355 O 125.83 0.749776 1.63641 0
M  V30 1356 H 122.205 0.537688 0.525734 0
M  V30 1357 H 124.176 2.64104 1.38894 0
M  V30 1358 C 122.925 1.81928 2.96307 0
M  V30 1359 H 122.248 2.68586 2.96144 0
M  V30 1360 H 123.688 1.99784 3.73982 0
M  V30 1361 C 122.147 0.572095 3.32007 0
M  V30 1362 O 122.677 -0.286416 4.00678 0
M  V30 1363 N 120.883 0.424606 2.87481 0
M  V30 1364 H 120.43 1.12427 2.31771 0
M  V30 1365 H 120.388 -0.408697 3.11732 0
M  V30 1366 N 124.16 -0.719506 1.40217 0
M  V30 1367 C 125.409 -1.47486 1.37589 0
M  V30 1368 C 125.722 -1.9559 -0.0201568 0
M  V30 1369 O 126.928 -2.70973 -0.169049 0
M  V30 1370 C 125.384 -2.66575 2.41796 0
M  V30 1371 C 124.992 -2.25358 3.87192 0
M  V30 1372 C 126.736 -3.4433 2.48269 0
M  V30 1373 C 124.643 -3.41262 4.83005 0
M  V30 1374 H 123.573 -0.553901 0.511576 0
M  V30 1375 H 126.224 -0.783427 1.65936 0
M  V30 1376 H 124.606 -3.3787 2.06543 0
M  V30 1377 H 125.78 -1.61509 4.31569 0
M  V30 1378 H 124.095 -1.60657 3.84159 0
M  V30 1379 H 126.692 -4.30569 3.17041 0
M  V30 1380 H 127.035 -3.87872 1.51198 0
M  V30 1381 H 127.568 -2.80076 2.82493 0
M  V30 1382 H 124.307 -3.02755 5.81394 0
M  V30 1383 H 123.827 -4.0404 4.43297 0
M  V30 1384 H 125.506 -4.07383 5.02641 0
M  V30 1385 N 125.638 -1.25649 -0.95132 0
M  V30 1386 C 126.887 -1.09988 -1.69073 0
M  V30 1387 C 127.2 0.358355 -1.92289 0
M  V30 1388 O 128.406 0.635466 -2.63958 0
M  V30 1389 C 126.862 -1.92012 -3.044 0
M  V30 1390 C 126.47 -3.42347 -2.88968 0
M  V30 1391 C 128.214 -1.8493 -3.82101 0
M  V30 1392 C 126.121 -4.16655 -4.19705 0
M  V30 1393 H 125.051 -0.407993 -0.63408 0
M  V30 1394 H 127.702 -1.49873 -1.05879 0
M  V30 1395 H 126.084 -1.44952 -3.68517 0
M  V30 1396 H 127.258 -3.97104 -2.33762 0
M  V30 1397 H 125.573 -3.50557 -2.24719 0
M  V30 1398 H 128.17 -2.37739 -4.78941 0
M  V30 1399 H 128.513 -0.817883 -4.08187 0
M  V30 1400 H 129.046 -2.29758 -3.2474 0
M  V30 1401 H 125.785 -5.20224 -3.98807 0
M  V30 1402 H 125.305 -3.66681 -4.74663 0
M  V30 1403 H 126.984 -4.24551 -4.88227 0
M  V30 1404 N 127.117 1.15442 -1.07289 0
M  V30 1405 C 128.365 1.85845 -0.794096 0
M  V30 1406 C 128.686 1.82692 0.681809 0
M  V30 1407 O 127.956 1.26741 1.49377 0
M  V30 1408 H 126.536 0.688089 -0.290763 0
M  V30 1409 H 129.198 1.39947 -1.3565 0
M  V30 1410 H 128.294 2.91001 -1.12804 0
M  V30 1411 N 128.595 0.856903 1.32268 0
M  V30 1412 C 129.525 0.31858 2.31316 0
M  V30 1413 C 130.506 -0.583487 1.59779 0
M  V30 1414 O 131.691 -0.503259 1.87566 0
M  V30 1415 C 128.821 -0.491979 3.43798 0
M  V30 1416 C 127.775 0.315849 4.26833 0
M  V30 1417 C 127.101 -0.619586 5.31098 0
M  V30 1418 C 128.401 1.54282 4.98993 0
M  V30 1419 H 130.095 1.14621 2.76591 0
M  V30 1420 H 127.641 0.552613 1.32974 0
M  V30 1421 H 129.594 -0.879012 4.1213 0
M  V30 1422 H 128.318 -1.35299 2.97257 0
M  V30 1423 H 126.977 0.684664 3.6015 0
M  V30 1424 H 126.625 -1.47751 4.8081 0
M  V30 1425 H 126.325 -0.0830621 5.87541 0
M  V30 1426 H 127.849 -1.00375 6.02293 0
M  V30 1427 H 129.263 1.22796 5.59995 0
M  V30 1428 H 127.66 2.01745 5.65172 0
M  V30 1429 H 128.73 2.30285 4.26728 0
M  V30 1430 N 130.073 -1.45103 0.615059 0
M  V30 1431 C 131.003 -2.33339 -0.0865619 0
M  V30 1432 C 131.984 -1.4727 -0.851209 0
M  V30 1433 O 133.169 -1.76026 -0.820281 0
M  V30 1434 C 130.299 -3.30095 -1.07956 0
M  V30 1435 C 129.253 -4.25858 -0.427628 0
M  V30 1436 C 128.579 -5.12361 -1.5294 0
M  V30 1437 C 129.879 -5.18165 0.655944 0
M  V30 1438 H 131.573 -2.92254 0.650224 0
M  V30 1439 H 129.119 -1.40532 0.314138 0
M  V30 1440 H 131.072 -3.90698 -1.57901 0
M  V30 1441 H 129.796 -2.69355 -1.84703 0
M  V30 1442 H 128.455 -3.66564 0.0510292 0
M  V30 1443 H 128.103 -4.47984 -2.28734 0
M  V30 1444 H 127.803 -5.77238 -1.09865 0
M  V30 1445 H 129.327 -5.75833 -2.03098 0
M  V30 1446 H 130.741 -5.72796 0.240257 0
M  V30 1447 H 129.138 -5.91559 1.00888 0
M  V30 1448 H 130.208 -4.60144 1.52957 0
M  V30 1449 N 131.551 -0.354651 -1.53558 0
M  V30 1450 C 132.499 0.512195 -2.26891 0
M  V30 1451 C 133.493 1.09263 -1.29452 0
M  V30 1452 O 134.699 1.03709 -1.47121 0
M  V30 1453 H 131.074 0.183878 -0.729173 0
M  V30 1454 H 133.045 -0.128202 -2.98124 0
M  V30 1455 C 131.794 1.64563 -3.06291 0
M  V30 1456 H 131.117 1.20829 -3.81104 0
M  V30 1457 H 132.557 2.22711 -3.60799 0
M  V30 1458 C 131.016 2.58158 -2.16462 0
M  V30 1459 O 131.546 3.60695 -1.76811 0
M  V30 1460 N 129.752 2.27096 -1.81317 0
M  V30 1461 H 129.299 1.43751 -2.1376 0
M  V30 1462 H 129.257 2.89975 -1.21498 0
M  V30 1463 N 133.029 1.57378 -0.0835403 0
M  V30 1464 C 134.275 1.94217 0.583733 0
M  V30 1465 C 134.608 0.964653 1.68547 0
M  V30 1466 O 133.883 -0.00422258 1.945 0
M  V30 1467 C 134.166 3.41253 1.14972 0
M  V30 1468 C 134.019 4.49768 0.0538277 0
M  V30 1469 C 135.338 3.89352 2.05166 0
M  V30 1470 H 132.457 0.706233 0.210724 0
M  V30 1471 H 135.099 1.89392 -0.1519 0
M  V30 1472 H 133.249 3.45496 1.77665 0
M  V30 1473 H 134.921 4.57641 -0.579851 0
M  V30 1474 H 133.164 4.29432 -0.614068 0
M  V30 1475 H 133.835 5.49817 0.490452 0
M  V30 1476 H 136.311 3.87189 1.52393 0
M  V30 1477 H 135.187 4.92822 2.41698 0
M  V30 1478 H 135.448 3.27973 2.96456 0
M  V30 1479 N 134.507 -0.190092 1.56449 0
M  V30 1480 C 135.754 -0.909705 1.80916 0
M  V30 1481 C 136.082 -1.83047 0.657583 0
M  V30 1482 O 135.337 -1.92428 -0.356356 0
M  V30 1483 C 135.636 -1.75382 3.1141 0
M  V30 1484 C 135.302 -0.983606 4.40041 0
M  V30 1485 C 133.964 -0.770967 4.74984 0
M  V30 1486 C 136.316 -0.442024 5.19322 0
M  V30 1487 C 133.644 -0.0053448 5.867 0
M  V30 1488 C 135.996 0.310412 6.31838 0
M  V30 1489 C 134.66 0.534023 6.6536 0
M  V30 1490 H 133.93 -0.332885 0.662019 0
M  V30 1491 H 136.577 -0.175762 1.90692 0
M  V30 1492 H 134.882 -2.55659 2.96893 0
M  V30 1493 H 136.579 -2.31331 3.27547 0
M  V30 1494 H 133.169 -1.15936 4.12622 0
M  V30 1495 H 137.353 -0.593693 4.92736 0
M  V30 1496 H 132.609 0.177825 6.11141 0
M  V30 1497 H 136.783 0.737419 6.92485 0
M  V30 1498 H 134.41 1.12918 7.51767 0
M  V30 1499 N 135.985 -1.50799 -0.457987 0
M  V30 1500 C 137.213 -1.66218 -1.23203 0
M  V30 1501 C 137.628 -0.350894 -1.85511 0
M  V30 1502 O 136.985 0.668546 -1.69814 0
M  V30 1503 C 137.036 -2.76291 -2.33121 0
M  V30 1504 O 136.757 -4.02338 -1.73366 0
M  V30 1505 C 138.258 -3.028 -3.2377 0
M  V30 1506 H 135.478 -0.558361 -0.372121 0
M  V30 1507 H 138.022 -1.97099 -0.545179 0
M  V30 1508 H 136.177 -2.48068 -2.97558 0
M  V30 1509 H 136.591 -4.63312 -2.4585 0
M  V30 1510 H 138.065 -3.8345 -3.97077 0
M  V30 1511 H 138.542 -2.14385 -3.83322 0
M  V30 1512 H 139.148 -3.32604 -2.65056 0
M  V30 1513 N 137.463 0.71206 -1.40597 0
M  V30 1514 C 138.874 1.29135 -1.34837 0
M  V30 1515 C 139.225 1.96186 -0.0235395 0
M  V30 1516 O 138.35 1.97768 0.878444 0
M  V30 1517 C 138.945 2.34827 -2.44217 0
M  V30 1518 C 137.504 2.88371 -2.41907 0
M  V30 1519 C 136.651 1.62202 -2.24913 0
M  V30 1520 H 139.602 0.507944 -1.50352 0
M  V30 1521 H 139.623 3.15749 -2.12327 0
M  V30 1522 H 139.135 1.85996 -3.40627 0
M  V30 1523 H 137.236 3.41422 -1.49204 0
M  V30 1524 H 137.349 3.39925 -3.37621 0
M  V30 1525 H 135.713 1.874 -1.72492 0
M  V30 1526 H 136.496 1.15391 -3.23326 0
M  V30 1527 N 138.941 1.26152 0.944643 0
M  V30 1528 C 139.873 1.03199 2.04652 0
M  V30 1529 C 140.886 -0.00642356 1.62799 0
M  V30 1530 O 142.075 0.233263 1.76969 0
M  V30 1531 C 139.175 0.540111 3.34568 0
M  V30 1532 C 138.348 1.64697 4.05208 0
M  V30 1533 C 137.407 1.15374 5.13396 0
M  V30 1534 O 136.433 1.85013 5.38293 0
M  V30 1535 N 137.635 0.00031529 5.805 0
M  V30 1536 H 140.4 1.9808 2.2491 0
M  V30 1537 H 137.961 1.17491 1.11389 0
M  V30 1538 H 139.953 0.194401 4.04233 0
M  V30 1539 H 138.523 -0.315021 3.11009 0
M  V30 1540 H 137.743 2.16379 3.29506 0
M  V30 1541 H 139.031 2.3903 4.49157 0
M  V30 1542 H 138.429 -0.581336 5.62705 0
M  V30 1543 H 136.986 -0.286346 6.51171 0
M  V30 1544 N 140.419 -1.14872 1.07899 0
M  V30 1545 C 141.366 -2.19791 0.704319 0
M  V30 1546 C 142.336 -1.63238 -0.306987 0
M  V30 1547 O 143.521 -1.8983 -0.192171 0
M  V30 1548 C 140.661 -3.44911 0.114244 0
M  V30 1549 C 139.774 -4.15637 1.1777 0
M  V30 1550 C 138.909 -5.28324 0.552037 0
M  V30 1551 C 137.948 -5.90875 1.59789 0
M  V30 1552 N 137.085 -6.95022 0.994404 0
M  V30 1553 H 141.925 -2.5119 1.60336 0
M  V30 1554 H 139.462 -1.23356 0.801352 0
M  V30 1555 H 141.42 -4.16477 -0.245544 0
M  V30 1556 H 140.05 -3.14011 -0.74813 0
M  V30 1557 H 139.102 -3.42512 1.65499 0
M  V30 1558 H 140.414 -4.5823 1.97046 0
M  V30 1559 H 139.568 -6.06538 0.1402 0
M  V30 1560 H 138.307 -4.86939 -0.272431 0
M  V30 1561 H 137.312 -5.11369 2.01945 0
M  V30 1562 H 138.537 -6.34337 2.42474 0
M  V30 1563 H 136.483 -6.55722 0.190939 0
M  V30 1564 H 136.4 -7.36073 1.72432 0
M  V30 1565 H 137.668 -7.77123 0.608253 0
M  V30 1566 N 141.898 -0.863906 -1.31812 0
M  V30 1567 C 143.123 -0.48527 -2.01643 0
M  V30 1568 C 143.548 0.913058 -1.64453 0
M  V30 1569 O 142.906 1.6014 -0.849985 0
M  V30 1570 C 142.954 -0.642625 -3.54828 0
M  V30 1571 O 142.058 0.320659 -4.11151 0
M  V30 1572 H 141.399 -0.193793 -0.635091 0
M  V30 1573 H 143.929 -1.16565 -1.68148 0
M  V30 1574 H 143.939 -0.533628 -4.04495 0
M  V30 1575 H 142.614 -1.66227 -3.81237 0
M  V30 1576 H 141.191 0.167126 -3.72525 0
M  V30 1577 N 143.376 1.44774 -0.622745 0
M  V30 1578 C 144.306 2.33382 0.0741861 0
M  V30 1579 C 145.287 1.47719 0.843387 0
M  V30 1580 O 146.472 1.76458 0.810934 0
M  V30 1581 C 143.602 3.30663 1.06204 0
M  V30 1582 C 142.556 4.26079 0.405037 0
M  V30 1583 C 141.882 5.13165 1.5022 0
M  V30 1584 C 143.182 5.1781 -0.683414 0
M  V30 1585 H 144.876 2.91905 -0.665713 0
M  V30 1586 H 142.422 1.40363 -0.321587 0
M  V30 1587 H 144.375 3.9153 1.55827 0
M  V30 1588 H 143.099 2.70331 1.83272 0
M  V30 1589 H 141.758 3.66532 -0.0704683 0
M  V30 1590 H 141.406 4.49191 2.26355 0
M  V30 1591 H 141.106 5.77812 1.06803 0
M  V30 1592 H 142.63 5.76902 2.00041 0
M  V30 1593 H 144.044 5.72661 -0.270631 0
M  V30 1594 H 142.441 5.91015 -1.04023 0
M  V30 1595 H 143.511 4.59326 -1.55395 0
M  V30 1596 N 144.854 0.36279 1.53368 0
M  V30 1597 C 145.764 -0.492994 2.29362 0
M  V30 1598 C 146.78 -1.09507 1.35219 0
M  V30 1599 O 147.956 -1.10662 1.68273 0
M  V30 1600 C 145.021 -1.61855 3.066 0
M  V30 1601 C 144.082 -1.04429 4.16405 0
M  V30 1602 C 143.315 -2.11621 4.89951 0
M  V30 1603 O 143.538 -3.32684 4.63333 0
M  V30 1604 O 142.472 -1.74835 5.75948 0
M  V30 1605 H 146.298 0.125331 3.03441 0
M  V30 1606 H 143.883 0.127253 1.48857 0
M  V30 1607 H 145.765 -2.27302 3.54841 0
M  V30 1608 H 144.44 -2.22233 2.3536 0
M  V30 1609 H 143.347 -0.353819 3.72423 0
M  V30 1610 H 144.68 -0.485113 4.89804 0
M  V30 1611 N 146.332 -1.57332 0.0918853 0
M  V30 1612 C 147.242 -2.17368 -0.882505 0
M  V30 1613 C 148.258 -1.14226 -1.31257 0
M  V30 1614 O 149.434 -1.46582 -1.38115 0
M  V30 1615 C 146.499 -2.73962 -2.12476 0
M  V30 1616 C 145.56 -3.92048 -1.7492 0
M  V30 1617 C 144.793 -4.45933 -2.93223 0
M  V30 1618 O 145.016 -3.98764 -4.07852 0
M  V30 1619 O 143.95 -5.36999 -2.71875 0
M  V30 1620 H 147.776 -3.01031 -0.40172 0
M  V30 1621 H 145.361 -1.48813 -0.132291 0
M  V30 1622 H 147.243 -3.10147 -2.85283 0
M  V30 1623 H 145.918 -1.93347 -2.59613 0
M  V30 1624 H 144.825 -3.6068 -0.993025 0
M  V30 1625 H 146.158 -4.74017 -1.32548 0
M  V30 1626 N 147.81 0.181792 -1.56548 0
M  V30 1627 C 149.057 0.900097 -1.81396 0
M  V30 1628 C 149.385 1.82695 -0.667281 0
M  V30 1629 O 148.64 1.92614 0.346146 0
M  V30 1630 C 148.939 1.73728 -3.12335 0
M  V30 1631 C 148.605 0.960255 -4.40556 0
M  V30 1632 C 147.267 0.745766 -4.75386 0
M  V30 1633 C 149.619 0.414477 -5.19549 0
M  V30 1634 C 146.947 -0.0257694 -5.86694 0
M  V30 1635 C 149.299 -0.343916 -6.31664 0
M  V30 1636 C 147.963 -0.569301 -6.65068 0
M  V30 1637 H 147.233 0.329369 -0.663775 0
M  V30 1638 H 149.88 0.165647 -1.90782 0
M  V30 1639 H 148.185 2.54081 -2.98245 0
M  V30 1640 H 149.882 2.29591 -3.28769 0
M  V30 1641 H 146.472 1.13746 -4.13231 0
M  V30 1642 H 150.656 0.567554 -4.93044 0
M  V30 1643 H 145.912 -0.210233 -6.11038 0
M  V30 1644 H 150.086 -0.774133 -6.92084 0
M  V30 1645 H 147.713 -1.16903 -7.51158 0
M  V30 1646 N 149.288 1.51039 0.449983 0
M  V30 1647 C 150.22 1.67617 1.56324 0
M  V30 1648 C 151.233 0.557083 1.52972 0
M  V30 1649 O 152.422 0.830989 1.57977 0
M  V30 1650 C 149.522 1.66402 2.95235 0
M  V30 1651 C 148.695 2.9469 3.23229 0
M  V30 1652 C 147.754 2.85832 4.41799 0
M  V30 1653 O 146.78 3.59785 4.41071 0
M  V30 1654 N 147.982 2.00821 5.44657 0
M  V30 1655 H 150.747 2.63648 1.42512 0
M  V30 1656 H 148.308 1.48767 0.638737 0
M  V30 1657 H 150.3 1.58062 3.72557 0
M  V30 1658 H 148.87 0.780182 3.02708 0
M  V30 1659 H 148.09 3.16996 2.34323 0
M  V30 1660 H 149.378 3.79636 3.38754 0
M  V30 1661 H 148.776 1.40091 5.48079 0
M  V30 1662 H 147.333 1.98368 6.20881 0
M  V30 1663 N 150.766 -0.704594 1.40972 0
M  V30 1664 C 152.043 -1.45847 1.30338 0
M  V30 1665 C 152.423 -2.10973 -0.0732344 0
M  V30 1666 O 151.771 -2.00997 -1.08685 0
M  V30 1667 C 151.981 -2.48525 2.45023 0
M  V30 1668 C 153.329 -3.1404 2.8577 0
M  V30 1669 O 154.353 -2.58848 2.44696 0
M  V30 1670 O 153.212 -4.13981 3.56766 0
M  V30 1671 H 150.306 -0.649092 0.512454 0
M  V30 1672 H 152.852 -0.735836 1.52917 0
M  V30 1673 H 151.624 -1.98994 3.36923 0
M  V30 1674 H 151.247 -3.2831 2.24272 0
M  V30 1675 N 152.244 -1.26651 -0.937939 0
M  V30 1676 C 153.49 -1.12553 -1.687 0
M  V30 1677 C 153.823 0.329782 -1.91379 0
M  V30 1678 O 153.098 1.24202 -1.4968 0
M  V30 1679 C 153.381 -1.89862 -3.05981 0
M  V30 1680 C 153.234 -3.43318 -2.90607 0
M  V30 1681 C 154.553 -1.69499 -4.0615 0
M  V30 1682 H 151.672 -0.410257 -0.612257 0
M  V30 1683 H 154.314 -1.55685 -1.08913 0
M  V30 1684 H 152.464 -1.53204 -3.57017 0
M  V30 1685 H 154.136 -3.89747 -2.46769 0
M  V30 1686 H 152.379 -3.70179 -2.26164 0
M  V30 1687 H 153.05 -3.92642 -3.8799 0
M  V30 1688 H 155.526 -2.01442 -3.64088 0
M  V30 1689 H 154.402 -2.26002 -5.00214 0
M  V30 1690 H 154.663 -0.640365 -4.37438 0
M  V30 1691 N 153.722 1.14298 -1.08507 0
M  V30 1692 C 154.952 1.88945 -0.835663 0
M  V30 1693 C 155.36 1.78894 0.615928 0
M  V30 1694 O 154.703 1.1468 1.43506 0
M  V30 1695 C 154.765 3.39585 -1.17994 0
M  V30 1696 C 154.429 3.7342 -2.63451 0
M  V30 1697 C 155.426 3.73454 -3.61702 0
M  V30 1698 C 153.111 4.03368 -2.99332 0
M  V30 1699 C 155.105 4.02961 -4.93864 0
M  V30 1700 C 152.792 4.32538 -4.31687 0
M  V30 1701 C 153.79 4.32318 -5.28763 0
M  V30 1702 O 153.478 4.6078 -6.58739 0
M  V30 1703 H 153.21 0.605307 -0.300965 0
M  V30 1704 H 155.764 1.45673 -1.44806 0
M  V30 1705 H 153.994 3.83315 -0.51055 0
M  V30 1706 H 155.683 3.9554 -0.911182 0
M  V30 1707 H 156.449 3.50403 -3.35325 0
M  V30 1708 H 152.328 4.02692 -2.24411 0
M  V30 1709 H 155.872 4.02704 -5.69627 0
M  V30 1710 H 151.769 4.55059 -4.57812 0
M  V30 1711 H 152.537 4.78492 -6.64069 0
M  V30 1712 N 155.201 0.870884 1.31352 0
M  V30 1713 C 156.45 0.478408 1.95944 0
M  V30 1714 C 156.763 -0.974493 1.69597 0
M  V30 1715 O 157.969 -1.47316 2.28058 0
M  V30 1716 C 156.425 0.804609 3.50791 0
M  V30 1717 C 156.033 2.27433 3.85977 0
M  V30 1718 C 157.777 0.480648 4.2177 0
M  V30 1719 C 155.684 2.5429 5.33939 0
M  V30 1720 H 154.614 0.175175 0.733369 0
M  V30 1721 H 157.265 1.06391 1.4951 0
M  V30 1722 H 155.647 0.148347 3.95722 0
M  V30 1723 H 156.821 2.97373 3.52002 0
M  V30 1724 H 155.136 2.56442 3.28065 0
M  V30 1725 H 157.733 0.658519 5.30629 0
M  V30 1726 H 158.076 -0.578979 4.12254 0
M  V30 1727 H 158.609 1.09349 3.82476 0
M  V30 1728 H 155.348 3.58939 5.48491 0
M  V30 1729 H 154.868 1.88945 5.69263 0
M  V30 1730 H 156.547 2.39066 6.01212 0
M  V30 1731 N 156.679 -1.44442 0.630414 0
M  V30 1732 C 157.925 -2.02351 0.134816 0
M  V30 1733 C 158.258 -1.4947 -1.23986 0
M  V30 1734 O 157.533 -0.678475 -1.82283 0
M  V30 1735 C 157.816 -3.59898 0.120707 0
M  V30 1736 C 157.669 -4.23063 1.52767 0
M  V30 1737 C 158.988 -4.36585 -0.555127 0
M  V30 1738 H 156.107 -0.73527 0.0504646 0
M  V30 1739 H 158.749 -1.72022 0.806751 0
M  V30 1740 H 156.899 -3.85868 -0.451477 0
M  V30 1741 H 158.571 -4.08202 2.14869 0
M  V30 1742 H 156.814 -3.80586 2.08175 0
M  V30 1743 H 157.485 -5.32071 1.46984 0
M  V30 1744 H 159.961 -4.16044 -0.0685429 0
M  V30 1745 H 158.837 -5.46294 -0.534185 0
M  V30 1746 H 159.098 -4.11138 -1.62535 0
M  V30 1747 N 158.157 -0.370918 -1.53173 0
M  V30 1748 C 159.09 0.516727 -2.22273 0
M  V30 1749 C 160.068 1.07877 -1.21661 0
M  V30 1750 O 161.252 1.13389 -1.50583 0
M  V30 1751 C 158.379 1.71346 -2.92161 0
M  V30 1752 C 157.425 1.27838 -4.0689 0
M  V30 1753 S 158.258 0.275217 -5.34792 0
M  V30 1754 C 159.414 1.47816 -6.08195 0
M  V30 1755 H 159.647 -0.0701054 -2.97217 0
M  V30 1756 H 157.18 -0.155038 -1.5362 0
M  V30 1757 H 159.138 2.39988 -3.3304 0
M  V30 1758 H 157.799 2.27156 -2.16931 0
M  V30 1759 H 156.992 2.17141 -4.54825 0
M  V30 1760 H 156.594 0.671105 -3.6793 0
M  V30 1761 H 158.886 2.40831 -6.33251 0
M  V30 1762 H 159.829 1.04008 -7.0042 0
M  V30 1763 H 160.237 1.68663 -5.38714 0
M  V30 1764 N 159.635 1.57281 -0.100228 0
M  V30 1765 C 160.545 2.17833 0.870965 0
M  V30 1766 C 161.561 1.14921 1.30649 0
M  V30 1767 O 162.737 1.47313 1.37335 0
M  V30 1768 C 159.802 2.75085 2.1102 0
M  V30 1769 C 158.863 3.9297 1.72838 0
M  V30 1770 C 158.096 4.47482 2.90854 0
M  V30 1771 O 158.319 4.00922 4.05731 0
M  V30 1772 O 157.253 5.38433 2.69023 0
M  V30 1773 H 161.079 3.0124 0.38575 0
M  V30 1774 H 158.664 1.48881 0.124397 0
M  V30 1775 H 160.546 3.11656 2.83634 0
M  V30 1776 H 159.221 1.94721 2.58584 0
M  V30 1777 H 158.128 3.61201 0.973883 0
M  V30 1778 H 159.461 4.74713 1.30033 0
M  V30 1779 N 161.113 -0.173488 1.56642 0
M  V30 1780 C 162.043 -1.2171 1.99271 0
M  V30 1781 C 163.024 -1.46289 0.867959 0
M  V30 1782 O 164.209 -1.5766 1.13388 0
M  V30 1783 C 161.339 -2.55651 2.35074 0
M  V30 1784 C 160.293 -2.45645 3.50489 0
M  V30 1785 C 159.619 -3.84056 3.72028 0
M  V30 1786 C 160.919 -1.96302 4.84007 0
M  V30 1787 H 162.613 -0.86275 2.867 0
M  V30 1788 H 160.159 -0.413571 1.37933 0
M  V30 1789 H 162.112 -3.2886 2.63494 0
M  V30 1790 H 160.836 -2.92869 1.44552 0
M  V30 1791 H 159.495 -1.7489 3.22194 0
M  V30 1792 H 159.143 -4.18664 2.788 0
M  V30 1793 H 158.843 -3.7823 4.49684 0
M  V30 1794 H 160.367 -4.58854 4.02846 0
M  V30 1795 H 161.781 -2.59284 5.11317 0
M  V30 1796 H 160.178 -2.01429 5.65284 0
M  V30 1797 H 161.248 -0.917226 4.76146 0
M  V30 1798 N 162.591 -1.51276 -0.441967 0
M  V30 1799 C 163.524 -1.66933 -1.55591 0
M  V30 1800 C 164.502 -0.516958 -1.54163 0
M  V30 1801 O 165.686 -0.740209 -1.73358 0
M  V30 1802 C 162.813 -1.67866 -2.94174 0
M  V30 1803 C 161.859 -2.89013 -3.13646 0
M  V30 1804 S 162.692 -4.49897 -2.90436 0
M  V30 1805 C 163.848 -4.53568 -4.31308 0
M  V30 1806 H 164.081 -2.61155 -1.42076 0
M  V30 1807 H 161.614 -1.40902 -0.631341 0
M  V30 1808 H 163.572 -1.69089 -3.74058 0
M  V30 1809 H 162.233 -0.748296 -3.05056 0
M  V30 1810 H 161.426 -2.86054 -4.14957 0
M  V30 1811 H 161.028 -2.85509 -2.4158 0
M  V30 1812 H 163.32 -4.28924 -5.24434 0
M  V30 1813 H 164.263 -5.55355 -4.39303 0
M  V30 1814 H 164.671 -3.82943 -4.14747 0
M  V30 1815 N 164.069 0.697108 -1.41344 0
M  V30 1816 C 165.346 1.45154 -1.31109 0
M  V30 1817 C 165.726 2.11009 0.0620449 0
M  V30 1818 O 165.074 2.01571 1.07618 0
M  V30 1819 C 165.284 2.47223 -2.46337 0
M  V30 1820 C 166.632 3.1252 -2.87431 0
M  V30 1821 O 167.656 2.57547 -2.46065 0
M  V30 1822 O 166.515 4.12083 -3.58957 0
M  V30 1823 H 163.609 0.646365 -0.515889 0
M  V30 1824 H 166.155 0.727716 -1.53305 0
M  V30 1825 H 164.927 1.97204 -3.37974 0
M  V30 1826 H 164.55 3.27116 -2.2601 0
M  V30 1827 N 165.547 1.27147 0.931209 0
M  V30 1828 C 166.51 1.09615 2.01289 0
M  V30 1829 C 167.51 0.0412581 1.60747 0
M  V30 1830 O 168.7 0.285545 1.71844 0
M  V30 1831 C 165.832 0.669447 3.34262 0
M  V30 1832 H 167.025 2.05662 2.18273 0
M  V30 1833 H 164.578 1.09885 1.11153 0
M  V30 1834 H 165.313 -0.292572 3.22978 0
M  V30 1835 H 165.098 1.43127 3.65044 0
M  V30 1836 H 166.588 0.568921 4.13706 0
M  V30 1837 N 167.025 -1.13721 1.09112 0
M  V30 1838 C 167.973 -2.21103 0.722219 0
M  V30 1839 C 168.967 -1.67147 -0.275374 0
M  V30 1840 O 170.173 -1.79477 -0.137176 0
M  V30 1841 H 166.548 -0.720445 0.215553 0
M  V30 1842 H 168.519 -2.49483 1.63709 0
M  V30 1843 C 167.268 -3.47352 0.15543 0
M  V30 1844 H 166.591 -3.89206 0.914246 0
M  V30 1845 H 168.031 -4.2395 -0.0647967 0
M  V30 1846 C 166.49 -3.1814 -1.10852 0
M  V30 1847 O 167.02 -3.36604 -2.19227 0
M  V30 1848 N 165.226 -2.72045 -1.02176 0
M  V30 1849 H 164.773 -2.57221 -0.139764 0
M  V30 1850 H 164.731 -2.52875 -1.8682 0
M  V30 1851 N 168.503 -0.877838 -1.30888 0
M  V30 1852 C 169.433 -0.35534 -2.3078 0
M  V30 1853 C 170.414 0.557994 -1.60687 0
M  V30 1854 O 171.599 0.473355 -1.88343 0
M  V30 1855 C 168.729 0.437221 -3.44537 0
M  V30 1856 C 167.683 -0.383715 -4.26276 0
M  V30 1857 C 167.009 0.535014 -5.32017 0
M  V30 1858 C 168.309 -1.62201 -4.96476 0
M  V30 1859 H 170.003 -1.19007 -2.74732 0
M  V30 1860 H 167.549 -0.573698 -1.32078 0
M  V30 1861 H 169.502 0.813334 -4.13477 0
M  V30 1862 H 168.226 1.30553 -2.99372 0
M  V30 1863 H 166.885 -0.741874 -3.59015 0
M  V30 1864 H 166.533 1.40083 -4.831 0
M  V30 1865 H 166.233 -0.0104211 -5.87599 0
M  V30 1866 H 167.757 0.907799 -6.03814 0
M  V30 1867 H 169.171 -1.31689 -5.5797 0
M  V30 1868 H 167.568 -2.10711 -5.61891 0
M  V30 1869 H 168.638 -2.37044 -4.23011 0
M  V30 1870 N 169.982 1.44106 -0.638065 0
M  V30 1871 C 171.222 2.03858 -0.148733 0
M  V30 1872 C 171.586 1.49153 1.20903 0
M  V30 1873 O 172.787 2.00452 1.79088 0
M  V30 1874 C 171.058 3.57117 -0.142314 0
M  V30 1875 S 172.617 4.37897 0.281385 0
M  V30 1876 H 169.435 0.708069 -0.0644912 0
M  V30 1877 H 172.037 1.7639 -0.843009 0
M  V30 1878 H 170.741 3.94436 -1.13349 0
M  V30 1879 H 170.272 3.89205 0.572988 0
M  V30 1880 H 172.287 4.72218 1.52395 0
M  V30 1881 N 171.46 0.379036 1.52974 0
M  V30 1882 C 172.392 -0.495963 2.2377 0
M  V30 1883 C 173.405 -1.03517 1.25651 0
M  V30 1884 O 174.594 -0.939249 1.51791 0
M  V30 1885 C 171.694 -1.69894 2.93239 0
M  V30 1886 C 170.867 -1.2889 4.17979 0
M  V30 1887 C 169.926 -2.35543 4.70538 0
M  V30 1888 O 168.952 -1.97375 5.33883 0
M  V30 1889 N 170.154 -3.67318 4.49508 0
M  V30 1890 H 172.919 0.110523 2.99496 0
M  V30 1891 H 170.48 0.204878 1.60598 0
M  V30 1892 H 172.472 -2.40747 3.25304 0
M  V30 1893 H 171.042 -2.212 2.20883 0
M  V30 1894 H 170.262 -0.409676 3.92065 0
M  V30 1895 H 171.55 -0.991443 4.99047 0
M  V30 1896 H 170.948 -4.01095 3.98923 0
M  V30 1897 H 169.505 -4.34235 4.8609 0
M  V30 1898 N 172.938 -1.57226 0.108567 0
M  V30 1899 C 174.184 -1.95121 -0.552761 0
M  V30 1900 C 174.517 -0.991345 -1.66991 0
M  V30 1901 O 173.792 -0.0267211 -1.94482 0
M  V30 1902 C 174.075 -3.43039 -1.09528 0
M  V30 1903 C 173.928 -4.49797 0.0177332 0
M  V30 1904 C 175.247 -3.92567 -1.98945 0
M  V30 1905 H 172.366 -0.709496 -0.199461 0
M  V30 1906 H 175.008 -1.89126 0.182011 0
M  V30 1907 H 173.158 -3.48279 -1.72146 0
M  V30 1908 H 174.83 -4.56661 0.652584 0
M  V30 1909 H 173.073 -4.284 0.682309 0
M  V30 1910 H 173.744 -5.50528 -0.402919 0
M  V30 1911 H 176.22 -3.89565 -1.46214 0
M  V30 1912 H 175.096 -4.96605 -2.33827 0
M  V30 1913 H 175.357 -3.32648 -2.91201 0
M  V30 1914 N 174.416 0.165178 -1.56732 0
M  V30 1915 C 175.665 0.879143 -1.81532 0
M  V30 1916 C 175.978 1.83144 -0.686842 0
M  V30 1917 O 177.184 2.58823 -0.819944 0
M  V30 1918 C 175.64 1.61388 -3.21686 0
M  V30 1919 C 175.248 0.704904 -4.4242 0
M  V30 1920 C 176.992 2.3157 -3.55774 0
M  V30 1921 C 174.899 1.44022 -5.73595 0
M  V30 1922 H 173.829 0.332033 -0.676957 0
M  V30 1923 H 176.48 0.132008 -1.83025 0
M  V30 1924 H 174.862 2.40599 -3.14529 0
M  V30 1925 H 176.036 -0.0506815 -4.60772 0
M  V30 1926 H 174.351 0.112419 -4.16248 0
M  V30 1927 H 176.948 2.8719 -4.51028 0
M  V30 1928 H 177.291 3.07201 -2.8095 0
M  V30 1929 H 177.824 1.59297 -3.64513 0
M  V30 1930 H 174.563 0.72612 -6.51466 0
M  V30 1931 H 174.083 2.16898 -5.5921 0
M  V30 1932 H 175.762 1.98606 -6.15764 0
M  V30 1933 N 175.894 1.51508 0.433938 0
M  V30 1934 C 176.826 1.69266 1.54537 0
M  V30 1935 C 177.839 0.573276 1.52373 0
M  V30 1936 O 179.028 0.847698 1.57087 0
M  V30 1937 C 176.128 1.69524 2.93453 0
M  V30 1938 C 175.301 2.98101 3.20085 0
M  V30 1939 C 174.36 2.90502 4.38742 0
M  V30 1940 O 173.386 3.64442 4.3723 0
M  V30 1941 N 174.588 2.06586 5.42496 0
M  V30 1942 H 177.353 2.65145 1.39708 0
M  V30 1943 H 174.914 1.49437 0.622922 0
M  V30 1944 H 176.906 1.62004 3.70859 0
M  V30 1945 H 175.476 0.812245 3.01863 0
M  V30 1946 H 174.696 3.19464 2.30947 0
M  V30 1947 H 175.984 3.83207 3.34708 0
M  V30 1948 H 175.382 1.45896 5.46563 0
M  V30 1949 H 173.939 2.04943 6.18742 0
M  V30 1950 N 177.372 -0.689602 1.41712 0
M  V30 1951 C 178.305 -1.81403 1.3845 0
M  V30 1952 C 179.283 -1.60653 0.250874 0
M  V30 1953 O 180.467 -1.83323 0.43874 0
M  V30 1954 C 177.594 -3.18176 1.1611 0
M  V30 1955 C 176.64 -3.57705 2.3227 0
M  V30 1956 S 177.473 -3.61827 3.94767 0
M  V30 1957 C 178.629 -5.01318 3.74742 0
M  V30 1958 H 178.862 -1.83893 2.33603 0
M  V30 1959 H 176.395 -0.858878 1.28307 0
M  V30 1960 H 178.353 -3.97132 1.03907 0
M  V30 1961 H 177.014 -3.13288 0.225668 0
M  V30 1962 H 176.207 -4.57082 2.12349 0
M  V30 1963 H 175.809 -2.86073 2.40911 0
M  V30 1964 H 178.101 -5.88986 3.34817 0
M  V30 1965 H 179.044 -5.26283 4.73743 0
M  V30 1966 H 179.452 -4.73138 3.07898 0
M  V30 1967 N 178.85 -1.27639 -0.924453 0
M  V30 1968 C 179.76 -1.12466 -2.05885 0
M  V30 1969 C 180.776 -0.053869 -1.73917 0
M  V30 1970 O 181.952 -0.261012 -1.99702 0
M  V30 1971 C 179.017 -0.776768 -3.37886 0
M  V30 1972 C 178.078 -1.92878 -3.83532 0
M  V30 1973 C 177.311 -1.59739 -5.09234 0
M  V30 1974 O 177.534 -0.506782 -5.68144 0
M  V30 1975 O 176.468 -2.43761 -5.50331 0
M  V30 1976 H 180.294 -2.07671 -2.21599 0
M  V30 1977 H 177.879 -1.06857 -1.04413 0
M  V30 1978 H 179.761 -0.596229 -4.17161 0
M  V30 1979 H 178.436 0.145732 -3.23372 0
M  V30 1980 H 177.343 -2.1644 -3.0513 0
M  V30 1981 H 178.676 -2.8316 -4.02593 0
M  V30 1982 N 180.328 1.1314 -1.09713 0
M  V30 1983 C 181.258 2.20748 -0.761102 0
M  V30 1984 C 182.239 1.68061 0.262566 0
M  V30 1985 O 183.424 1.93765 0.129977 0
M  V30 1986 C 180.554 3.46812 -0.184054 0
M  V30 1987 C 179.508 4.12606 -1.13757 0
M  V30 1988 C 178.834 5.33031 -0.422083 0
M  V30 1989 C 180.134 4.59603 -2.48118 0
M  V30 1990 H 181.828 2.49113 -1.66082 0
M  V30 1991 H 179.374 1.19734 -0.799987 0
M  V30 1992 H 181.327 4.21353 0.0631215 0
M  V30 1993 H 180.051 3.17851 0.750868 0
M  V30 1994 H 178.71 3.40036 -1.37007 0
M  V30 1995 H 178.358 5.00335 0.517072 0
M  V30 1996 H 178.058 5.77999 -1.05788 0
M  V30 1997 H 179.582 6.10325 -0.183277 0
M  V30 1998 H 180.996 5.25552 -2.29059 0
M  V30 1999 H 179.393 5.15321 -3.07514 0
M  V30 2000 H 180.463 3.73971 -3.08665 0
M  V30 2001 N 181.806 0.884767 1.30421 0
M  V30 2002 C 183.083 0.423185 1.90967 0
M  V30 2003 C 183.463 -1.09605 1.80416 0
M  V30 2004 O 182.811 -1.93126 1.22125 0
M  V30 2005 C 183.021 0.921056 3.36627 0
M  V30 2006 C 184.369 0.955903 4.137 0
M  V30 2007 O 185.393 0.867706 3.4547 0
M  V30 2008 O 184.252 1.08614 5.35598 0
M  V30 2009 H 181.346 0.129369 0.816819 0
M  V30 2010 H 183.892 0.973653 1.3899 0
M  V30 2011 H 182.664 1.96489 3.3839 0
M  V30 2012 H 182.287 0.349741 3.96059 0
M  V30 2013 N 183.284 -1.43765 0.645699 0
M  V30 2014 C 184.234 -2.27884 -0.0726442 0
M  V30 2015 C 185.218 -1.39483 -0.802086 0
M  V30 2016 O 186.41 -1.63174 -0.685791 0
M  V30 2017 C 183.539 -3.27055 -1.04356 0
M  V30 2018 C 182.625 -4.22944 -0.312985 0
M  V30 2019 N 183.016 -5.01391 0.666386 0
M  V30 2020 C 181.314 -4.42528 -0.55546 0
M  V30 2021 C 182.015 -5.71217 1.09935 0
M  V30 2022 N 180.991 -5.41856 0.435137 0
M  V30 2023 H 184.793 -2.85949 0.678988 0
M  V30 2024 H 182.307 -1.55378 0.472368 0
M  V30 2025 H 184.304 -3.86089 -1.57292 0
M  V30 2026 H 182.964 -2.70551 -1.79534 0
M  V30 2027 H 183.975 -5.07252 1.04481 0
M  V30 2028 H 180.652 -3.97104 -1.28899 0
M  V30 2029 H 182.042 -6.44202 1.90929 0
M  V30 2030 N 184.763 -0.387143 -1.52771 0
M  V30 2031 C 185.673 0.456442 -2.30117 0
M  V30 2032 C 186.689 1.07342 -1.36944 0
M  V30 2033 O 187.865 1.07971 -1.70013 0
M  V30 2034 C 184.93 1.56957 -3.09136 0
M  V30 2035 C 183.991 0.977916 -4.18014 0
M  V30 2036 C 183.224 2.038 -4.93256 0
M  V30 2037 O 183.447 3.25271 -4.68567 0
M  V30 2038 O 182.381 1.6565 -5.78657 0
M  V30 2039 H 186.207 -0.17359 -3.03203 0
M  V30 2040 H 183.792 -0.150919 -1.48636 0
M  V30 2041 H 185.674 2.21628 -3.58412 0
M  V30 2042 H 184.349 2.18461 -2.38865 0
M  V30 2043 H 183.256 0.294525 -3.72939 0
M  V30 2044 H 184.589 0.407128 -4.90513 0
M  V30 2045 N 186.241 1.57166 -0.116904 0
M  V30 2046 C 187.657 1.5779 0.239693 0
M  V30 2047 C 187.857 1.1295 1.66867 0
M  V30 2048 O 186.913 0.81592 2.38954 0
M  V30 2049 C 188.226 3.00699 0.00828202 0
M  V30 2050 C 189.774 3.12912 0.0743438 0
M  V30 2051 C 190.249 4.57817 -0.129348 0
M  V30 2052 N 191.74 4.63139 -0.075247 0
M  V30 2053 C 192.475 5.73023 -0.207788 0
M  V30 2054 N 191.971 6.91665 -0.396382 0
M  V30 2055 N 193.764 5.61906 -0.14751 0
M  V30 2056 H 185.915 1.84615 -1.05029 0
M  V30 2057 H 188.178 0.85311 -0.41341 0
M  V30 2058 H 187.884 3.37784 -0.979531 0
M  V30 2059 H 187.758 3.69848 0.741077 0
M  V30 2060 H 190.145 2.75686 1.05268 0
M  V30 2061 H 190.226 2.4631 -0.690297 0
M  V30 2062 H 189.87 4.95742 -1.10465 0
M  V30 2063 H 189.8 5.22507 0.655253 0
M  V30 2064 H 192.291 3.7784 0.0670898 0
M  V30 2065 H 192.604 7.71255 -0.488437 0
M  V30 2066 H 190.949 6.93654 -0.432329 0
M  V30 2067 H 194.14 4.681 -0.00115036 0
M  V30 2068 H 194.313 6.47501 -0.254247 0
M  V30 2069 N 187.719 -0.156864 1.56817 0
M  V30 2070 C 188.652 -1.22316 1.9265 0
M  V30 2071 C 189.63 -1.42059 0.791076 0
M  V30 2072 O 190.814 -1.56831 1.04576 0
M  V30 2073 C 187.941 -2.58375 2.18998 0
M  V30 2074 C 186.987 -2.55284 3.41661 0
M  V30 2075 S 187.82 -2.02946 4.95553 0
M  V30 2076 C 188.976 -3.40753 5.25013 0
M  V30 2077 H 189.209 -0.917403 2.82791 0
M  V30 2078 H 186.742 -0.362059 1.50095 0
M  V30 2079 H 188.7 -3.36677 2.34859 0
M  V30 2080 H 187.361 -2.86145 1.29538 0
M  V30 2081 H 186.554 -3.55418 3.57343 0
M  V30 2082 H 186.156 -1.85086 3.24991 0
M  V30 2083 H 188.448 -4.36819 5.17876 0
M  V30 2084 H 189.391 -3.29933 6.26538 0
M  V30 2085 H 189.799 -3.37433 4.52548 0
M  V30 2086 N 189.197 -1.51736 -0.425897 0
M  V30 2087 C 190.422 -1.69082 -1.20108 0
M  V30 2088 C 190.847 -0.392398 -1.83962 0
M  V30 2089 O 190.205 0.64858 -1.69302 0
M  V30 2090 C 190.253 -2.81604 -2.25237 0
M  V30 2091 O 189.357 -2.46004 -3.30992 0
M  V30 2092 H 188.698 -0.563408 -0.35138 0
M  V30 2093 H 191.228 -1.98358 -0.501512 0
M  V30 2094 H 191.238 -3.06025 -2.69838 0
M  V30 2095 H 189.913 -3.75817 -1.78142 0
M  V30 2096 H 188.49 -2.32195 -2.91787 0
M  V30 2097 N 190.675 0.682077 -1.42076 0
M  V30 2098 C 191.905 1.46844 -1.45329 0
M  V30 2099 C 192.313 1.89102 -0.0609328 0
M  V30 2100 O 191.656 1.58238 0.933082 0
M  V30 2101 C 191.718 2.75375 -2.31104 0
M  V30 2102 C 191.382 2.55238 -3.79081 0
M  V30 2103 C 192.379 2.20309 -4.70914 0
M  V30 2104 C 190.064 2.70459 -4.2327 0
M  V30 2105 C 192.058 2.00859 -6.04925 0
M  V30 2106 C 189.745 2.50624 -5.57343 0
M  V30 2107 C 190.743 2.15876 -6.47986 0
M  V30 2108 O 190.431 1.96227 -7.79583 0
M  V30 2109 H 190.163 0.4586 -0.496651 0
M  V30 2110 H 192.717 0.846131 -1.87162 0
M  V30 2111 H 190.947 3.40061 -1.84107 0
M  V30 2112 H 192.636 3.37231 -2.25898 0
M  V30 2113 H 193.402 2.08153 -4.38061 0
M  V30 2114 H 189.281 2.96485 -3.53012 0
M  V30 2115 H 192.825 1.7366 -6.75639 0
M  V30 2116 H 188.722 2.62375 -5.89771 0
M  V30 2117 H 189.49 2.10883 -7.90867 0
M  V30 2118 N 192.153 1.28127 0.917671 0
M  V30 2119 C 193.083 1.14248 2.03641 0
M  V30 2120 C 194.064 0.0412748 1.7005 0
M  V30 2121 O 195.249 0.217566 1.92977 0
M  V30 2122 C 192.379 0.799431 3.37974 0
M  V30 2123 C 191.333 1.85497 3.85713 0
M  V30 2124 C 190.659 1.36565 5.16966 0
M  V30 2125 C 191.959 3.26085 4.08002 0
M  V30 2126 H 193.653 2.07835 2.15511 0
M  V30 2127 H 191.199 1.00064 1.03553 0
M  V30 2128 H 193.152 0.689114 4.15727 0
M  V30 2129 H 191.876 -0.172145 3.26146 0
M  V30 2130 H 190.535 1.95437 3.10161 0
M  V30 2131 H 190.183 0.383253 5.01538 0
M  V30 2132 H 189.883 2.07143 5.49878 0
M  V30 2133 H 191.407 1.26848 5.97279 0
M  V30 2134 H 192.821 3.19089 4.76293 0
M  V30 2135 H 191.218 3.94462 4.52238 0
M  V30 2136 H 192.288 3.70394 3.12948 0
M  V30 2137 N 193.631 -1.12557 1.10312 0
M  V30 2138 C 194.561 -2.20341 0.772798 0
M  V30 2139 C 195.542 -1.68198 -0.25365 0
M  V30 2140 O 196.727 -1.93831 -0.119699 0
M  V30 2141 C 193.857 -3.46709 0.202443 0
M  V30 2142 C 192.811 -4.11996 1.15943 0
M  V30 2143 C 192.137 -5.328 0.450345 0
M  V30 2144 C 193.437 -4.5828 2.50552 0
M  V30 2145 H 195.131 -2.48229 1.674 0
M  V30 2146 H 192.677 -1.19308 0.806326 0
M  V30 2147 H 194.63 -4.2138 -0.0407752 0
M  V30 2148 H 193.354 -3.18245 -0.734001 0
M  V30 2149 H 192.013 -3.39305 1.38808 0
M  V30 2150 H 191.661 -5.00602 -0.490531 0
M  V30 2151 H 191.361 -5.7743 1.08851 0
M  V30 2152 H 192.885 -6.10219 0.215642 0
M  V30 2153 H 194.299 -5.2433 2.31843 0
M  V30 2154 H 192.696 -5.13683 3.10242 0
M  V30 2155 H 193.766 -3.72329 3.10643 0
M  V30 2156 N 195.109 -0.891671 -1.2995 0
M  V30 2157 C 196.339 -0.527893 -1.99742 0
M  V30 2158 C 196.747 0.88979 -1.66971 0
M  V30 2159 O 196.09 1.59766 -0.906667 0
M  V30 2160 C 196.152 -0.630804 -3.53922 0
M  V30 2161 C 195.816 -2.01401 -4.10228 0
M  V30 2162 C 196.813 -2.98422 -4.25724 0
M  V30 2163 C 194.498 -2.32121 -4.45449 0
M  V30 2164 C 196.492 -4.24293 -4.75662 0
M  V30 2165 C 194.179 -3.58237 -4.95086 0
M  V30 2166 C 195.177 -4.54137 -5.10146 0
M  V30 2167 O 194.865 -5.78014 -5.58708 0
M  V30 2168 H 194.597 -0.201953 -0.645129 0
M  V30 2169 H 197.151 -1.20076 -1.66646 0
M  V30 2170 H 195.381 0.0990616 -3.86573 0
M  V30 2171 H 197.07 -0.277338 -4.04951 0
M  V30 2172 H 197.836 -2.76001 -3.98809 0
M  V30 2173 H 193.715 -1.5824 -4.32991 0
M  V30 2174 H 197.259 -4.99153 -4.87332 0
M  V30 2175 H 193.156 -3.80491 -5.21437 0
M  V30 2176 H 193.924 -5.8049 -5.77039 0
M  V30 2177 N 196.587 1.43421 -0.653314 0
M  V30 2178 C 197.519 2.29071 0.0769134 0
M  V30 2179 C 198.532 1.42513 0.787017 0
M  V30 2180 O 199.721 1.66449 0.644757 0
M  V30 2181 C 196.821 3.19436 1.13199 0
M  V30 2182 C 195.994 4.34533 0.500006 0
M  V30 2183 C 195.053 5.05771 1.45198 0
M  V30 2184 O 194.079 5.61037 0.960538 0
M  V30 2185 N 195.281 5.0928 2.78594 0
M  V30 2186 H 198.046 2.92382 -0.658235 0
M  V30 2187 H 195.607 1.54112 -0.496104 0
M  V30 2188 H 197.599 3.63958 1.76964 0
M  V30 2189 H 196.169 2.57724 1.7691 0
M  V30 2190 H 195.389 3.92925 -0.316738 0
M  V30 2191 H 196.677 5.08766 0.0588345 0
M  V30 2192 H 196.075 4.65751 3.2108 0
M  V30 2193 H 194.632 5.57519 3.37662 0
M  V30 2194 N 198.065 0.39524 1.52563 0
M  V30 2195 C 198.998 -0.4813 2.23067 0
M  V30 2196 C 199.976 -1.05927 1.23362 0
M  V30 2197 O 201.16 -1.10979 1.52368 0
M  V30 2198 C 198.287 -1.66676 2.9485 0
M  V30 2199 C 197.333 -1.21348 4.08873 0
M  V30 2200 S 198.166 -0.190102 5.35162 0
M  V30 2201 C 199.322 -1.38121 6.1047 0
M  V30 2202 H 199.555 0.117381 2.97068 0
M  V30 2203 H 197.088 0.179458 1.53354 0
M  V30 2204 H 199.046 -2.3466 3.36816 0
M  V30 2205 H 197.707 -2.23676 2.20518 0
M  V30 2206 H 196.9 -2.09877 4.58222 0
M  V30 2207 H 196.502 -0.612486 3.68951 0
M  V30 2208 H 198.794 -2.30726 6.37002 0
M  V30 2209 H 199.737 -0.928521 7.01986 0
M  V30 2210 H 200.145 -1.60071 5.41329 0
M  V30 2211 N 199.544 -1.57102 0.125237 0
M  V30 2212 C 200.474 -2.18659 -0.819174 0
M  V30 2213 C 201.455 -1.12843 -1.27281 0
M  V30 2214 O 202.64 -1.41104 -1.33429 0
M  V30 2215 C 199.77 -2.79096 -2.06695 0
M  V30 2216 C 198.724 -3.90548 -1.75088 0
M  V30 2217 C 198.05 -4.37821 -3.06948 0
M  V30 2218 C 199.35 -5.12356 -1.01435 0
M  V30 2219 H 201.044 -2.9783 -0.306202 0
M  V30 2220 H 198.59 -1.4326 -0.145839 0
M  V30 2221 H 200.543 -3.2082 -2.73226 0
M  V30 2222 H 199.267 -1.97223 -2.60328 0
M  V30 2223 H 197.926 -3.49409 -1.10944 0
M  V30 2224 H 197.574 -3.52799 -3.58527 0
M  V30 2225 H 197.274 -5.12982 -2.86571 0
M  V30 2226 H 198.798 -4.822 -3.74587 0
M  V30 2227 H 200.212 -5.5106 -1.58132 0
M  V30 2228 H 198.609 -5.9314 -0.911319 0
M  V30 2229 H 199.679 -4.849 -0.00218681 0
M  V30 2230 N 201.022 0.148545 -1.56898 0
M  V30 2231 C 202.262 0.86765 -1.85071 0
M  V30 2232 C 202.626 1.78417 -0.709317 0
M  V30 2233 O 203.827 2.54261 -0.872049 0
M  V30 2234 C 202.098 1.62306 -3.1842 0
M  V30 2235 S 203.657 2.3878 -3.68143 0
M  V30 2236 H 200.475 0.290174 -0.649092 0
M  V30 2237 H 203.077 0.127755 -1.95082 0
M  V30 2238 H 201.781 0.941192 -3.99462 0
M  V30 2239 H 201.312 2.4039 -3.1141 0
M  V30 2240 H 203.327 3.63942 -3.37285 0
M  V30 2241 N 202.5 1.5196 0.417844 0
M  V30 2242 C 203.748 1.65263 1.16329 0
M  V30 2243 C 204.069 0.380634 1.91249 0
M  V30 2244 O 203.339 -0.604214 1.86349 0
M  V30 2245 H 201.919 0.60912 0.432414 0
M  V30 2246 H 204.581 1.88969 0.477162 0
M  V30 2247 H 203.677 2.4896 1.88217 0
M  V30 2248 N 203.978 -0.674533 1.42435 0
M  V30 2249 C 205.227 -1.43034 1.42212 0
M  V30 2250 C 205.54 -1.95555 0.0420788 0
M  V30 2251 O 206.746 -2.71374 -0.0827558 0
M  V30 2252 C 205.202 -2.58748 2.50155 0
M  V30 2253 C 204.81 -2.12925 3.94166 0
M  V30 2254 C 206.554 -3.36257 2.59098 0
M  V30 2255 C 204.461 -3.25723 4.93618 0
M  V30 2256 H 203.391 -0.537345 0.528939 0
M  V30 2257 H 206.042 -0.73024 1.68344 0
M  V30 2258 H 204.424 -3.31128 2.17188 0
M  V30 2259 H 205.598 -1.47697 4.36488 0
M  V30 2260 H 203.913 -1.48354 3.89076 0
M  V30 2261 H 206.51 -4.20264 3.30578 0
M  V30 2262 H 206.853 -3.82866 1.63461 0
M  V30 2263 H 207.386 -2.70947 2.9126 0
M  V30 2264 H 204.125 -2.84105 5.90732 0
M  V30 2265 H 203.645 -3.89732 4.55926 0
M  V30 2266 H 205.324 -3.91186 5.15347 0
M  V30 2267 N 205.456 -1.28612 -0.910864 0
M  V30 2268 C 206.403 -1.12786 -2.01365 0
M  V30 2269 C 207.373 -0.024201 -1.66082 0
M  V30 2270 O 208.558 -0.189667 -1.89855 0
M  V30 2271 C 205.698 -0.798743 -3.35729 0
M  V30 2272 C 204.811 -1.98173 -3.83864 0
M  V30 2273 C 203.946 -1.59298 -5.06752 0
M  V30 2274 C 202.985 -2.74245 -5.47226 0
M  V30 2275 N 202.122 -2.35842 -6.61304 0
M  V30 2276 H 206.962 -2.07142 -2.14234 0
M  V30 2277 H 204.499 -1.03093 -1.0493 0
M  V30 2278 H 206.457 -0.588662 -4.13026 0
M  V30 2279 H 205.087 0.10789 -3.2262 0
M  V30 2280 H 204.139 -2.30386 -3.02699 0
M  V30 2281 H 205.451 -2.84343 -4.09818 0
M  V30 2282 H 204.605 -1.34513 -5.916 0
M  V30 2283 H 203.344 -0.702618 -4.82612 0
M  V30 2284 H 202.349 -2.99725 -4.60918 0
M  V30 2285 H 203.574 -3.63928 -5.73353 0
M  V30 2286 H 201.52 -1.49279 -6.38789 0
M  V30 2287 H 201.437 -3.15546 -6.86998 0
M  V30 2288 H 202.705 -2.14348 -7.4945 0
M  V30 2289 N 206.934 1.1197 -1.10907 0
M  V30 2290 C 207.884 2.15946 -0.731538 0
M  V30 2291 C 208.868 1.58758 0.261699 0
M  V30 2292 O 210.06 1.76863 0.0696722 0
M  V30 2293 C 207.189 3.42877 -0.170299 0
M  V30 2294 C 206.275 4.07037 -1.19087 0
M  V30 2295 N 206.666 4.46135 -2.38322 0
M  V30 2296 C 204.964 4.33884 -1.03252 0
M  V30 2297 C 205.665 4.96331 -3.03366 0
M  V30 2298 N 204.641 4.9214 -2.30865 0
M  V30 2299 H 208.443 2.43947 -1.63912 0
M  V30 2300 H 205.957 1.28927 -0.987505 0
M  V30 2301 H 207.954 4.16732 0.118271 0
M  V30 2302 H 206.614 3.16343 0.731935 0
M  V30 2303 H 207.625 4.38345 -2.75815 0
M  V30 2304 H 204.302 4.17084 -0.186256 0
M  V30 2305 H 205.692 5.36257 -4.04818 0
M  V30 2306 N 208.412 0.89855 1.29475 0
M  V30 2307 C 209.342 0.39201 2.30186 0
M  V30 2308 C 210.323 -0.532359 1.61555 0
M  V30 2309 O 211.508 -0.443331 1.89072 0
M  V30 2310 C 208.638 -0.382353 3.45189 0
M  V30 2311 C 207.592 0.451483 4.25612 0
M  V30 2312 C 206.918 -0.450307 5.328 0
M  V30 2313 C 208.218 1.70079 4.93832 0
M  V30 2314 H 209.912 1.23362 2.72804 0
M  V30 2315 H 207.458 0.594638 1.31149 0
M  V30 2316 H 209.411 -0.747451 4.14718 0
M  V30 2317 H 208.135 -1.25774 3.01411 0
M  V30 2318 H 206.794 0.798897 3.57789 0
M  V30 2319 H 206.442 -1.32379 4.85268 0
M  V30 2320 H 206.142 0.103902 5.87508 0
M  V30 2321 H 207.666 -0.811623 6.05182 0
M  V30 2322 H 209.08 1.40549 5.55805 0
M  V30 2323 H 207.477 2.19623 5.58467 0
M  V30 2324 H 208.547 2.43744 4.19186 0
M  V30 2325 N 209.89 -1.43072 0.660911 0
M  V30 2326 C 210.84 -2.27948 -0.04847 0
M  V30 2327 C 211.824 -1.40325 -0.787246 0
M  V30 2328 O 213.016 -1.63893 -0.668446 0
M  V30 2329 C 210.145 -3.28143 -1.00881 0
M  V30 2330 C 209.231 -4.23252 -0.268108 0
M  V30 2331 N 209.622 -5.00656 0.719528 0
M  V30 2332 C 207.92 -4.43092 -0.508493 0
M  V30 2333 C 208.621 -5.70019 1.15988 0
M  V30 2334 N 207.597 -5.41364 0.492584 0
M  V30 2335 H 211.399 -2.85213 0.709279 0
M  V30 2336 H 208.913 -1.54869 0.488822 0
M  V30 2337 H 210.91 -3.87736 -1.53188 0
M  V30 2338 H 209.57 -2.7244 -1.76654 0
M  V30 2339 H 210.581 -5.06115 1.09855 0
M  V30 2340 H 207.258 -3.98449 -1.24679 0
M  V30 2341 H 208.648 -6.4214 1.97751 0
M  V30 2342 N 211.368 -0.403325 -1.52352 0
M  V30 2343 C 212.593 0.176499 -2.06648 0
M  V30 2344 C 213.018 1.38577 -1.27193 0
M  V30 2345 O 212.376 1.7879 -0.300637 0
M  V30 2346 C 212.424 0.511061 -3.5696 0
M  V30 2347 O 211.528 1.60294 -3.79973 0
M  V30 2348 H 210.869 0.0167337 -0.663789 0
M  V30 2349 H 213.399 -0.574848 -1.96359 0
M  V30 2350 H 213.409 0.771362 -4.00642 0
M  V30 2351 H 212.084 -0.37296 -4.14224 0
M  V30 2352 H 210.661 1.33526 -3.48174 0
M  V30 2353 N 212.846 1.57033 -0.133567 0
M  V30 2354 C 213.809 2.14897 0.796995 0
M  V30 2355 C 214.809 1.0874 1.18458 0
M  V30 2356 O 215.999 1.34446 1.1077 0
M  V30 2357 C 213.131 2.70112 2.07973 0
M  V30 2358 H 214.324 2.98457 0.293873 0
M  V30 2359 H 211.877 1.55871 0.115787 0
M  V30 2360 H 212.612 1.9018 2.62682 0
M  V30 2361 H 212.397 3.47764 1.81115 0
M  V30 2362 H 213.887 3.14738 2.74462 0
M  V30 2363 N 214.325 -0.140222 1.56975 0
M  V30 2364 C 215.573 -0.850005 1.83356 0
M  V30 2365 C 215.894 -1.81399 0.71551 0
M  V30 2366 O 215.164 -1.94136 -0.262294 0
M  V30 2367 H 213.744 -0.316886 0.676456 0
M  V30 2368 H 216.406 -0.132608 1.94448 0
M  V30 2369 H 215.502 -1.40814 2.78528 0
M  V30 2370 N 215.803 -1.52179 -0.40978 0
M  V30 2371 C 217.052 -1.65434 -1.15388 0
M  V30 2372 C 217.365 -0.390056 -1.91671 0
M  V30 2373 O 218.571 -0.402399 -2.68501 0
M  V30 2374 C 217.027 -2.92279 -2.10003 0
M  V30 2375 C 216.635 -4.25813 -1.39239 0
M  V30 2376 C 218.379 -3.14897 -2.84675 0
M  V30 2377 C 216.286 -5.43782 -2.32498 0
M  V30 2378 H 215.216 -0.616267 -0.434432 0
M  V30 2379 H 217.867 -1.78666 -0.418401 0
M  V30 2380 H 216.249 -2.72744 -2.871 0
M  V30 2381 H 217.423 -4.55828 -0.675099 0
M  V30 2382 H 215.738 -4.09292 -0.766097 0
M  V30 2383 H 218.335 -4.0021 -3.54593 0
M  V30 2384 H 218.678 -2.29103 -3.47588 0
M  V30 2385 H 219.211 -3.34901 -2.14677 0
M  V30 2386 H 215.95 -6.3192 -1.74233 0
M  V30 2387 H 215.47 -5.18106 -3.02201 0
M  V30 2388 H 217.149 -5.76834 -2.93038 0
M  V30 2389 N 217.281 0.66697 -1.42791 0
M  V30 2390 C 218.53 1.42278 -1.42968 0
M  V30 2391 C 218.843 1.9553 -0.0524489 0
M  V30 2392 O 220.049 2.71414 0.068363 0
M  V30 2393 C 218.505 2.57418 -2.51524 0
M  V30 2394 C 218.113 2.10832 -3.9529 0
M  V30 2395 C 219.857 3.34878 -2.60877 0
M  V30 2396 C 217.764 3.23101 -4.95338 0
M  V30 2397 H 216.694 0.534533 -0.531781 0
M  V30 2398 H 219.345 0.721302 -1.68729 0
M  V30 2399 H 217.727 3.29971 -2.18941 0
M  V30 2400 H 218.901 1.4538 -4.37266 0
M  V30 2401 H 217.216 1.46289 -3.89857 0
M  V30 2402 H 219.813 4.18505 -3.32802 0
M  V30 2403 H 220.156 3.81993 -1.6549 0
M  V30 2404 H 220.689 2.69398 -2.92693 0
M  V30 2405 H 217.428 2.80969 -5.9223 0
M  V30 2406 H 216.948 3.87309 -4.57987 0
M  V30 2407 H 218.627 3.88447 -5.17415 0
M  V30 2408 N 218.759 1.29093 0.90403 0
M  V30 2409 C 219.709 1.10482 1.99443 0
M  V30 2410 C 220.693 0.0255401 1.6088 0
M  V30 2411 O 221.885 0.24677 1.75271 0
M  V30 2412 C 219.014 0.778882 3.34348 0
M  V30 2413 C 218.1 1.89749 3.79284 0
M  V30 2414 N 218.491 3.14045 3.96497 0
M  V30 2415 C 216.789 1.78955 4.08523 0
M  V30 2416 C 217.49 3.86996 4.34292 0
M  V30 2417 N 216.466 3.14909 4.43095 0
M  V30 2418 H 220.268 2.04778 2.10815 0
M  V30 2419 H 217.782 1.20155 1.09255 0
M  V30 2420 H 219.779 0.62661 4.12164 0
M  V30 2421 H 218.439 -0.156205 3.24324 0
M  V30 2422 H 219.45 3.49548 3.82148 0
M  V30 2423 H 216.127 0.926886 4.07081 0
M  V30 2424 H 217.517 4.93941 4.55491 0
M  V30 2425 N 220.237 -1.11381 1.11499 0
M  V30 2426 C 221.653 -1.35143 0.849031 0
M  V30 2427 C 221.853 -1.94515 -0.525938 0
M  V30 2428 O 220.909 -2.1785 -1.27662 0
M  V30 2429 C 222.222 -2.28249 1.95762 0
M  V30 2430 C 223.77 -2.41812 1.98736 0
M  V30 2431 C 224.245 -3.3824 3.088 0
M  V30 2432 N 225.736 -3.45803 3.08179 0
M  V30 2433 C 226.471 -4.20358 3.89982 0
M  V30 2434 N 225.967 -4.97884 4.8175 0
M  V30 2435 N 227.76 -4.15877 3.78157 0
M  V30 2436 H 219.911 -0.712062 2.00109 0
M  V30 2437 H 222.174 -0.376025 0.870235 0
M  V30 2438 H 221.88 -1.91817 2.94787 0
M  V30 2439 H 221.754 -3.28473 1.85433 0
M  V30 2440 H 224.141 -2.77518 1.00338 0
M  V30 2441 H 224.222 -1.41437 2.13141 0
M  V30 2442 H 223.866 -3.03261 4.07425 0
M  V30 2443 H 223.796 -4.38471 2.91635 0
M  V30 2444 H 226.287 -2.90506 2.41691 0
M  V30 2445 H 226.6 -5.52142 5.40702 0
M  V30 2446 H 224.945 -4.97043 4.85771 0
M  V30 2447 H 228.136 -3.544 3.05808 0
M  V30 2448 H 228.309 -4.73723 4.42143 0
M  V30 2449 N 221.715 -0.905404 -1.28997 0
M  V30 2450 C 222.992 -0.453513 -1.9027 0
M  V30 2451 C 223.372 1.06721 -1.82137 0
M  V30 2452 O 222.72 1.91159 -1.25182 0
M  V30 2453 C 222.93 -0.974494 -3.35119 0
M  V30 2454 C 224.278 -1.0216 -4.12127 0
M  V30 2455 O 225.302 -0.922557 -3.44046 0
M  V30 2456 O 224.161 -1.17121 -5.33802 0
M  V30 2457 H 221.255 -0.142347 -0.814657 0
M  V30 2458 H 223.801 -0.995642 -1.37423 0
M  V30 2459 H 222.573 -2.01848 -3.35221 0
M  V30 2460 H 222.196 -0.412706 -3.95452 0
M  V30 2461 N 223.193 1.4272 -0.668489 0
M  V30 2462 C 224.123 2.335 -0.000100175 0
M  V30 2463 C 225.104 1.50328 0.795964 0
M  V30 2464 O 226.289 1.78949 0.754385 0
M  V30 2465 C 223.419 3.33874 0.956302 0
M  V30 2466 C 222.373 4.27152 0.269278 0
M  V30 2467 C 221.699 5.17684 1.33818 0
M  V30 2468 C 222.999 5.15373 -0.847805 0
M  V30 2469 H 224.693 2.89639 -0.758244 0
M  V30 2470 H 222.239 1.39269 -0.366079 0
M  V30 2471 H 224.192 3.9629 1.43292 0
M  V30 2472 H 222.916 2.76025 1.74579 0
M  V30 2473 H 221.575 3.66123 -0.187042 0
M  V30 2474 H 221.223 4.56165 2.1195 0
M  V30 2475 H 220.923 5.80918 0.883659 0
M  V30 2476 H 222.447 5.82974 1.81586 0
M  V30 2477 H 223.861 5.7151 -0.452681 0
M  V30 2478 H 222.258 5.87407 -1.22773 0
M  V30 2479 H 223.328 4.5415 -1.69929 0
M  V30 2480 N 224.671 0.411399 1.52136 0
M  V30 2481 C 225.618 -0.412975 2.27075 0
M  V30 2482 C 226.588 -1.03912 1.29582 0
M  V30 2483 O 227.773 -1.06296 1.58448 0
M  V30 2484 C 224.913 -1.52247 3.09701 0
M  V30 2485 C 224.026 -0.917021 4.22155 0
M  V30 2486 C 223.161 -1.9994 4.92135 0
M  V30 2487 C 222.2 -1.37101 5.96548 0
M  V30 2488 N 221.337 -2.39364 6.60038 0
M  V30 2489 H 226.177 0.232499 2.97092 0
M  V30 2490 H 223.714 0.126496 1.46555 0
M  V30 2491 H 225.672 -2.17674 3.55913 0
M  V30 2492 H 224.302 -2.13794 2.41851 0
M  V30 2493 H 223.354 -0.151742 3.80097 0
M  V30 2494 H 224.666 -0.418006 4.97045 0
M  V30 2495 H 223.82 -2.73088 5.41763 0
M  V30 2496 H 222.559 -2.53208 4.16818 0
M  V30 2497 H 221.564 -0.624873 5.46237 0
M  V30 2498 H 222.789 -0.845998 6.7381 0
M  V30 2499 H 220.735 -2.91759 5.87548 0
M  V30 2500 H 220.652 -1.9428 7.3061 0
M  V30 2501 H 221.92 -3.12074 7.14304 0
M  V30 2502 N 226.149 -1.5696 0.141893 0
M  V30 2503 C 227.56 -1.82797 -0.379776 0
M  V30 2504 C 227.911 -1.06033 -1.6508 0
M  V30 2505 O 227.036 -0.304011 -2.14254 0
M  V30 2506 C 227.631 -3.31578 -0.695802 0
M  V30 2507 C 226.19 -3.58014 -1.16201 0
M  V30 2508 C 225.337 -2.76699 -0.182455 0
M  V30 2509 H 228.288 -1.54406 0.366675 0
M  V30 2510 H 228.309 -3.47454 -1.55099 0
M  V30 2511 H 227.821 -3.87421 0.229449 0
M  V30 2512 H 225.922 -3.07553 -2.10338 0
M  V30 2513 H 226.035 -4.66501 -1.09151 0
M  V30 2514 H 224.399 -2.45618 -0.674072 0
M  V30 2515 H 225.182 -3.35311 0.736297 0
M  V30 2516 N 227.627 0.131896 -1.57047 0
M  V30 2517 C 228.852 0.860418 -1.8871 0
M  V30 2518 C 229.277 1.73251 -0.73251 0
M  V30 2519 O 228.635 1.785 0.317429 0
M  V30 2520 C 228.683 1.68047 -3.19049 0
M  V30 2521 O 227.787 2.7862 -3.04047 0
M  V30 2522 H 227.128 0.238743 -0.619595 0
M  V30 2523 H 229.658 0.118169 -2.04258 0
M  V30 2524 H 229.668 2.07238 -3.51449 0
M  V30 2525 H 228.343 1.04018 -4.02682 0
M  V30 2526 H 226.92 2.42726 -2.83088 0
M  V30 2527 N 229.106 1.52395 0.401703 0
M  V30 2528 C 230.054 1.7689 1.51039 0
M  V30 2529 C 231.048 0.636298 1.56996 0
M  V30 2530 O 232.254 0.818507 1.60314 0
M  V30 2531 H 228.629 0.559502 0.502456 0
M  V30 2532 H 230.6 2.69757 1.27568 0
M  V30 2533 C 229.349 1.94331 2.88324 0
M  V30 2534 H 228.672 2.80905 2.84486 0
M  V30 2535 H 230.112 2.15466 3.65172 0
M  V30 2536 C 228.571 0.712396 3.29282 0
M  V30 2537 O 229.101 -0.116218 4.01532 0
M  V30 2538 N 227.307 0.546154 2.85422 0
M  V30 2539 H 226.854 1.22156 2.26794 0
M  V30 2540 H 226.812 -0.276113 3.13185 0
M  V30 2541 N 230.584 -0.659388 1.43143 0
M  V30 2542 C 231.833 -1.41518 1.43721 0
M  V30 2543 C 232.146 -1.95499 0.0628176 0
M  V30 2544 O 233.352 -2.71446 -0.0539683 0
M  V30 2545 C 231.808 -2.5608 2.52885 0
M  V30 2546 C 231.416 -2.08733 3.96402 0
M  V30 2547 C 233.16 -3.3349 2.62649 0
M  V30 2548 C 231.067 -3.20469 4.97045 0
M  V30 2549 H 229.997 -0.531705 0.534608 0
M  V30 2550 H 232.648 -0.712343 1.69109 0
M  V30 2551 H 231.03 -3.28805 2.20688 0
M  V30 2552 H 232.204 -1.43059 4.3803 0
M  V30 2553 H 230.519 -1.44219 3.90627 0
M  V30 2554 H 233.116 -4.16734 3.35017 0
M  V30 2555 H 233.459 -3.8111 1.67513 0
M  V30 2556 H 233.992 -2.67842 2.94118 0
M  V30 2557 H 230.731 -2.77824 5.93712 0
M  V30 2558 H 230.251 -3.84874 4.60034 0
M  V30 2559 H 231.93 -3.85698 5.19467 0
M  V30 2560 N 232.062 -1.29571 -0.897171 0
M  V30 2561 C 233.308 -1.17863 -1.65034 0
M  V30 2562 C 233.641 0.268729 -1.92332 0
M  V30 2563 O 232.916 1.19378 -1.53555 0
M  V30 2564 C 233.199 -1.995 -2.99786 0
M  V30 2565 C 233.052 -3.5239 -2.79538 0
M  V30 2566 C 234.371 -1.82335 -4.00552 0
M  V30 2567 H 231.49 -0.429528 -0.598895 0
M  V30 2568 H 234.132 -1.59072 -1.03905 0
M  V30 2569 H 232.282 -1.64485 -3.51962 0
M  V30 2570 H 233.954 -3.97401 -2.34244 0
M  V30 2571 H 232.197 -3.77187 -2.14273 0
M  V30 2572 H 232.868 -4.04787 -3.75302 0
M  V30 2573 H 235.344 -2.12924 -3.57495 0
M  V30 2574 H 234.22 -2.41801 -4.92771 0
M  V30 2575 H 234.481 -0.779209 -4.35179 0
M  V30 2576 N 233.54 1.10788 -1.12088 0
M  V30 2577 C 234.786 1.82942 -0.875226 0
M  V30 2578 C 235.119 1.84779 0.597538 0
M  V30 2579 O 234.394 1.30578 1.44152 0
M  V30 2580 C 234.677 3.29789 -1.44606 0
M  V30 2581 C 234.53 3.36307 -2.98693 0
M  V30 2582 C 235.849 4.26064 -1.10261 0
M  V30 2583 H 232.968 0.664195 -0.319397 0
M  V30 2584 H 235.61 1.29867 -1.38689 0
M  V30 2585 H 233.76 3.75118 -1.01089 0
M  V30 2586 H 235.432 2.99487 -3.50864 0
M  V30 2587 H 233.675 2.76318 -3.34411 0
M  V30 2588 H 234.346 4.39694 -3.33726 0
M  V30 2589 H 236.822 3.88951 -1.4784 0
M  V30 2590 H 235.698 5.27183 -1.52869 0
M  V30 2591 H 235.959 4.42098 -0.0142953 0
M  V30 2592 N 235.018 0.912232 1.28515 0
M  V30 2593 C 235.965 0.397954 2.27343 0
M  V30 2594 C 236.935 -0.526766 1.57526 0
M  V30 2595 O 238.12 -0.449292 1.85435 0
M  V30 2596 C 235.26 -0.357263 3.43246 0
M  V30 2597 C 234.373 0.599788 4.27816 0
M  V30 2598 C 233.508 -0.173725 5.30916 0
M  V30 2599 C 232.547 0.777039 6.07148 0
M  V30 2600 N 231.684 0.0371398 7.0209 0
M  V30 2601 H 236.524 1.24577 2.70711 0
M  V30 2602 H 234.061 0.625612 1.33133 0
M  V30 2603 H 236.019 -0.8113 4.09236 0
M  V30 2604 H 234.649 -1.16943 3.00872 0
M  V30 2605 H 233.701 1.17235 3.61884 0
M  V30 2606 H 235.013 1.32704 4.80823 0
M  V30 2607 H 234.167 -0.688394 6.02782 0
M  V30 2608 H 232.906 -0.934041 4.78672 0
M  V30 2609 H 231.911 1.3031 5.34134 0
M  V30 2610 H 233.136 1.53689 6.61481 0
M  V30 2611 H 231.082 -0.705213 6.52198 0
M  V30 2612 H 230.999 0.704249 7.52713 0
M  V30 2613 H 232.267 -0.457383 7.78157 0
M  V30 2614 N 236.496 -1.42363 0.676048 0
M  V30 2615 C 237.721 -2.06377 0.205705 0
M  V30 2616 C 238.146 -1.50463 -1.12883 0
M  V30 2617 O 237.504 -0.623619 -1.70237 0
M  V30 2618 C 237.552 -3.60277 0.152655 0
M  V30 2619 O 236.656 -4.02935 -0.87845 0
M  V30 2620 H 235.997 -0.655588 0.105359 0
M  V30 2621 H 238.527 -1.82475 0.925412 0
M  V30 2622 H 238.537 -4.07993 -0.0230675 0
M  V30 2623 H 237.212 -4.00346 1.12675 0
M  V30 2624 H 235.789 -3.66764 -0.673668 0
M  V30 2625 N 237.974 -0.419461 -1.51915 0
M  V30 2626 C 239.251 0.211999 -1.94448 0
M  V30 2627 C 239.631 1.61703 -1.35703 0
M  V30 2628 O 238.979 2.22102 -0.536931 0
M  V30 2629 C 239.189 0.207872 -3.4838 0
M  V30 2630 C 240.537 0.422192 -4.22496 0
M  V30 2631 O 241.561 0.286778 -3.55044 0
M  V30 2632 O 240.42 0.690009 -5.42126 0
M  V30 2633 H 237.514 0.139586 -0.815135 0
M  V30 2634 H 240.06 -0.476151 -1.62883 0
M  V30 2635 H 238.832 -0.775102 -3.83546 0
M  V30 2636 H 238.455 0.939688 -3.86336 0
M  V30 2637 N 239.452 1.56882 -0.150215 0
M  V30 2638 C 240.692 1.98119 0.502804 0
M  V30 2639 C 241.056 1.03327 1.61826 0
M  V30 2640 O 242.257 1.33621 2.33236 0
M  V30 2641 C 240.528 3.43329 0.992988 0
M  V30 2642 S 242.087 4.0659 1.65015 0
M  V30 2643 H 238.905 0.692189 0.162467 0
M  V30 2644 H 241.507 1.93988 -0.242689 0
M  V30 2645 H 240.211 4.10046 0.170436 0
M  V30 2646 H 239.742 3.5118 1.77303 0
M  V30 2647 H 241.757 3.99906 2.93752 0
M  V30 2648 N 240.93 -0.123565 1.57115 0
M  V30 2649 C 242.158 -0.846461 1.88793 0
M  V30 2650 C 242.573 -1.73652 0.740976 0
M  V30 2651 O 241.93 -1.80207 -0.288393 0
M  V30 2652 C 241.981 -1.6837 3.19897 0
M  V30 2653 O 241.702 -0.829477 4.30176 0
M  V30 2654 C 243.203 -2.51214 3.65248 0
M  V30 2655 H 240.423 -0.243573 0.625231 0
M  V30 2656 H 242.967 -0.109324 2.04208 0
M  V30 2657 H 241.122 -2.37364 3.06165 0
M  V30 2658 H 241.536 -1.40651 5.0529 0
M  V30 2659 H 243.01 -3.05497 4.59756 0
M  V30 2660 H 243.487 -3.28359 2.9168 0
M  V30 2661 H 244.093 -1.8747 3.81752 0
M  V30 2662 N 242.408 -1.52605 -0.393616 0
M  V30 2663 C 243.338 -1.80022 -1.48709 0
M  V30 2664 C 244.319 -0.651995 -1.57108 0
M  V30 2665 O 245.504 -0.89913 -1.72132 0
M  V30 2666 C 242.634 -1.96492 -2.86371 0
M  V30 2667 C 241.588 -3.12161 -2.92813 0
M  V30 2668 C 240.914 -3.13877 -4.3288 0
M  V30 2669 C 242.214 -4.51322 -2.6288 0
M  V30 2670 H 243.908 -2.71589 -1.26015 0
M  V30 2671 H 241.454 -1.30684 -0.604778 0
M  V30 2672 H 243.407 -2.14255 -3.62867 0
M  V30 2673 H 242.131 -1.01611 -3.10391 0
M  V30 2674 H 240.79 -2.94173 -2.18764 0
M  V30 2675 H 240.438 -2.16687 -4.53933 0
M  V30 2676 H 240.138 -3.91576 -4.38112 0
M  V30 2677 H 241.662 -3.33789 -5.1129 0
M  V30 2678 H 243.076 -4.69435 -3.29096 0
M  V30 2679 H 241.473 -5.31053 -2.79468 0
M  V30 2680 H 242.543 -4.58353 -1.58242 0
M  V30 2681 N 243.887 0.651787 -1.4349 0
M  V30 2682 C 244.834 1.76462 -1.4876 0
M  V30 2683 C 245.804 1.62641 -0.337189 0
M  V30 2684 O 246.989 1.82864 -0.544544 0
M  V30 2685 C 244.129 3.14623 -1.41796 0
M  V30 2686 C 243.242 3.39568 -2.67053 0
M  V30 2687 C 242.377 4.67585 -2.52068 0
M  V30 2688 C 241.416 4.85639 -3.72587 0
M  V30 2689 N 240.553 6.04915 -3.56402 0
M  V30 2690 H 245.393 1.71293 -2.43849 0
M  V30 2691 H 242.93 0.835889 -1.21043 0
M  V30 2692 H 244.888 3.94496 -1.35753 0
M  V30 2693 H 243.518 3.18859 -0.50288 0
M  V30 2694 H 242.57 2.53783 -2.8337 0
M  V30 2695 H 243.882 3.48795 -3.56572 0
M  V30 2696 H 243.036 5.55586 -2.4374 0
M  V30 2697 H 241.775 4.60681 -1.60075 0
M  V30 2698 H 240.78 3.96073 -3.81321 0
M  V30 2699 H 242.005 4.94372 -4.65589 0
M  V30 2700 H 239.951 5.9914 -2.67146 0
M  V30 2701 H 239.868 6.15106 -4.39524 0
M  V30 2702 H 241.136 6.95533 -3.51929 0
M  V30 2703 N 245.365 1.30045 0.890287 0
M  V30 2704 C 246.614 1.17929 1.63633 0
M  V30 2705 C 246.927 -0.266204 1.9378 0
M  V30 2706 O 248.133 -0.508804 2.6669 0
M  V30 2707 C 246.589 2.06317 2.94892 0
M  V30 2708 C 246.197 3.55745 2.72305 0
M  V30 2709 C 247.941 2.0295 3.72843 0
M  V30 2710 C 245.848 4.36205 3.99348 0
M  V30 2711 H 244.778 0.437782 0.613892 0
M  V30 2712 H 247.429 1.54754 0.986075 0
M  V30 2713 H 245.811 1.6237 3.61182 0
M  V30 2714 H 246.985 4.07805 2.1455 0
M  V30 2715 H 245.3 3.6088 2.07737 0
M  V30 2716 H 247.897 2.60319 4.67053 0
M  V30 2717 H 248.24 1.0117 4.0382 0
M  V30 2718 H 248.773 2.4499 3.13408 0
M  V30 2719 H 245.512 5.38659 3.73533 0
M  V30 2720 H 245.032 3.8891 4.56628 0
M  V30 2721 H 246.711 4.47362 4.67415 0
M  V30 2722 N 246.843 -1.10192 1.12674 0
M  V30 2723 C 247.773 -2.18652 0.819362 0
M  V30 2724 C 248.754 -1.68698 -0.217915 0
M  V30 2725 O 249.939 -1.94041 -0.0785581 0
M  V30 2726 C 247.069 -3.46202 0.27594 0
M  V30 2727 C 246.023 -4.09444 1.24656 0
M  V30 2728 C 245.349 -5.31725 0.563258 0
M  V30 2729 C 246.649 -4.52863 2.60217 0
M  V30 2730 H 248.343 -2.44622 1.72628 0
M  V30 2731 H 245.889 -1.17571 0.831451 0
M  V30 2732 H 247.842 -4.21372 0.0486149 0
M  V30 2733 H 246.566 -3.1973 -0.666331 0
M  V30 2734 H 245.225 -3.36284 1.45974 0
M  V30 2735 H 244.873 -5.0153 -0.384235 0
M  V30 2736 H 244.573 -5.74991 1.21075 0
M  V30 2737 H 246.097 -6.09624 0.34503 0
M  V30 2738 H 247.511 -5.19294 2.42913 0
M  V30 2739 H 245.908 -5.06986 3.21068 0
M  V30 2740 H 246.978 -3.65656 3.18471 0
M  V30 2741 N 248.321 -0.919034 -1.28029 0
M  V30 2742 C 249.598 -0.473668 -1.89778 0
M  V30 2743 C 249.978 1.04783 -1.83259 0
M  V30 2744 O 249.326 1.8982 -1.27202 0
M  V30 2745 C 249.536 -1.00998 -3.34066 0
M  V30 2746 C 250.884 -1.06525 -4.1102 0
M  V30 2747 O 251.908 -0.958996 -3.43048 0
M  V30 2748 O 250.767 -1.22776 -5.3253 0
M  V30 2749 H 247.861 -0.15098 -0.813101 0
M  V30 2750 H 250.407 -1.01016 -1.36359 0
M  V30 2751 H 249.179 -2.05392 -3.33061 0
M  V30 2752 H 248.802 -0.454626 -3.94992 0
M  V30 2753 N 249.799 1.42003 -0.683588 0
M  V30 2754 C 251.046 2.01413 -0.209514 0
M  V30 2755 C 251.374 1.54088 1.1869 0
M  V30 2756 O 250.629 0.737591 1.81268 0
M  V30 2757 C 250.928 3.56827 -0.202357 0
M  V30 2758 C 250.594 4.23617 -1.54464 0
M  V30 2759 C 249.256 4.41577 -1.91215 0
M  V30 2760 C 251.608 4.61178 -2.42826 0
M  V30 2761 C 248.936 4.9437 -3.15935 0
M  V30 2762 C 251.288 5.15355 -3.66867 0
M  V30 2763 C 249.952 5.31528 -4.03776 0
M  V30 2764 H 249.222 0.737023 -0.0766668 0
M  V30 2765 H 251.869 1.70067 -0.880312 0
M  V30 2766 H 250.174 3.87892 0.551969 0
M  V30 2767 H 251.871 4.00588 0.181793 0
M  V30 2768 H 248.461 4.10004 -1.24877 0
M  V30 2769 H 252.645 4.46968 -2.15717 0
M  V30 2770 H 247.901 5.05076 -3.44541 0
M  V30 2771 H 252.075 5.43402 -4.35531 0
M  V30 2772 H 249.702 5.72199 -5.00492 0
M  V30 2773 N 251.277 0.427512 1.51691 0
M  V30 2774 C 252.525 -0.141948 2.01601 0
M  V30 2775 C 252.846 -1.44067 1.31414 0
M  V30 2776 O 252.116 -1.90763 0.445658 0
M  V30 2777 H 250.696 -0.0554468 0.744939 0
M  V30 2778 H 253.358 0.567968 1.86441 0
M  V30 2779 H 252.454 -0.324913 3.10404 0
M  V30 2780 N 252.755 -1.56801 0.158532 0
M  V30 2781 C 253.685 -2.20347 -0.772609 0
M  V30 2782 C 254.666 -1.15518 -1.24859 0
M  V30 2783 O 255.851 -1.43902 -1.30406 0
M  V30 2784 C 252.981 -2.83417 -2.00729 0
M  V30 2785 C 251.935 -3.94174 -1.66765 0
M  V30 2786 C 251.261 -4.44233 -2.97592 0
M  V30 2787 C 252.561 -5.14392 -0.905447 0
M  V30 2788 H 254.255 -2.98413 -0.242959 0
M  V30 2789 H 251.801 -1.43537 -0.115419 0
M  V30 2790 H 253.754 -3.26543 -2.6636 0
M  V30 2791 H 252.478 -2.02701 -2.56086 0
M  V30 2792 H 251.137 -3.51684 -1.03508 0
M  V30 2793 H 250.785 -3.60325 -3.50963 0
M  V30 2794 H 250.485 -5.18945 -2.75626 0
M  V30 2795 H 252.009 -4.90037 -3.64274 0
M  V30 2796 H 253.423 -5.5429 -1.46408 0
M  V30 2797 H 251.82 -5.9494 -0.7853 0
M  V30 2798 H 252.89 -4.84795 0.100668 0
M  V30 2799 N 254.233 0.115231 -1.57178 0
M  V30 2800 C 255.196 1.12526 -1.99676 0
M  V30 2801 C 256.196 1.34095 -0.88742 0
M  V30 2802 O 257.386 1.30548 -1.15337 0
M  V30 2803 C 254.518 2.4789 -2.34015 0
M  V30 2804 H 255.711 0.759912 -2.90113 0
M  V30 2805 H 253.264 0.359648 -1.52106 0
M  V30 2806 H 253.999 2.89339 -1.4647 0
M  V30 2807 H 253.784 2.33588 -3.14927 0
M  V30 2808 H 255.274 3.20575 -2.67622 0
M  V30 2809 N 255.711 1.52812 0.385517 0
M  V30 2810 C 257.127 1.4214 0.725829 0
M  V30 2811 C 257.327 0.544589 1.94001 0
M  V30 2812 O 256.383 0.0193693 2.52493 0
M  V30 2813 C 257.696 2.85042 0.957668 0
M  V30 2814 C 259.244 2.94543 1.05892 0
M  V30 2815 C 259.719 4.38464 1.32337 0
M  V30 2816 N 261.21 4.41804 1.39151 0
M  V30 2817 C 261.945 5.5025 1.61285 0
M  V30 2818 N 261.441 6.68775 1.80866 0
M  V30 2819 N 263.234 5.37798 1.63492 0
M  V30 2820 H 255.385 2.08338 -0.413383 0
M  V30 2821 H 257.648 0.940016 -0.122775 0
M  V30 2822 H 257.354 3.51431 0.137568 0
M  V30 2823 H 257.228 3.27505 1.87137 0
M  V30 2824 H 259.615 2.28321 1.86959 0
M  V30 2825 H 259.696 2.55504 0.123057 0
M  V30 2826 H 259.34 5.05254 0.517793 0
M  V30 2827 H 259.27 4.75059 2.27214 0
M  V30 2828 H 261.761 3.56377 1.25713 0
M  V30 2829 H 262.074 7.47197 1.97271 0
M  V30 2830 H 260.419 6.71797 1.78083 0
M  V30 2831 H 263.61 4.44171 1.47749 0
M  V30 2832 H 263.783 6.22382 1.80402 0
M  V30 2833 N 257.189 -0.644168 1.43834 0
M  V30 2834 C 258.417 -1.43147 1.49387 0
M  V30 2835 C 258.832 -1.88452 0.114583 0
M  V30 2836 O 258.189 -1.60047 -0.876989 0
M  V30 2837 C 258.24 -2.66046 2.44748 0
M  V30 2838 O 257.961 -2.22633 3.77314 0
M  V30 2839 C 259.462 -3.59311 2.59635 0
M  V30 2840 H 256.682 -0.439447 0.507077 0
M  V30 2841 H 259.226 -0.78895 1.88669 0
M  V30 2842 H 257.381 -3.26418 2.08638 0
M  V30 2843 H 257.795 -3.02216 4.28679 0
M  V30 2844 H 259.269 -4.42187 3.30416 0
M  V30 2845 H 259.746 -4.07259 1.64427 0
M  V30 2846 H 260.352 -3.04816 2.96593 0
M  V30 2847 N 258.668 -1.30515 -0.883378 0
M  V30 2848 C 259.631 -1.1701 -1.97082 0
M  V30 2849 C 260.631 -0.10089 -1.60483 0
M  V30 2850 O 261.821 -0.349127 -1.70666 0
M  V30 2851 C 258.953 -0.793045 -3.31547 0
M  V30 2852 H 260.146 -2.13622 -2.10489 0
M  V30 2853 H 257.699 -1.13935 -1.06998 0
M  V30 2854 H 258.434 0.172499 -3.23841 0
M  V30 2855 H 258.219 -1.56576 -3.5948 0
M  V30 2856 H 259.709 -0.722073 -4.1131 0
M  V30 2857 N 260.146 1.09593 -1.13257 0
M  V30 2858 C 261.394 1.81375 -0.891492 0
M  V30 2859 C 261.715 1.86049 0.584009 0
M  V30 2860 O 260.985 1.34481 1.42449 0
M  V30 2861 H 259.565 0.671708 -0.326828 0
M  V30 2862 H 262.227 1.3256 -1.42877 0
M  V30 2863 H 261.323 2.84612 -1.28071 0
M  V30 2864 N 261.624 0.925811 1.2754 0
M  V30 2865 C 262.852 0.581509 1.9856 0
M  V30 2866 C 263.267 -0.840041 1.69082 0
M  V30 2867 O 262.624 -1.55805 0.950312 0
M  V30 2868 C 262.675 0.795589 3.52637 0
M  V30 2869 O 262.396 2.16121 3.81082 0
M  V30 2870 C 263.897 0.459744 4.4091 0
M  V30 2871 H 261.117 0.220538 0.633722 0
M  V30 2872 H 263.661 1.24232 1.6244 0
M  V30 2873 H 261.816 0.18161 3.86974 0
M  V30 2874 H 262.23 2.2098 4.75676 0
M  V30 2875 H 263.704 0.660244 5.48037 0
M  V30 2876 H 264.181 -0.604625 4.35018 0
M  V30 2877 H 264.787 1.05178 4.12089 0
M  V30 2878 N 263.102 -1.41638 0.69111 0
M  V30 2879 C 264.327 -2.06148 0.227583 0
M  V30 2880 C 264.752 -1.51652 -1.11281 0
M  V30 2881 O 264.11 -0.64164 -1.69566 0
M  V30 2882 C 264.158 -3.60095 0.190858 0
M  V30 2883 O 263.262 -4.03845 -0.835664 0
M  V30 2884 H 262.603 -0.654434 0.112306 0
M  V30 2885 H 265.133 -1.81484 0.944714 0
M  V30 2886 H 265.143 -4.07995 0.020207 0
M  V30 2887 H 263.818 -3.99129 1.16915 0
M  V30 2888 H 262.395 -3.67458 -0.63473 0
M  V30 2889 N 264.58 -0.43555 -1.51462 0
M  V30 2890 C 265.827 0.131514 -2.02072 0
M  V30 2891 C 266.155 1.42868 -1.31981 0
M  V30 2892 O 265.41 1.91076 -0.422883 0
M  V30 2893 C 265.709 0.39942 -3.55161 0
M  V30 2894 C 265.375 -0.81172 -4.43533 0
M  V30 2895 C 264.037 -1.14387 -4.67407 0
M  V30 2896 C 266.389 -1.61976 -4.95392 0
M  V30 2897 C 263.717 -2.28477 -5.40384 0
M  V30 2898 C 266.069 -2.75164 -5.6962 0
M  V30 2899 C 264.733 -3.08835 -5.91758 0
M  V30 2900 H 264.003 0.0481244 -0.739436 0
M  V30 2901 H 266.65 -0.58238 -1.8243 0
M  V30 2902 H 264.955 1.19519 -3.73125 0
M  V30 2903 H 266.652 0.85157 -3.91854 0
M  V30 2904 H 263.242 -0.542898 -4.25148 0
M  V30 2905 H 267.426 -1.37637 -4.76833 0
M  V30 2906 H 262.682 -2.5488 -5.55739 0
M  V30 2907 H 266.856 -3.38147 -6.08793 0
M  V30 2908 H 264.483 -3.97353 -6.48086 0
M  V30 2909 N 266.058 1.56714 -0.166846 0
M  V30 2910 C 266.991 2.13577 0.80375 0
M  V30 2911 C 267.969 1.06464 1.22899 0
M  V30 2912 O 269.153 1.34413 1.32157 0
M  V30 2913 C 266.28 2.67168 2.0818 0
M  V30 2914 C 265.326 3.86612 1.80093 0
M  V30 2915 S 266.159 5.26565 0.97416 0
M  V30 2916 C 267.315 5.83558 2.26297 0
M  V30 2917 H 267.548 2.9557 0.320267 0
M  V30 2918 H 265.081 1.54326 0.0477555 0
M  V30 2919 H 267.039 2.98692 2.8159 0
M  V30 2920 H 265.7 1.85269 2.53642 0
M  V30 2921 H 264.893 4.22422 2.7491 0
M  V30 2922 H 264.495 3.55951 1.14781 0
M  V30 2923 H 266.787 5.962 3.21795 0
M  V30 2924 H 267.73 6.80731 1.94962 0
M  V30 2925 H 268.138 5.11944 2.37853 0
M  V30 2926 N 267.536 -0.106894 1.57237 0
M  V30 2927 C 268.469 -1.16125 1.96444 0
M  V30 2928 C 269.447 -1.3947 0.835871 0
M  V30 2929 O 270.631 -1.53425 1.09513 0
M  V30 2930 C 267.758 -2.51277 2.27107 0
M  V30 2931 C 266.804 -2.44285 3.4961 0
M  V30 2932 S 267.637 -1.87077 5.01759 0
M  V30 2933 C 268.793 -3.23877 5.35588 0
M  V30 2934 H 269.026 -0.826971 2.85567 0
M  V30 2935 H 266.559 -0.314124 1.51171 0
M  V30 2936 H 268.517 -3.29035 2.45451 0
M  V30 2937 H 267.178 -2.81879 1.38576 0
M  V30 2938 H 266.371 -3.4387 3.68469 0
M  V30 2939 H 265.973 -1.74652 3.30715 0
M  V30 2940 H 268.265 -4.20122 5.31511 0
M  V30 2941 H 269.208 -3.09833 6.36717 0
M  V30 2942 H 269.616 -3.22864 4.63054 0
M  V30 2943 N 269.014 -1.53014 -0.377408 0
M  V30 2944 C 270.242 -1.72515 -1.14219 0
M  V30 2945 C 270.657 -0.448735 -1.8339 0
M  V30 2946 O 270.014 0.577592 -1.73119 0
M  V30 2947 C 270.065 -2.8826 -2.18148 0
M  V30 2948 O 269.786 -4.10962 -1.51795 0
M  V30 2949 C 271.287 -3.19536 -3.07264 0
M  V30 2950 H 268.507 -0.577301 -0.342001 0
M  V30 2951 H 271.051 -1.99712 -0.439935 0
M  V30 2952 H 269.206 -2.63492 -2.83991 0
M  V30 2953 H 269.62 -4.75693 -2.20945 0
M  V30 2954 H 271.094 -4.03959 -3.76193 0
M  V30 2955 H 271.571 -2.34403 -3.71419 0
M  V30 2956 H 272.177 -3.46186 -2.47053 0
M  V30 2957 N 270.492 0.636531 -1.44174 0
M  V30 2958 C 271.903 1.21806 -1.41493 0
M  V30 2959 C 272.254 1.95785 -0.1275 0
M  V30 2960 O 271.379 2.02147 0.772376 0
M  V30 2961 C 271.974 2.21551 -2.56321 0
M  V30 2962 C 270.533 2.75143 -2.56853 0
M  V30 2963 C 269.68 1.50052 -2.33195 0
M  V30 2964 H 272.631 0.427531 -1.52833 0
M  V30 2965 H 272.652 3.0405 -2.28765 0
M  V30 2966 H 272.164 1.67679 -3.50008 0
M  V30 2967 H 270.265 3.33033 -1.67093 0
M  V30 2968 H 270.378 3.2155 -3.55165 0
M  V30 2969 H 268.742 1.77993 -1.82183 0
M  V30 2970 H 269.525 0.980903 -3.28988 0
M  V30 2971 N 271.97 1.30982 0.876444 0
M  V30 2972 C 273.2 1.23063 1.65949 0
M  V30 2973 C 273.608 -0.207537 1.88058 0
M  V30 2974 O 272.951 -1.14781 1.43426 0
M  V30 2975 C 273.013 1.89768 3.05333 0
M  V30 2976 C 272.677 3.39106 3.0636 0
M  V30 2977 C 273.674 4.3496 2.84791 0
M  V30 2978 C 271.359 3.80693 3.27686 0
M  V30 2979 C 273.353 5.70375 2.84519 0
M  V30 2980 C 271.04 5.16223 3.27043 0
M  V30 2981 C 272.038 6.10875 3.05485 0
M  V30 2982 O 271.726 7.43928 3.04674 0
M  V30 2983 H 271.458 0.426685 0.524324 0
M  V30 2984 H 274.012 1.7329 1.10271 0
M  V30 2985 H 272.242 1.34082 3.6271 0
M  V30 2986 H 273.931 1.75853 3.65829 0
M  V30 2987 H 274.697 4.0416 2.68103 0
M  V30 2988 H 270.576 3.07457 3.43499 0
M  V30 2989 H 274.12 6.44228 2.67611 0
M  V30 2990 H 270.017 5.4666 3.43269 0
M  V30 2991 H 270.785 7.53022 3.2078 0
M  V30 2992 N 273.449 -1.08991 1.13837 0
M  V30 2993 C 274.695 -1.81526 0.90422 0
M  V30 2994 C 275.028 -1.85706 -0.568066 0
M  V30 2995 O 274.303 -1.32855 -1.42056 0
M  V30 2996 C 274.586 -3.27447 1.49835 0
M  V30 2997 C 274.439 -3.31512 3.04006 0
M  V30 2998 C 275.758 -4.24256 1.17025 0
M  V30 2999 H 272.877 -0.659029 0.329923 0
M  V30 3000 H 275.519 -1.27644 1.40737 0
M  V30 3001 H 273.669 -3.73462 1.07044 0
M  V30 3002 H 275.341 -2.93867 3.55584 0
M  V30 3003 H 273.584 -2.70963 3.38765 0
M  V30 3004 H 274.255 -4.34329 3.40679 0
M  V30 3005 H 276.731 -3.86549 1.54009 0
M  V30 3006 H 275.607 -5.24684 1.61237 0
M  V30 3007 H 275.868 -4.42019 0.0846274 0
M  V30 3008 N 274.927 -0.932562 -1.27047 0
M  V30 3009 C 276.173 -0.576412 -1.94436 0
M  V30 3010 C 276.506 0.880891 -1.73072 0
M  V30 3011 O 275.781 1.62905 -1.06264 0
M  V30 3012 C 276.064 -0.909031 -3.48437 0
M  V30 3013 C 275.917 -2.42044 -3.79123 0
M  V30 3014 C 277.236 -0.418341 -4.38107 0
M  V30 3015 H 274.355 -0.210888 -0.706184 0
M  V30 3016 H 276.997 -1.16522 -1.50075 0
M  V30 3017 H 275.147 -0.407947 -3.86352 0
M  V30 3018 H 276.819 -2.99359 -3.50973 0
M  V30 3019 H 275.062 -2.86758 -3.25503 0
M  V30 3020 H 275.733 -2.6037 -4.86736 0
M  V30 3021 H 278.209 -0.847856 -4.0737 0
M  V30 3022 H 277.085 -0.679981 -5.44672 0
M  V30 3023 H 277.346 0.681642 -4.36814 0
M  V30 3024 N 276.405 1.4127 -0.698611 0
M  V30 3025 C 277.633 2.05503 -0.239992 0
M  V30 3026 C 278.048 1.52584 1.11191 0
M  V30 3027 O 277.405 0.675323 1.69545 0
M  V30 3028 C 277.456 3.60987 -0.192429 0
M  V30 3029 O 277.177 4.1195 -1.49094 0
M  V30 3030 C 278.678 4.42371 0.28681 0
M  V30 3031 H 275.898 0.661748 -0.111045 0
M  V30 3032 H 278.442 1.80987 -0.95205 0
M  V30 3033 H 276.597 3.84533 0.470472 0
M  V30 3034 H 277.011 5.06018 -1.38007 0
M  V30 3035 H 278.485 5.51344 0.26896 0
M  V30 3036 H 278.962 4.18699 1.32619 0
M  V30 3037 H 279.568 4.23897 -0.345201 0
M  V30 3038 N 277.883 0.443576 1.51229 0
M  V30 3039 C 279.299 0.0962001 1.5931 0
M  V30 3040 C 279.499 -1.39501 1.45402 0
M  V30 3041 O 278.555 -2.16557 1.29843 0
M  V30 3042 C 279.868 0.621875 2.94199 0
M  V30 3043 C 281.416 0.582865 3.07525 0
M  V30 3044 C 281.891 1.08562 4.44948 0
M  V30 3045 N 283.382 1.04387 4.51284 0
M  V30 3046 C 284.117 1.40368 5.55954 0
M  V30 3047 N 283.613 1.83664 6.68011 0
M  V30 3048 N 285.406 1.32145 5.46346 0
M  V30 3049 H 277.557 1.41376 1.58514 0
M  V30 3050 H 279.82 0.582965 0.747567 0
M  V30 3051 H 279.526 1.66546 3.09767 0
M  V30 3052 H 279.4 0.0502125 3.77167 0
M  V30 3053 H 281.787 -0.451749 2.91622 0
M  V30 3054 H 281.868 1.191 2.26382 0
M  V30 3055 H 281.512 2.11873 4.61598 0
M  V30 3056 H 281.442 0.453956 5.2464 0
M  V30 3057 H 283.933 0.725986 3.70861 0
M  V30 3058 H 284.246 2.0934 7.43906 0
M  V30 3059 H 282.591 1.87596 6.69203 0
M  V30 3060 H 285.782 0.981808 4.57688 0
M  V30 3061 H 285.955 1.60514 6.27805 0
M  V30 3062 N 279.361 -1.56624 0.175154 0
M  V30 3063 C 280.591 -2.01082 -0.474283 0
M  V30 3064 C 280.999 -1.05447 -1.57091 0
M  V30 3065 O 280.342 -0.0480595 -1.83637 0
M  V30 3066 C 280.404 -3.41963 -1.10911 0
M  V30 3067 C 280.068 -4.56742 -0.153666 0
M  V30 3068 C 281.065 -5.16076 0.629448 0
M  V30 3069 C 278.75 -5.02277 -0.0483776 0
M  V30 3070 C 280.744 -6.19377 1.50501 0
M  V30 3071 C 278.431 -6.05427 0.830768 0
M  V30 3072 C 279.429 -6.63849 1.60605 0
M  V30 3073 O 279.117 -7.64998 2.47049 0
M  V30 3074 H 278.849 -0.664261 -0.125432 0
M  V30 3075 H 281.403 -2.03549 0.275163 0
M  V30 3076 H 279.633 -3.36422 -1.90676 0
M  V30 3077 H 281.322 -3.70352 -1.66114 0
M  V30 3078 H 282.088 -4.81776 0.558297 0
M  V30 3079 H 277.967 -4.56513 -0.641611 0
M  V30 3080 H 281.511 -6.64906 2.1106 0
M  V30 3081 H 277.408 -6.39151 0.903107 0
M  V30 3082 H 278.176 -7.82336 2.40607 0
M  V30 3083 N 280.839 0.0985539 -1.57292 0
M  V30 3084 C 282.069 0.815135 -1.8984 0
M  V30 3085 C 282.477 1.7297 -0.766679 0
M  V30 3086 O 281.82 1.81698 0.270483 0
M  V30 3087 C 281.882 1.6842 -3.17608 0
M  V30 3088 C 281.546 0.94182 -4.4719 0
M  V30 3089 C 282.543 0.273212 -5.19182 0
M  V30 3090 C 280.228 0.916927 -4.9386 0
M  V30 3091 C 282.222 -0.410361 -6.36078 0
M  V30 3092 C 279.909 0.229567 -6.10669 0
M  V30 3093 C 280.907 -0.432902 -6.81627 0
M  V30 3094 O 280.595 -1.10925 -7.9621 0
M  V30 3095 H 280.327 0.238501 -0.632529 0
M  V30 3096 H 282.881 0.0812659 -2.05239 0
M  V30 3097 H 281.111 2.46022 -2.98345 0
M  V30 3098 H 282.8 2.27704 -3.36015 0
M  V30 3099 H 283.566 0.283927 -4.84168 0
M  V30 3100 H 279.445 1.42201 -4.3852 0
M  V30 3101 H 282.989 -0.928013 -6.914 0
M  V30 3102 H 278.886 0.216686 -6.45136 0
M  V30 3103 H 279.654 -1.01579 -8.12172 0
M  V30 3104 N 282.317 1.53212 0.369288 0
M  V30 3105 C 283.733 1.42902 0.710712 0
M  V30 3106 C 283.933 0.565135 1.93413 0
M  V30 3107 O 282.989 0.0461484 2.52458 0
M  V30 3108 C 284.302 2.86042 0.927382 0
M  V30 3109 C 285.85 2.9565 1.02762 0
M  V30 3110 C 286.325 4.39843 1.27679 0
M  V30 3111 N 287.816 4.43256 1.34457 0
M  V30 3112 C 288.551 5.51929 1.55439 0
M  V30 3113 N 288.047 6.70655 1.73762 0
M  V30 3114 N 289.84 5.39502 1.57779 0
M  V30 3115 H 281.991 2.07888 -0.435457 0
M  V30 3116 H 284.254 0.938661 -0.132739 0
M  V30 3117 H 283.96 3.51557 0.100287 0
M  V30 3118 H 283.834 3.29472 1.83653 0
M  V30 3119 H 286.221 2.30291 1.84527 0
M  V30 3120 H 286.302 2.5562 0.0959504 0
M  V30 3121 H 285.946 5.05774 0.464175 0
M  V30 3122 H 285.876 4.77443 2.22162 0
M  V30 3123 H 288.367 3.5769 1.21926 0
M  V30 3124 H 288.68 7.49248 1.89335 0
M  V30 3125 H 287.025 6.73648 1.70948 0
M  V30 3126 H 290.216 4.45713 1.43029 0
M  V30 3127 H 290.389 6.2426 1.7379 0
M  V30 3128 N 283.795 -0.628877 1.44509 0
M  V30 3129 C 284.758 -1.72263 1.51188 0
M  V30 3130 C 285.758 -1.55907 0.39367 0
M  V30 3131 O 286.948 -1.61361 0.656377 0
M  V30 3132 C 284.08 -3.11365 1.38798 0
M  V30 3133 H 285.273 -1.67714 2.4862 0
M  V30 3134 H 282.826 -0.842737 1.31634 0
M  V30 3135 H 283.561 -3.21507 0.424693 0
M  V30 3136 H 283.346 -3.24644 2.19884 0
M  V30 3137 H 284.836 -3.91075 1.46458 0
M  V30 3138 N 285.273 -1.31445 -0.869486 0
M  V30 3139 C 286.684 -1.19042 -1.43826 0
M  V30 3140 C 287.035 0.202919 -1.95148 0
M  V30 3141 O 286.16 1.10071 -1.86315 0
M  V30 3142 C 286.755 -2.15499 -2.6143 0
M  V30 3143 C 285.314 -2.07028 -3.14351 0
M  V30 3144 C 284.461 -2.04701 -1.87063 0
M  V30 3145 H 287.412 -1.43489 -0.677984 0
M  V30 3146 H 287.433 -1.74488 -3.38134 0
M  V30 3147 H 286.945 -3.16899 -2.24046 0
M  V30 3148 H 285.046 -1.08825 -3.56354 0
M  V30 3149 H 285.159 -2.96157 -3.766 0
M  V30 3150 H 283.523 -1.49724 -2.06046 0
M  V30 3151 H 284.306 -3.07857 -1.51917 0
M  V30 3152 N 286.751 1.08385 -1.14413 0
M  V30 3153 C 287.661 2.18856 -0.844951 0
M  V30 3154 C 288.677 1.73121 0.174668 0
M  V30 3155 O 289.853 2.014 0.00312857 0
M  V30 3156 C 286.918 3.45155 -0.32696 0
M  V30 3157 C 285.979 4.05513 -1.40916 0
M  V30 3158 C 285.212 5.25784 -0.915793 0
M  V30 3159 O 285.435 5.69884 0.242651 0
M  V30 3160 O 284.369 5.77545 -1.69487 0
M  V30 3161 H 288.195 2.46919 -1.76818 0
M  V30 3162 H 285.78 1.17524 -0.922411 0
M  V30 3163 H 287.662 4.21377 -0.0440211 0
M  V30 3164 H 286.337 3.18668 0.568539 0
M  V30 3165 H 285.244 3.30879 -1.74556 0
M  V30 3166 H 286.577 4.3625 -2.27919 0
M  V30 3167 N 288.23 0.939286 1.26551 0
M  V30 3168 C 289.476 0.586715 1.94128 0
M  V30 3169 C 289.809 -0.8717 1.73537 0
M  V30 3170 O 289.084 -1.62339 1.07127 0
M  V30 3171 C 289.367 0.927497 3.4795 0
M  V30 3172 C 289.22 2.44052 3.77834 0
M  V30 3173 C 290.539 0.441569 4.37879 0
M  V30 3174 H 287.658 0.21463 0.705055 0
M  V30 3175 H 290.3 1.17316 1.49455 0
M  V30 3176 H 288.45 0.428431 3.8613 0
M  V30 3177 H 290.122 3.01216 3.4938 0
M  V30 3178 H 288.365 2.8848 3.23978 0
M  V30 3179 H 289.036 2.62947 4.85348 0
M  V30 3180 H 291.512 0.869448 4.06915 0
M  V30 3181 H 290.388 0.708856 5.44304 0
M  V30 3182 H 290.649 -0.658467 4.37169 0
M  V30 3183 N 289.708 -1.40897 0.706093 0
M  V30 3184 C 290.957 -2.00284 0.238574 0
M  V30 3185 C 291.27 -1.56604 -1.17194 0
M  V30 3186 O 292.476 -2.08624 -1.73748 0
M  V30 3187 C 290.932 -3.57934 0.375623 0
M  V30 3188 C 290.54 -4.10591 1.79217 0
M  V30 3189 C 292.284 -4.24488 -0.0315857 0
M  V30 3190 C 290.191 -5.60712 1.88032 0
M  V30 3191 H 289.121 -0.749144 0.0854398 0
M  V30 3192 H 291.772 -1.61251 0.875813 0
M  V30 3193 H 290.154 -3.94622 -0.330042 0
M  V30 3194 H 291.328 -3.85301 2.52745 0
M  V30 3195 H 289.643 -3.56601 2.15 0
M  V30 3196 H 292.24 -5.34698 0.0136842 0
M  V30 3197 H 292.583 -4.02261 -1.072 0
M  V30 3198 H 293.116 -3.92873 0.624181 0
M  V30 3199 H 289.855 -5.87781 2.90161 0
M  V30 3200 H 289.375 -5.87896 1.18903 0
M  V30 3201 H 291.054 -6.25658 1.64805 0
M  V30 3202 N 291.186 -0.45159 -1.50991 0
M  V30 3203 C 292.116 0.342898 -2.30969 0
M  V30 3204 C 293.097 1.00815 -1.37005 0
M  V30 3205 O 294.282 1.00907 -1.65926 0
M  V30 3206 C 291.412 1.43637 -3.16205 0
M  V30 3207 C 290.366 0.893818 -4.18563 0
M  V30 3208 C 289.692 2.08411 -4.92411 0
M  V30 3209 C 290.992 -0.0815568 -5.22236 0
M  V30 3210 H 292.686 -0.324556 -2.97636 0
M  V30 3211 H 290.232 -0.157531 -1.43136 0
M  V30 3212 H 292.185 1.9995 -3.70942 0
M  V30 3213 H 290.909 2.13232 -2.47386 0
M  V30 3214 H 289.568 0.352798 -3.64898 0
M  V30 3215 H 289.216 2.76658 -4.20082 0
M  V30 3216 H 288.916 1.72741 -5.61636 0
M  V30 3217 H 290.44 2.65251 -5.49976 0
M  V30 3218 H 291.854 0.391742 -5.7196 0
M  V30 3219 H 290.251 -0.351551 -5.99069 0
M  V30 3220 H 291.321 -1.01374 -4.74185 0
M  V30 3221 N 292.664 1.56529 -0.183458 0
M  V30 3222 C 293.912 1.96855 0.457452 0
M  V30 3223 C 294.233 1.07104 1.62953 0
M  V30 3224 O 293.503 0.139887 1.954 0
M  V30 3225 H 292.083 0.72693 0.171992 0
M  V30 3226 H 294.745 1.93056 -0.267476 0
M  V30 3227 H 293.841 3.01423 0.809368 0
M  V30 3228 N 294.142 -0.090211 1.57342 0
M  V30 3229 C 295.075 -1.14035 1.97664 0
M  V30 3230 C 296.053 -1.38576 0.850616 0
M  V30 3231 O 297.237 -1.52255 1.11134 0
M  V30 3232 C 294.364 -2.48854 2.2976 0
M  V30 3233 C 293.41 -2.40564 3.52181 0
M  V30 3234 S 294.243 -1.81745 5.03715 0
M  V30 3235 C 295.399 -3.18178 5.38993 0
M  V30 3236 H 295.632 -0.796636 2.86428 0
M  V30 3237 H 293.165 -0.298072 1.51496 0
M  V30 3238 H 295.123 -3.26413 2.48927 0
M  V30 3239 H 293.784 -2.80393 1.41558 0
M  V30 3240 H 292.977 -3.39942 3.72096 0
M  V30 3241 H 292.579 -1.71135 3.32549 0
M  V30 3242 H 294.871 -4.14461 5.35937 0
M  V30 3243 H 295.814 -3.03062 6.39968 0
M  V30 3244 H 296.222 -3.17935 4.66452 0
M  V30 3245 N 295.62 -1.53406 -0.361157 0
M  V30 3246 C 296.868 -1.69467 -1.10115 0
M  V30 3247 C 297.189 -0.451352 -1.89705 0
M  V30 3248 O 296.459 0.534636 -1.88463 0
M  V30 3249 H 295.039 -0.624749 -0.409508 0
M  V30 3250 H 297.701 -1.90609 -0.406699 0
M  V30 3251 H 296.797 -2.55774 -1.78847 0
M  V30 3252 N 297.098 0.621204 -1.44841 0
M  V30 3253 C 298.328 1.40548 -1.51426 0
M  V30 3254 C 298.736 1.88673 -0.141083 0
M  V30 3255 O 298.079 1.62053 0.865128 0
M  V30 3256 C 298.141 2.65325 -2.42576 0
M  V30 3257 C 297.805 2.3893 -3.89566 0
M  V30 3258 C 298.802 2.00138 -4.79834 0
M  V30 3259 C 296.487 2.52263 -4.3436 0
M  V30 3260 C 298.481 1.75021 -6.129 0
M  V30 3261 C 296.168 2.2676 -5.67471 0
M  V30 3262 C 297.166 1.88199 -6.56559 0
M  V30 3263 O 296.854 1.62986 -7.87204 0
M  V30 3264 H 296.586 0.437122 -0.515655 0
M  V30 3265 H 299.14 0.765987 -1.90583 0
M  V30 3266 H 297.37 3.31947 -1.98364 0
M  V30 3267 H 299.059 3.27347 -2.39998 0
M  V30 3268 H 299.825 1.89386 -4.46495 0
M  V30 3269 H 295.704 2.81246 -3.65269 0
M  V30 3270 H 299.248 1.44848 -6.82396 0
M  V30 3271 H 295.145 2.37125 -6.00368 0
M  V30 3272 H 295.913 1.7715 -7.991 0
M  V30 3273 N 298.576 1.31904 0.862503 0
M  V30 3274 C 299.523 1.20182 1.9704 0
M  V30 3275 C 300.493 0.0858247 1.65878 0
M  V30 3276 O 301.678 0.26 1.8902 0
M  V30 3277 C 298.818 0.922797 3.32533 0
M  V30 3278 C 297.931 2.12284 3.76244 0
M  V30 3279 C 297.066 1.77996 5.00491 0
M  V30 3280 C 296.105 2.94366 5.36671 0
M  V30 3281 N 295.242 2.60223 6.52095 0
M  V30 3282 H 300.082 2.14951 2.06398 0
M  V30 3283 H 297.619 1.06917 1.01031 0
M  V30 3284 H 299.577 0.741548 4.10557 0
M  V30 3285 H 298.207 0.0119227 3.22798 0
M  V30 3286 H 297.259 2.41461 2.9394 0
M  V30 3287 H 298.571 2.99357 3.98982 0
M  V30 3288 H 297.725 1.56377 5.862 0
M  V30 3289 H 296.464 0.881252 4.79672 0
M  V30 3290 H 295.469 3.16625 4.49476 0
M  V30 3291 H 296.694 3.84957 5.59451 0
M  V30 3292 H 294.64 1.72884 6.32809 0
M  V30 3293 H 294.557 3.40827 6.74814 0
M  V30 3294 H 295.825 2.42016 7.40978 0
M  V30 3295 N 300.054 -1.07777 1.14986 0
M  V30 3296 C 300.964 -2.18404 0.856546 0
M  V30 3297 C 301.98 -1.73211 -0.165485 0
M  V30 3298 O 303.156 -2.01399 0.00755219 0
M  V30 3299 C 300.221 -3.44977 0.34526 0
M  V30 3300 C 299.282 -4.0476 1.43065 0
M  V30 3301 C 298.515 -5.25291 0.943663 0
M  V30 3302 O 298.738 -5.70004 -0.212426 0
M  V30 3303 O 297.672 -5.76638 1.72547 0
M  V30 3304 H 301.498 -2.45978 1.78125 0
M  V30 3305 H 299.083 -1.17033 0.928631 0
M  V30 3306 H 300.965 -4.21348 0.0663671 0
M  V30 3307 H 299.64 -3.18965 -0.551631 0
M  V30 3308 H 298.547 -3.29949 1.76309 0
M  V30 3309 H 299.88 -4.35035 2.30229 0
M  V30 3310 N 301.532 -0.945985 -1.26051 0
M  V30 3311 C 302.48 -0.450259 -2.282 0
M  V30 3312 C 303.474 0.47497 -1.62605 0
M  V30 3313 O 304.68 0.352653 -1.76512 0
M  V30 3314 H 301.055 -0.127081 -0.741184 0
M  V30 3315 H 303.026 -1.32422 -2.67408 0
M  V30 3316 C 301.775 0.26467 -3.46691 0
M  V30 3317 H 301.098 -0.438123 -3.97392 0
M  V30 3318 H 302.538 0.575678 -4.20074 0
M  V30 3319 C 300.997 1.48416 -3.02447 0
M  V30 3320 O 301.527 2.58227 -3.07704 0
M  V30 3321 N 299.733 1.34243 -2.57735 0
M  V30 3322 H 299.28 0.448994 -2.53657 0
M  V30 3323 H 299.238 2.15957 -2.28495 0
M  V30 3324 N 303.011 1.40521 -0.713556 0
M  V30 3325 C 304.257 2.01221 -0.252564 0
M  V30 3326 C 304.59 1.56444 1.1506 0
M  V30 3327 O 303.865 0.783597 1.78017 0
M  V30 3328 C 304.148 3.58582 -0.330332 0
M  V30 3329 C 304.001 4.13437 -1.77173 0
M  V30 3330 C 305.32 4.39079 0.299641 0
M  V30 3331 H 302.439 0.731077 -0.0932471 0
M  V30 3332 H 305.081 1.67026 -0.905673 0
M  V30 3333 H 303.231 3.87844 0.225737 0
M  V30 3334 H 304.903 3.9498 -2.38303 0
M  V30 3335 H 303.146 3.67801 -2.3001 0
M  V30 3336 H 303.817 5.22597 -1.77755 0
M  V30 3337 H 306.293 4.15735 -0.174139 0
M  V30 3338 H 305.169 5.4848 0.214771 0
M  V30 3339 H 305.43 4.19915 1.38288 0
M  V30 3340 N 304.489 0.459591 1.5075 0
M  V30 3341 C 305.766 -0.160371 1.94941 0
M  V30 3342 C 306.146 -1.58048 1.39943 0
M  V30 3343 O 305.494 -2.206 0.595629 0
M  V30 3344 C 305.704 -0.115432 3.48809 0
M  V30 3345 C 307.052 -0.310026 4.23467 0
M  V30 3346 O 308.076 -0.192543 3.55679 0
M  V30 3347 O 306.935 -0.546031 5.43765 0
M  V30 3348 H 304.029 -0.117925 0.818549 0
M  V30 3349 H 306.575 0.519169 1.61563 0
M  V30 3350 H 305.347 0.87652 3.81357 0
M  V30 3351 H 304.97 -0.836928 3.88692 0
M  V30 3352 N 305.967 -1.56429 0.191757 0
M  V30 3353 C 306.897 -2.21937 -0.725696 0
M  V30 3354 C 307.878 -1.1814 -1.2238 0
M  V30 3355 O 309.063 -1.46636 -1.27325 0
M  V30 3356 C 306.193 -2.87611 -1.94672 0
M  V30 3357 C 305.147 -3.97623 -1.58366 0
M  V30 3358 C 304.473 -4.50446 -2.88102 0
M  V30 3359 C 305.773 -5.16197 -0.796133 0
M  V30 3360 H 307.467 -2.98861 -0.179606 0
M  V30 3361 H 305.013 -1.43749 -0.0849464 0
M  V30 3362 H 306.966 -3.3212 -2.59373 0
M  V30 3363 H 305.69 -2.08087 -2.51728 0
M  V30 3364 H 304.349 -3.53801 -0.960247 0
M  V30 3365 H 303.997 -3.67688 -3.43241 0
M  V30 3366 H 303.697 -5.24675 -2.64556 0
M  V30 3367 H 305.221 -4.97654 -3.53798 0
M  V30 3368 H 306.635 -5.57271 -1.34618 0
M  V30 3369 H 305.032 -5.96471 -0.658928 0
M  V30 3370 H 306.102 -4.84473 0.203478 0
M  V30 3371 N 307.445 0.0818655 -1.57387 0
M  V30 3372 C 308.691 0.778884 -1.87896 0
M  V30 3373 C 309.046 1.75692 -0.784229 0
M  V30 3374 O 308.339 1.90417 0.212567 0
M  V30 3375 C 308.533 1.53513 -3.22752 0
M  V30 3376 C 308.362 0.631838 -4.45239 0
M  V30 3377 C 307.132 0.272571 -5.04564 0
M  V30 3378 C 309.33 -0.0670191 -5.14256 0
M  V30 3379 N 307.312 -0.637498 -6.10581 0
M  V30 3380 C 308.683 -0.834653 -6.14356 0
M  V30 3381 C 310.738 -0.139551 -4.97704 0
M  V30 3382 C 309.441 -1.66806 -6.99691 0
M  V30 3383 C 311.467 -0.959903 -5.83558 0
M  V30 3384 C 310.829 -1.71561 -6.83188 0
M  V30 3385 H 306.928 0.260764 -0.737242 0
M  V30 3386 H 309.512 0.0408227 -1.94657 0
M  V30 3387 H 307.683 2.24398 -3.17018 0
M  V30 3388 H 309.415 2.18038 -3.40942 0
M  V30 3389 H 306.17 0.62319 -4.69482 0
M  V30 3390 H 306.594 -1.08548 -6.68241 0
M  V30 3391 H 311.236 0.430376 -4.20604 0
M  V30 3392 H 308.954 -2.249 -7.76174 0
M  V30 3393 H 312.54 -1.01887 -5.72809 0
M  V30 3394 H 311.42 -2.34017 -7.48469 0
M  V30 3395 N 308.923 1.53595 0.353017 0
M  V30 3396 C 310.148 1.7462 1.11904 0
M  V30 3397 C 310.573 0.479721 1.8188 0
M  V30 3398 O 309.931 -0.567066 1.72204 0
M  V30 3399 C 309.979 2.92029 2.11545 0
M  V30 3400 O 309.083 2.61516 3.18878 0
M  V30 3401 H 308.424 0.579531 0.324099 0
M  V30 3402 H 310.954 2.00525 0.406301 0
M  V30 3403 H 310.964 3.18551 2.5493 0
M  V30 3404 H 309.639 3.83888 1.60008 0
M  V30 3405 H 308.216 2.45852 2.80377 0
M  V30 3406 N 310.401 -0.613514 1.45168 0
M  V30 3407 C 311.647 -1.37471 1.49096 0
M  V30 3408 C 311.98 -1.93765 0.129901 0
M  V30 3409 O 311.255 -1.74707 -0.854858 0
M  V30 3410 C 311.538 -2.52701 2.56542 0
M  V30 3411 C 311.391 -2.01643 4.0207 0
M  V30 3412 C 312.71 -3.54849 2.60327 0
M  V30 3413 H 309.829 -0.498502 0.54283 0
M  V30 3414 H 312.471 -0.692125 1.76945 0
M  V30 3415 H 310.621 -3.10931 2.32926 0
M  V30 3416 H 312.293 -1.48108 4.36877 0
M  V30 3417 H 310.536 -1.32688 4.13009 0
M  V30 3418 H 311.207 -2.84681 4.72928 0
M  V30 3419 H 313.683 -3.0645 2.81474 0
M  V30 3420 H 312.559 -4.32973 3.37381 0
M  V30 3421 H 312.82 -4.10079 1.6519 0
M  V30 3422 N 311.879 -1.3236 -0.855495 0
M  V30 3423 C 313.127 -1.22629 -1.60644 0
M  V30 3424 C 313.448 0.212136 -1.93843 0
M  V30 3425 O 312.718 1.13666 -1.59552 0
M  V30 3426 H 311.298 -0.450882 -0.595579 0
M  V30 3427 H 313.96 -1.65871 -1.02337 0
M  V30 3428 H 313.056 -1.80832 -2.54374 0
M  V30 3429 N 313.357 1.07166 -1.15556 0
M  V30 3430 C 314.597 1.81391 -0.94216 0
M  V30 3431 C 314.961 1.84788 0.521272 0
M  V30 3432 O 316.162 2.54904 0.85307 0
M  V30 3433 C 314.433 3.22431 -1.54185 0
M  V30 3434 S 315.992 4.13379 -1.47183 0
M  V30 3435 H 312.81 0.624963 -0.339031 0
M  V30 3436 H 315.412 1.28725 -1.4714 0
M  V30 3437 H 314.116 3.17548 -2.59984 0
M  V30 3438 H 313.647 3.80172 -1.01156 0
M  V30 3439 H 315.662 4.94007 -0.466004 0
M  V30 3440 N 314.835 0.952656 1.25548 0
M  V30 3441 C 316.084 0.602053 1.92505 0
M  V30 3442 C 316.397 -0.864663 1.75451 0
M  V30 3443 O 317.603 -1.32514 2.36965 0
M  V30 3444 C 316.059 1.02607 3.44963 0
M  V30 3445 C 315.667 2.51519 3.70732 0
M  V30 3446 C 317.411 0.747905 4.1786 0
M  V30 3447 C 315.318 2.87732 5.16686 0
M  V30 3448 H 314.248 0.22146 0.720744 0
M  V30 3449 H 316.899 1.15684 1.42441 0
M  V30 3450 H 315.281 0.399712 3.93978 0
M  V30 3451 H 316.455 3.19157 3.32378 0
M  V30 3452 H 314.77 2.76786 3.11092 0
M  V30 3453 H 317.367 0.994647 5.25367 0
M  V30 3454 H 317.71 -0.315629 4.15102 0
M  V30 3455 H 318.243 1.33452 3.74747 0
M  V30 3456 H 314.982 3.93095 5.24554 0
M  V30 3457 H 314.502 2.24765 5.56094 0
M  V30 3458 H 316.181 2.76817 5.84792 0
M  V30 3459 N 316.313 -1.40141 0.720998 0
M  V30 3460 C 317.246 -2.2819 0.020916 0
M  V30 3461 C 318.224 -1.43633 -0.762129 0
M  V30 3462 O 319.408 -1.7304 -0.747633 0
M  V30 3463 C 316.535 -3.24281 -0.977715 0
M  V30 3464 C 315.581 -4.25548 -0.284836 0
M  V30 3465 S 316.414 -5.26247 0.991169 0
M  V30 3466 C 317.57 -6.259 -0.0052214 0
M  V30 3467 H 317.803 -2.87218 0.767649 0
M  V30 3468 H 315.336 -1.45656 0.512233 0
M  V30 3469 H 317.294 -3.80167 -1.54865 0
M  V30 3470 H 315.955 -2.643 -1.69719 0
M  V30 3471 H 315.148 -4.93154 -1.03996 0
M  V30 3472 H 314.75 -3.73389 0.213684 0
M  V30 3473 H 317.042 -6.72143 -0.850279 0
M  V30 3474 H 317.985 -7.05224 0.637599 0
M  V30 3475 H 318.393 -5.63277 -0.371366 0
M  V30 3476 N 317.792 -0.46758 -1.50504 0
M  V30 3477 C 319.04 0.0884469 -2.01906 0
M  V30 3478 C 319.361 1.40532 -1.35188 0
M  V30 3479 O 318.631 1.89515 -0.496079 0
M  V30 3480 H 317.211 0.0356765 -0.746148 0
M  V30 3481 H 319.873 -0.6172 -1.84869 0
M  V30 3482 H 318.969 0.2425 -3.11156 0
M  V30 3483 N 319.27 1.56325 -0.20005 0
M  V30 3484 C 320.18 2.22931 0.730668 0
M  V30 3485 C 321.196 1.22997 1.23076 0
M  V30 3486 O 322.372 1.55748 1.27689 0
M  V30 3487 C 319.437 2.87948 1.93098 0
M  V30 3488 C 318.498 4.03166 1.47497 0
M  V30 3489 C 317.731 4.65073 2.61807 0
M  V30 3490 O 317.954 4.25913 3.79413 0
M  V30 3491 O 316.888 5.54452 2.34237 0
M  V30 3492 H 320.714 3.03084 0.193391 0
M  V30 3493 H 318.299 1.49371 0.0294621 0
M  V30 3494 H 320.181 3.29063 2.6324 0
M  V30 3495 H 318.856 2.10771 2.45677 0
M  V30 3496 H 317.763 3.66664 0.742201 0
M  V30 3497 H 319.096 4.82022 0.995796 0
M  V30 3498 N 320.748 -0.0735177 1.57428 0
M  V30 3499 C 321.681 -1.11932 1.98863 0
M  V30 3500 C 322.659 -1.37666 0.865266 0
M  V30 3501 O 323.843 -1.51068 1.12742 0
M  V30 3502 C 320.97 -2.46403 2.32386 0
M  V30 3503 C 320.016 -2.36815 3.54713 0
M  V30 3504 S 320.849 -1.76392 5.05614 0
M  V30 3505 C 322.005 -3.12444 5.42337 0
M  V30 3506 H 322.238 -0.766212 2.87257 0
M  V30 3507 H 319.771 -0.281987 1.51803 0
M  V30 3508 H 321.729 -3.23755 2.52375 0
M  V30 3509 H 320.39 -2.78876 1.44524 0
M  V30 3510 H 319.583 -3.35977 3.7568 0
M  V30 3511 H 319.185 -1.67598 3.34345 0
M  V30 3512 H 321.477 -4.08753 5.40303 0
M  V30 3513 H 322.42 -2.96258 6.43146 0
M  V30 3514 H 322.828 -3.1297 4.69798 0
M  V30 3515 N 322.226 -1.5378 -0.344866 0
M  V30 3516 C 323.472 -1.71216 -1.08687 0
M  V30 3517 C 323.805 -0.473281 -1.88345 0
M  V30 3518 O 323.08 0.52968 -1.87149 0
M  V30 3519 C 323.363 -2.97486 -2.02914 0
M  V30 3520 C 323.216 -4.31579 -1.26727 0
M  V30 3521 C 324.535 -3.19422 -3.0275 0
M  V30 3522 H 321.654 -0.62301 -0.393735 0
M  V30 3523 H 324.296 -1.8645 -0.365563 0
M  V30 3524 H 322.446 -2.84629 -2.64421 0
M  V30 3525 H 324.118 -4.56284 -0.67845 0
M  V30 3526 H 322.361 -4.30049 -0.569273 0
M  V30 3527 H 323.032 -5.16106 -1.95803 0
M  V30 3528 H 325.508 -3.316 -2.51357 0
M  V30 3529 H 324.384 -4.09169 -3.65885 0
M  V30 3530 H 324.645 -2.35656 -3.74057 0
M  V30 3531 N 323.704 0.605807 -1.45491 0
M  V30 3532 C 324.944 1.37606 -1.51142 0
M  V30 3533 C 325.308 1.91413 -0.150075 0
M  V30 3534 O 326.509 2.68677 -0.0812828 0
M  V30 3535 C 324.78 2.49197 -2.56195 0
M  V30 3536 S 326.339 3.36953 -2.81083 0
M  V30 3537 H 323.157 0.469118 -0.534275 0
M  V30 3538 H 325.759 0.698845 -1.82583 0
M  V30 3539 H 324.463 2.0802 -3.53773 0
M  V30 3540 H 323.994 3.21717 -2.26411 0
M  V30 3541 H 326.009 4.47395 -2.14598 0
M  V30 3542 N 325.182 1.32811 0.848464 0
M  V30 3543 C 326.132 1.18842 1.94578 0
M  V30 3544 C 327.116 0.0937517 1.60627 0
M  V30 3545 O 328.308 0.320887 1.74067 0
M  V30 3546 C 325.437 0.91999 3.30743 0
M  V30 3547 C 324.523 2.05665 3.70894 0
M  V30 3548 N 324.914 3.30579 3.8282 0
M  V30 3549 C 323.212 1.9612 4.00566 0
M  V30 3550 C 323.913 4.05067 4.17487 0
M  V30 3551 N 322.889 3.33419 4.2934 0
M  V30 3552 H 326.691 2.13536 2.0194 0
M  V30 3553 H 324.205 1.2468 1.0406 0
M  V30 3554 H 326.202 0.800859 4.09136 0
M  V30 3555 H 324.862 -0.0185076 3.24695 0
M  V30 3556 H 325.873 3.65441 3.66978 0
M  V30 3557 H 322.55 1.09871 4.02784 0
M  V30 3558 H 323.94 5.12815 4.34131 0
M  V30 3559 N 326.66 -1.06551 1.16123 0
M  V30 3560 C 327.607 -2.13961 0.865414 0
M  V30 3561 C 328.577 -1.65066 -0.185055 0
M  V30 3562 O 329.762 -1.90732 -0.05083 0
M  V30 3563 C 326.902 -3.43113 0.369776 0
M  V30 3564 C 326.015 -4.05756 1.48276 0
M  V30 3565 C 325.15 -5.22773 0.942414 0
M  V30 3566 C 324.189 -5.77395 2.03179 0
M  V30 3567 N 323.326 -6.85731 1.50721 0
M  V30 3568 H 328.166 -2.38605 1.78527 0
M  V30 3569 H 325.703 -1.17072 0.890646 0
M  V30 3570 H 327.661 -4.17151 0.0640643 0
M  V30 3571 H 326.291 -3.18695 -0.513143 0
M  V30 3572 H 325.343 -3.29292 1.9045 0
M  V30 3573 H 326.655 -4.42351 2.30493 0
M  V30 3574 H 325.809 -6.03827 0.589729 0
M  V30 3575 H 324.548 -4.87618 0.0895191 0
M  V30 3576 H 323.553 -4.94981 2.3932 0
M  V30 3577 H 324.778 -6.14603 2.8886 0
M  V30 3578 H 322.724 -6.52499 0.676811 0
M  V30 3579 H 322.641 -7.21254 2.26557 0
M  V30 3580 H 323.909 -7.7047 1.18303 0
M  V30 3581 N 328.138 -0.959301 -1.25041 0
M  V30 3582 C 329.387 -0.612254 -1.92183 0
M  V30 3583 C 329.7 0.855347 -1.75907 0
M  V30 3584 O 330.906 1.31256 -2.37664 0
M  V30 3585 C 329.362 -1.04435 -3.44414 0
M  V30 3586 C 328.97 -2.53482 -3.69393 0
M  V30 3587 C 330.714 -0.770055 -4.17457 0
M  V30 3588 C 328.621 -2.90468 -5.15153 0
M  V30 3589 H 327.551 -0.225279 -0.719559 0
M  V30 3590 H 330.202 -1.16438 -1.41825 0
M  V30 3591 H 328.584 -0.4206 -3.9376 0
M  V30 3592 H 329.758 -3.20916 -3.30681 0
M  V30 3593 H 328.073 -2.78432 -3.0962 0
M  V30 3594 H 330.67 -1.02249 -5.24832 0
M  V30 3595 H 331.013 0.293611 -4.15263 0
M  V30 3596 H 331.546 -1.35437 -3.74034 0
M  V30 3597 H 328.285 -3.95871 -5.22462 0
M  V30 3598 H 327.805 -2.27711 -5.54894 0
M  V30 3599 H 329.484 -2.79914 -5.83315 0
M  V30 3600 N 329.616 1.39756 -0.72842 0
M  V30 3601 C 330.546 2.33289 -0.0991354 0
M  V30 3602 C 331.527 1.53568 0.731489 0
M  V30 3603 O 332.712 1.81987 0.677807 0
M  V30 3604 C 329.842 3.3763 0.813834 0
M  V30 3605 C 328.796 4.2791 0.0878663 0
M  V30 3606 C 328.122 5.22894 1.11741 0
M  V30 3607 C 329.422 5.11314 -1.06563 0
M  V30 3608 H 331.116 2.86163 -0.880408 0
M  V30 3609 H 328.662 1.37591 -0.424819 0
M  V30 3610 H 330.615 4.0201 1.26355 0
M  V30 3611 H 329.339 2.83181 1.62715 0
M  V30 3612 H 327.998 3.65 -0.342159 0
M  V30 3613 H 327.646 4.64744 1.92412 0
M  V30 3614 H 327.346 5.84143 0.636477 0
M  V30 3615 H 328.87 5.90151 1.56697 0
M  V30 3616 H 330.284 5.69076 -0.694671 0
M  V30 3617 H 328.681 5.81671 -1.47577 0
M  V30 3618 H 329.751 4.46534 -1.89038 0
M  V30 3619 N 331.094 0.475555 1.50254 0
M  V30 3620 C 332.341 -0.0778919 2.0235 0
M  V30 3621 C 332.669 -1.39319 1.35722 0
M  V30 3622 O 331.924 -1.89888 0.473395 0
M  V30 3623 C 332.223 -0.305114 3.56095 0
M  V30 3624 C 331.889 0.92903 4.41225 0
M  V30 3625 C 330.551 1.26739 4.6421 0
M  V30 3626 C 332.903 1.75054 4.90923 0
M  V30 3627 C 330.231 2.42724 5.34137 0
M  V30 3628 C 332.583 2.9017 5.62125 0
M  V30 3629 C 331.247 3.24416 5.83362 0
M  V30 3630 H 330.517 -0.0285027 0.740452 0
M  V30 3631 H 333.164 0.630543 1.80821 0
M  V30 3632 H 331.469 -1.09584 3.76163 0
M  V30 3633 H 333.166 -0.747377 3.93974 0
M  V30 3634 H 329.756 0.655428 4.23559 0
M  V30 3635 H 333.94 1.50231 4.73016 0
M  V30 3636 H 329.196 2.69525 5.48786 0
M  V30 3637 H 333.37 3.54169 5.99614 0
M  V30 3638 H 330.997 4.14396 6.37323 0
M  V30 3639 N 332.573 -1.56217 0.208337 0
M  V30 3640 C 333.984 -1.84243 -0.301904 0
M  V30 3641 C 334.335 -1.12939 -1.60434 0
M  V30 3642 O 333.46 -0.39461 -2.12772 0
M  V30 3643 C 334.055 -3.34231 -0.554543 0
M  V30 3644 C 332.614 -3.62621 -1.00912 0
M  V30 3645 C 331.761 -2.77224 -0.064933 0
M  V30 3646 H 334.712 -1.52712 0.431833 0
M  V30 3647 H 334.733 -3.5372 -1.40223 0
M  V30 3648 H 334.245 -3.86099 0.393561 0
M  V30 3649 H 332.346 -3.16197 -1.97104 0
M  V30 3650 H 332.459 -4.7071 -0.892674 0
M  V30 3651 H 330.823 -2.48256 -0.56929 0
M  V30 3652 H 331.606 -3.31887 0.877851 0
M  V30 3653 N 334.051 0.0651679 -1.57465 0
M  V30 3654 C 335.299 0.761555 -1.87202 0
M  V30 3655 C 335.62 1.77778 -0.801243 0
M  V30 3656 O 334.89 1.95166 0.16937 0
M  V30 3657 H 333.47 0.284251 -0.690804 0
M  V30 3658 H 336.132 0.0396827 -1.9486 0
M  V30 3659 H 335.228 1.27365 -2.84929 0
M  V30 3660 N 335.529 1.53961 0.336706 0
M  V30 3661 C 336.945 1.44378 0.680241 0
M  V30 3662 C 337.145 0.606034 1.9217 0
M  V30 3663 O 336.201 0.099688 2.52303 0
M  V30 3664 C 337.514 2.87945 0.8665 0
M  V30 3665 C 339.062 2.97763 0.964682 0
M  V30 3666 C 339.537 4.42453 1.18321 0
M  V30 3667 N 341.028 4.46008 1.25025 0
M  V30 3668 C 341.763 5.55102 1.43697 0
M  V30 3669 N 341.259 6.7419 1.59498 0
M  V30 3670 N 343.052 5.42727 1.463 0
M  V30 3671 H 335.203 2.06918 -0.479455 0
M  V30 3672 H 337.466 0.935634 -0.152619 0
M  V30 3673 H 337.172 3.51691 0.0256937 0
M  V30 3674 H 337.046 3.33293 1.76623 0
M  V30 3675 H 339.433 2.34153 1.796 0
M  V30 3676 H 339.514 2.55766 0.041708 0
M  V30 3677 H 339.158 5.06645 0.356788 0
M  V30 3678 H 339.088 4.82048 2.11985 0
M  V30 3679 H 341.579 3.60196 1.14312 0
M  V30 3680 H 341.892 7.53095 1.734 0
M  V30 3681 H 340.237 6.77123 1.56621 0
M  V30 3682 H 343.428 4.48647 1.33543 0
M  V30 3683 H 343.601 6.27806 1.6051 0
M  V30 3684 N 337.007 -0.598083 1.45811 0
M  V30 3685 C 338.284 -1.35777 1.40797 0
M  V30 3686 C 338.664 -2.10935 0.083462 0
M  V30 3687 O 338.012 -2.08505 -0.934763 0
M  V30 3688 C 338.222 -2.29666 2.62783 0
M  V30 3689 C 339.57 -2.91977 3.08277 0
M  V30 3690 O 340.594 -2.39984 2.63223 0
M  V30 3691 O 339.453 -3.86376 3.86491 0
M  V30 3692 H 336.547 -0.609291 0.55919 0
M  V30 3693 H 339.093 -0.620379 1.57954 0
M  V30 3694 H 337.865 -1.73454 3.50756 0
M  V30 3695 H 337.488 -3.1077 2.48008 0
M  V30 3696 N 338.485 -1.33259 -0.841409 0
M  V30 3697 C 339.715 -1.2742 -1.62628 0
M  V30 3698 C 340.123 0.157604 -1.88542 0
M  V30 3699 O 339.466 1.10938 -1.46419 0
M  V30 3700 C 339.528 -1.97797 -3.00194 0
M  V30 3701 C 339.192 -3.47109 -2.97261 0
M  V30 3702 C 340.189 -4.42358 -2.73159 0
M  V30 3703 C 337.874 -3.89247 -3.17478 0
M  V30 3704 C 339.868 -5.77718 -2.69296 0
M  V30 3705 C 337.555 -5.24713 -3.13241 0
M  V30 3706 C 338.553 -6.1876 -2.89181 0
M  V30 3707 O 338.241 -7.51745 -2.84843 0
M  V30 3708 H 337.973 -0.440436 -0.512827 0
M  V30 3709 H 340.527 -1.76153 -1.05638 0
M  V30 3710 H 338.757 -1.43652 -3.59028 0
M  V30 3711 H 340.446 -1.8549 -3.61038 0
M  V30 3712 H 341.212 -4.11127 -2.57294 0
M  V30 3713 H 337.091 -3.16456 -3.35226 0
M  V30 3714 H 340.635 -6.51097 -2.50436 0
M  V30 3715 H 336.532 -5.55569 -3.28654 0
M  V30 3716 H 337.3 -7.61262 -3.00702 0
M  V30 3717 N 339.963 1.05934 -1.16686 0
M  V30 3718 C 341.212 1.78188 -0.945085 0
M  V30 3719 C 341.525 1.88338 0.528021 0
M  V30 3720 O 342.731 2.57258 0.867799 0
M  V30 3721 C 341.187 3.20277 -1.64167 0
M  V30 3722 C 340.795 3.18281 -3.15279 0
M  V30 3723 C 342.539 3.97039 -1.502 0
M  V30 3724 C 340.446 4.55112 -3.7766 0
M  V30 3725 H 339.376 0.667866 -0.349959 0
M  V30 3726 H 342.027 1.18794 -1.39858 0
M  V30 3727 H 340.409 3.79952 -1.11589 0
M  V30 3728 H 341.583 2.68167 -3.74731 0
M  V30 3729 H 339.898 2.55018 -3.29173 0
M  V30 3730 H 342.495 4.98194 -1.94183 0
M  V30 3731 H 342.838 4.13845 -0.451461 0
M  V30 3732 H 343.371 3.43894 -1.99954 0
M  V30 3733 H 340.11 4.43512 -4.82677 0
M  V30 3734 H 339.63 5.05406 -3.22994 0
M  V30 3735 H 341.309 5.24064 -3.79428 0
M  V30 3736 N 341.441 0.965919 1.2453 0
M  V30 3737 C 342.718 0.543777 1.87889 0
M  V30 3738 C 343.098 -0.97909 1.87021 0
M  V30 3739 O 342.446 -1.84969 1.3416 0
M  V30 3740 C 342.656 1.13327 3.30088 0
M  V30 3741 C 344.004 1.21707 4.06783 0
M  V30 3742 O 345.028 1.08566 3.39252 0
M  V30 3743 O 343.887 1.42456 5.27606 0
M  V30 3744 H 340.981 0.181054 0.806938 0
M  V30 3745 H 343.527 1.06007 1.32516 0
M  V30 3746 H 342.299 2.17612 3.25209 0
M  V30 3747 H 341.922 0.600911 3.93033 0
M  V30 3748 N 342.919 -1.39368 0.735821 0
M  V30 3749 C 343.851 -2.2913 0.0567723 0
M  V30 3750 C 344.864 -1.46859 -0.702589 0
M  V30 3751 O 346.053 -1.69925 -0.546616 0
M  V30 3752 C 343.153 -3.25492 -0.943823 0
M  V30 3753 C 342.326 -4.36709 -0.24581 0
M  V30 3754 C 341.385 -5.13376 -1.15463 0
M  V30 3755 O 340.411 -5.65683 -0.631803 0
M  V30 3756 N 341.613 -5.24656 -2.48427 0
M  V30 3757 H 344.378 -2.88047 0.827582 0
M  V30 3758 H 341.939 -1.50957 0.585112 0
M  V30 3759 H 343.931 -3.73657 -1.55443 0
M  V30 3760 H 342.501 -2.676 -1.61583 0
M  V30 3761 H 341.721 -3.9041 0.545286 0
M  V30 3762 H 343.009 -5.08244 0.237891 0
M  V30 3763 H 342.407 -4.83679 -2.93379 0
M  V30 3764 H 340.964 -5.76258 -3.04582 0
M  V30 3765 N 344.397 -0.483516 -1.5 0
M  V30 3766 C 345.643 0.0593261 -2.03313 0
M  V30 3767 C 345.998 1.36288 -1.35806 0
M  V30 3768 O 345.291 1.85519 -0.478897 0
M  V30 3769 C 345.485 0.286226 -3.56252 0
M  V30 3770 C 345.314 -0.993788 -4.38582 0
M  V30 3771 C 344.084 -1.54064 -4.81241 0
M  V30 3772 C 346.282 -1.89249 -4.78215 0
M  V30 3773 N 344.264 -2.76838 -5.47936 0
M  V30 3774 C 345.635 -2.96606 -5.44449 0
M  V30 3775 C 347.69 -1.90138 -4.60165 0
M  V30 3776 C 346.393 -4.04857 -5.94544 0
M  V30 3777 C 348.419 -2.97353 -5.1121 0
M  V30 3778 C 347.781 -4.03429 -5.77429 0
M  V30 3779 H 343.88 -0.0186322 -0.781778 0
M  V30 3780 H 346.464 -0.654489 -1.8337 0
M  V30 3781 H 344.635 0.969086 -3.76116 0
M  V30 3782 H 346.367 0.824515 -3.96212 0
M  V30 3783 H 343.122 -1.08813 -4.6093 0
M  V30 3784 H 343.546 -3.39221 -5.85882 0
M  V30 3785 H 348.188 -1.09441 -4.0839 0
M  V30 3786 H 345.906 -4.86363 -6.4535 0
M  V30 3787 H 349.492 -2.99039 -4.99066 0
M  V30 3788 H 348.372 -4.85025 -6.16214 0
M  V30 3789 N 345.875 1.56104 -0.216619 0
M  V30 3790 C 346.823 2.21434 0.712036 0
M  V30 3791 C 347.817 1.19218 1.20348 0
M  V30 3792 O 349.023 1.3731 1.16387 0
M  V30 3793 H 345.398 0.70992 0.248026 0
M  V30 3794 H 347.369 2.98083 0.137558 0
M  V30 3795 C 346.118 2.90434 1.91163 0
M  V30 3796 H 345.441 3.68842 1.54258 0
M  V30 3797 H 346.881 3.39552 2.5393 0
M  V30 3798 C 345.34 1.92635 2.76394 0
M  V30 3799 O 345.87 1.44017 3.74996 0
M  V30 3800 N 344.076 1.60392 2.42328 0
M  V30 3801 H 343.623 2.00122 1.622 0
M  V30 3802 H 343.581 0.952159 2.99635 0
M  V30 3803 N 347.353 -0.0568162 1.57498 0
M  V30 3804 C 348.3 -1.06591 2.04712 0
M  V30 3805 C 349.27 -1.3758 0.930644 0
M  V30 3806 O 350.455 -1.48392 1.19935 0
M  V30 3807 C 347.595 -2.3701 2.50839 0
M  V30 3808 C 346.708 -2.12421 3.76167 0
M  V30 3809 C 345.843 -3.36511 4.11015 0
M  V30 3810 C 344.882 -3.07353 5.2934 0
M  V30 3811 N 344.019 -4.23816 5.59754 0
M  V30 3812 H 348.859 -0.65631 2.90683 0
M  V30 3813 H 346.396 -0.312481 1.43743 0
M  V30 3814 H 348.354 -3.13175 2.7564 0
M  V30 3815 H 346.984 -2.75744 1.67825 0
M  V30 3816 H 346.036 -1.2688 3.58616 0
M  V30 3817 H 347.348 -1.86894 4.62463 0
M  V30 3818 H 346.502 -4.21062 4.36797 0
M  V30 3819 H 345.241 -3.65128 3.23315 0
M  V30 3820 H 344.246 -2.212 5.03339 0
M  V30 3821 H 345.471 -2.80043 6.1867 0
M  V30 3822 H 343.417 -4.52436 4.75014 0
M  V30 3823 H 343.334 -4.01614 6.40501 0
M  V30 3824 H 344.602 -5.0932 5.90096 0
M  V30 3825 N 348.832 -1.54138 -0.328536 0
M  V30 3826 C 350.078 -1.7236 -1.06865 0
M  V30 3827 C 350.411 -0.493231 -1.87832 0
M  V30 3828 O 349.686 0.5098 -1.877 0
M  V30 3829 C 349.969 -2.99621 -1.99747 0
M  V30 3830 C 349.822 -4.32899 -1.22143 0
M  V30 3831 C 351.141 -3.22615 -2.99345 0
M  V30 3832 H 348.26 -0.627151 -0.387105 0
M  V30 3833 H 350.902 -1.86827 -0.345767 0
M  V30 3834 H 349.052 -2.87418 -2.61387 0
M  V30 3835 H 350.724 -4.56978 -0.630017 0
M  V30 3836 H 348.967 -4.30628 -0.523628 0
M  V30 3837 H 349.638 -5.18154 -1.90318 0
M  V30 3838 H 352.114 -3.34248 -2.47826 0
M  V30 3839 H 350.99 -4.13027 -3.61524 0
M  V30 3840 H 351.251 -2.3961 -3.71536 0
M  V30 3841 N 350.31 0.590341 -1.46126 0
M  V30 3842 C 351.559 1.34499 -1.50309 0
M  V30 3843 C 351.872 1.94977 -0.156021 0
M  V30 3844 O 353.078 2.71395 -0.0756037 0
M  V30 3845 C 351.534 2.43723 -2.64815 0
M  V30 3846 C 351.142 1.89582 -4.0591 0
M  V30 3847 C 352.886 3.20579 -2.78262 0
M  V30 3848 C 350.793 2.9639 -5.11769 0
M  V30 3849 H 349.723 0.505593 -0.559368 0
M  V30 3850 H 352.374 0.630848 -1.72315 0
M  V30 3851 H 350.756 3.17902 -2.36124 0
M  V30 3852 H 351.93 1.21997 -4.44357 0
M  V30 3853 H 350.245 1.25418 -3.97063 0
M  V30 3854 H 352.842 4.00276 -3.54519 0
M  V30 3855 H 353.185 3.72684 -1.85505 0
M  V30 3856 H 353.718 2.53505 -3.06562 0
M  V30 3857 H 350.457 2.49181 -6.06291 0
M  V30 3858 H 349.977 3.62487 -4.77873 0
M  V30 3859 H 351.656 3.60474 -5.37278 0
M  V30 3860 N 351.788 1.33704 0.83433 0
M  V30 3861 C 352.698 1.26382 1.97648 0
M  V30 3862 C 353.714 0.173548 1.73132 0
M  V30 3863 O 354.89 0.397962 1.97429 0
M  V30 3864 C 351.955 1.00769 3.31733 0
M  V30 3865 C 351.016 2.1884 3.69334 0
M  V30 3866 C 350.249 1.9444 4.9702 0
M  V30 3867 O 350.472 0.896961 5.63303 0
M  V30 3868 O 349.406 2.81093 5.32231 0
M  V30 3869 H 353.232 2.22444 2.06767 0
M  V30 3870 H 350.817 1.13795 0.968037 0
M  V30 3871 H 352.699 0.882186 4.12062 0
M  V30 3872 H 351.374 0.0773783 3.23608 0
M  V30 3873 H 350.281 2.36946 2.89495 0
M  V30 3874 H 351.614 3.10221 3.82131 0
M  V30 3875 N 353.266 -1.05314 1.17247 0
M  V30 3876 C 354.198 -2.13023 0.845812 0
M  V30 3877 C 355.211 -1.62096 -0.151246 0
M  V30 3878 O 356.4 -1.78343 0.0748818 0
M  V30 3879 C 353.5 -3.38047 0.240292 0
M  V30 3880 C 352.673 -4.18255 1.27991 0
M  V30 3881 C 351.732 -5.21625 0.692375 0
M  V30 3882 O 350.758 -5.52619 1.36385 0
M  V30 3883 N 351.96 -5.78201 -0.516178 0
M  V30 3884 H 354.725 -2.41642 1.77283 0
M  V30 3885 H 352.286 -1.21401 1.07115 0
M  V30 3886 H 354.278 -4.04359 -0.16603 0
M  V30 3887 H 352.848 -3.06972 -0.590487 0
M  V30 3888 H 352.068 -3.47451 1.86203 0
M  V30 3889 H 353.356 -4.68643 1.98119 0
M  V30 3890 H 352.754 -5.55301 -1.07969 0
M  V30 3891 H 351.311 -6.4604 -0.86458 0
M  V30 3892 N 354.744 -0.972509 -1.24016 0
M  V30 3893 C 355.674 -0.525548 -2.27509 0
M  V30 3894 C 356.655 0.437262 -1.64384 0
M  V30 3895 O 357.84 0.332343 -1.91335 0
M  V30 3896 C 354.97 0.180448 -3.46831 0
M  V30 3897 C 353.924 -0.698859 -4.22256 0
M  V30 3898 C 353.25 0.138903 -5.3452 0
M  V30 3899 C 354.55 -1.98582 -4.83076 0
M  V30 3900 H 356.244 -1.39058 -2.65148 0
M  V30 3901 H 353.79 -0.67009 -1.27459 0
M  V30 3902 H 355.743 0.504387 -4.18371 0
M  V30 3903 H 354.467 1.07987 -3.08231 0
M  V30 3904 H 353.126 -1.00614 -3.52523 0
M  V30 3905 H 352.774 1.03862 -4.9216 0
M  V30 3906 H 352.474 -0.446259 -5.85903 0
M  V30 3907 H 353.998 0.457404 -6.08884 0
M  V30 3908 H 355.412 -1.72715 -5.46665 0
M  V30 3909 H 353.809 -2.5181 -5.44713 0
M  V30 3910 H 354.879 -2.67769 -4.04262 0
M  V30 3911 N 356.222 1.38976 -0.743202 0
M  V30 3912 C 357.47 1.99948 -0.29417 0
M  V30 3913 C 357.791 1.59279 1.12495 0
M  V30 3914 O 357.061 0.844808 1.76748 0
M  V30 3915 H 355.641 0.739473 -0.105774 0
M  V30 3916 H 358.303 1.699 -0.954986 0
M  V30 3917 H 357.399 3.10142 -0.349056 0
M  V30 3918 N 357.7 0.491464 1.49741 0
M  V30 3919 C 358.928 -0.0535151 2.06831 0
M  V30 3920 C 359.343 -1.31683 1.35296 0
M  V30 3921 O 358.7 -1.77402 0.42836 0
M  V30 3922 C 358.751 -0.320835 3.60073 0
M  V30 3923 O 358.472 0.892394 4.28915 0
M  V30 3924 C 359.973 -0.910519 4.33848 0
M  V30 3925 H 357.193 0.0161909 0.670805 0
M  V30 3926 H 359.737 0.68609 1.92647 0
M  V30 3927 H 357.892 -1.0104 3.73991 0
M  V30 3928 H 358.306 0.649401 5.20464 0
M  V30 3929 H 359.78 -1.04721 5.41976 0
M  V30 3930 H 360.257 -1.90589 3.95692 0
M  V30 3931 H 360.863 -0.258712 4.24512 0
M  V30 3932 N 359.178 -1.55987 0.224894 0
M  V30 3933 C 360.589 -1.84553 -0.282345 0
M  V30 3934 C 360.94 -1.14634 -1.59227 0
M  V30 3935 O 360.065 -0.417155 -2.12341 0
M  V30 3936 C 360.66 -3.348 -0.519062 0
M  V30 3937 C 359.219 -3.63671 -0.970604 0
M  V30 3938 C 358.366 -2.77277 -0.0355261 0
M  V30 3939 H 361.317 -1.52245 0.448006 0
M  V30 3940 H 361.338 -3.55187 -1.36463 0
M  V30 3941 H 360.85 -3.8566 0.43449 0
M  V30 3942 H 358.951 -3.1827 -1.9374 0
M  V30 3943 H 359.064 -4.71631 -0.842698 0
M  V30 3944 H 357.428 -2.48846 -0.542927 0
M  V30 3945 H 358.211 -3.30937 0.913003 0
M  V30 3946 N 360.656 0.0484629 -1.57525 0
M  V30 3947 C 361.896 0.748196 -1.90214 0
M  V30 3948 C 362.26 1.73545 -0.821347 0
M  V30 3949 O 363.461 2.48201 -1.03198 0
M  V30 3950 C 361.732 1.41727 -3.28098 0
M  V30 3951 S 363.291 2.14884 -3.82584 0
M  V30 3952 H 360.109 0.248307 -0.666232 0
M  V30 3953 H 362.711 0.00343188 -1.955 0
M  V30 3954 H 361.415 0.685244 -4.04639 0
M  V30 3955 H 360.946 2.20099 -3.26068 0
M  V30 3956 H 362.961 3.41755 -3.59747 0
M  V30 3957 N 362.134 1.5431 0.320358 0
M  V30 3958 C 363.545 1.63872 0.894594 0
M  V30 3959 C 363.896 0.534847 1.88769 0
M  V30 3960 O 363.021 -0.331732 2.13842 0
M  V30 3961 C 363.616 2.97049 1.62934 0
M  V30 3962 C 362.175 3.08796 2.15226 0
M  V30 3963 C 361.322 2.59456 0.978671 0
M  V30 3964 H 364.273 1.58398 0.0978544 0
M  V30 3965 H 364.294 2.87388 2.49376 0
M  V30 3966 H 363.806 3.7737 0.906302 0
M  V30 3967 H 361.907 2.33156 2.90636 0
M  V30 3968 H 362.02 4.14649 2.40006 0
M  V30 3969 H 360.384 2.1543 1.35875 0
M  V30 3970 H 361.167 3.42237 0.269895 0
M  V30 3971 N 363.613 -0.582584 1.46437 0
M  V30 3972 C 364.523 -1.71949 1.59595 0
M  V30 3973 C 365.539 -1.67264 0.479443 0
M  V30 3974 O 366.715 -1.87171 0.743579 0
M  V30 3975 C 363.78 -3.08452 1.58298 0
M  V30 3976 C 362.841 -3.244 2.81182 0
M  V30 3977 C 362.074 -4.54391 2.79937 0
M  V30 3978 O 362.297 -5.38287 1.8869 0
M  V30 3979 O 361.231 -4.73588 3.71481 0
M  V30 3980 H 365.057 -1.63795 2.55744 0
M  V30 3981 H 362.642 -0.749643 1.29231 0
M  V30 3982 H 364.524 -3.89732 1.60271 0
M  V30 3983 H 363.199 -3.17043 0.653094 0
M  V30 3984 H 362.106 -2.42613 2.84763 0
M  V30 3985 H 363.439 -3.20699 3.7338 0
M  V30 3986 N 365.091 -1.34144 -0.827227 0
M  V30 3987 C 366.338 -1.26258 -1.58319 0
M  V30 3988 C 366.666 0.168595 -1.93768 0
M  V30 3989 O 365.921 1.12877 -1.59866 0
M  V30 3990 C 366.22 -2.09464 -2.89585 0
M  V30 3991 C 365.886 -3.58521 -2.73448 0
M  V30 3992 C 364.548 -3.99155 -2.68754 0
M  V30 3993 C 366.9 -4.53189 -2.57428 0
M  V30 3994 C 364.228 -5.32656 -2.45957 0
M  V30 3995 C 366.58 -5.86864 -2.36163 0
M  V30 3996 C 365.244 -6.26667 -2.29879 0
M  V30 3997 H 364.514 -0.462013 -0.579332 0
M  V30 3998 H 367.161 -1.65845 -0.95748 0
M  V30 3999 H 365.466 -1.62692 -3.56425 0
M  V30 4000 H 367.163 -2.00712 -3.47154 0
M  V30 4001 H 363.753 -3.26264 -2.77939 0
M  V30 4002 H 367.937 -4.22696 -2.60081 0
M  V30 4003 H 363.193 -5.62519 -2.39546 0
M  V30 4004 H 367.367 -6.59813 -2.22754 0
M  V30 4005 H 364.994 -7.30049 -2.11975 0
M  V30 4006 N 366.569 1.04691 -1.17803 0
M  V30 4007 C 367.502 2.12068 -0.842765 0
M  V30 4008 C 368.48 1.61455 0.192608 0
M  V30 4009 O 369.664 1.88359 0.072995 0
M  V30 4010 C 366.791 3.37715 -0.258063 0
M  V30 4011 C 365.837 4.07164 -1.26962 0
M  V30 4012 S 366.67 4.55047 -2.82299 0
M  V30 4013 C 367.826 5.83935 -2.25323 0
M  V30 4014 H 368.059 2.4018 -1.75217 0
M  V30 4015 H 365.592 1.17366 -1.00323 0
M  V30 4016 H 367.55 4.10435 0.0727935 0
M  V30 4017 H 366.211 3.0773 0.629357 0
M  V30 4018 H 365.404 4.9746 -0.809263 0
M  V30 4019 H 365.006 3.40533 -1.54639 0
M  V30 4020 H 367.298 6.57552 -1.63192 0
M  V30 4021 H 368.241 6.34725 -3.13894 0
M  V30 4022 H 368.649 5.3874 -1.68582 0
M  V30 4023 N 368.047 0.979072 1.23499 0
M  V30 4024 C 368.994 0.517904 2.24914 0
M  V30 4025 C 369.964 -0.442525 1.60097 0
M  V30 4026 O 371.149 -0.350365 1.87556 0
M  V30 4027 C 368.289 -0.174813 3.44657 0
M  V30 4028 C 367.402 0.825721 4.24035 0
M  V30 4029 C 366.537 0.107946 5.3109 0
M  V30 4030 C 365.576 1.09778 6.02175 0
M  V30 4031 N 364.713 0.40925 7.00906 0
M  V30 4032 H 369.553 1.38751 2.63727 0
M  V30 4033 H 367.09 0.695303 1.2963 0
M  V30 4034 H 369.048 -0.593233 4.12961 0
M  V30 4035 H 367.678 -1.0083 3.06648 0
M  V30 4036 H 366.73 1.36253 3.55161 0
M  V30 4037 H 368.042 1.58005 4.73113 0
M  V30 4038 H 367.196 -0.367904 6.05583 0
M  V30 4039 H 365.935 -0.678994 4.8295 0
M  V30 4040 H 364.94 1.5844 5.26476 0
M  V30 4041 H 366.165 1.88536 6.52404 0
M  V30 4042 H 364.111 -0.358506 6.5502 0
M  V30 4043 H 364.028 1.10226 7.47921 0
M  V30 4044 H 365.296 -0.0442557 7.79487 0
M  V30 4045 N 369.525 -1.3858 0.750561 0
M  V30 4046 C 370.472 -2.30483 0.120835 0
M  V30 4047 C 371.442 -1.50022 -0.712923 0
M  V30 4048 O 372.627 -1.78662 -0.669676 0
M  V30 4049 C 369.767 -3.36431 -0.768666 0
M  V30 4050 C 368.88 -4.31927 0.0793922 0
M  V30 4051 C 368.015 -5.24944 -0.81283 0
M  V30 4052 C 367.054 -6.12088 0.0390447 0
M  V30 4053 N 366.191 -6.97412 -0.809969 0
M  V30 4054 H 371.031 -2.83761 0.91015 0
M  V30 4055 H 368.568 -1.39707 0.460463 0
M  V30 4056 H 370.526 -3.96462 -1.29898 0
M  V30 4057 H 369.156 -2.8457 -1.5238 0
M  V30 4058 H 368.208 -3.73382 0.727303 0
M  V30 4059 H 369.52 -4.93319 0.737401 0
M  V30 4060 H 368.674 -5.90078 -1.41042 0
M  V30 4061 H 367.413 -4.63911 -1.50458 0
M  V30 4062 H 366.418 -5.45952 0.649328 0
M  V30 4063 H 367.643 -6.75189 0.727809 0
M  V30 4064 H 365.589 -6.38931 -1.48672 0
M  V30 4065 H 365.506 -7.55712 -0.208789 0
M  V30 4066 H 366.774 -7.66959 -1.39263 0
M  V30 4067 N 371.003 -0.499398 -1.49478 0
M  V30 4068 C 371.933 0.269244 -2.31943 0
M  V30 4069 C 372.914 0.964054 -1.40143 0
M  V30 4070 O 374.099 0.955767 -1.69052 0
M  V30 4071 C 371.229 1.33504 -3.20615 0
M  V30 4072 C 370.183 0.760202 -4.21195 0
M  V30 4073 C 369.509 1.9264 -4.98792 0
M  V30 4074 C 370.809 -0.247661 -5.21712 0
M  V30 4075 H 372.503 -0.419082 -2.96452 0
M  V30 4076 H 370.049 -0.202988 -1.42562 0
M  V30 4077 H 372.002 1.88048 -3.77115 0
M  V30 4078 H 370.726 2.05253 -2.54045 0
M  V30 4079 H 369.385 0.23653 -3.65836 0
M  V30 4080 H 369.033 2.63154 -4.28671 0
M  V30 4081 H 368.733 1.54785 -5.66847 0
M  V30 4082 H 370.257 2.4762 -5.58137 0
M  V30 4083 H 371.671 0.209579 -5.72917 0
M  V30 4084 H 370.068 -0.541962 -5.97648 0
M  V30 4085 H 371.138 -1.16409 -4.7072 0
M  V30 4086 N 372.481 1.55866 -0.233164 0
M  V30 4087 C 373.413 2.18099 0.704668 0
M  V30 4088 C 374.426 1.15334 1.14899 0
M  V30 4089 O 375.615 1.42262 1.07814 0
M  V30 4090 C 372.715 2.7592 1.96777 0
M  V30 4091 C 371.888 4.03969 1.67713 0
M  V30 4092 C 370.947 4.46242 2.78845 0
M  V30 4093 O 369.973 5.12903 2.46818 0
M  V30 4094 N 371.175 4.12886 4.08051 0
M  V30 4095 H 373.94 2.99205 0.172258 0
M  V30 4096 H 371.501 1.61815 -0.0525945 0
M  V30 4097 H 373.493 3.01165 2.70337 0
M  V30 4098 H 372.063 1.99051 2.41034 0
M  V30 4099 H 371.283 3.86459 0.777391 0
M  V30 4100 H 372.571 4.8748 1.4574 0
M  V30 4101 H 371.969 3.59342 4.3691 0
M  V30 4102 H 370.526 4.42997 4.78118 0
M  V30 4103 N 373.959 -0.0401083 1.57549 0
M  V30 4104 C 375.37 -0.588097 1.77196 0
M  V30 4105 C 375.721 -1.76209 0.862832 0
M  V30 4106 O 374.846 -2.16331 0.0548389 0
M  V30 4107 C 375.441 -1.07363 3.21339 0
M  V30 4108 C 374 -1.56723 3.42221 0
M  V30 4109 C 373.147 -0.50041 2.72747 0
M  V30 4110 H 376.098 0.186119 1.57605 0
M  V30 4111 H 376.119 -1.94143 3.27244 0
M  V30 4112 H 375.631 -0.218975 3.87482 0
M  V30 4113 H 373.732 -2.4441 2.81237 0
M  V30 4114 H 373.845 -1.62234 4.50796 0
M  V30 4115 H 372.209 -0.952894 2.36203 0
M  V30 4116 H 372.992 0.344599 3.41566 0
M  V30 4117 N 375.437 -1.54477 -0.31217 0
M  V30 4118 C 376.665 -1.77205 -1.068 0
M  V30 4119 C 377.08 -0.526114 -1.81321 0
M  V30 4120 O 376.437 0.503647 -1.75413 0
M  V30 4121 C 376.488 -2.97253 -2.05725 0
M  V30 4122 O 376.209 -4.1703 -1.34228 0
M  V30 4123 C 377.71 -3.32281 -2.93435 0
M  V30 4124 H 374.93 -0.591287 -0.317208 0
M  V30 4125 H 377.474 -2.01398 -0.354834 0
M  V30 4126 H 375.629 -2.753 -2.72559 0
M  V30 4127 H 376.043 -4.84636 -2.00571 0
M  V30 4128 H 377.517 -4.19551 -3.58721 0
M  V30 4129 H 377.994 -2.49945 -3.61143 0
M  V30 4130 H 378.6 -3.56353 -2.32147 0
M  V30 4131 N 376.915 0.57481 -1.46744 0
M  V30 4132 C 378.161 1.3347 -1.52688 0
M  V30 4133 C 378.494 1.93353 -0.181229 0
M  V30 4134 O 377.769 1.76912 0.808237 0
M  V30 4135 C 378.052 2.45811 -2.63152 0
M  V30 4136 C 377.905 1.90912 -4.07275 0
M  V30 4137 C 379.224 3.47822 -2.69644 0
M  V30 4138 H 376.343 0.483935 -0.555856 0
M  V30 4139 H 378.985 0.644968 -1.78718 0
M  V30 4140 H 377.135 3.04646 -2.41088 0
M  V30 4141 H 378.807 1.36473 -4.4065 0
M  V30 4142 H 377.05 1.21691 -4.16382 0
M  V30 4143 H 377.721 2.72042 -4.80309 0
M  V30 4144 H 380.197 2.9888 -2.895 0
M  V30 4145 H 379.073 4.23876 -3.48742 0
M  V30 4146 H 379.334 4.05555 -1.76005 0
M  V30 4147 N 378.394 1.34581 0.820102 0
M  V30 4148 C 379.81 1.14325 1.11364 0
M  V30 4149 C 380.01 -0.0533648 2.01429 0
M  V30 4150 O 379.066 -0.728044 2.41776 0
M  V30 4151 C 380.379 2.43983 1.75764 0
M  V30 4152 C 381.927 2.50065 1.88246 0
M  V30 4153 C 382.402 3.79732 2.56061 0
M  V30 4154 N 383.893 3.80908 2.63558 0
M  V30 4155 C 384.628 4.77961 3.16766 0
M  V30 4156 N 384.124 5.85397 3.70517 0
M  V30 4157 N 385.917 4.65413 3.15194 0
M  V30 4158 H 378.068 2.11246 0.221096 0
M  V30 4159 H 380.331 0.934289 0.160649 0
M  V30 4160 H 380.037 3.31651 1.1705 0
M  V30 4161 H 379.911 2.57531 2.75604 0
M  V30 4162 H 382.298 1.62834 2.46108 0
M  V30 4163 H 382.379 2.40442 0.873006 0
M  V30 4164 H 382.023 4.67354 1.98853 0
M  V30 4165 H 381.953 3.86639 3.57516 0
M  V30 4166 H 384.444 3.03274 2.25463 0
M  V30 4167 H 384.757 6.55463 4.09376 0
M  V30 4168 H 383.102 5.89107 3.68752 0
M  V30 4169 H 386.293 3.80627 2.72471 0
M  V30 4170 H 386.466 5.41216 3.56356 0
M  V30 4171 N 379.872 -1.04064 1.18357 0
M  V30 4172 C 381.1 -1.80916 1.00384 0
M  V30 4173 C 381.515 -1.83414 -0.447738 0
M  V30 4174 O 380.872 -1.26962 -1.31099 0
M  V30 4175 C 380.923 -3.26516 1.55144 0
M  V30 4176 O 380.644 -3.2424 2.94618 0
M  V30 4177 C 382.145 -4.20013 1.41789 0
M  V30 4178 H 379.365 -0.569728 0.354474 0
M  V30 4179 H 381.909 -1.31151 1.56906 0
M  V30 4180 H 380.064 -3.73512 1.02798 0
M  V30 4181 H 380.478 -4.15452 3.20156 0
M  V30 4182 H 381.952 -5.20111 1.84901 0
M  V30 4183 H 382.429 -4.37667 0.36661 0
M  V30 4184 H 383.035 -3.78881 1.93207 0
M  V30 4185 N 381.35 -0.985608 -1.22978 0
M  V30 4186 C 382.58 -0.674603 -1.95276 0
M  V30 4187 C 382.988 0.763483 -1.73111 0
M  V30 4188 O 382.331 1.52601 -1.02268 0
M  V30 4189 C 382.393 -0.891597 -3.48268 0
M  V30 4190 C 382.057 -2.31275 -3.94158 0
M  V30 4191 C 383.054 -3.29179 -4.02415 0
M  V30 4192 C 380.739 -2.64524 -4.27004 0
M  V30 4193 C 382.733 -4.58407 -4.42879 0
M  V30 4194 C 380.42 -3.93974 -4.67149 0
M  V30 4195 C 381.418 -4.90727 -4.75053 0
M  V30 4196 O 381.106 -6.17865 -5.14294 0
M  V30 4197 H 380.838 -0.249251 -0.628371 0
M  V30 4198 H 383.392 -1.32106 -1.5728 0
M  V30 4199 H 381.622 -0.187962 -3.86243 0
M  V30 4200 H 383.311 -0.576957 -4.01779 0
M  V30 4201 H 384.077 -3.04823 -3.77237 0
M  V30 4202 H 379.956 -1.89923 -4.2006 0
M  V30 4203 H 383.5 -5.33926 -4.48964 0
M  V30 4204 H 379.397 -4.18122 -4.91777 0
M  V30 4205 H 380.165 -6.21694 -5.32389 0
M  V30 4206 N 382.828 1.3818 -0.7579 0
M  V30 4207 C 384.074 2.00316 -0.316453 0
M  V30 4208 C 384.407 1.60026 1.10025 0
M  V30 4209 O 383.682 0.839835 1.75434 0
M  V30 4210 C 383.965 3.57349 -0.444245 0
M  V30 4211 C 383.818 4.07591 -1.90236 0
M  V30 4212 C 385.137 4.3981 0.1598 0
M  V30 4213 H 382.256 0.727741 -0.116459 0
M  V30 4214 H 384.898 1.6406 -0.958352 0
M  V30 4215 H 383.048 3.88365 0.102233 0
M  V30 4216 H 384.72 3.87199 -2.50748 0
M  V30 4217 H 382.963 3.60297 -2.41595 0
M  V30 4218 H 383.634 5.16677 -1.94291 0
M  V30 4219 H 386.11 4.14971 -0.306314 0
M  V30 4220 H 384.986 5.48885 0.0401675 0
M  V30 4221 H 385.247 4.24102 1.24859 0
M  V30 4222 N 384.306 0.507319 1.49211 0
M  V30 4223 C 385.216 -0.272136 2.33016 0
M  V30 4224 C 386.232 -0.961206 1.45041 0
M  V30 4225 O 387.408 -0.941191 1.78055 0
M  V30 4226 C 384.473 -1.31895 3.20631 0
M  V30 4227 C 383.534 -0.642648 4.24463 0
M  V30 4228 C 382.767 -1.63959 5.07891 0
M  V30 4229 O 382.99 -2.87007 4.92933 0
M  V30 4230 O 381.924 -1.19143 5.8999 0
M  V30 4231 H 385.75 0.413982 3.00865 0
M  V30 4232 H 383.335 0.268556 1.46966 0
M  V30 4233 H 385.217 -1.92446 3.7489 0
M  V30 4234 H 383.892 -1.98788 2.5547 0
M  V30 4235 H 382.799 0.00276252 3.741 0
M  V30 4236 H 384.132 -0.0160534 4.92197 0
M  V30 4237 N 385.784 -1.5574 0.241426 0
M  V30 4238 C 386.732 -2.22538 -0.676718 0
M  V30 4239 C 387.726 -1.21117 -1.18436 0
M  V30 4240 O 388.932 -1.39144 -1.14188 0
M  V30 4241 H 385.307 -0.713776 -0.236701 0
M  V30 4242 H 387.278 -2.98264 -0.0901187 0
M  V30 4243 C 386.027 -2.93439 -1.86518 0
M  V30 4244 H 385.35 -3.7125 -1.4837 0
M  V30 4245 H 386.79 -3.43549 -2.48495 0
M  V30 4246 C 385.249 -1.97008 -2.73294 0
M  V30 4247 O 385.779 -1.49965 -3.72657 0
M  V30 4248 N 383.985 -1.64227 -2.39745 0
M  V30 4249 H 383.532 -2.02677 -1.58996 0
M  V30 4250 H 383.49 -0.999708 -2.98083 0
M  V30 4251 N 387.262 0.0317525 -1.57568 0
M  V30 4252 C 388.678 0.38735 -1.54828 0
M  V30 4253 C 388.878 1.7677 -0.967187 0
M  V30 4254 O 387.934 2.45581 -0.587063 0
M  V30 4255 C 389.247 0.291667 -2.99282 0
M  V30 4256 C 390.795 0.368946 -3.10818 0
M  V30 4257 C 391.27 0.302741 -4.56998 0
M  V30 4258 N 392.761 0.361617 -4.61786 0
M  V30 4259 C 393.496 0.333238 -5.72431 0
M  V30 4260 N 392.992 0.257308 -6.92322 0
M  V30 4261 N 394.785 0.382769 -5.60795 0
M  V30 4262 H 386.936 -0.871609 -1.93692 0
M  V30 4263 H 389.199 -0.331161 -0.888277 0
M  V30 4264 H 388.905 -0.656794 -3.45513 0
M  V30 4265 H 388.779 1.08638 -3.61217 0
M  V30 4266 H 391.166 1.30784 -2.64536 0
M  V30 4267 H 391.247 -0.455066 -2.5172 0
M  V30 4268 H 390.891 -0.632473 -5.03947 0
M  V30 4269 H 390.821 1.14482 -5.14005 0
M  V30 4270 H 393.312 0.422923 -3.75526 0
M  V30 4271 H 393.625 0.24068 -7.72425 0
M  V30 4272 H 391.97 0.223396 -6.94641 0
M  V30 4273 H 395.161 0.44006 -4.66027 0
M  V30 4274 H 395.334 0.357184 -6.47015 0
M  V30 4275 N 388.74 1.54641 0.303973 0
M  V30 4276 C 390.151 1.64811 0.877163 0
M  V30 4277 C 390.502 0.554838 1.88191 0
M  V30 4278 O 389.627 -0.309033 2.14182 0
M  V30 4279 C 390.222 2.9876 1.59775 0
M  V30 4280 C 388.781 3.11061 2.11938 0
M  V30 4281 C 387.928 2.60479 0.951097 0
M  V30 4282 H 390.879 1.58493 0.0810486 0
M  V30 4283 H 390.9 2.90017 2.46314 0
M  V30 4284 H 390.412 3.7831 0.866226 0
M  V30 4285 H 388.513 2.36225 2.88146 0
M  V30 4286 H 388.626 4.17171 2.35595 0
M  V30 4287 H 386.99 2.16859 1.33583 0
M  V30 4288 H 387.773 3.42504 0.233581 0
M  V30 4289 N 390.218 -0.567019 1.47046 0
M  V30 4290 C 391.165 -1.67489 1.58796 0
M  V30 4291 C 392.135 -1.60399 0.43144 0
M  V30 4292 O 393.32 -1.79378 0.650233 0
M  V30 4293 C 390.46 -3.05821 1.59899 0
M  V30 4294 C 389.573 -3.2342 2.86397 0
M  V30 4295 C 388.708 -4.52093 2.789 0
M  V30 4296 C 387.747 -4.6309 4.00267 0
M  V30 4297 N 386.884 -5.83106 3.91064 0
M  V30 4298 H 391.724 -1.56785 2.53422 0
M  V30 4299 H 389.261 -0.763896 1.2571 0
M  V30 4300 H 391.219 -3.8591 1.58522 0
M  V30 4301 H 389.849 -3.15384 0.687929 0
M  V30 4302 H 388.901 -2.3683 2.97684 0
M  V30 4303 H 390.213 -3.27412 3.76301 0
M  V30 4304 H 389.367 -5.4043 2.75718 0
M  V30 4305 H 388.106 -4.50565 1.86662 0
M  V30 4306 H 387.111 -3.73168 4.03765 0
M  V30 4307 H 388.336 -4.66386 4.93621 0
M  V30 4308 H 386.282 -5.82546 3.01623 0
M  V30 4309 H 386.199 -5.88434 4.74638 0
M  V30 4310 H 387.467 -6.73831 3.91882 0
M  V30 4311 N 391.696 -1.35014 -0.812953 0
M  V30 4312 C 392.926 -1.30841 -1.59888 0
M  V30 4313 C 393.334 0.117576 -1.88834 0
M  V30 4314 O 392.677 1.07807 -1.48739 0
M  V30 4315 C 392.739 -2.0412 -2.95931 0
M  V30 4316 C 392.403 -3.53336 -2.89832 0
M  V30 4317 C 393.4 -4.48052 -2.63714 0
M  V30 4318 C 391.085 -3.95894 -3.0915 0
M  V30 4319 C 393.079 -5.833 -2.56982 0
M  V30 4320 C 390.766 -5.31239 -3.0204 0
M  V30 4321 C 391.764 -6.24754 -2.75991 0
M  V30 4322 O 391.452 -7.57617 -2.68833 0
M  V30 4323 H 391.184 -0.451215 -0.50337 0
M  V30 4324 H 393.738 -1.78354 -1.01877 0
M  V30 4325 H 391.968 -1.51235 -3.559 0
M  V30 4326 H 393.657 -1.93107 -3.57022 0
M  V30 4327 H 394.423 -4.16492 -2.48515 0
M  V30 4328 H 390.302 -3.23495 -3.28438 0
M  V30 4329 H 393.846 -6.56263 -2.36569 0
M  V30 4330 H 389.743 -5.62415 -3.16796 0
M  V30 4331 H 390.511 -7.67469 -2.84487 0
M  V30 4332 N 393.175 1.03435 -1.18907 0
M  V30 4333 C 394.138 2.09756 -0.923844 0
M  V30 4334 C 395.138 1.60528 0.093416 0
M  V30 4335 O 396.328 1.73631 -0.140727 0
M  V30 4336 C 393.46 3.38692 -0.387354 0
M  V30 4337 H 394.653 2.34719 -1.86674 0
M  V30 4338 H 392.206 1.19959 -1.00197 0
M  V30 4339 H 392.941 3.19396 0.561845 0
M  V30 4340 H 392.726 3.75742 -1.12074 0
M  V30 4341 H 394.216 4.17016 -0.220694 0
M  V30 4342 N 394.653 0.992116 1.22453 0
M  V30 4343 C 395.901 0.666215 1.90804 0
M  V30 4344 C 396.222 -0.804152 1.77647 0
M  V30 4345 O 395.492 -1.57629 1.16318 0
M  V30 4346 H 394.072 0.243423 0.706225 0
M  V30 4347 H 396.734 1.25845 1.48825 0
M  V30 4348 H 395.83 0.928069 2.97982 0
M  V30 4349 N 396.131 -1.37776 0.765217 0
M  V30 4350 C 397.361 -2.03828 0.337277 0
M  V30 4351 C 397.769 -1.57841 -1.04321 0
M  V30 4352 O 397.112 -0.752043 -1.67601 0
M  V30 4353 C 397.174 -3.58292 0.294407 0
M  V30 4354 C 396.838 -4.27384 1.61838 0
M  V30 4355 C 397.835 -4.51956 2.56967 0
M  V30 4356 C 395.52 -4.65345 1.89102 0
M  V30 4357 C 397.514 -5.13536 3.77571 0
M  V30 4358 C 395.201 -5.26647 3.09978 0
M  V30 4359 C 396.199 -5.50679 4.04032 0
M  V30 4360 O 395.887 -6.10702 5.2278 0
M  V30 4361 H 395.619 -0.661292 0.140248 0
M  V30 4362 H 398.173 -1.77222 1.03834 0
M  V30 4363 H 396.403 -3.83918 -0.462983 0
M  V30 4364 H 398.092 -4.05763 -0.105581 0
M  V30 4365 H 398.858 -4.23048 2.37183 0
M  V30 4366 H 394.737 -4.45978 1.16725 0
M  V30 4367 H 398.281 -5.3221 4.50997 0
M  V30 4368 H 394.178 -5.54979 3.29649 0
M  V30 4369 H 394.946 -6.29183 5.23517 0
M  V30 4370 N 397.609 -0.515225 -1.4894 0
M  V30 4371 C 398.834 0.022727 -2.07388 0
M  V30 4372 C 399.259 1.2876 -1.37122 0
M  V30 4373 O 398.617 1.76067 -0.432431 0
M  V30 4374 C 398.665 0.244869 -3.59768 0
M  V30 4375 O 397.769 1.31667 -3.90817 0
M  V30 4376 H 397.11 -0.0325506 -0.663202 0
M  V30 4377 H 399.64 -0.718918 -1.91553 0
M  V30 4378 H 399.65 0.47205 -4.0526 0
M  V30 4379 H 398.325 -0.679194 -4.10317 0
M  V30 4380 H 396.902 1.07331 -3.5712 0
M  V30 4381 N 399.087 1.5561 -0.249682 0
M  V30 4382 C 400.334 1.99011 0.374287 0
M  V30 4383 C 400.662 1.13785 1.57744 0
M  V30 4384 O 399.917 0.189326 1.94782 0
M  V30 4385 C 400.216 3.4775 0.824887 0
M  V30 4386 C 399.882 4.50086 -0.270819 0
M  V30 4387 C 398.544 4.77791 -0.571746 0
M  V30 4388 C 400.896 5.11312 -1.01041 0
M  V30 4389 C 398.224 5.63997 -1.61629 0
M  V30 4390 C 400.576 5.98651 -2.0445 0
M  V30 4391 C 399.24 6.24688 -2.35204 0
M  V30 4392 H 398.51 0.728233 0.136961 0
M  V30 4393 H 401.157 1.88122 -0.358087 0
M  V30 4394 H 399.462 3.55985 1.63651 0
M  V30 4395 H 401.159 3.78721 1.31799 0
M  V30 4396 H 397.749 4.28592 -0.026136 0
M  V30 4397 H 401.933 4.89953 -0.791177 0
M  V30 4398 H 397.189 5.82425 -1.85988 0
M  V30 4399 H 401.363 6.45135 -2.62248 0
M  V30 4400 H 398.99 6.91281 -3.16282 0
M  V30 4401 N 400.565 -0.0233959 1.57583 0
M  V30 4402 C 401.475 -1.03907 2.10334 0
M  V30 4403 C 402.491 -1.39257 1.04323 0
M  V30 4404 O 403.667 -1.48462 1.36091 0
M  V30 4405 C 400.732 -2.31938 2.57693 0
M  V30 4406 C 399.793 -2.03117 3.78209 0
M  V30 4407 C 399.026 -3.25043 4.233 0
M  V30 4408 O 399.249 -4.35916 3.67876 0
M  V30 4409 O 398.183 -3.10411 5.15683 0
M  V30 4410 H 402.009 -0.620748 2.97288 0
M  V30 4411 H 399.594 -0.240743 1.47448 0
M  V30 4412 H 401.476 -3.07196 2.88458 0
M  V30 4413 H 400.151 -2.73055 1.73847 0
M  V30 4414 H 399.058 -1.25408 3.52454 0
M  V30 4415 H 400.391 -1.66852 4.63056 0
M  V30 4416 N 402.043 -1.548 -0.295768 0
M  V30 4417 C 402.99 -1.86113 -1.36494 0
M  V30 4418 C 403.96 -0.7105 -1.50137 0
M  V30 4419 O 405.145 -0.959626 -1.64912 0
M  V30 4420 C 402.285 -2.11861 -2.72413 0
M  V30 4421 C 401.398 -3.39471 -2.67177 0
M  V30 4422 C 400.533 -3.55035 -3.95125 0
M  V30 4423 C 399.572 -4.76418 -3.84308 0
M  V30 4424 N 398.709 -4.8876 -5.04042 0
M  V30 4425 H 403.549 -2.77314 -1.09091 0
M  V30 4426 H 401.086 -1.37315 -0.52753 0
M  V30 4427 H 403.044 -2.24786 -3.51464 0
M  V30 4428 H 401.674 -1.2392 -2.98066 0
M  V30 4429 H 400.726 -3.35139 -1.79962 0
M  V30 4430 H 402.038 -4.28646 -2.55076 0
M  V30 4431 H 401.192 -3.67653 -4.82614 0
M  V30 4432 H 399.931 -2.64002 -4.10066 0
M  V30 4433 H 398.936 -4.63827 -2.95202 0
M  V30 4434 H 400.161 -5.68863 -3.70906 0
M  V30 4435 H 398.107 -4.00652 -5.19436 0
M  V30 4436 H 398.024 -5.71945 -4.94384 0
M  V30 4437 H 399.292 -5.0574 -5.93167 0
M  V30 4438 N 403.521 0.559213 -1.47345 0
M  V30 4439 C 404.451 1.67622 -1.62558 0
M  V30 4440 C 405.432 1.63331 -0.475087 0
M  V30 4441 O 406.617 1.80983 -0.704182 0
M  V30 4442 C 403.747 3.0626 -1.63774 0
M  V30 4443 C 402.701 3.25397 -2.7803 0
M  V30 4444 C 402.027 4.64801 -2.64318 0
M  V30 4445 C 403.327 3.10965 -4.19641 0
M  V30 4446 H 405.021 1.55146 -2.56067 0
M  V30 4447 H 402.567 0.744961 -1.23233 0
M  V30 4448 H 404.52 3.84247 -1.73008 0
M  V30 4449 H 403.244 3.1969 -0.66825 0
M  V30 4450 H 401.903 2.49817 -2.68304 0
M  V30 4451 H 401.551 4.75028 -1.65401 0
M  V30 4452 H 401.251 4.78555 -3.40968 0
M  V30 4453 H 402.775 5.44926 -2.75478 0
M  V30 4454 H 404.189 3.78772 -4.30354 0
M  V30 4455 H 402.586 3.36229 -4.97062 0
M  V30 4456 H 403.656 2.07736 -4.38148 0
M  V30 4457 N 404.999 1.35443 0.805782 0
M  V30 4458 C 406.246 1.28761 1.56291 0
M  V30 4459 C 406.574 -0.137747 1.94012 0
M  V30 4460 O 405.829 -1.1032 1.61642 0
M  V30 4461 C 406.128 2.14045 2.86216 0
M  V30 4462 C 405.794 3.62826 2.67709 0
M  V30 4463 C 404.456 4.0338 2.6237 0
M  V30 4464 C 406.808 4.57227 2.50186 0
M  V30 4465 C 404.136 5.36501 2.37451 0
M  V30 4466 C 406.488 5.90547 2.26797 0
M  V30 4467 C 405.152 6.30245 2.1988 0
M  V30 4468 H 404.422 0.471171 0.571908 0
M  V30 4469 H 407.069 1.67347 0.930974 0
M  V30 4470 H 405.374 1.68342 3.53791 0
M  V30 4471 H 407.071 2.0621 3.43917 0
M  V30 4472 H 403.661 3.30644 2.72713 0
M  V30 4473 H 407.845 4.2678 2.53323 0
M  V30 4474 H 403.101 5.66259 2.30567 0
M  V30 4475 H 407.275 6.63274 2.12228 0
M  V30 4476 H 404.902 7.33328 2.00333 0
M  V30 4477 N 406.477 -1.02803 1.19454 0
M  V30 4478 C 407.888 -1.57667 0.999899 0
M  V30 4479 C 408.239 -1.91041 -0.446956 0
M  V30 4480 O 407.364 -1.70978 -1.32648 0
M  V30 4481 C 407.959 -2.86477 1.80877 0
M  V30 4482 C 406.518 -3.37911 1.65811 0
M  V30 4483 C 405.665 -2.11343 1.79526 0
M  V30 4484 H 408.616 -0.853214 1.33813 0
M  V30 4485 H 408.637 -3.57408 1.30536 0
M  V30 4486 H 408.149 -2.62155 2.86175 0
M  V30 4487 H 406.25 -3.67218 0.63102 0
M  V30 4488 H 406.363 -4.10885 2.46395 0
M  V30 4489 H 404.727 -2.23254 1.22596 0
M  V30 4490 H 405.51 -1.89461 2.86285 0
M  V30 4491 N 407.956 -0.998596 -1.21925 0
M  V30 4492 C 409.233 -0.593401 -1.86382 0
M  V30 4493 C 409.613 0.92916 -1.89552 0
M  V30 4494 O 408.961 1.81347 -1.39017 0
M  V30 4495 C 409.171 -1.22039 -3.26967 0
M  V30 4496 C 410.519 -1.32449 -4.03413 0
M  V30 4497 O 411.543 -1.17522 -3.36254 0
M  V30 4498 O 410.402 -1.56395 -5.23644 0
M  V30 4499 H 407.496 -0.202385 -0.801854 0
M  V30 4500 H 410.042 -1.09484 -1.29659 0
M  V30 4501 H 408.814 -2.26158 -3.19325 0
M  V30 4502 H 408.437 -0.704906 -3.91301 0
M  V30 4503 N 409.434 1.37368 -0.772513 0
M  V30 4504 C 410.68 1.99969 -0.337681 0
M  V30 4505 C 411.013 1.61184 1.08321 0
M  V30 4506 O 410.288 0.858395 1.74533 0
M  V30 4507 C 410.571 3.56858 -0.482121 0
M  V30 4508 C 410.424 4.0555 -1.94549 0
M  V30 4509 C 411.743 4.39955 0.113143 0
M  V30 4510 H 408.862 0.726464 -0.124171 0
M  V30 4511 H 411.504 1.63034 -0.975699 0
M  V30 4512 H 409.654 3.88452 0.0610361 0
M  V30 4513 H 411.326 3.84518 -2.54841 0
M  V30 4514 H 409.569 3.57715 -2.45403 0
M  V30 4515 H 410.24 5.14587 -1.9976 0
M  V30 4516 H 412.716 4.14623 -0.35031 0
M  V30 4517 H 411.592 5.48897 -0.0180514 0
M  V30 4518 H 411.853 4.25403 1.20354 0
M  V30 4519 N 410.912 0.523116 1.48665 0
M  V30 4520 C 411.842 -0.23231 2.32342 0
M  V30 4521 C 412.823 -0.941637 1.41659 0
M  V30 4522 O 414.008 -0.928751 1.70552 0
M  V30 4523 C 411.138 -1.28387 3.22698 0
M  V30 4524 C 410.092 -0.693098 4.22351 0
M  V30 4525 C 409.418 -1.8468 5.01794 0
M  V30 4526 C 410.718 0.33063 5.21252 0
M  V30 4527 H 412.412 0.466192 2.95748 0
M  V30 4528 H 409.958 0.225643 1.42221 0
M  V30 4529 H 411.911 -1.82024 3.80059 0
M  V30 4530 H 410.635 -2.01186 2.57278 0
M  V30 4531 H 409.294 -0.178299 3.66166 0
M  V30 4532 H 408.942 -2.56301 4.32804 0
M  V30 4533 H 408.642 -1.45747 5.69238 0
M  V30 4534 H 410.166 -2.38709 5.62006 0
M  V30 4535 H 411.58 -0.118407 5.73178 0
M  V30 4536 H 409.977 0.636974 5.9671 0
M  V30 4537 H 411.047 1.23883 4.68808 0
M  V30 4538 N 412.39 -1.55475 0.257931 0
M  V30 4539 C 413.637 -1.99207 -0.363728 0
M  V30 4540 C 413.965 -1.1462 -1.57139 0
M  V30 4541 O 413.22 -0.199653 -1.94679 0
M  V30 4542 C 413.519 -3.48183 -0.806433 0
M  V30 4543 C 413.185 -4.49936 0.294684 0
M  V30 4544 C 411.847 -4.77481 0.597076 0
M  V30 4545 C 414.199 -5.10769 1.03751 0
M  V30 4546 C 411.527 -5.63132 1.64618 0
M  V30 4547 C 413.879 -5.97558 2.07622 0
M  V30 4548 C 412.543 -6.23432 2.38514 0
M  V30 4549 H 411.813 -0.728949 -0.133097 0
M  V30 4550 H 414.46 -1.8793 0.368059 0
M  V30 4551 H 412.765 -3.56848 -1.61761 0
M  V30 4552 H 414.462 -3.79415 -1.29789 0
M  V30 4553 H 411.052 -4.28572 0.0488649 0
M  V30 4554 H 415.236 -4.89527 0.817149 0
M  V30 4555 H 410.492 -5.8143 1.89074 0
M  V30 4556 H 414.666 -6.43735 2.65666 0
M  V30 4557 H 412.293 -6.89594 3.19943 0
M  V30 4558 N 413.868 0.0150385 -1.57593 0
M  V30 4559 C 415.279 0.559832 -1.78109 0
M  V30 4560 C 415.63 1.74814 -0.890756 0
M  V30 4561 O 414.755 2.16216 -0.0892482 0
M  V30 4562 C 415.35 1.02238 -3.23006 0
M  V30 4563 C 413.909 1.51258 -3.44671 0
M  V30 4564 C 413.056 0.456955 -2.73509 0
M  V30 4565 H 416.007 -0.211169 -1.57289 0
M  V30 4566 H 416.028 1.88912 -3.30292 0
M  V30 4567 H 415.54 0.157302 -3.87781 0
M  V30 4568 H 413.641 2.39905 -2.8509 0
M  V30 4569 H 413.754 1.55042 -4.5332 0
M  V30 4570 H 412.118 0.915196 -2.37689 0
M  V30 4571 H 412.901 -0.398896 -3.40975 0
M  V30 4572 N 415.346 1.54954 0.287554 0
M  V30 4573 C 416.309 1.86076 1.33823 0
M  V30 4574 C 417.309 0.734414 1.43049 0
M  V30 4575 O 418.499 1.00266 1.42452 0
M  V30 4576 C 415.631 2.05305 2.72144 0
M  V30 4577 H 416.824 2.79984 1.07465 0
M  V30 4578 H 414.377 1.47223 0.524902 0
M  V30 4579 H 415.112 1.1373 3.03704 0
M  V30 4580 H 414.897 2.873 2.66836 0
M  V30 4581 H 416.387 2.30706 3.48087 0
M  V30 4582 N 416.824 -0.551391 1.4764 0
M  V30 4583 C 418.101 -1.31229 1.45046 0
M  V30 4584 C 418.481 -2.10563 0.150527 0
M  V30 4585 O 417.829 -2.11374 -0.867956 0
M  V30 4586 C 418.039 -2.21189 2.69956 0
M  V30 4587 C 419.387 -2.82021 3.1741 0
M  V30 4588 O 420.411 -2.31488 2.70724 0
M  V30 4589 O 419.27 -3.73885 3.98588 0
M  V30 4590 H 416.364 -0.591193 0.578291 0
M  V30 4591 H 418.91 -0.569813 1.59847 0
M  V30 4592 H 417.682 -1.62207 3.56096 0
M  V30 4593 H 417.305 -3.02722 2.57769 0
M  V30 4594 N 418.302 -1.35869 -0.798587 0
M  V30 4595 C 419.527 -1.32883 -1.59238 0
M  V30 4596 C 419.952 0.0894587 -1.87887 0
M  V30 4597 O 419.31 1.05869 -1.47178 0
M  V30 4598 C 419.358 -2.14892 -2.89575 0
M  V30 4599 O 418.462 -1.53512 -3.82763 0
M  V30 4600 H 417.803 -0.455236 -0.48338 0
M  V30 4601 H 420.333 -1.79024 -0.990539 0
M  V30 4602 H 420.343 -2.27139 -3.38928 0
M  V30 4603 H 419.018 -3.17998 -2.68049 0
M  V30 4604 H 417.595 -1.50153 -3.41334 0
M  V30 4605 N 419.78 1.02168 -1.19998 0
M  V30 4606 C 420.69 2.14069 -0.959774 0
M  V30 4607 C 421.706 1.73804 0.082655 0
M  V30 4608 O 422.882 2.01133 -0.103633 0
M  V30 4609 C 419.947 3.42936 -0.509459 0
M  V30 4610 C 419.008 3.97474 -1.62213 0
M  V30 4611 C 418.241 5.2019 -1.19321 0
M  V30 4612 O 418.464 5.70369 -0.0597726 0
M  V30 4613 O 417.398 5.67749 -1.99863 0
M  V30 4614 H 421.224 2.37199 -1.89658 0
M  V30 4615 H 418.809 1.12469 -0.983411 0
M  V30 4616 H 420.691 4.20551 -0.267322 0
M  V30 4617 H 419.366 3.21234 0.398821 0
M  V30 4618 H 418.273 3.21161 -1.9185 0
M  V30 4619 H 419.606 4.23555 -2.50723 0
M  V30 4620 N 421.258 1.00505 1.21394 0
M  V30 4621 C 422.208 0.536503 2.21598 0
M  V30 4622 C 423.192 -0.401914 1.55799 0
M  V30 4623 O 424.384 -0.226757 1.75541 0
M  V30 4624 C 421.513 -0.135446 3.43033 0
M  V30 4625 C 420.599 0.823992 4.16018 0
M  V30 4626 N 420.99 1.97683 4.6557 0
M  V30 4627 C 419.288 0.642387 4.4135 0
M  V30 4628 C 419.989 2.58003 5.21354 0
M  V30 4629 N 418.965 1.86162 5.1073 0
M  V30 4630 H 422.767 1.41557 2.57563 0
M  V30 4631 H 420.281 0.868878 1.37202 0
M  V30 4632 H 422.278 -0.488584 4.14027 0
M  V30 4633 H 420.938 -1.01049 3.08576 0
M  V30 4634 H 421.949 2.3572 4.61147 0
M  V30 4635 H 418.626 -0.185578 4.17087 0
M  V30 4636 H 420.016 3.555 5.70149 0
M  V30 4637 N 422.737 -1.36956 0.779787 0
M  V30 4638 C 423.685 -2.32053 0.15942 0
M  V30 4639 C 424.679 -1.55333 -0.675878 0
M  V30 4640 O 425.885 -1.70668 -0.57204 0
M  V30 4641 H 422.26 -0.751286 0.0327707 0
M  V30 4642 H 424.231 -2.8195 0.977078 0
M  V30 4643 C 422.98 -3.40602 -0.698977 0
M  V30 4644 H 422.303 -3.99746 -0.0655966 0
M  V30 4645 H 423.743 -4.09486 -1.09989 0
M  V30 4646 C 422.202 -2.81359 -1.85307 0
M  V30 4647 O 422.732 -2.72751 -2.94906 0
M  V30 4648 N 420.938 -2.38786 -1.65619 0
M  V30 4649 H 420.485 -2.45987 -0.764725 0
M  V30 4650 H 420.443 -1.99493 -2.43002 0
M  V30 4651 N 424.215 -0.530993 -1.48385 0
M  V30 4652 C 425.162 0.231223 -2.29639 0
M  V30 4653 C 426.132 0.932864 -1.37429 0
M  V30 4654 O 427.317 0.933692 -1.66394 0
M  V30 4655 C 424.457 1.27155 -3.2082 0
M  V30 4656 C 423.57 0.578655 -4.28107 0
M  V30 4657 C 422.705 1.602 -5.06467 0
M  V30 4658 C 421.744 0.892625 -6.05556 0
M  V30 4659 N 420.881 1.86157 -6.76971 0
M  V30 4660 H 425.721 -0.467848 -2.94305 0
M  V30 4661 H 423.258 -0.242556 -1.45086 0
M  V30 4662 H 425.216 1.88703 -3.72085 0
M  V30 4663 H 423.846 1.939 -2.58075 0
M  V30 4664 H 422.898 -0.150782 -3.80101 0
M  V30 4665 H 424.21 0.0217065 -4.98795 0
M  V30 4666 H 423.364 2.29173 -5.61751 0
M  V30 4667 H 422.103 2.19285 -4.35621 0
M  V30 4668 H 421.108 0.188829 -5.49476 0
M  V30 4669 H 422.333 0.307878 -6.78402 0
M  V30 4670 H 420.279 2.44147 -6.08875 0
M  V30 4671 H 420.196 1.35608 -7.43738 0
M  V30 4672 H 421.464 2.54325 -7.36844 0
M  V30 4673 N 425.693 1.55336 -0.266172 0
M  V30 4674 C 426.623 2.25146 0.618981 0
M  V30 4675 C 427.604 1.23845 1.16604 0
M  V30 4676 O 428.789 1.52544 1.20183 0
M  V30 4677 C 425.919 2.96572 1.80728 0
M  V30 4678 C 424.873 4.04726 1.39215 0
M  V30 4679 C 424.199 4.63678 2.66283 0
M  V30 4680 C 425.499 5.19407 0.548942 0
M  V30 4681 H 427.193 2.99377 0.0368116 0
M  V30 4682 H 424.739 1.43991 0.0162651 0
M  V30 4683 H 426.692 3.44116 2.43232 0
M  V30 4684 H 425.416 2.19861 2.41514 0
M  V30 4685 H 424.075 3.57979 0.790351 0
M  V30 4686 H 423.723 3.83646 3.25308 0
M  V30 4687 H 423.423 5.367 2.39222 0
M  V30 4688 H 424.947 5.13967 3.29651 0
M  V30 4689 H 426.361 5.63059 1.07876 0
M  V30 4690 H 424.758 5.98936 0.373593 0
M  V30 4691 H 425.828 4.8295 -0.434394 0
M  V30 4692 N 427.171 -0.0066808 1.57599 0
M  V30 4693 C 428.118 -1.00024 2.08 0
M  V30 4694 C 429.088 -1.34549 0.973943 0
M  V30 4695 O 430.273 -1.44502 1.24595 0
M  V30 4696 C 427.413 -2.2891 2.58252 0
M  V30 4697 C 426.526 -2.00346 3.82734 0
M  V30 4698 C 425.661 -3.23265 4.21513 0
M  V30 4699 C 424.7 -2.90357 5.3885 0
M  V30 4700 N 423.837 -4.05793 5.72954 0
M  V30 4701 H 428.677 -0.563499 2.92624 0
M  V30 4702 H 426.214 -0.266592 1.44664 0
M  V30 4703 H 428.172 -3.04247 2.85464 0
M  V30 4704 H 426.802 -2.70265 1.76512 0
M  V30 4705 H 425.854 -1.15406 3.62471 0
M  V30 4706 H 427.166 -1.72086 4.68175 0
M  V30 4707 H 426.32 -4.06953 4.49971 0
M  V30 4708 H 425.059 -3.54657 3.34768 0
M  V30 4709 H 424.064 -2.05075 5.10122 0
M  V30 4710 H 425.289 -2.60219 6.27266 0
M  V30 4711 H 423.235 -4.37094 4.89167 0
M  V30 4712 H 423.152 -3.81034 6.52954 0
M  V30 4713 H 424.42 -4.90289 6.06001 0
M  V30 4714 N 428.649 -1.55105 -0.279332 0
M  V30 4715 C 429.612 -1.86783 -1.32834 0
M  V30 4716 C 430.612 -0.74199 -1.42657 0
M  V30 4717 O 431.802 -1.0102 -1.41918 0
M  V30 4718 C 428.934 -2.06746 -2.71052 0
M  V30 4719 H 430.127 -2.8055 -1.05979 0
M  V30 4720 H 427.68 -1.47499 -0.517087 0
M  V30 4721 H 428.415 -1.15339 -3.03097 0
M  V30 4722 H 428.2 -2.88711 -2.65309 0
M  V30 4723 H 429.69 -2.32549 -3.46858 0
M  V30 4724 N 430.127 0.543554 -1.4793 0
M  V30 4725 C 431.352 1.32995 -1.59145 0
M  V30 4726 C 431.777 1.86472 -0.246956 0
M  V30 4727 O 431.135 1.63696 0.779324 0
M  V30 4728 C 431.183 2.46623 -2.63077 0
M  V30 4729 O 430.287 3.49261 -2.19295 0
M  V30 4730 H 429.628 0.394472 -0.534124 0
M  V30 4731 H 432.158 0.655489 -1.93816 0
M  V30 4732 H 432.168 2.93001 -2.83926 0
M  V30 4733 H 430.843 2.07059 -3.60693 0
M  V30 4734 H 429.42 3.09094 -2.08603 0
M  V30 4735 N 431.605 1.3629 0.791371 0
M  V30 4736 C 432.537 1.26321 1.91248 0
M  V30 4737 C 433.55 0.18313 1.61767 0
M  V30 4738 O 434.739 0.437682 1.73051 0
M  V30 4739 C 431.839 0.925901 3.26007 0
M  V30 4740 C 431.012 2.10746 3.83281 0
M  V30 4741 C 430.071 1.74352 4.96475 0
M  V30 4742 O 429.097 2.46416 5.13096 0
M  V30 4743 N 430.299 0.676058 5.7655 0
M  V30 4744 H 433.064 2.22915 2.00323 0
M  V30 4745 H 430.625 1.29659 0.969546 0
M  V30 4746 H 432.617 0.663636 3.99222 0
M  V30 4747 H 431.187 0.0491581 3.12561 0
M  V30 4748 H 430.407 2.53264 3.02077 0
M  V30 4749 H 431.695 2.8969 4.18279 0
M  V30 4750 H 431.093 0.0776467 5.65647 0
M  V30 4751 H 429.65 0.473612 6.50077 0
M  V30 4752 N 433.083 -1.0153 1.20538 0
M  V30 4753 C 434.046 -2.0826 0.957098 0
M  V30 4754 C 435.046 -1.60657 -0.0678655 0
M  V30 4755 O 436.236 -1.73385 0.168332 0
M  V30 4756 C 433.368 -3.38033 0.441188 0
M  V30 4757 H 434.561 -2.31719 1.90384 0
M  V30 4758 H 432.114 -1.1835 1.02093 0
M  V30 4759 H 432.849 -3.20249 -0.510961 0
M  V30 4760 H 432.634 -3.73911 1.18038 0
M  V30 4761 H 434.124 -4.16613 0.287009 0
M  V30 4762 N 434.561 -1.01147 -1.20859 0
M  V30 4763 C 435.977 -0.725422 -1.42161 0
M  V30 4764 C 436.177 0.696919 -1.89064 0
M  V30 4765 O 435.233 1.46539 -2.05627 0
M  V30 4766 C 436.546 -1.74678 -2.44761 0
M  V30 4767 C 438.094 -1.76433 -2.58535 0
M  V30 4768 C 438.569 -2.77481 -3.64374 0
M  V30 4769 N 440.06 -2.76189 -3.71852 0
M  V30 4770 C 440.795 -3.51035 -4.53389 0
M  V30 4771 N 440.291 -4.35541 -5.38773 0
M  V30 4772 N 442.084 -3.39655 -4.47873 0
M  V30 4773 H 434.235 -1.92979 -0.887282 0
M  V30 4774 H 436.498 -0.833327 -0.451962 0
M  V30 4775 H 436.204 -2.76551 -2.17285 0
M  V30 4776 H 436.078 -1.55472 -3.43669 0
M  V30 4777 H 438.465 -0.75248 -2.85345 0
M  V30 4778 H 438.546 -1.99712 -1.5984 0
M  V30 4779 H 438.19 -3.78827 -3.38308 0
M  V30 4780 H 438.12 -2.51466 -4.6268 0
M  V30 4781 H 440.611 -2.14885 -3.10858 0
M  V30 4782 H 440.924 -4.89432 -5.98061 0
M  V30 4783 H 439.269 -4.39621 -5.38292 0
M  V30 4784 H 442.46 -2.73063 -3.80203 0
M  V30 4785 H 442.633 -3.9824 -5.11184 0
M  V30 4786 N 436.039 1.36541 -0.78704 0
M  V30 4787 C 437.316 1.9355 -0.282424 0
M  V30 4788 C 437.696 1.71919 1.22503 0
M  V30 4789 O 437.044 1.07677 2.01539 0
M  V30 4790 C 437.254 3.4246 -0.672462 0
M  V30 4791 C 438.602 4.19582 -0.650863 0
M  V30 4792 O 439.626 3.50889 -0.612789 0
M  V30 4793 O 438.485 5.42106 -0.691623 0
M  V30 4794 H 435.579 0.824091 -0.0693 0
M  V30 4795 H 438.125 1.45736 -0.869423 0
M  V30 4796 H 436.897 3.51851 -1.71221 0
M  V30 4797 H 436.52 3.97556 -0.0592211 0
M  V30 4798 N 437.518 0.538854 1.48102 0
M  V30 4799 C 438.448 -0.207654 2.32575 0
M  V30 4800 C 439.429 -0.926559 1.4265 0
M  V30 4801 O 440.614 -0.91061 1.71527 0
M  V30 4802 C 437.744 -1.24957 3.24042 0
M  V30 4803 C 436.698 -0.648263 4.23062 0
M  V30 4804 C 436.024 -1.79348 5.03725 0
M  V30 4805 C 437.324 0.385897 5.20872 0
M  V30 4806 H 439.018 0.497534 2.95237 0
M  V30 4807 H 436.564 0.240715 1.41974 0
M  V30 4808 H 438.517 -1.77983 3.81969 0
M  V30 4809 H 437.241 -1.98446 2.59397 0
M  V30 4810 H 435.9 -0.139452 3.66335 0
M  V30 4811 H 435.548 -2.51696 4.35498 0
M  V30 4812 H 435.248 -1.39702 5.70751 0
M  V30 4813 H 436.772 -2.32735 5.64506 0
M  V30 4814 H 438.186 -0.057607 5.73271 0
M  V30 4815 H 436.583 0.700227 5.96001 0
M  V30 4816 H 437.653 1.28848 4.67468 0
M  V30 4817 N 438.996 -1.55193 0.274407 0
M  V30 4818 C 439.926 -2.25471 -0.607032 0
M  V30 4819 C 440.907 -1.24461 -1.15946 0
M  V30 4820 O 442.092 -1.53179 -1.19373 0
M  V30 4821 C 439.222 -2.97526 -1.79153 0
M  V30 4822 C 438.176 -4.05459 -1.37067 0
M  V30 4823 C 437.502 -4.65084 -2.6382 0
M  V30 4824 C 438.802 -5.19691 -0.521389 0
M  V30 4825 H 440.496 -2.99393 -0.0209343 0
M  V30 4826 H 438.042 -1.43997 -0.00862866 0
M  V30 4827 H 439.995 -3.45402 -2.41404 0
M  V30 4828 H 438.719 -2.21138 -2.40344 0
M  V30 4829 H 437.378 -3.58393 -0.771355 0
M  V30 4830 H 437.026 -3.85365 -3.23268 0
M  V30 4831 H 436.726 -5.37961 -2.36372 0
M  V30 4832 H 438.25 -5.15708 -3.26921 0
M  V30 4833 H 439.664 -5.63623 -1.04889 0
M  V30 4834 H 438.061 -5.99126 -0.341825 0
M  V30 4835 H 439.131 -4.82713 0.46 0
M  V30 4836 N 440.474 -0.00167713 -1.576 0
M  V30 4837 C 441.699 0.69739 -1.95323 0
M  V30 4838 C 442.124 1.6642 -0.876706 0
M  V30 4839 O 441.482 1.80548 0.165007 0
M  V30 4840 C 441.53 1.40403 -3.32144 0
M  V30 4841 O 440.634 2.5185 -3.26566 0
M  V30 4842 H 439.975 0.185373 -0.637599 0
M  V30 4843 H 442.505 -0.0553665 -2.04525 0
M  V30 4844 H 442.515 1.76707 -3.67748 0
M  V30 4845 H 441.19 0.695167 -4.10049 0
M  V30 4846 H 439.767 2.17861 -3.0264 0
M  V30 4847 N 441.952 1.55251 0.271103 0
M  V30 4848 C 442.899 1.88261 1.33516 0
M  V30 4849 C 443.869 0.734296 1.48988 0
M  V30 4850 O 445.054 0.985741 1.63364 0
M  V30 4851 C 442.194 2.16168 2.69008 0
M  V30 4852 C 441.307 3.43678 2.61743 0
M  V30 4853 C 440.442 3.61276 3.89427 0
M  V30 4854 C 439.481 4.82472 3.7668 0
M  V30 4855 N 438.618 4.96717 4.96202 0
M  V30 4856 H 443.458 2.79015 1.04665 0
M  V30 4857 H 440.995 1.38137 0.505618 0
M  V30 4858 H 442.953 2.30349 3.47844 0
M  V30 4859 H 441.583 1.28646 2.96057 0
M  V30 4860 H 440.635 3.37959 1.74607 0
M  V30 4861 H 441.947 4.3265 2.48224 0
M  V30 4862 H 441.101 3.75284 4.76704 0
M  V30 4863 H 439.84 2.70492 4.05814 0
M  V30 4864 H 438.845 4.68465 2.87786 0
M  V30 4865 H 440.07 5.74692 3.61809 0
M  V30 4866 H 438.016 4.08865 5.12997 0
M  V30 4867 H 437.933 5.79738 4.85222 0
M  V30 4868 H 439.201 5.15113 5.85046 0
M  V30 4869 N 443.43 -0.535701 1.48216 0
M  V30 4870 C 444.363 -1.65726 1.56876 0
M  V30 4871 C 445.341 -1.57094 0.419542 0
M  V30 4872 O 446.525 -1.77648 0.630352 0
M  V30 4873 C 443.652 -3.04096 1.49142 0
M  V30 4874 C 442.698 -3.31105 2.68834 0
M  V30 4875 S 443.531 -3.18001 4.30854 0
M  V30 4876 C 444.687 -4.58828 4.25709 0
M  V30 4877 H 444.92 -1.58129 2.51759 0
M  V30 4878 H 442.453 -0.718218 1.36678 0
M  V30 4879 H 444.411 -3.839 1.45366 0
M  V30 4880 H 443.072 -3.09139 0.556067 0
M  V30 4881 H 442.265 -4.32033 2.59545 0
M  V30 4882 H 441.867 -2.58961 2.69843 0
M  V30 4883 H 444.159 -5.5023 3.95289 0
M  V30 4884 H 445.102 -4.73172 5.26796 0
M  V30 4885 H 445.51 -4.37883 3.56257 0
M  V30 4886 N 444.908 -1.36708 -0.784132 0
M  V30 4887 C 445.838 -1.34153 -1.91116 0
M  V30 4888 C 446.819 -0.212121 -1.68772 0
M  V30 4889 O 448.004 -0.410581 -1.8981 0
M  V30 4890 C 445.134 -1.13535 -3.28218 0
M  V30 4891 C 444.088 -2.23356 -3.65097 0
M  V30 4892 C 443.414 -1.87875 -5.00607 0
M  V30 4893 C 444.714 -3.65473 -3.73131 0
M  V30 4894 H 446.408 -2.28459 -1.93512 0
M  V30 4895 H 443.954 -1.09973 -0.929618 0
M  V30 4896 H 445.907 -1.10381 -4.06687 0
M  V30 4897 H 444.631 -0.156804 -3.26223 0
M  V30 4898 H 443.29 -2.25645 -2.88929 0
M  V30 4899 H 442.938 -0.885814 -4.95139 0
M  V30 4900 H 442.638 -2.61406 -5.26252 0
M  V30 4901 H 444.162 -1.86286 -5.81489 0
M  V30 4902 H 445.576 -3.65382 -4.41779 0
M  V30 4903 H 443.973 -4.37953 -4.10265 0
M  V30 4904 H 445.043 -3.99995 -2.74102 0
M  V30 4905 N 446.386 1.0089 -1.21074 0
M  V30 4906 C 447.632 1.74866 -1.02712 0
M  V30 4907 C 447.965 1.89178 0.438787 0
M  V30 4908 O 447.24 1.42325 1.32567 0
M  V30 4909 C 447.523 3.16347 -1.72036 0
M  V30 4910 C 447.376 3.09782 -3.26121 0
M  V30 4911 C 448.695 4.15187 -1.45973 0
M  V30 4912 H 445.814 0.634736 -0.374539 0
M  V30 4913 H 448.456 1.17646 -1.49196 0
M  V30 4914 H 446.606 3.65201 -1.32517 0
M  V30 4915 H 448.278 2.68673 -3.74983 0
M  V30 4916 H 446.521 2.46982 -3.56626 0
M  V30 4917 H 447.192 4.09829 -3.6979 0
M  V30 4918 H 449.668 3.75022 -1.80272 0
M  V30 4919 H 448.544 5.12331 -1.96999 0
M  V30 4920 H 448.805 4.40386 -0.388924 0
M  V30 4921 N 447.864 1.01787 1.20321 0
M  V30 4922 C 449.113 0.703249 1.89043 0
M  V30 4923 C 449.426 -0.770445 1.79787 0
M  V30 4924 O 450.632 -1.19767 2.43656 0
M  V30 4925 C 449.088 1.20749 3.3904 0
M  V30 4926 C 448.696 2.70817 3.56878 0
M  V30 4927 C 450.44 0.968352 4.13308 0
M  V30 4928 C 448.347 3.14716 5.00708 0
M  V30 4929 H 447.277 0.259354 0.707991 0
M  V30 4930 H 449.928 1.23072 1.36108 0
M  V30 4931 H 448.31 0.607989 3.91305 0
M  V30 4932 H 449.484 3.36327 3.14993 0
M  V30 4933 H 447.799 2.92888 2.95983 0
M  V30 4934 H 450.396 1.27173 5.19356 0
M  V30 4935 H 450.739 -0.095149 4.16191 0
M  V30 4936 H 451.272 1.53129 3.67146 0
M  V30 4937 H 448.011 4.20347 5.02979 0
M  V30 4938 H 447.531 2.53927 5.43398 0
M  V30 4939 H 449.21 3.07426 5.69296 0
M  V30 4940 N 449.342 -1.36122 0.79427 0
M  V30 4941 C 450.619 -1.93398 0.292685 0
M  V30 4942 C 450.999 -1.72567 -1.21589 0
M  V30 4943 O 450.347 -1.08745 -2.00965 0
M  V30 4944 C 450.557 -3.42099 0.690614 0
M  V30 4945 C 451.905 -4.19231 0.673105 0
M  V30 4946 O 452.929 -3.50559 0.631389 0
M  V30 4947 O 451.788 -5.41732 0.720362 0
M  V30 4948 H 448.882 -0.823712 0.0736693 0
M  V30 4949 H 451.428 -1.45273 0.87714 0
M  V30 4950 H 450.2 -3.50938 1.73085 0
M  V30 4951 H 449.823 -3.97519 0.0803036 0
M  V30 4952 N 450.82 -0.546701 -1.47814 0
M  V30 4953 C 451.783 0.196287 -2.28358 0
M  V30 4954 C 452.783 0.852437 -1.36346 0
M  V30 4955 O 453.973 0.709913 -1.59078 0
M  V30 4956 C 451.105 1.28579 -3.15722 0
M  V30 4957 H 452.298 -0.511086 -2.95513 0
M  V30 4958 H 449.851 -0.303248 -1.5333 0
M  V30 4959 H 450.586 2.0259 -2.53235 0
M  V30 4960 H 450.371 0.820229 -3.83425 0
M  V30 4961 H 451.861 1.80793 -3.76435 0
M  V30 4962 N 452.299 1.55045 -0.282633 0
M  V30 4963 C 453.524 2.04628 0.337977 0
M  V30 4964 C 453.949 1.15937 1.48123 0
M  V30 4965 O 453.307 0.159532 1.80597 0
M  V30 4966 C 453.355 3.51854 0.78936 0
M  V30 4967 O 452.459 3.66236 1.89592 0
M  V30 4968 H 451.8 0.660434 0.0687261 0
M  V30 4969 H 454.33 2.00261 -0.419124 0
M  V30 4970 H 454.34 3.93361 1.08311 0
M  V30 4971 H 453.015 4.15873 -0.0470419 0
M  V30 4972 H 451.592 3.36633 1.60413 0
M  V30 4973 N 453.777 0.010035 1.57597 0
M  V30 4974 C 454.724 -0.978122 2.09049 0
M  V30 4975 C 455.694 -1.33509 0.988159 0
M  V30 4976 O 456.879 -1.43172 1.26121 0
M  V30 4977 C 454.019 -2.26158 2.60666 0
M  V30 4978 C 453.132 -1.96275 3.84838 0
M  V30 4979 C 452.267 -3.18776 4.24918 0
M  V30 4980 C 451.306 -2.84625 5.41899 0
M  V30 4981 N 450.443 -3.99693 5.77226 0
M  V30 4982 H 455.283 -0.532431 2.93205 0
M  V30 4983 H 452.82 -0.251234 1.44939 0
M  V30 4984 H 454.778 -3.01202 2.88675 0
M  V30 4985 H 453.408 -2.68378 1.79369 0
M  V30 4986 H 452.46 -1.11555 3.63675 0
M  V30 4987 H 453.772 -1.67111 4.69974 0
M  V30 4988 H 452.926 -4.02157 4.54262 0
M  V30 4989 H 451.665 -3.51087 3.38511 0
M  V30 4990 H 450.67 -1.99653 5.12268 0
M  V30 4991 H 451.895 -2.53551 6.29991 0
M  V30 4992 H 449.841 -4.31882 4.93776 0
M  V30 4993 H 449.758 -3.74087 6.56959 0
M  V30 4994 H 451.026 -4.83834 6.11167 0
M  V30 4995 N 455.255 -1.55392 -0.262866 0
M  V30 4996 C 456.671 -1.47459 -0.610582 0
M  V30 4997 C 456.871 -0.697031 -1.8906 0
M  V30 4998 O 455.927 -0.219952 -2.5154 0
M  V30 4999 C 457.24 -2.91751 -0.728131 0
M  V30 5000 C 458.788 -3.02027 -0.821517 0
M  V30 5001 C 459.263 -4.47594 -0.97076 0
M  V30 5002 N 460.754 -4.51465 -1.03603 0
M  V30 5003 C 461.489 -5.61326 -1.17049 0
M  V30 5004 N 460.985 -6.81032 -1.2715 0
M  V30 5005 N 462.778 -5.49089 -1.20239 0
M  V30 5006 H 454.929 -2.04395 0.577632 0
M  V30 5007 H 457.192 -0.927287 0.197086 0
M  V30 5008 H 456.898 -3.51413 0.142132 0
M  V30 5009 H 456.772 -3.4134 -1.6052 0
M  V30 5010 H 459.159 -2.42456 -1.68224 0
M  V30 5011 H 459.24 -2.55674 0.0803688 0
M  V30 5012 H 458.884 -5.07771 -0.114655 0
M  V30 5013 H 458.814 -4.91613 -1.88745 0
M  V30 5014 H 461.305 -3.6524 -0.96996 0
M  V30 5015 H 461.618 -7.60511 -1.37271 0
M  V30 5016 H 459.963 -6.83824 -1.24136 0
M  V30 5017 H 463.154 -4.54507 -1.11985 0
M  V30 5018 H 463.327 -6.34749 -1.30373 0
M  V30 5019 N 456.733 0.527833 -1.48498 0
M  V30 5020 C 457.982 1.28003 -1.55878 0
M  V30 5021 C 458.295 1.9414 -0.238577 0
M  V30 5022 O 459.501 2.7083 -0.190643 0
M  V30 5023 C 457.957 2.32272 -2.74914 0
M  V30 5024 C 457.565 1.72196 -4.13585 0
M  V30 5025 C 459.309 3.08488 -2.91608 0
M  V30 5026 C 457.216 2.74417 -5.23879 0
M  V30 5027 H 456.146 0.481413 -0.580308 0
M  V30 5028 H 458.797 0.557195 -1.74836 0
M  V30 5029 H 457.179 3.07601 -2.49395 0
M  V30 5030 H 458.353 1.03041 -4.49132 0
M  V30 5031 H 456.668 1.08464 -4.02025 0
M  V30 5032 H 459.265 3.84879 -3.71177 0
M  V30 5033 H 459.608 3.64481 -2.01145 0
M  V30 5034 H 460.141 2.40274 -3.17038 0
M  V30 5035 H 456.88 2.23242 -6.16314 0
M  V30 5036 H 456.4 3.41893 -4.92818 0
M  V30 5037 H 458.079 3.37362 -5.52083 0
M  V30 5038 N 458.211 1.37122 0.776871 0
M  V30 5039 C 459.436 1.354 1.57104 0
M  V30 5040 C 459.861 -0.0595562 1.88006 0
M  V30 5041 O 459.219 -1.03514 1.48844 0
M  V30 5042 C 459.267 2.19472 2.8612 0
M  V30 5043 O 458.371 1.59582 3.80273 0
M  V30 5044 H 457.712 0.462869 0.476076 0
M  V30 5045 H 460.242 1.80577 0.961932 0
M  V30 5046 H 460.252 2.32502 3.35271 0
M  V30 5047 H 458.927 3.22222 2.62956 0
M  V30 5048 H 457.504 1.55564 3.38902 0
M  V30 5049 N 459.689 -1.00246 1.21608 0
M  V30 5050 C 460.935 -1.74319 1.03638 0
M  V30 5051 C 461.268 -1.89408 -0.428749 0
M  V30 5052 O 460.543 -1.43026 -1.3181 0
M  V30 5053 C 460.826 -3.15431 1.73711 0
M  V30 5054 C 460.679 -3.08049 3.27759 0
M  V30 5055 C 461.998 -4.14407 1.48173 0
M  V30 5056 H 459.117 -0.632741 0.377899 0
M  V30 5057 H 461.759 -1.16853 1.49818 0
M  V30 5058 H 459.909 -3.64493 1.34452 0
M  V30 5059 H 461.581 -2.66681 3.76403 0
M  V30 5060 H 459.824 -2.45088 3.57931 0
M  V30 5061 H 460.495 -4.07862 3.71958 0
M  V30 5062 H 462.971 -3.74061 1.82258 0
M  V30 5063 H 461.847 -5.11279 1.99713 0
M  V30 5064 H 462.108 -4.40174 0.412273 0
M  V30 5065 N 461.167 -1.02423 -1.1978 0
M  V30 5066 C 462.444 -0.632802 -1.85081 0
M  V30 5067 C 462.824 0.888745 -1.9148 0
M  V30 5068 O 462.172 1.78357 -1.42832 0
M  V30 5069 C 462.382 -1.28947 -3.24305 0
M  V30 5070 C 463.73 -1.40976 -4.00513 0
M  V30 5071 O 464.754 -1.24628 -3.33686 0
M  V30 5072 O 463.613 -1.67467 -5.20209 0
M  V30 5073 H 460.707 -0.219348 -0.79738 0
M  V30 5074 H 463.253 -1.12209 -1.27307 0
M  V30 5075 H 462.025 -2.3288 -3.14456 0
M  V30 5076 H 461.648 -0.787748 -3.89718 0
M  V30 5077 N 462.645 1.35699 -0.801477 0
M  V30 5078 C 463.555 2.33661 -0.209691 0
M  V30 5079 C 464.571 1.6162 0.644591 0
M  V30 5080 O 465.747 1.93529 0.557545 0
M  V30 5081 C 462.812 3.40816 0.636033 0
M  V30 5082 C 461.873 4.28639 -0.238147 0
M  V30 5083 C 461.106 5.30676 0.567307 0
M  V30 5084 O 461.329 5.41174 1.8024 0
M  V30 5085 O 460.263 6.01887 -0.0391336 0
M  V30 5086 H 464.089 2.8606 -1.01996 0
M  V30 5087 H 461.674 1.38379 -0.563164 0
M  V30 5088 H 463.556 4.06301 1.11791 0
M  V30 5089 H 462.231 2.90696 1.42399 0
M  V30 5090 H 461.138 3.66152 -0.767044 0
M  V30 5091 H 462.471 4.82143 -0.989915 0
M  V30 5092 N 464.123 0.554532 1.47522 0
M  V30 5093 C 465.086 -0.184174 2.28459 0
M  V30 5094 C 466.086 -0.845195 1.36796 0
M  V30 5095 O 467.276 -0.701467 1.59452 0
M  V30 5096 C 464.408 -1.26903 3.16399 0
M  V30 5097 H 465.601 0.526751 2.95238 0
M  V30 5098 H 463.154 0.311375 1.53167 0
M  V30 5099 H 463.889 -2.01244 2.54306 0
M  V30 5100 H 463.674 -0.799883 3.83854 0
M  V30 5101 H 465.164 -1.78794 3.77389 0
M  V30 5102 N 465.601 -1.54893 0.290851 0
M  V30 5103 C 466.531 -2.26103 -0.583084 0
M  V30 5104 C 467.512 -1.25684 -1.14619 0
M  V30 5105 O 468.697 -1.54436 -1.17741 0
M  V30 5106 C 465.827 -2.99409 -1.75987 0
M  V30 5107 C 464.781 -4.0689 -1.32758 0
M  V30 5108 C 464.107 -4.67856 -2.58872 0
M  V30 5109 C 465.407 -5.20215 -0.46624 0
M  V30 5110 H 467.101 -2.99398 0.0108214 0
M  V30 5111 H 464.647 -1.43998 0.00664468 0
M  V30 5112 H 466.6 -3.47943 -2.37727 0
M  V30 5113 H 465.324 -2.23675 -2.37985 0
M  V30 5114 H 463.983 -3.59191 -0.733299 0
M  V30 5115 H 463.631 -3.88772 -3.19163 0
M  V30 5116 H 463.331 -5.40438 -2.30653 0
M  V30 5117 H 464.855 -5.19147 -3.21433 0
M  V30 5118 H 466.269 -5.64704 -0.989047 0
M  V30 5119 H 464.666 -5.99455 -0.27826 0
M  V30 5120 H 465.736 -4.82198 0.511173 0
M  V30 5121 N 467.08 -0.0183926 -1.57589 0
M  V30 5122 C 468.012 0.995557 -2.06449 0
M  V30 5123 C 469.025 1.29556 -0.985849 0
M  V30 5124 O 470.214 1.2621 -1.26227 0
M  V30 5125 C 467.314 2.32572 -2.46502 0
M  V30 5126 C 466.487 2.21245 -3.77319 0
M  V30 5127 C 465.546 3.37104 -4.04039 0
M  V30 5128 O 464.572 3.14468 -4.74445 0
M  V30 5129 N 465.774 4.60553 -3.53372 0
M  V30 5130 H 468.539 0.578746 -2.94059 0
M  V30 5131 H 466.1 0.168603 -1.6102 0
M  V30 5132 H 468.092 3.08887 -2.61478 0
M  V30 5133 H 466.662 2.65931 -1.64315 0
M  V30 5134 H 465.882 1.29723 -3.72244 0
M  V30 5135 H 467.17 2.10868 -4.63047 0
M  V30 5136 H 466.568 4.81839 -2.96391 0
M  V30 5137 H 465.125 5.34072 -3.73644 0
M  V30 5138 N 468.558 1.5553 0.254621 0
M  V30 5139 C 469.508 1.86057 1.31783 0
M  V30 5140 C 470.492 0.720827 1.4385 0
M  V30 5141 O 471.684 0.982586 1.47222 0
M  V30 5142 C 468.813 2.15203 2.67475 0
M  V30 5143 C 467.899 3.35484 2.59444 0
M  V30 5144 N 468.29 4.54945 2.2104 0
M  V30 5145 C 466.588 3.38441 2.90472 0
M  V30 5146 C 467.289 5.3707 2.23453 0
M  V30 5147 N 466.265 4.75936 2.62652 0
M  V30 5148 H 470.067 2.75953 1.01129 0
M  V30 5149 H 467.581 1.55653 0.463255 0
M  V30 5150 H 469.578 2.35235 3.44195 0
M  V30 5151 H 468.238 1.26601 2.99002 0
M  V30 5152 H 469.249 4.8071 1.92712 0
M  V30 5153 H 465.926 2.60087 3.2659 0
M  V30 5154 H 467.316 6.42626 1.96166 0
M  V30 5155 N 470.036 -0.519951 1.48776 0
M  V30 5156 C 471.447 -1.10177 1.50725 0
M  V30 5157 C 471.798 -1.94153 0.282678 0
M  V30 5158 O 470.923 -2.07645 -0.609298 0
M  V30 5159 C 471.518 -2.00482 2.73116 0
M  V30 5160 C 470.077 -2.53862 2.77905 0
M  V30 5161 C 469.224 -1.31047 2.44381 0
M  V30 5162 H 472.175 -0.30473 1.55747 0
M  V30 5163 H 472.196 -2.8491 2.52203 0
M  V30 5164 H 471.708 -1.39335 3.62225 0
M  V30 5165 H 469.809 -3.18702 1.93029 0
M  V30 5166 H 469.922 -2.9231 3.79594 0
M  V30 5167 H 468.286 -1.62953 1.95751 0
M  V30 5168 H 469.069 -0.71637 3.35743 0
M  V30 5169 N 471.514 -1.37532 -0.769588 0
M  V30 5170 C 472.744 -1.35861 -1.55645 0
M  V30 5171 C 473.152 0.0574398 -1.89113 0
M  V30 5172 O 472.495 1.03021 -1.52093 0
M  V30 5173 C 472.557 -2.13431 -2.89288 0
M  V30 5174 C 472.221 -3.62378 -2.78444 0
M  V30 5175 C 473.218 -4.56215 -2.49326 0
M  V30 5176 C 470.903 -4.05529 -2.96398 0
M  V30 5177 C 472.897 -5.91181 -2.38294 0
M  V30 5178 C 470.584 -5.40579 -2.84987 0
M  V30 5179 C 471.582 -6.33218 -2.55975 0
M  V30 5180 O 471.27 -7.65787 -2.44594 0
M  V30 5181 H 471.002 -0.467001 -0.48876 0
M  V30 5182 H 473.556 -1.81505 -0.961515 0
M  V30 5183 H 471.786 -1.62481 -3.50909 0
M  V30 5184 H 473.475 -2.04368 -3.50697 0
M  V30 5185 H 474.241 -4.24187 -2.35139 0
M  V30 5186 H 470.12 -3.33781 -3.1798 0
M  V30 5187 H 473.664 -6.63457 -2.15571 0
M  V30 5188 H 469.561 -5.72209 -2.98743 0
M  V30 5189 H 470.329 -7.76132 -2.59927 0
M  V30 5190 N 472.992 0.995999 -1.22138 0
M  V30 5191 C 474.241 1.72928 -1.03821 0
M  V30 5192 C 474.554 1.90872 0.427444 0
M  V30 5193 O 475.76 2.61496 0.730212 0
M  V30 5194 C 474.216 3.11124 -1.80913 0
M  V30 5195 C 473.824 3.01122 -3.31707 0
M  V30 5196 C 475.568 3.8852 -1.71035 0
M  V30 5197 C 473.475 4.34453 -4.01253 0
M  V30 5198 H 472.405 0.648376 -0.384869 0
M  V30 5199 H 475.056 1.11213 -1.45959 0
M  V30 5200 H 473.438 3.73503 -1.31573 0
M  V30 5201 H 474.612 2.47926 -3.88419 0
M  V30 5202 H 472.927 2.3721 -3.42228 0
M  V30 5203 H 475.524 4.872 -2.20318 0
M  V30 5204 H 475.867 4.1087 -0.670196 0
M  V30 5205 H 476.4 3.32812 -2.17902 0
M  V30 5206 H 473.139 4.17303 -5.05508 0
M  V30 5207 H 472.659 4.87574 -3.49331 0
M  V30 5208 H 474.338 5.03215 -4.06674 0
M  V30 5209 N 474.47 1.03057 1.19235 0
M  V30 5210 C 475.418 0.606391 2.24557 0
M  V30 5211 C 476.412 -0.361826 1.65491 0
M  V30 5212 O 477.618 -0.23022 1.78522 0
M  V30 5213 H 473.993 0.177838 0.730669 0
M  V30 5214 H 475.964 1.50529 2.5765 0
M  V30 5215 C 474.713 -0.0252127 3.47691 0
M  V30 5216 H 474.036 0.710838 3.9343 0
M  V30 5217 H 475.476 -0.284931 4.23042 0
M  V30 5218 C 473.935 -1.27229 3.11953 0
M  V30 5219 O 474.465 -2.36416 3.24762 0
M  V30 5220 N 472.671 -1.16169 2.6637 0
M  V30 5221 H 472.218 -0.273189 2.56147 0
M  V30 5222 H 472.176 -1.99703 2.42829 0
M  V30 5223 N 475.948 -1.35272 0.808662 0
M  V30 5224 C 477.194 -1.99003 0.390581 0
M  V30 5225 C 477.527 -1.63999 -1.0401 0
M  V30 5226 O 476.802 -0.904368 -1.72196 0
M  V30 5227 C 477.085 -3.55454 0.576566 0
M  V30 5228 C 476.938 -4.00249 2.05233 0
M  V30 5229 C 478.257 -4.401 0.00354277 0
M  V30 5230 H 475.376 -0.722917 0.143388 0
M  V30 5231 H 478.018 -1.6039 1.01858 0
M  V30 5232 H 476.168 -3.88477 0.0419766 0
M  V30 5233 H 477.84 -3.77626 2.64946 0
M  V30 5234 H 476.083 -3.51082 2.54801 0
M  V30 5235 H 476.754 -5.0911 2.13333 0
M  V30 5236 H 479.23 -4.13548 0.460117 0
M  V30 5237 H 478.106 -5.48656 0.163575 0
M  V30 5238 H 478.367 -4.28444 -1.09032 0
M  V30 5239 N 477.426 -0.562348 -1.47226 0
M  V30 5240 C 478.672 -0.0485293 -2.03342 0
M  V30 5241 C 479.027 1.28898 -1.42839 0
M  V30 5242 O 478.32 1.82719 -0.576563 0
M  V30 5243 C 478.514 0.0969817 -3.57268 0
M  V30 5244 C 478.343 -1.22487 -4.32697 0
M  V30 5245 C 477.113 -1.79357 -4.72397 0
M  V30 5246 C 479.311 -2.14332 -4.67511 0
M  V30 5247 N 477.293 -3.05493 -5.32491 0
M  V30 5248 C 478.664 -3.25049 -5.27961 0
M  V30 5249 C 480.719 -2.14263 -4.4944 0
M  V30 5250 C 479.422 -4.35804 -5.72248 0
M  V30 5251 C 481.448 -3.24033 -4.94729 0
M  V30 5252 C 480.81 -4.3347 -5.55233 0
M  V30 5253 H 476.909 -0.0600464 -0.779691 0
M  V30 5254 H 479.493 -0.750769 -1.79643 0
M  V30 5255 H 477.664 0.768353 -3.80724 0
M  V30 5256 H 479.396 0.613333 -4.00025 0
M  V30 5257 H 476.151 -1.33093 -4.54514 0
M  V30 5258 H 476.575 -3.698 -5.67077 0
M  V30 5259 H 481.217 -1.30935 -4.02015 0
M  V30 5260 H 478.935 -5.19888 -6.18661 0
M  V30 5261 H 482.521 -3.25073 -4.82513 0
M  V30 5262 H 481.401 -5.17008 -5.89638 0
M  V30 5263 N 478.904 1.54736 -0.299062 0
M  V30 5264 C 480.134 2.04215 0.312992 0
M  V30 5265 C 480.542 1.17596 1.48215 0
M  V30 5266 O 479.885 0.193835 1.82674 0
M  V30 5267 C 479.947 3.49696 0.833862 0
M  V30 5268 C 479.611 4.56518 -0.20977 0
M  V30 5269 C 480.608 5.09442 -1.03756 0
M  V30 5270 C 478.293 5.01073 -0.35091 0
M  V30 5271 C 480.287 6.05459 -1.99244 0
M  V30 5272 C 477.974 5.9691 -1.30924 0
M  V30 5273 C 478.972 6.48987 -2.1285 0
M  V30 5274 O 478.66 7.42947 -3.07059 0
M  V30 5275 H 478.392 0.672128 0.0722494 0
M  V30 5276 H 480.946 2.00718 -0.436043 0
M  V30 5277 H 479.176 3.5051 1.63339 0
M  V30 5278 H 480.865 3.82381 1.36159 0
M  V30 5279 H 481.631 4.75816 -0.939376 0
M  V30 5280 H 477.51 4.60168 0.276813 0
M  V30 5281 H 481.054 6.46031 -2.63229 0
M  V30 5282 H 476.951 6.29953 -1.40815 0
M  V30 5283 H 477.719 7.60743 -3.02015 0
M  V30 5284 N 480.382 0.0267497 1.57577 0
M  V30 5285 C 481.659 -0.690926 1.82991 0
M  V30 5286 C 482.039 -1.90471 0.910164 0
M  V30 5287 O 481.387 -2.28474 -0.0347985 0
M  V30 5288 C 481.597 -1.07139 3.32148 0
M  V30 5289 C 482.945 -1.46402 3.98562 0
M  V30 5290 O 483.969 -1.16443 3.36629 0
M  V30 5291 O 482.828 -2.02214 5.07712 0
M  V30 5292 H 479.922 -0.338747 0.75444 0
M  V30 5293 H 482.468 0.0542506 1.69613 0
M  V30 5294 H 481.24 -0.207394 3.9075 0
M  V30 5295 H 480.863 -1.87481 3.50623 0
M  V30 5296 N 481.861 -1.55662 -0.24637 0
M  V30 5297 C 483.272 -1.67953 -0.81539 0
M  V30 5298 C 483.623 -0.624302 -1.86002 0
M  V30 5299 O 482.748 0.229328 -2.15181 0
M  V30 5300 C 483.343 -3.04484 -1.48576 0
M  V30 5301 C 481.902 -3.18713 -2.00248 0
M  V30 5302 C 481.049 -2.6383 -0.853766 0
M  V30 5303 H 484 -1.58685 -0.0221692 0
M  V30 5304 H 484.021 -2.98959 -2.3538 0
M  V30 5305 H 483.533 -3.81264 -0.725222 0
M  V30 5306 H 481.634 -2.46757 -2.79181 0
M  V30 5307 H 481.747 -4.25628 -2.1995 0
M  V30 5308 H 480.111 -2.21667 -1.25442 0
M  V30 5309 H 480.894 -3.43135 -0.106302 0
M  V30 5310 N 483.339 0.512053 -1.4905 0
M  V30 5311 C 484.564 1.2959 -1.6193 0
M  V30 5312 C 484.989 1.85906 -0.286454 0
M  V30 5313 O 484.347 1.65312 0.744426 0
M  V30 5314 C 484.395 2.40987 -2.68249 0
M  V30 5315 O 483.499 3.44531 -2.26654 0
M  V30 5316 H 482.84 0.383053 -0.542371 0
M  V30 5317 H 485.37 0.614231 -1.95162 0
M  V30 5318 H 485.38 2.86913 -2.90078 0
M  V30 5319 H 484.055 1.99361 -3.65004 0
M  V30 5320 H 482.632 3.046 -2.15112 0
M  V30 5321 N 484.817 1.37938 0.762283 0
M  V30 5322 C 485.727 1.36681 1.90671 0
M  V30 5323 C 486.743 0.265078 1.71969 0
M  V30 5324 O 487.919 0.502055 1.95042 0
M  V30 5325 C 484.984 1.18211 3.25925 0
M  V30 5326 C 484.045 2.3811 3.57214 0
M  V30 5327 C 483.278 2.20512 4.86014 0
M  V30 5328 O 483.501 1.19429 5.57757 0
M  V30 5329 O 482.435 3.08911 5.16583 0
M  V30 5330 H 486.261 2.33091 1.94685 0
M  V30 5331 H 483.846 1.18767 0.906356 0
M  V30 5332 H 485.728 1.09937 4.06807 0
M  V30 5333 H 484.403 0.248807 3.22742 0
M  V30 5334 H 483.31 2.51958 2.76529 0
M  V30 5335 H 484.643 3.30041 3.65149 0
M  V30 5336 N 486.295 -0.989507 1.22664 0
M  V30 5337 C 487.258 -2.06183 1.00106 0
M  V30 5338 C 488.258 -1.60765 -0.0337726 0
M  V30 5339 O 489.448 -1.72989 0.205072 0
M  V30 5340 C 486.58 -3.37021 0.51279 0
M  V30 5341 H 487.773 -2.27629 1.95256 0
M  V30 5342 H 485.326 -1.16158 1.0458 0
M  V30 5343 H 486.061 -3.21261 -0.442917 0
M  V30 5344 H 485.846 -3.71323 1.25942 0
M  V30 5345 H 487.336 -4.1591 0.375315 0
M  V30 5346 N 487.773 -1.03688 -1.18687 0
M  V30 5347 C 488.683 -0.634908 -2.25845 0
M  V30 5348 C 489.699 0.337065 -1.70704 0
M  V30 5349 O 490.875 0.192943 -2.00474 0
M  V30 5350 C 487.94 -0.000180054 -3.467 0
M  V30 5351 C 487.001 -1.02067 -4.1699 0
M  V30 5352 C 486.234 -0.41614 -5.32075 0
M  V30 5353 O 486.457 0.778712 -5.65059 0
M  V30 5354 O 485.391 -1.14296 -5.90948 0
M  V30 5355 H 489.217 -1.52757 -2.62486 0
M  V30 5356 H 486.802 -0.807533 -1.25695 0
M  V30 5357 H 488.684 0.353342 -4.19916 0
M  V30 5358 H 487.359 0.866367 -3.11891 0
M  V30 5359 H 486.266 -1.42592 -3.45859 0
M  V30 5360 H 487.599 -1.85786 -4.5579 0
M  V30 5361 N 489.251 1.34841 -0.815825 0
M  V30 5362 C 490.214 2.27959 -0.238185 0
M  V30 5363 C 491.214 1.49983 0.579816 0
M  V30 5364 O 492.404 1.69617 0.396953 0
M  V30 5365 C 489.536 3.34314 0.666876 0
M  V30 5366 H 490.729 2.80558 -1.05958 0
M  V30 5367 H 488.282 1.44852 -0.587156 0
M  V30 5368 H 489.017 2.86916 1.5116 0
M  V30 5369 H 488.802 3.92014 0.0819106 0
M  V30 5370 H 490.292 4.0379 1.06506 0
M  V30 5371 N 490.729 0.570148 1.46925 0
M  V30 5372 C 492.14 0.1402 1.86173 0
M  V30 5373 C 492.491 -1.29347 1.47526 0
M  V30 5374 O 491.616 -1.97508 0.884292 0
M  V30 5375 C 492.211 0.247661 3.37894 0
M  V30 5376 C 490.77 -0.127332 3.76185 0
M  V30 5377 C 489.917 0.589349 2.70965 0
M  V30 5378 H 492.868 0.779117 1.38259 0
M  V30 5379 H 492.889 -0.530341 3.76786 0
M  V30 5380 H 492.401 1.29121 3.65991 0
M  V30 5381 H 490.502 -1.17149 3.53704 0
M  V30 5382 H 490.615 0.240238 4.78497 0
M  V30 5383 H 488.979 0.0309824 2.54681 0
M  V30 5384 H 489.762 1.6343 3.01903 0
M  V30 5385 N 492.207 -1.54576 0.307264 0
M  V30 5386 C 493.618 -1.8579 -0.184121 0
M  V30 5387 C 493.969 -1.22914 -1.52927 0
M  V30 5388 O 493.094 -0.529126 -2.09831 0
M  V30 5389 C 493.689 -3.37081 -0.340862 0
M  V30 5390 C 492.248 -3.68304 -0.776465 0
M  V30 5391 C 491.395 -2.77076 0.111503 0
M  V30 5392 H 494.346 -1.49656 0.528078 0
M  V30 5393 H 494.367 -3.61922 -1.17443 0
M  V30 5394 H 493.879 -3.82815 0.638309 0
M  V30 5395 H 491.98 -3.28092 -1.76596 0
M  V30 5396 H 492.093 -4.75434 -0.591512 0
M  V30 5397 H 490.457 -2.51374 -0.410256 0
M  V30 5398 H 491.24 -3.25632 1.08714 0
M  V30 5399 N 493.685 -0.035106 -1.57561 0
M  V30 5400 C 495.096 0.502885 -1.798 0
M  V30 5401 C 495.447 1.71892 -0.945921 0
M  V30 5402 O 494.572 2.15822 -0.157991 0
M  V30 5403 C 495.167 0.919097 -3.26095 0
M  V30 5404 C 493.726 1.40216 -3.49308 0
M  V30 5405 C 492.873 0.369709 -2.74824 0
M  V30 5406 H 495.824 -0.261102 -1.56537 0
M  V30 5407 H 495.845 1.78308 -3.36135 0
M  V30 5408 H 495.357 0.0338526 -3.88085 0
M  V30 5409 H 493.458 2.30714 -2.92578 0
M  V30 5410 H 493.571 1.40541 -4.58023 0
M  V30 5411 H 491.935 0.839113 -2.40481 0
M  V30 5412 H 492.718 -0.507173 -3.39533 0
M  V30 5413 N 495.163 1.55791 0.238111 0
M  V30 5414 C 496.11 1.9105 1.29493 0
M  V30 5415 C 497.08 0.765733 1.47397 0
M  V30 5416 O 498.265 1.02017 1.61236 0
M  V30 5417 C 495.405 2.21826 2.64362 0
M  V30 5418 C 494.518 3.49153 2.54394 0
M  V30 5419 C 493.653 3.69455 3.81676 0
M  V30 5420 C 492.692 4.90353 3.66361 0
M  V30 5421 N 491.829 5.07131 4.85554 0
M  V30 5422 H 496.669 2.81172 0.987233 0
M  V30 5423 H 494.206 1.39179 0.476203 0
M  V30 5424 H 496.164 2.37675 3.4288 0
M  V30 5425 H 494.794 1.34897 2.93262 0
M  V30 5426 H 493.846 3.41587 1.67399 0
M  V30 5427 H 495.158 4.37818 2.38991 0
M  V30 5428 H 494.312 3.85311 4.68636 0
M  V30 5429 H 493.051 2.7904 3.99985 0
M  V30 5430 H 492.056 4.74464 2.77784 0
M  V30 5431 H 493.281 5.82237 3.49538 0
M  V30 5432 H 491.227 4.19654 5.04209 0
M  V30 5433 H 491.144 5.89899 4.72816 0
M  V30 5434 H 492.412 5.27407 5.73988 0
M  V30 5435 N 496.642 -0.504142 1.49319 0
M  V30 5436 C 497.891 -1.25507 1.57895 0
M  V30 5437 C 498.204 -1.93735 0.269433 0
M  V30 5438 O 499.41 -2.70492 0.233706 0
M  V30 5439 C 497.866 -2.27869 2.78574 0
M  V30 5440 C 497.474 -1.65594 4.16272 0
M  V30 5441 C 499.218 -3.0381 2.96479 0
M  V30 5442 C 497.125 -2.66048 5.28178 0
M  V30 5443 H 496.055 -0.47212 0.587894 0
M  V30 5444 H 498.706 -0.52931 1.757 0
M  V30 5445 H 497.088 -3.03594 2.54257 0
M  V30 5446 H 498.262 -0.958826 4.50714 0
M  V30 5447 H 496.577 -1.02055 4.037 0
M  V30 5448 H 499.174 -3.78925 3.77253 0
M  V30 5449 H 499.517 -3.61235 2.06918 0
M  V30 5450 H 500.05 -2.352 3.20821 0
M  V30 5451 H 496.789 -2.13408 6.19788 0
M  V30 5452 H 496.309 -3.34009 4.98195 0
M  V30 5453 H 497.988 -3.28536 5.57381 0
M  V30 5454 N 498.12 -1.38341 -0.754957 0
M  V30 5455 C 499.531 -1.30803 -1.3322 0
M  V30 5456 C 499.882 0.0368 -1.96165 0
M  V30 5457 O 499.007 0.938844 -1.94974 0
M  V30 5458 C 499.602 -2.3688 -2.42225 0
M  V30 5459 C 498.161 -2.32925 -2.95674 0
M  V30 5460 C 497.308 -2.19819 -1.69042 0
M  V30 5461 H 500.259 -1.48719 -0.553937 0
M  V30 5462 H 500.28 -2.02517 -3.22129 0
M  V30 5463 H 499.792 -3.34747 -1.96383 0
M  V30 5464 H 497.893 -1.38635 -3.45848 0
M  V30 5465 H 498.006 -3.27008 -3.50146 0
M  V30 5466 H 496.37 -1.66648 -1.92615 0
M  V30 5467 H 497.153 -3.19625 -1.25279 0
M  V30 5468 N 499.598 0.982988 -1.23187 0
M  V30 5469 C 500.875 1.69814 -0.970707 0
M  V30 5470 C 501.255 2.04811 0.511424 0
M  V30 5471 O 500.603 1.73924 1.48198 0
M  V30 5472 C 500.813 2.94143 -1.87831 0
M  V30 5473 C 502.161 3.66712 -2.14026 0
M  V30 5474 O 503.185 3.04171 -1.8536 0
M  V30 5475 O 502.044 4.79258 -2.62629 0
M  V30 5476 H 499.138 0.741659 -0.365884 0
M  V30 5477 H 501.684 1.03844 -1.34218 0
M  V30 5478 H 500.456 2.64858 -2.88038 0
M  V30 5479 H 500.079 3.6785 -1.50905 0
M  V30 5480 N 501.076 1.04316 1.18135 0
M  V30 5481 C 502.023 0.636398 2.21853 0
M  V30 5482 C 502.993 -0.357039 1.62217 0
M  V30 5483 O 504.178 -0.250453 1.89149 0
M  V30 5484 C 501.318 0.00812779 3.45099 0
M  V30 5485 C 500.431 1.04933 4.19062 0
M  V30 5486 C 499.566 0.389313 5.29771 0
M  V30 5487 C 498.605 1.41544 5.9551 0
M  V30 5488 N 497.742 0.78021 6.97751 0
M  V30 5489 H 502.582 1.52536 2.56002 0
M  V30 5490 H 500.119 0.76304 1.25762 0
M  V30 5491 H 502.077 -0.373497 4.15525 0
M  V30 5492 H 500.707 -0.844336 3.11562 0
M  V30 5493 H 499.759 1.54888 3.47439 0
M  V30 5494 H 501.071 1.82862 4.64072 0
M  V30 5495 H 500.225 -0.0463805 6.06682 0
M  V30 5496 H 498.964 -0.422038 4.8587 0
M  V30 5497 H 497.969 1.86124 5.17337 0
M  V30 5498 H 499.194 2.22854 6.41493 0
M  V30 5499 H 497.14 -0.0107899 6.55999 0
M  V30 5500 H 497.057 1.49716 7.41027 0
M  V30 5501 H 498.325 0.368996 7.78626 0
M  V30 5502 N 502.554 -1.34406 0.822964 0
M  V30 5503 C 503.486 -2.28305 0.202375 0
M  V30 5504 C 504.499 -1.5103 -0.60777 0
M  V30 5505 O 505.688 -1.73057 -0.437444 0
M  V30 5506 C 502.788 -3.30836 -0.734911 0
M  V30 5507 C 501.961 -4.37388 0.0324177 0
M  V30 5508 C 501.02 -5.1968 -0.825803 0
M  V30 5509 O 500.046 -5.68556 -0.270771 0
M  V30 5510 N 501.248 -5.39393 -2.14558 0
M  V30 5511 H 504.013 -2.82201 1.00909 0
M  V30 5512 H 501.574 -1.4693 0.67993 0
M  V30 5513 H 503.566 -3.82786 -1.31365 0
M  V30 5514 H 502.136 -2.77334 -1.44238 0
M  V30 5515 H 501.356 -3.86152 0.792469 0
M  V30 5516 H 502.644 -5.05702 0.560633 0
M  V30 5517 H 502.042 -5.01357 -2.62025 0
M  V30 5518 H 500.599 -5.94461 -2.67318 0
M  V30 5519 N 504.032 -0.577932 -1.46621 0
M  V30 5520 C 504.962 0.145917 -2.33044 0
M  V30 5521 C 505.943 0.888412 -1.45056 0
M  V30 5522 O 507.128 0.864812 -1.73881 0
M  V30 5523 C 504.258 1.16322 -3.27241 0
M  V30 5524 C 503.212 0.535868 -4.24632 0
M  V30 5525 C 502.538 1.65929 -5.08303 0
M  V30 5526 C 503.838 -0.523861 -5.19666 0
M  V30 5527 H 505.532 -0.575636 -2.93814 0
M  V30 5528 H 503.078 -0.278272 -1.41286 0
M  V30 5529 H 505.031 1.67793 -3.86553 0
M  V30 5530 H 503.755 1.91498 -2.64567 0
M  V30 5531 H 502.414 0.0422759 -3.66576 0
M  V30 5532 H 502.062 2.40061 -4.42018 0
M  V30 5533 H 501.762 1.2452 -5.74255 0
M  V30 5534 H 503.286 2.17686 -5.70478 0
M  V30 5535 H 504.7 -0.0944059 -5.73222 0
M  V30 5536 H 503.097 -0.858 -5.93935 0
M  V30 5537 H 504.167 -1.41197 -4.63887 0
M  V30 5538 N 505.51 1.54411 -0.315457 0
M  V30 5539 C 506.787 1.92562 0.343398 0
M  V30 5540 C 507.167 1.24423 1.70535 0
M  V30 5541 O 506.515 0.385051 2.25232 0
M  V30 5542 C 506.725 3.46168 0.443687 0
M  V30 5543 C 508.073 4.18659 0.707783 0
M  V30 5544 O 509.097 3.52281 0.52693 0
M  V30 5545 O 507.956 5.36198 1.05612 0
M  V30 5546 H 505.05 0.80379 0.194552 0
M  V30 5547 H 507.596 1.65738 -0.364577 0
M  V30 5548 H 506.368 3.8792 -0.513172 0
M  V30 5549 H 505.991 3.79073 1.19956 0
M  V30 5550 N 506.988 0.0434614 1.5754 0
M  V30 5551 C 507.898 -0.94893 2.14552 0
M  V30 5552 C 508.914 -1.34707 1.10136 0
M  V30 5553 O 510.09 -1.42557 1.42266 0
M  V30 5554 C 507.155 -2.208 2.67298 0
M  V30 5555 C 506.216 -1.86893 3.86484 0
M  V30 5556 C 505.449 -3.06797 4.36705 0
M  V30 5557 O 505.672 -4.19921 3.86034 0
M  V30 5558 O 504.606 -2.8826 5.28384 0
M  V30 5559 H 508.432 -0.494099 2.99654 0
M  V30 5560 H 506.017 -0.177989 1.48336 0
M  V30 5561 H 507.899 -2.94686 3.01228 0
M  V30 5562 H 506.574 -2.65436 1.85272 0
M  V30 5563 H 505.481 -1.10347 3.57455 0
M  V30 5564 H 506.814 -1.47062 4.69716 0
M  V30 5565 N 508.466 -1.55915 -0.229846 0
M  V30 5566 C 509.882 -1.48721 -0.579166 0
M  V30 5567 C 510.082 -0.736976 -1.87539 0
M  V30 5568 O 509.138 -0.273258 -2.51017 0
M  V30 5569 C 510.451 -2.9323 -0.666082 0
M  V30 5570 C 511.999 -3.03701 -0.757267 0
M  V30 5571 C 512.474 -4.49552 -0.8756 0
M  V30 5572 N 513.965 -4.53561 -0.940035 0
M  V30 5573 C 514.7 -5.63683 -1.05116 0
M  V30 5574 N 514.196 -6.83576 -1.12675 0
M  V30 5575 N 515.989 -5.51516 -1.08565 0
M  V30 5576 H 508.14 -2.03123 0.620857 0
M  V30 5577 H 510.403 -0.922898 0.21671 0
M  V30 5578 H 510.109 -3.51032 0.21664 0
M  V30 5579 H 509.983 -3.44668 -1.53243 0
M  V30 5580 H 512.37 -2.45969 -1.63043 0
M  V30 5581 H 512.451 -2.55446 0.134583 0
M  V30 5582 H 512.095 -5.079 -0.00692351 0
M  V30 5583 H 512.025 -4.95506 -1.78274 0
M  V30 5584 H 514.516 -3.67215 -0.892269 0
M  V30 5585 H 514.829 -7.63251 -1.21109 0
M  V30 5586 H 513.174 -6.86303 -1.09603 0
M  V30 5587 H 516.365 -4.5678 -1.02319 0
M  V30 5588 H 516.538 -6.37372 -1.1688 0
M  V30 5589 N 509.944 0.496216 -1.49584 0
M  V30 5590 C 510.854 1.62352 -1.69349 0
M  V30 5591 C 511.87 1.64184 -0.576147 0
M  V30 5592 O 513.046 1.82517 -0.85144 0
M  V30 5593 C 510.111 2.98698 -1.76013 0
M  V30 5594 C 509.172 3.07454 -2.99617 0
M  V30 5595 C 508.405 4.37296 -3.05953 0
M  V30 5596 O 508.628 5.2637 -2.19752 0
M  V30 5597 O 507.562 4.51124 -3.9846 0
M  V30 5598 H 511.388 1.48606 -2.64859 0
M  V30 5599 H 508.973 0.673022 -1.33382 0
M  V30 5600 H 510.855 3.79725 -1.82721 0
M  V30 5601 H 509.53 3.12696 -0.836828 0
M  V30 5602 H 508.437 2.25597 -2.98424 0
M  V30 5603 H 509.77 2.98385 -3.91443 0
M  V30 5604 N 511.423 1.38739 0.74761 0
M  V30 5605 C 512.373 1.32948 1.85226 0
M  V30 5606 C 513.357 0.212642 1.59489 0
M  V30 5607 O 514.549 0.449121 1.71207 0
M  V30 5608 C 511.678 1.16279 3.23008 0
M  V30 5609 C 510.764 2.32611 3.54617 0
M  V30 5610 N 511.155 3.58065 3.57244 0
M  V30 5611 C 509.453 2.25293 3.84914 0
M  V30 5612 C 510.154 4.34919 3.8629 0
M  V30 5613 N 509.13 3.64348 4.03425 0
M  V30 5614 H 512.932 2.27927 1.85544 0
M  V30 5615 H 510.446 1.32056 0.945253 0
M  V30 5616 H 512.443 1.10214 4.02068 0
M  V30 5617 H 511.103 0.222394 3.23937 0
M  V30 5618 H 512.114 3.91656 3.3886 0
M  V30 5619 H 508.791 1.39446 3.93524 0
M  V30 5620 H 510.181 5.43605 3.94896 0
M  V30 5621 N 512.901 -0.976442 1.23707 0
M  V30 5622 C 514.129 -1.75341 1.09833 0
M  V30 5623 C 514.544 -1.8553 -0.349885 0
M  V30 5624 O 513.901 -1.33732 -1.24185 0
M  V30 5625 C 513.952 -3.17833 1.72233 0
M  V30 5626 O 513.673 -3.08167 3.11391 0
M  V30 5627 C 515.174 -4.11906 1.63853 0
M  V30 5628 H 512.394 -0.550137 0.384175 0
M  V30 5629 H 514.938 -1.2265 1.63638 0
M  V30 5630 H 513.093 -3.67538 1.22452 0
M  V30 5631 H 513.507 -3.97897 3.41729 0
M  V30 5632 H 514.981 -5.09579 2.12211 0
M  V30 5633 H 515.458 -4.35109 0.598092 0
M  V30 5634 H 516.064 -3.68107 2.13019 0
M  V30 5635 N 514.379 -1.04941 -1.1758 0
M  V30 5636 C 515.628 -0.753124 -1.87112 0
M  V30 5637 C 515.941 0.722507 -1.81767 0
M  V30 5638 O 517.147 1.13265 -2.46746 0
M  V30 5639 C 515.603 -1.29695 -3.35719 0
M  V30 5640 C 515.211 -2.80184 -3.49572 0
M  V30 5641 C 516.955 -1.07759 -4.10595 0
M  V30 5642 C 514.862 -3.2788 -4.92187 0
M  V30 5643 H 513.792 -0.278034 -0.700866 0
M  V30 5644 H 516.443 -1.26637 -1.32798 0
M  V30 5645 H 514.825 -0.711522 -3.89555 0
M  V30 5646 H 515.999 -3.44561 -3.05965 0
M  V30 5647 H 514.314 -3.00632 -2.88113 0
M  V30 5648 H 516.911 -1.40899 -5.15802 0
M  V30 5649 H 517.254 -0.0152302 -4.16297 0
M  V30 5650 H 517.787 -1.62809 -3.62957 0
M  V30 5651 H 514.526 -4.33535 -4.91658 0
M  V30 5652 H 514.046 -2.68245 -5.36475 0
M  V30 5653 H 515.725 -3.22412 -5.60945 0
M  V30 5654 N 515.857 1.33968 -0.830081 0
M  V30 5655 C 516.767 2.33164 -0.259207 0
M  V30 5656 C 517.783 1.62951 0.610164 0
M  V30 5657 O 518.959 1.94668 0.516369 0
M  V30 5658 C 516.024 3.42088 0.563598 0
M  V30 5659 C 515.085 4.28037 -0.329014 0
M  V30 5660 C 514.318 5.3176 0.454616 0
M  V30 5661 O 514.541 5.44876 1.6872 0
M  V30 5662 O 513.475 6.01669 -0.166794 0
M  V30 5663 H 517.301 2.83832 -1.08041 0
M  V30 5664 H 514.886 1.37154 -0.59239 0
M  V30 5665 H 516.768 4.08581 1.03147 0
M  V30 5666 H 515.443 2.93651 1.36201 0
M  V30 5667 H 514.35 3.64443 -0.844538 0
M  V30 5668 H 515.683 4.79934 -1.09196 0
M  V30 5669 N 517.335 0.585699 1.46312 0
M  V30 5670 C 518.245 -0.148236 2.34131 0
M  V30 5671 C 519.261 -0.882972 1.49932 0
M  V30 5672 O 520.437 -0.845484 1.82794 0
M  V30 5673 C 517.502 -1.14714 3.27172 0
M  V30 5674 C 516.563 -0.416746 4.27272 0
M  V30 5675 C 515.796 -1.36806 5.15868 0
M  V30 5676 O 516.019 -2.60475 5.07454 0
M  V30 5677 O 514.953 -0.877018 5.95476 0
M  V30 5678 H 518.779 0.572882 2.98248 0
M  V30 5679 H 516.364 0.346082 1.45336 0
M  V30 5680 H 518.246 -1.72303 3.84564 0
M  V30 5681 H 516.921 -1.84967 2.65648 0
M  V30 5682 H 515.828 0.201061 3.73559 0
M  V30 5683 H 517.161 0.244872 4.9159 0
M  V30 5684 N 518.813 -1.54241 0.323641 0
M  V30 5685 C 520.059 -2.01572 -0.272089 0
M  V30 5686 C 520.414 -1.20774 -1.49771 0
M  V30 5687 O 519.707 -0.281821 -1.89516 0
M  V30 5688 C 519.901 -3.5129 -0.658031 0
M  V30 5689 C 519.73 -4.46582 0.528645 0
M  V30 5690 C 518.5 -4.94737 1.02777 0
M  V30 5691 C 520.698 -4.95416 1.38086 0
M  V30 5692 N 518.68 -5.73933 2.17885 0
M  V30 5693 C 520.051 -5.72537 2.3791 0
M  V30 5694 C 522.106 -4.77559 1.40861 0
M  V30 5695 C 520.809 -6.33702 3.40314 0
M  V30 5696 C 522.835 -5.39559 2.42136 0
M  V30 5697 C 522.197 -6.16532 3.40688 0
M  V30 5698 H 518.296 -0.779425 -0.0634072 0
M  V30 5699 H 520.88 -1.8922 0.458697 0
M  V30 5700 H 519.051 -3.63888 -1.35795 0
M  V30 5701 H 520.783 -3.85388 -1.23524 0
M  V30 5702 H 517.538 -4.69796 0.599046 0
M  V30 5703 H 517.962 -6.18209 2.75947 0
M  V30 5704 H 522.604 -4.17611 0.660352 0
M  V30 5705 H 520.322 -6.9277 4.16047 0
M  V30 5706 H 523.908 -5.27659 2.45086 0
M  V30 5707 H 522.788 -6.63655 4.1777 0
M  V30 5708 N 520.291 -0.0518155 -1.57515 0
M  V30 5709 C 521.238 0.922352 -2.11569 0
M  V30 5710 C 522.208 1.30842 -1.02321 0
M  V30 5711 O 523.393 1.39778 -1.29872 0
M  V30 5712 C 520.533 2.19167 -2.6657 0
M  V30 5713 C 519.646 1.86003 -3.89906 0
M  V30 5714 C 518.781 3.07398 -4.33221 0
M  V30 5715 C 517.82 2.70158 -5.49255 0
M  V30 5716 N 516.957 3.84248 -5.8762 0
M  V30 5717 H 521.797 0.454506 -2.94514 0
M  V30 5718 H 519.334 0.212718 -1.45554 0
M  V30 5719 H 521.292 2.93443 -2.96559 0
M  V30 5720 H 519.922 2.63528 -1.86421 0
M  V30 5721 H 518.974 1.01874 -3.66505 0
M  V30 5722 H 520.286 1.54592 -4.74239 0
M  V30 5723 H 519.44 3.89972 -4.64765 0
M  V30 5724 H 518.179 3.41988 -3.477 0
M  V30 5725 H 517.184 1.86001 -5.17382 0
M  V30 5726 H 518.409 2.36759 -6.36492 0
M  V30 5727 H 516.355 4.18638 -5.05053 0
M  V30 5728 H 516.272 3.56538 -6.66646 0
M  V30 5729 H 517.54 4.6746 -6.2378 0
M  V30 5730 N 521.769 1.56035 0.221574 0
M  V30 5731 C 522.679 1.95581 1.29558 0
M  V30 5732 C 523.695 0.859639 1.51282 0
M  V30 5733 O 524.871 1.16321 1.64413 0
M  V30 5734 C 521.936 2.26447 2.62531 0
M  V30 5735 C 520.997 3.49632 2.4911 0
M  V30 5736 C 520.23 3.79017 3.75742 0
M  V30 5737 O 520.453 3.10077 4.78757 0
M  V30 5738 O 519.387 4.72507 3.72855 0
M  V30 5739 H 523.213 2.8711 0.990035 0
M  V30 5740 H 520.798 1.43244 0.424434 0
M  V30 5741 H 522.68 2.47494 3.41064 0
M  V30 5742 H 521.355 1.38092 2.92766 0
M  V30 5743 H 520.262 3.33864 1.68777 0
M  V30 5744 H 521.595 4.3837 2.23814 0
M  V30 5745 N 523.247 -0.488276 1.49845 0
M  V30 5746 C 524.177 -1.59675 1.70371 0
M  V30 5747 C 525.158 -1.60878 0.552473 0
M  V30 5748 O 526.343 -1.77417 0.78973 0
M  V30 5749 C 523.473 -2.98098 1.782 0
M  V30 5750 C 522.427 -3.11761 2.93239 0
M  V30 5751 C 521.753 -4.51661 2.86193 0
M  V30 5752 C 523.053 -2.90589 4.33999 0
M  V30 5753 H 524.747 -1.42752 2.63177 0
M  V30 5754 H 522.293 -0.685317 1.26647 0
M  V30 5755 H 524.246 -3.75555 1.91144 0
M  V30 5756 H 522.97 -3.16138 0.820018 0
M  V30 5757 H 521.629 -2.36732 2.79917 0
M  V30 5758 H 521.277 -4.66595 1.87877 0
M  V30 5759 H 520.977 -4.61742 3.63412 0
M  V30 5760 H 522.501 -5.31162 3.01163 0
M  V30 5761 H 523.915 -3.57807 4.47936 0
M  V30 5762 H 522.312 -3.1213 5.12538 0
M  V30 5763 H 523.382 -1.86595 4.4756 0
M  V30 5764 N 524.725 -1.39134 -0.740242 0
M  V30 5765 C 525.974 -1.35384 -1.49512 0
M  V30 5766 C 526.287 0.04919 -1.95538 0
M  V30 5767 O 527.493 0.209257 -2.70692 0
M  V30 5768 C 525.949 -2.37812 -2.70136 0
M  V30 5769 C 525.557 -3.83804 -2.31081 0
M  V30 5770 C 527.301 -2.4313 -3.47977 0
M  V30 5771 C 525.208 -4.77886 -3.48395 0
M  V30 5772 H 524.138 -0.503297 -0.561434 0
M  V30 5773 H 526.789 -1.64754 -0.807974 0
M  V30 5774 H 525.171 -2.01505 -3.40899 0
M  V30 5775 H 526.345 -4.29123 -1.67898 0
M  V30 5776 H 524.66 -3.81732 -1.66343 0
M  V30 5777 H 527.257 -3.10614 -4.35228 0
M  V30 5778 H 527.6 -1.45423 -3.90074 0
M  V30 5779 H 528.133 -2.78304 -2.84239 0
M  V30 5780 H 524.872 -5.76836 -3.11353 0
M  V30 5781 H 524.392 -4.3725 -4.10576 0
M  V30 5782 H 526.071 -4.96538 -4.148 0
M  V30 5783 N 526.204 0.969867 -1.24223 0
M  V30 5784 C 527.434 1.74502 -1.106 0
M  V30 5785 C 527.842 1.86038 0.344483 0
M  V30 5786 O 527.185 1.3465 1.24961 0
M  V30 5787 C 527.247 3.18391 -1.66935 0
M  V30 5788 C 526.911 3.30334 -3.15798 0
M  V30 5789 C 527.908 3.15832 -4.12973 0
M  V30 5790 C 525.593 3.54644 -3.55715 0
M  V30 5791 C 527.587 3.25461 -5.48045 0
M  V30 5792 C 525.274 3.63912 -4.90929 0
M  V30 5793 C 526.272 3.49332 -5.86904 0
M  V30 5794 O 525.96 3.58251 -7.1966 0
M  V30 5795 H 525.692 0.554119 -0.387206 0
M  V30 5796 H 528.246 1.22646 -1.64764 0
M  V30 5797 H 526.476 3.71543 -1.07203 0
M  V30 5798 H 528.165 3.77707 -1.48634 0
M  V30 5799 H 528.931 2.96937 -3.83476 0
M  V30 5800 H 524.81 3.65059 -2.81519 0
M  V30 5801 H 528.354 3.13998 -6.22937 0
M  V30 5802 H 524.251 3.82319 -5.20098 0
M  V30 5803 H 525.019 3.7498 -7.27552 0
M  V30 5804 N 527.682 1.05563 1.17022 0
M  V30 5805 C 528.629 0.659893 2.21165 0
M  V30 5806 C 529.599 -0.339813 1.62587 0
M  V30 5807 O 530.784 -0.230378 1.89404 0
M  V30 5808 C 527.924 0.0447297 3.45071 0
M  V30 5809 C 527.037 1.09372 4.17926 0
M  V30 5810 C 526.172 0.445481 5.29329 0
M  V30 5811 C 525.211 1.47852 5.93975 0
M  V30 5812 N 524.348 0.854172 6.96885 0
M  V30 5813 H 529.188 1.55243 2.54369 0
M  V30 5814 H 526.725 0.776336 1.24946 0
M  V30 5815 H 528.683 -0.329404 4.15898 0
M  V30 5816 H 527.313 -0.811244 3.1244 0
M  V30 5817 H 526.365 1.58564 3.45777 0
M  V30 5818 H 527.677 1.87773 4.62107 0
M  V30 5819 H 526.831 0.0179688 6.06697 0
M  V30 5820 H 525.57 -0.370481 4.86291 0
M  V30 5821 H 524.575 1.91601 5.15334 0
M  V30 5822 H 525.8 2.29645 6.39093 0
M  V30 5823 H 523.746 0.0587882 6.55974 0
M  V30 5824 H 523.663 1.57567 7.39397 0
M  V30 5825 H 524.931 0.451559 7.78191 0
M  V30 5826 N 529.16 -1.33526 0.837174 0
M  V30 5827 C 530.07 -2.33023 0.271568 0
M  V30 5828 C 531.086 -1.63272 -0.601514 0
M  V30 5829 O 532.262 -1.94939 -0.506038 0
M  V30 5830 C 529.327 -3.42382 -0.545448 0
M  V30 5831 C 528.388 -4.27857 0.351709 0
M  V30 5832 C 527.621 -5.31994 -0.426409 0
M  V30 5833 O 527.844 -5.45763 -1.65828 0
M  V30 5834 O 526.778 -6.01572 0.1987 0
M  V30 5835 H 530.604 -2.83256 1.09545 0
M  V30 5836 H 528.189 -1.36837 0.599655 0
M  V30 5837 H 530.071 -4.09122 -1.00979 0
M  V30 5838 H 528.746 -2.94369 -1.34641 0
M  V30 5839 H 527.653 -3.6399 0.863853 0
M  V30 5840 H 528.986 -4.79349 1.1174 0
M  V30 5841 N 530.638 -0.59345 -1.46 0
M  V30 5842 C 531.884 -0.0832754 -2.02629 0
M  V30 5843 C 532.217 1.27749 -1.46266 0
M  V30 5844 O 531.492 1.8395 -0.631866 0
M  V30 5845 C 531.775 -0.0290756 -3.60088 0
M  V30 5846 C 531.628 -1.41951 -4.26814 0
M  V30 5847 C 532.947 0.666055 -4.35031 0
M  V30 5848 H 530.066 -0.031736 -0.736316 0
M  V30 5849 H 532.708 -0.762711 -1.74019 0
M  V30 5850 H 530.858 0.549532 -3.84594 0
M  V30 5851 H 532.53 -2.04411 -4.13538 0
M  V30 5852 H 530.773 -1.98422 -3.8576 0
M  V30 5853 H 531.444 -1.33395 -5.3564 0
M  V30 5854 H 533.92 0.174401 -4.15734 0
M  V30 5855 H 532.796 0.673041 -5.44758 0
M  V30 5856 H 533.057 1.72946 -4.06869 0
M  V30 5857 N 532.116 1.54067 -0.331816 0
M  V30 5858 C 533.049 2.20886 0.573127 0
M  V30 5859 C 534.027 1.18876 1.10938 0
M  V30 5860 O 535.211 1.47649 1.17184 0
M  V30 5861 C 532.338 2.87706 1.78726 0
M  V30 5862 C 531.384 4.03505 1.38152 0
M  V30 5863 S 532.217 5.33919 0.41123 0
M  V30 5864 C 533.373 6.04236 1.63246 0
M  V30 5865 H 533.606 2.97299 0.00555737 0
M  V30 5866 H 531.139 1.53964 -0.115893 0
M  V30 5867 H 533.097 3.26825 2.48386 0
M  V30 5868 H 531.758 2.1108 2.32603 0
M  V30 5869 H 530.951 4.49152 2.28645 0
M  V30 5870 H 530.553 3.66102 0.764524 0
M  V30 5871 H 532.845 6.26917 2.56869 0
M  V30 5872 H 533.788 6.97546 1.218 0
M  V30 5873 H 534.196 5.34247 1.82318 0
M  V30 5874 N 533.594 0.0601682 1.57485 0
M  V30 5875 C 534.871 -0.651956 1.84415 0
M  V30 5876 C 535.251 -1.88498 0.950361 0
M  V30 5877 O 534.599 -2.28496 0.0136719 0
M  V30 5878 C 534.809 -1.00069 3.34346 0
M  V30 5879 C 536.157 -1.37915 4.01578 0
M  V30 5880 O 537.181 -1.09277 3.39024 0
M  V30 5881 O 536.04 -1.91399 5.11887 0
M  V30 5882 H 533.134 -0.322668 0.761455 0
M  V30 5883 H 535.68 0.0902159 1.6946 0
M  V30 5884 H 534.452 -0.124463 3.91102 0
M  V30 5885 H 534.075 -1.80001 3.54521 0
M  V30 5886 N 535.072 -1.5615 -0.213296 0
M  V30 5887 C 536.002 -1.96109 -1.26742 0
M  V30 5888 C 536.983 -0.830448 -1.48451 0
M  V30 5889 O 538.168 -1.09339 -1.60495 0
M  V30 5890 C 535.298 -2.28492 -2.61551 0
M  V30 5891 C 534.252 -3.44124 -2.54485 0
M  V30 5892 C 533.578 -3.62134 -3.93399 0
M  V30 5893 C 534.878 -4.78855 -2.08556 0
M  V30 5894 H 536.572 -2.84412 -0.935434 0
M  V30 5895 H 534.118 -1.36836 -0.44854 0
M  V30 5896 H 536.071 -2.55039 -3.3546 0
M  V30 5897 H 534.795 -1.37052 -2.96453 0
M  V30 5898 H 533.454 -3.17639 -1.83033 0
M  V30 5899 H 533.102 -2.68055 -4.25623 0
M  V30 5900 H 532.802 -4.39913 -3.89551 0
M  V30 5901 H 534.326 -3.91038 -4.68958 0
M  V30 5902 H 535.74 -5.04552 -2.72213 0
M  V30 5903 H 534.137 -5.59975 -2.1575 0
M  V30 5904 H 535.207 -4.73657 -1.03811 0
M  V30 5905 N 536.55 0.480323 -1.50102 0
M  V30 5906 C 537.46 1.60547 -1.71061 0
M  V30 5907 C 538.476 1.63564 -0.593529 0
M  V30 5908 O 539.652 1.81604 -0.870751 0
M  V30 5909 C 536.717 2.96814 -1.79171 0
M  V30 5910 C 535.778 3.04259 -3.02861 0
M  V30 5911 C 535.011 4.34027 -3.10574 0
M  V30 5912 O 535.234 5.24009 -2.25323 0
M  V30 5913 O 534.168 4.46873 -4.03223 0
M  V30 5914 H 537.994 1.45788 -2.6642 0
M  V30 5915 H 535.579 0.658838 -1.34088 0
M  V30 5916 H 537.461 3.77765 -1.86738 0
M  V30 5917 H 536.136 3.11791 -0.869947 0
M  V30 5918 H 535.043 2.22419 -3.008 0
M  V30 5919 H 536.376 2.94216 -3.94586 0
M  V30 5920 N 538.028 1.39524 0.732853 0
M  V30 5921 C 538.938 1.40695 1.87729 0
M  V30 5922 C 539.954 0.301496 1.71368 0
M  V30 5923 O 541.13 0.543313 1.93933 0
M  V30 5924 C 538.195 1.25098 3.23344 0
M  V30 5925 C 537.256 2.45634 3.52083 0
M  V30 5926 C 536.489 2.30772 4.81228 0
M  V30 5927 O 536.712 1.31233 5.55098 0
M  V30 5928 O 535.646 3.19799 5.09914 0
M  V30 5929 H 539.472 2.37168 1.89697 0
M  V30 5930 H 537.057 1.20663 0.880959 0
M  V30 5931 H 538.939 1.18541 4.04383 0
M  V30 5932 H 537.614 0.317209 3.22142 0
M  V30 5933 H 536.521 2.57767 2.71122 0
M  V30 5934 H 537.854 3.37712 3.58066 0
M  V30 5935 N 539.506 -0.963266 1.24736 0
M  V30 5936 C 540.922 -1.23273 1.01371 0
M  V30 5937 C 541.122 -1.99618 -0.274776 0
M  V30 5938 O 540.178 -2.32293 -0.989769 0
M  V30 5939 C 541.491 -2.01554 2.23152 0
M  V30 5940 C 543.039 -2.14629 2.27823 0
M  V30 5941 C 543.514 -2.96307 3.49237 0
M  V30 5942 N 545.005 -3.03887 3.49581 0
M  V30 5943 C 545.74 -3.67456 4.40186 0
M  V30 5944 N 545.236 -4.32706 5.41052 0
M  V30 5945 N 547.029 -3.64511 4.27888 0
M  V30 5946 H 539.18 -0.452294 2.07528 0
M  V30 5947 H 541.443 -0.262521 0.910926 0
M  V30 5948 H 541.149 -1.52847 3.1675 0
M  V30 5949 H 541.023 -3.02278 2.25628 0
M  V30 5950 H 543.41 -2.62537 1.34753 0
M  V30 5951 H 543.491 -1.13238 2.2937 0
M  V30 5952 H 543.135 -2.49091 4.42624 0
M  V30 5953 H 543.065 -3.97905 3.44933 0
M  V30 5954 H 545.556 -2.57477 2.76611 0
M  V30 5955 H 545.869 -4.79042 6.06415 0
M  V30 5956 H 544.214 -4.31361 5.44934 0
M  V30 5957 H 547.405 -3.12715 3.4832 0
M  V30 5958 H 547.578 -4.13768 4.98698 0
M  V30 5959 N 540.985 -1.06182 -1.16461 0
M  V30 5960 C 542.213 -0.798583 -1.90867 0
M  V30 5961 C 542.628 0.646921 -1.77371 0
M  V30 5962 O 541.985 1.44279 -1.11758 0
M  V30 5963 C 542.036 -1.18258 -3.4161 0
M  V30 5964 O 541.757 -2.57135 -3.54701 0
M  V30 5965 C 543.258 -0.946917 -4.33069 0
M  V30 5966 H 540.478 -0.289603 -0.605286 0
M  V30 5967 H 543.022 -1.41515 -1.47627 0
M  V30 5968 H 541.177 -0.610562 -3.82558 0
M  V30 5969 H 541.591 -2.72477 -4.4817 0
M  V30 5970 H 543.065 -1.26523 -5.37304 0
M  V30 5971 H 543.542 0.117406 -4.39043 0
M  V30 5972 H 544.148 -1.50326 -3.97847 0
M  V30 5973 N 542.463 1.3308 -0.844243 0
M  V30 5974 C 543.41 2.29104 -0.279323 0
M  V30 5975 C 544.38 1.54577 0.607882 0
M  V30 5976 O 545.565 1.8285 0.545009 0
M  V30 5977 C 542.705 3.40927 0.53508 0
M  V30 5978 C 541.818 4.30354 -0.376749 0
M  V30 5979 C 540.953 5.29297 0.449276 0
M  V30 5980 C 539.992 6.10365 -0.460606 0
M  V30 5981 N 539.129 7.01335 0.327612 0
M  V30 5982 H 543.969 2.76817 -1.10346 0
M  V30 5983 H 541.506 1.36203 -0.555611 0
M  V30 5984 H 543.464 4.04469 1.02278 0
M  V30 5985 H 542.094 2.94391 1.32414 0
M  V30 5986 H 541.146 3.67485 -0.982791 0
M  V30 5987 H 542.458 4.87067 -1.07549 0
M  V30 5988 H 541.612 5.98392 1.00058 0
M  V30 5989 H 540.351 4.73174 1.18143 0
M  V30 5990 H 539.356 5.40182 -1.02388 0
M  V30 5991 H 540.581 6.68571 -1.1912 0
M  V30 5992 H 538.527 6.47655 1.04305 0
M  V30 5993 H 538.444 7.55355 -0.3123 0
M  V30 5994 H 539.712 7.74731 0.86098 0
M  V30 5995 N 543.941 0.601185 1.45683 0
M  V30 5996 C 544.889 -0.133955 2.32214 0
M  V30 5997 C 545.883 -0.866034 1.45589 0
M  V30 5998 O 547.089 -0.782326 1.6211 0
M  V30 5999 H 543.464 -0.0620613 0.749435 0
M  V30 6000 H 545.435 0.614389 2.92007 0
M  V30 6001 C 544.184 -1.12216 3.29094 0
M  V30 6002 H 543.507 -0.568273 3.95741 0
M  V30 6003 H 544.947 -1.60659 3.92383 0
M  V30 6004 C 543.406 -2.19251 2.55794 0
M  V30 6005 O 543.936 -3.26894 2.33459 0
M  V30 6006 N 542.142 -1.9436 2.16039 0
M  V30 6007 H 541.689 -1.06829 2.34404 0
M  V30 6008 H 541.647 -2.66181 1.67318 0
M  V30 6009 N 545.419 -1.53889 0.339982 0
M  V30 6010 C 546.667 -2.00458 -0.257112 0
M  V30 6011 C 546.988 -1.22953 -1.51353 0
M  V30 6012 O 546.258 -0.335734 -1.93002 0
M  V30 6013 H 544.838 -0.740544 -0.0979965 0
M  V30 6014 H 547.5 -1.89386 0.460317 0
M  V30 6015 H 546.596 -3.08035 -0.502057 0
M  V30 6016 N 546.897 -0.0685191 -1.57451 0
M  V30 6017 C 548.143 0.602239 -1.93652 0
M  V30 6018 C 548.476 1.6946 -0.948526 0
M  V30 6019 O 547.751 1.94487 0.022782 0
M  V30 6020 C 548.034 1.18223 -3.4014 0
M  V30 6021 C 547.887 0.0967431 -4.49696 0
M  V30 6022 C 549.206 2.08872 -3.87377 0
M  V30 6023 H 546.325 0.217453 -0.70419 0
M  V30 6024 H 548.967 -0.133821 -1.89528 0
M  V30 6025 H 547.117 1.80953 -3.43785 0
M  V30 6026 H 548.789 -0.536155 -4.58174 0
M  V30 6027 H 547.032 -0.573063 -4.29998 0
M  V30 6028 H 547.703 0.542894 -5.49324 0
M  V30 6029 H 550.179 1.56081 -3.85717 0
M  V30 6030 H 549.055 2.46389 -4.90493 0
M  V30 6031 H 549.316 2.99572 -3.25129 0
M  V30 6032 N 548.375 1.56261 0.205012 0
M  V30 6033 C 549.624 1.79236 0.925058 0
M  V30 6034 C 549.937 0.640011 1.84833 0
M  V30 6035 O 551.143 0.753809 2.60826 0
M  V30 6036 C 549.599 3.17475 1.69522 0
M  V30 6037 C 549.207 4.40482 0.817269 0
M  V30 6038 C 550.951 3.49766 2.4055 0
M  V30 6039 C 548.858 5.69744 1.58573 0
M  V30 6040 H 547.788 0.668287 0.349153 0
M  V30 6041 H 550.439 1.82629 0.178544 0
M  V30 6042 H 548.821 3.08304 2.48526 0
M  V30 6043 H 549.995 4.60752 0.0665988 0
M  V30 6044 H 548.31 4.15827 0.218316 0
M  V30 6045 H 550.907 4.43573 2.98575 0
M  V30 6046 H 551.25 2.73041 3.14252 0
M  V30 6047 H 551.783 3.60341 1.68522 0
M  V30 6048 H 548.522 6.49407 0.891679 0
M  V30 6049 H 548.042 5.53509 2.31059 0
M  V30 6050 H 549.721 6.1051 2.14212 0
M  V30 6051 N 549.853 -0.472356 1.50355 0
M  V30 6052 C 551.269 -0.806001 1.37753 0
M  V30 6053 C 551.469 -1.968 0.432649 0
M  V30 6054 O 550.525 -2.52189 -0.12519 0
M  V30 6055 C 551.838 -1.11926 2.79093 0
M  V30 6056 C 553.386 -1.22579 2.87999 0
M  V30 6057 C 553.861 -1.57218 4.3017 0
M  V30 6058 N 555.352 -1.64212 4.33115 0
M  V30 6059 C 556.087 -1.92517 5.40116 0
M  V30 6060 N 555.583 -2.1885 6.57325 0
M  V30 6061 N 557.376 -1.94008 5.27558 0
M  V30 6062 H 549.527 0.293451 2.10363 0
M  V30 6063 H 551.79 0.0687672 0.945503 0
M  V30 6064 H 551.496 -0.338504 3.50067 0
M  V30 6065 H 551.37 -2.05577 3.16256 0
M  V30 6066 H 553.757 -1.99722 2.17245 0
M  V30 6067 H 553.838 -0.269107 2.54381 0
M  V30 6068 H 553.482 -0.806154 5.01461 0
M  V30 6069 H 553.412 -2.54034 4.61275 0
M  V30 6070 H 555.903 -1.45906 3.48597 0
M  V30 6071 H 556.216 -2.39718 7.3468 0
M  V30 6072 H 554.561 -2.16245 6.60502 0
M  V30 6073 H 557.752 -1.72931 4.34986 0
M  V30 6074 H 557.925 -2.15731 6.11035 0
M  V30 6075 N 551.331 -1.39911 -0.725443 0
M  V30 6076 C 552.579 -1.37382 -1.48224 0
M  V30 6077 C 552.9 0.0264107 -1.94982 0
M  V30 6078 O 552.17 0.979408 -1.6966 0
M  V30 6079 H 550.75 -0.505596 -0.549892 0
M  V30 6080 H 553.412 -1.7487 -0.860608 0
M  V30 6081 H 552.508 -2.04254 -2.3598 0
M  V30 6082 N 552.809 0.956637 -1.25245 0
M  V30 6083 C 553.741 2.05628 -1.01242 0
M  V30 6084 C 554.754 1.62785 0.0219579 0
M  V30 6085 O 555.943 1.77184 -0.216365 0
M  V30 6086 C 553.043 3.35069 -0.508161 0
M  V30 6087 C 552.216 4.06761 -1.60823 0
M  V30 6088 C 551.275 5.14473 -1.1047 0
M  V30 6089 O 550.301 5.40033 -1.79868 0
M  V30 6090 N 551.503 5.80474 0.0550773 0
M  V30 6091 H 554.268 2.2679 -1.95925 0
M  V30 6092 H 551.829 1.12505 -1.16423 0
M  V30 6093 H 553.821 4.044 -0.155819 0
M  V30 6094 H 552.391 3.10694 0.344683 0
M  V30 6095 H 551.611 3.31555 -2.13224 0
M  V30 6096 H 552.899 4.51418 -2.34733 0
M  V30 6097 H 552.297 5.62125 0.635004 0
M  V30 6098 H 550.854 6.50868 0.348469 0
M  V30 6099 N 554.287 1.06798 1.15896 0
M  V30 6100 C 555.698 0.811355 1.68149 0
M  V30 6101 C 556.049 -0.664339 1.8461 0
M  V30 6102 O 555.174 -1.51485 1.54535 0
M  V30 6103 C 555.769 1.46624 3.05429 0
M  V30 6104 C 554.328 1.25726 3.54781 0
M  V30 6105 C 553.475 1.53949 2.3064 0
M  V30 6106 H 556.426 1.23078 1.00187 0
M  V30 6107 H 556.447 0.88437 3.7008 0
M  V30 6108 H 555.959 2.54025 2.93416 0
M  V30 6109 H 554.06 0.20322 3.72045 0
M  V30 6110 H 554.173 1.97354 4.36564 0
M  V30 6111 H 552.537 0.96025 2.35905 0
M  V30 6112 H 553.32 2.6252 2.2122 0
M  V30 6113 N 555.766 -1.3263 0.851289 0
M  V30 6114 C 556.991 -2.02097 0.466006 0
M  V30 6115 C 557.416 -1.63574 -0.928709 0
M  V30 6116 O 556.774 -0.834665 -1.60944 0
M  V30 6117 C 556.822 -3.55425 0.608737 0
M  V30 6118 O 555.926 -4.10827 -0.359878 0
M  V30 6119 H 555.267 -0.636911 0.187724 0
M  V30 6120 H 557.797 -1.69253 1.14955 0
M  V30 6121 H 557.807 -4.04986 0.495006 0
M  V30 6122 H 556.482 -3.82806 1.62581 0
M  V30 6123 H 555.059 -3.72349 -0.202666 0
M  V30 6124 N 557.244 -0.608902 -1.45362 0
M  V30 6125 C 558.655 -0.189511 -1.85736 0
M  V30 6126 C 559.006 1.2539 -1.50903 0
M  V30 6127 O 558.131 1.95094 -0.936347 0
M  V30 6128 C 558.726 -0.33716 -3.37118 0
M  V30 6129 C 557.285 0.0275487 -3.7639 0
M  V30 6130 C 556.432 -0.660983 -2.69307 0
M  V30 6131 H 559.383 -0.815499 -1.36144 0
M  V30 6132 H 559.404 0.430257 -3.7806 0
M  V30 6133 H 558.916 -1.38779 -3.62439 0
M  V30 6134 H 557.017 1.0773 -3.56686 0
M  V30 6135 H 557.13 -0.367018 -4.77692 0
M  V30 6136 H 555.494 -0.0984958 -2.54509 0
M  V30 6137 H 556.277 -1.71377 -2.97464 0
M  V30 6138 N 558.722 1.53707 -0.348139 0
M  V30 6139 C 559.652 2.28111 0.498766 0
M  V30 6140 C 560.633 1.29851 1.09876 0
M  V30 6141 O 561.818 1.587 1.11928 0
M  V30 6142 C 558.948 3.05735 1.64753 0
M  V30 6143 C 557.902 4.11537 1.17565 0
M  V30 6144 C 557.228 4.77142 2.4133 0
M  V30 6145 C 558.528 5.21587 0.272844 0
M  V30 6146 H 560.222 2.99152 -0.121934 0
M  V30 6147 H 557.768 1.43875 -0.0600842 0
M  V30 6148 H 559.721 3.56526 2.24649 0
M  V30 6149 H 558.445 2.32354 2.2952 0
M  V30 6150 H 557.104 3.61665 0.599483 0
M  V30 6151 H 556.752 4.0035 3.04514 0
M  V30 6152 H 556.452 5.48626 2.10436 0
M  V30 6153 H 557.976 5.30719 3.01943 0
M  V30 6154 H 559.39 5.67986 0.778779 0
M  V30 6155 H 557.787 6.00074 0.0555849 0
M  V30 6156 H 558.857 4.79969 -0.689785 0
M  V30 6157 N 560.2 0.0768682 1.57412 0
M  V30 6158 C 561.448 -0.589918 1.93299 0
M  V30 6159 C 561.769 -1.69842 0.958049 0
M  V30 6160 O 561.039 -1.95899 0.00703261 0
M  V30 6161 H 559.619 -0.220901 0.713591 0
M  V30 6162 H 562.281 0.135917 1.94425 0
M  V30 6163 H 561.377 -1.01195 2.95239 0
M  V30 6164 N 561.678 -1.56367 -0.196722 0
M  V30 6165 C 562.641 -1.93561 -1.22746 0
M  V30 6166 C 563.641 -0.816566 -1.38524 0
M  V30 6167 O 564.831 -1.084 -1.36363 0
M  V30 6168 C 561.963 -2.20823 -2.59712 0
M  V30 6169 H 563.156 -2.85774 -0.909586 0
M  V30 6170 H 560.709 -1.50032 -0.438174 0
M  V30 6171 H 561.444 -1.31243 -2.96557 0
M  V30 6172 H 561.229 -3.02368 -2.49632 0
M  V30 6173 H 562.719 -2.50608 -3.34044 0
M  V30 6174 N 563.156 0.464375 -1.50603 0
M  V30 6175 C 564.119 1.54393 -1.69397 0
M  V30 6176 C 565.119 1.50566 -0.564504 0
M  V30 6177 O 566.309 1.53066 -0.831645 0
M  V30 6178 C 563.441 2.9401 -1.72543 0
M  V30 6179 H 564.634 1.39044 -2.65719 0
M  V30 6180 H 562.187 0.69122 -1.40185 0
M  V30 6181 H 562.922 3.14795 -0.77938 0
M  V30 6182 H 562.707 2.98195 -2.54602 0
M  V30 6183 H 564.197 3.72375 -1.89015 0
M  V30 6184 N 564.634 1.40294 0.718013 0
M  V30 6185 C 565.88 1.38645 1.48005 0
M  V30 6186 C 566.213 -0.0121202 1.94196 0
M  V30 6187 O 565.488 -0.980309 1.67989 0
M  V30 6188 C 565.771 2.37379 2.70782 0
M  V30 6189 C 565.624 3.8625 2.30501 0
M  V30 6190 C 566.943 2.33685 3.72933 0
M  V30 6191 H 564.062 0.504928 0.536858 0
M  V30 6192 H 566.704 1.71411 0.819649 0
M  V30 6193 H 564.854 2.09568 3.27129 0
M  V30 6194 H 566.526 4.24879 1.79655 0
M  V30 6195 H 564.769 4.02202 1.6253 0
M  V30 6196 H 565.44 4.50847 3.18498 0
M  V30 6197 H 567.916 2.58314 3.2621 0
M  V30 6198 H 566.792 3.0482 4.56482 0
M  V30 6199 H 567.053 1.34765 4.21059 0
M  V30 6200 N 566.112 -0.949982 1.2575 0
M  V30 6201 C 567.361 -1.68956 1.10168 0
M  V30 6202 C 567.674 -1.92327 -0.356309 0
M  V30 6203 O 568.88 -2.64026 -0.632657 0
M  V30 6204 C 567.336 -3.04196 1.92336 0
M  V30 6205 C 566.944 -2.88603 3.42655 0
M  V30 6206 C 568.688 -3.81904 1.85336 0
M  V30 6207 C 566.595 -4.19262 4.17101 0
M  V30 6208 H 565.525 -0.633645 0.408668 0
M  V30 6209 H 568.176 -1.05719 1.49986 0
M  V30 6210 H 566.558 -3.68363 1.45344 0
M  V30 6211 H 567.732 -2.3334 3.97353 0
M  V30 6212 H 566.047 -2.24345 3.50796 0
M  V30 6213 H 568.644 -4.78688 2.38248 0
M  V30 6214 H 568.987 -4.08099 0.822226 0
M  V30 6215 H 569.52 -3.24495 2.30104 0
M  V30 6216 H 566.259 -3.98254 5.20648 0
M  V30 6217 H 565.779 -4.74273 3.67186 0
M  V30 6218 H 567.458 -4.87775 4.25071 0
M  V30 6219 N 567.59 -1.07411 -1.15328 0
M  V30 6220 C 568.538 -0.689316 -2.22151 0
M  V30 6221 C 569.532 0.300156 -1.6672 0
M  V30 6222 O 570.738 0.163804 -1.79253 0
M  V30 6223 H 567.113 -0.204834 -0.723566 0
M  V30 6224 H 569.084 -1.59988 -2.51886 0
M  V30 6225 C 567.833 -0.103848 -3.47545 0
M  V30 6226 H 567.156 -0.856367 -3.90521 0
M  V30 6227 H 568.596 0.127725 -4.23808 0
M  V30 6228 C 567.055 1.15563 -3.1646 0
M  V30 6229 O 567.585 2.242 -3.33312 0
M  V30 6230 N 565.791 1.06203 -2.70498 0
M  V30 6231 H 565.338 0.177933 -2.56985 0
M  V30 6232 H 565.296 1.90553 -2.50074 0
M  V30 6233 N 569.068 1.32177 -0.85831 0
M  V30 6234 C 570.316 1.96735 -0.462568 0
M  V30 6235 C 570.637 1.6824 0.985911 0
M  V30 6236 O 569.907 0.991564 1.68952 0
M  V30 6237 H 568.487 0.727849 -0.168064 0
M  V30 6238 H 571.149 1.61195 -1.09554 0
M  V30 6239 H 570.245 3.06068 -0.610647 0
M  V30 6240 N 570.547 0.616602 1.45037 0
M  V30 6241 C 571.772 0.120192 2.07051 0
M  V30 6242 C 572.197 -1.19008 1.45666 0
M  V30 6243 O 571.555 -1.7267 0.552692 0
M  V30 6244 C 571.603 0.00354901 3.606 0
M  V30 6245 O 570.707 -1.04431 3.98958 0
M  V30 6246 H 570.048 0.0781599 0.659384 0
M  V30 6247 H 572.578 0.849167 1.86146 0
M  V30 6248 H 572.588 -0.191754 4.07549 0
M  V30 6249 H 571.263 0.960239 4.04663 0
M  V30 6250 H 569.84 -0.824749 3.63665 0
M  V30 6251 N 572.025 -1.5352 0.356285 0
M  V30 6252 C 572.957 -2.23009 -0.529127 0
M  V30 6253 C 573.97 -1.241 -1.05371 0
M  V30 6254 O 575.159 -1.50379 -0.961679 0
M  V30 6255 C 572.259 -2.90685 -1.74229 0
M  V30 6256 C 571.432 -4.16019 -1.35081 0
M  V30 6257 C 570.491 -4.66989 -2.42502 0
M  V30 6258 O 569.517 -5.30895 -2.05279 0
M  V30 6259 N 570.719 -4.44006 -3.7395 0
M  V30 6260 H 573.484 -2.99627 0.0660501 0
M  V30 6261 H 571.045 -1.60885 0.181014 0
M  V30 6262 H 573.037 -3.21695 -2.4555 0
M  V30 6263 H 571.607 -2.17575 -2.24454 0
M  V30 6264 H 570.827 -3.91414 -0.467833 0
M  V30 6265 H 572.115 -4.9752 -1.06542 0
M  V30 6266 H 571.513 -3.92924 -4.06973 0
M  V30 6267 H 570.07 -4.7959 -4.41403 0
M  V30 6268 N 573.503 -0.0852151 -1.57369 0
M  V30 6269 C 574.453 0.88767 -2.10011 0
M  V30 6270 C 575.437 1.25021 -1.01285 0
M  V30 6271 O 576.629 1.22694 -1.27574 0
M  V30 6272 C 573.758 2.15037 -2.67608 0
M  V30 6273 C 572.844 1.81371 -3.83361 0
M  V30 6274 N 573.235 1.18216 -4.91791 0
M  V30 6275 C 571.533 2.11041 -3.92909 0
M  V30 6276 C 572.234 1.02941 -5.72519 0
M  V30 6277 N 571.21 1.54351 -5.21226 0
M  V30 6278 H 575.012 0.395279 -2.9123 0
M  V30 6279 H 572.526 0.11829 -1.61969 0
M  V30 6280 H 574.523 2.85667 -3.03644 0
M  V30 6281 H 573.183 2.64851 -1.8784 0
M  V30 6282 H 574.194 0.850168 -5.10874 0
M  V30 6283 H 570.871 2.63138 -3.24136 0
M  V30 6284 H 572.261 0.536298 -6.69756 0
M  V30 6285 N 574.981 1.5647 0.188427 0
M  V30 6286 C 576.392 1.70864 0.752494 0
M  V30 6287 C 576.743 0.692905 1.83557 0
M  V30 6288 O 575.868 -0.149307 2.15884 0
M  V30 6289 C 576.463 3.09789 1.37173 0
M  V30 6290 C 575.022 3.25925 1.88281 0
M  V30 6291 C 574.169 2.66817 0.755259 0
M  V30 6292 H 577.12 1.58657 -0.0367408 0
M  V30 6293 H 577.141 3.07489 2.24122 0
M  V30 6294 H 576.653 3.83693 0.583219 0
M  V30 6295 H 574.754 2.56948 2.6983 0
M  V30 6296 H 574.867 4.33498 2.04001 0
M  V30 6297 H 573.231 2.2617 1.17128 0
M  V30 6298 H 574.014 3.43294 -0.0211237 0
M  V30 6299 N 576.459 -0.456382 1.50847 0
M  V30 6300 C 577.684 -1.2349 1.66628 0
M  V30 6301 C 578.109 -1.84715 0.355254 0
M  V30 6302 O 577.467 -1.67961 -0.682559 0
M  V30 6303 C 577.515 -2.30865 2.77009 0
M  V30 6304 O 576.619 -3.35882 2.39285 0
M  V30 6305 H 575.96 -0.36266 0.556214 0
M  V30 6306 H 578.49 -0.541374 1.97308 0
M  V30 6307 H 578.5 -2.75949 3.00526 0
M  V30 6308 H 577.175 -1.85677 3.72152 0
M  V30 6309 H 575.752 -2.96406 2.26269 0
M  V30 6310 N 577.937 -1.40673 -0.710563 0
M  V30 6311 C 579.162 -1.42741 -1.50465 0
M  V30 6312 C 579.587 -0.0302116 -1.88076 0
M  V30 6313 O 578.945 0.962945 -1.53613 0
M  V30 6314 C 578.993 -2.32873 -2.75322 0
M  V30 6315 O 578.097 -1.77544 -3.72226 0
M  V30 6316 H 577.438 -0.485056 -0.45345 0
M  V30 6317 H 579.968 -1.84961 -0.874681 0
M  V30 6318 H 579.978 -2.48233 -3.23797 0
M  V30 6319 H 578.653 -3.34401 -2.47283 0
M  V30 6320 H 577.23 -1.71556 -3.31093 0
M  V30 6321 N 579.415 0.9433 -1.26252 0
M  V30 6322 C 580.64 1.72898 -1.14547 0
M  V30 6323 C 581.065 1.85761 0.295743 0
M  V30 6324 O 580.423 1.3463 1.21427 0
M  V30 6325 C 580.471 3.11471 -1.8171 0
M  V30 6326 O 579.575 3.97336 -1.10445 0
M  V30 6327 H 578.916 0.530555 -0.399259 0
M  V30 6328 H 581.446 1.18159 -1.67032 0
M  V30 6329 H 581.456 3.61872 -1.88449 0
M  V30 6330 H 580.131 3.01425 -2.86558 0
M  V30 6331 H 578.708 3.55788 -1.11666 0
M  V30 6332 N 580.893 1.08022 1.14757 0
M  V30 6333 C 582.118 0.82895 1.90114 0
M  V30 6334 C 582.543 -0.612772 1.77839 0
M  V30 6335 O 581.901 -1.42895 1.11583 0
M  V30 6336 C 581.949 1.25062 3.38219 0
M  V30 6337 O 581.053 0.400119 4.10454 0
M  V30 6338 H 580.394 0.301412 0.591648 0
M  V30 6339 H 582.924 1.44062 1.45284 0
M  V30 6340 H 582.934 1.22977 3.89025 0
M  V30 6341 H 581.609 2.30067 3.46471 0
M  V30 6342 H 580.186 0.484052 3.69745 0
M  V30 6343 N 582.371 -1.3172 0.865308 0
M  V30 6344 C 583.596 -2.01591 0.487415 0
M  V30 6345 C 584.021 -1.6455 -0.911307 0
M  V30 6346 O 583.379 -0.851689 -1.6005 0
M  V30 6347 C 583.427 -3.54759 0.646401 0
M  V30 6348 O 582.531 -4.11185 -0.316284 0
M  V30 6349 H 581.872 -0.634884 0.194468 0
M  V30 6350 H 584.402 -1.68024 1.16744 0
M  V30 6351 H 584.412 -4.04438 0.537932 0
M  V30 6352 H 583.087 -3.8106 1.66632 0
M  V30 6353 H 581.664 -3.72543 -0.163162 0
M  V30 6354 N 583.85 -0.624285 -1.44708 0
M  V30 6355 C 585.096 -0.126237 -2.02407 0
M  V30 6356 C 585.428 1.24618 -1.48943 0
M  V30 6357 O 584.704 1.82569 -0.670742 0
M  V30 6358 C 584.986 -0.105449 -3.59946 0
M  V30 6359 C 584.84 -1.50972 -4.23707 0
M  V30 6360 C 586.159 0.573629 -4.36346 0
M  V30 6361 H 583.278 -0.0473472 -0.735478 0
M  V30 6362 H 585.92 -0.799452 -1.72362 0
M  V30 6363 H 584.07 0.46783 -3.85673 0
M  V30 6364 H 585.742 -2.13136 -4.0911 0
M  V30 6365 H 583.985 -2.0656 -3.81465 0
M  V30 6366 H 584.656 -1.44727 -5.32689 0
M  V30 6367 H 587.132 0.0861787 -4.16011 0
M  V30 6368 H 586.008 0.557338 -5.46063 0
M  V30 6369 H 586.269 1.64276 -4.10446 0
M  V30 6370 N 585.328 1.53329 -0.364422 0
M  V30 6371 C 586.276 2.27212 0.497737 0
M  V30 6372 C 587.27 1.30146 1.08437 0
M  V30 6373 O 588.476 1.47778 1.0277 0
M  V30 6374 H 584.851 0.730329 0.179232 0
M  V30 6375 H 586.822 2.98037 -0.147182 0
M  V30 6376 C 585.571 3.07333 1.6261 0
M  V30 6377 H 584.894 3.81866 1.184 0
M  V30 6378 H 586.334 3.62209 2.20409 0
M  V30 6379 C 584.793 2.18102 2.56775 0
M  V30 6380 O 585.323 1.79104 3.59562 0
M  V30 6381 N 583.529 1.82759 2.25937 0
M  V30 6382 H 583.076 2.14671 1.42387 0
M  V30 6383 H 583.034 1.23342 2.89196 0
M  V30 6384 N 586.806 0.0935595 1.57322 0
M  V30 6385 C 588.083 -0.612692 1.85756 0
M  V30 6386 C 588.463 -1.86439 0.99013 0
M  V30 6387 O 587.811 -2.28416 0.0621362 0
M  V30 6388 C 588.021 -0.929547 3.36393 0
M  V30 6389 C 589.369 -1.29366 4.04413 0
M  V30 6390 O 590.393 -1.02061 3.41265 0
M  V30 6391 O 589.252 -1.80498 5.15832 0
M  V30 6392 H 586.346 -0.306444 0.768128 0
M  V30 6393 H 588.892 0.126141 1.69231 0
M  V30 6394 H 587.664 -0.0414766 3.91278 0
M  V30 6395 H 587.287 -1.72441 3.5826 0
M  V30 6396 N 588.284 -1.56567 -0.180126 0
M  V30 6397 C 589.53 -1.81761 -0.899497 0
M  V30 6398 C 589.863 -0.670015 -1.82276 0
M  V30 6399 O 589.138 0.328575 -1.91705 0
M  V30 6400 C 589.421 -3.17296 -1.7028 0
M  V30 6401 C 589.274 -4.4257 -0.803255 0
M  V30 6402 C 590.593 -3.49678 -2.67233 0
M  V30 6403 H 587.712 -0.661192 -0.325567 0
M  V30 6404 H 590.354 -1.89272 -0.16612 0
M  V30 6405 H 588.504 -3.11023 -2.32802 0
M  V30 6406 H 590.176 -4.60902 -0.191585 0
M  V30 6407 H 588.419 -4.33658 -0.110796 0
M  V30 6408 H 589.09 -5.33935 -1.40064 0
M  V30 6409 H 591.566 -3.56347 -2.14839 0
M  V30 6410 H 590.442 -4.45605 -3.20511 0
M  V30 6411 H 590.703 -2.73932 -3.47007 0
M  V30 6412 N 589.762 0.448376 -1.51087 0
M  V30 6413 C 590.987 1.22605 -1.6728 0
M  V30 6414 C 591.412 1.84524 -0.365045 0
M  V30 6415 O 590.77 1.6832 0.673642 0
M  V30 6416 C 590.818 2.29393 -2.78229 0
M  V30 6417 O 589.922 3.34608 -2.41063 0
M  V30 6418 H 589.263 0.359705 -0.558129 0
M  V30 6419 H 591.793 0.530903 -1.97592 0
M  V30 6420 H 591.803 2.74352 -3.01986 0
M  V30 6421 H 590.478 1.83701 -3.73131 0
M  V30 6422 H 589.055 2.95202 -2.27838 0
M  V30 6423 N 591.24 1.41047 0.703093 0
M  V30 6424 C 592.465 1.43537 1.49706 0
M  V30 6425 C 592.89 0.0401853 1.88057 0
M  V30 6426 O 592.248 -0.954785 1.54122 0
M  V30 6427 C 592.296 2.3433 2.74084 0
M  V30 6428 O 591.4 1.79515 3.71279 0
M  V30 6429 H 590.741 0.487454 0.450871 0
M  V30 6430 H 593.271 1.85422 0.86486 0
M  V30 6431 H 593.281 2.49947 3.22476 0
M  V30 6432 H 591.956 3.35708 2.45506 0
M  V30 6433 H 590.533 1.7331 3.30179 0
M  V30 6434 N 592.718 -0.936591 1.26751 0
M  V30 6435 C 593.651 -2.03619 1.03027 0
M  V30 6436 C 594.629 -1.62534 -0.0464619 0
M  V30 6437 O 595.813 -1.88251 0.0968873 0
M  V30 6438 C 592.94 -3.3402 0.561072 0
M  V30 6439 C 591.986 -3.9408 1.63105 0
M  V30 6440 S 592.819 -4.27782 3.22122 0
M  V30 6441 C 593.975 -5.61277 2.76982 0
M  V30 6442 H 594.208 -2.23429 1.96129 0
M  V30 6443 H 591.741 -1.07857 1.10482 0
M  V30 6444 H 593.699 -4.09424 0.297031 0
M  V30 6445 H 592.36 -3.12147 -0.349741 0
M  V30 6446 H 591.553 -4.88154 1.25386 0
M  V30 6447 H 591.155 -3.25227 1.84671 0
M  V30 6448 H 593.447 -6.40189 2.21731 0
M  V30 6449 H 594.39 -6.03887 3.69766 0
M  V30 6450 H 594.798 -5.21374 2.16402 0
M  V30 6451 N 594.196 -1.08629 -1.14182 0
M  V30 6452 C 595.421 -0.83902 -1.89671 0
M  V30 6453 C 595.846 0.603332 -1.78161 0
M  V30 6454 O 595.204 1.42301 -1.12339 0
M  V30 6455 C 595.252 -1.26854 -3.37551 0
M  V30 6456 O 594.356 -0.42188 -4.10236 0
M  V30 6457 H 593.697 -0.304545 -0.590041 0
M  V30 6458 H 596.227 -1.4483 -1.44518 0
M  V30 6459 H 596.237 -1.25038 -3.88368 0
M  V30 6460 H 594.912 -2.31901 -3.45246 0
M  V30 6461 H 593.489 -0.503654 -3.69483 0
M  V30 6462 N 595.674 1.31259 -0.872281 0
M  V30 6463 C 596.902 2.00795 -0.498907 0
M  V30 6464 C 597.317 1.65464 0.909238 0
M  V30 6465 O 596.674 0.885073 1.59602 0
M  V30 6466 C 596.725 3.55625 -0.649092 0
M  V30 6467 O 596.446 3.89692 -2.00179 0
M  V30 6468 C 597.947 4.42434 -0.277034 0
M  V30 6469 H 595.167 0.642299 -0.194145 0
M  V30 6470 H 597.711 1.67438 -1.17408 0
M  V30 6471 H 595.866 3.87394 -0.0214402 0
M  V30 6472 H 596.28 4.84407 -2.01122 0
M  V30 6473 H 597.754 5.50299 -0.433064 0
M  V30 6474 H 598.231 4.32146 0.783989 0
M  V30 6475 H 598.837 4.16086 -0.880483 0
M  V30 6476 N 597.152 0.631951 1.44375 0
M  V30 6477 C 598.429 0.067646 1.95483 0
M  V30 6478 C 598.809 -1.40683 1.57389 0
M  V30 6479 O 598.157 -2.12167 0.848375 0
M  V30 6480 C 598.367 0.291392 3.47781 0
M  V30 6481 C 599.715 0.185028 4.24197 0
M  V30 6482 O 600.739 0.222803 3.55503 0
M  V30 6483 O 599.598 0.0906642 5.46425 0
M  V30 6484 H 596.692 -0.0218379 0.826712 0
M  V30 6485 H 599.238 0.703711 1.54421 0
M  V30 6486 H 598.01 1.31449 3.68561 0
M  V30 6487 H 597.633 -0.378772 3.95792 0
M  V30 6488 N 598.631 -1.53133 0.372548 0
M  V30 6489 C 600.042 -1.86404 -0.105155 0
M  V30 6490 C 600.393 -1.29289 -1.47576 0
M  V30 6491 O 599.518 -0.617646 -2.07398 0
M  V30 6492 C 600.113 -3.38223 -0.197588 0
M  V30 6493 C 598.672 -3.71266 -0.619556 0
M  V30 6494 C 597.819 -2.76353 0.228919 0
M  V30 6495 H 600.77 -1.47282 0.591077 0
M  V30 6496 H 600.791 -3.66577 -1.01987 0
M  V30 6497 H 600.303 -3.79763 0.800099 0
M  V30 6498 H 598.404 -3.35287 -1.62522 0
M  V30 6499 H 598.517 -4.77515 -0.389332 0
M  V30 6500 H 596.881 -2.52888 -0.303271 0
M  V30 6501 H 597.664 -3.20728 1.22428 0
M  V30 6502 N 600.109 -0.101901 -1.5727 0
M  V30 6503 C 601.337 0.568392 -1.98939 0
M  V30 6504 C 601.752 1.61301 -0.981194 0
M  V30 6505 O 601.109 1.82478 0.0282869 0
M  V30 6506 C 601.16 1.20997 -3.40649 0
M  V30 6507 O 600.881 0.207129 -4.3761 0
M  V30 6508 C 602.382 1.96523 -3.97358 0
M  V30 6509 H 599.602 0.15186 -0.65359 0
M  V30 6510 H 602.146 -0.183198 -2.03678 0
M  V30 6511 H 600.301 1.91245 -3.36904 0
M  V30 6512 H 600.715 0.671071 -5.20189 0
M  V30 6513 H 602.189 2.36764 -4.98645 0
M  V30 6514 H 602.666 2.83376 -3.35552 0
M  V30 6515 H 603.272 1.31076 -4.04598 0
M  V30 6516 N 601.587 1.56661 0.17182 0
M  V30 6517 C 602.517 1.99401 1.21498 0
M  V30 6518 C 603.498 0.869516 1.46197 0
M  V30 6519 O 604.683 1.13556 1.57539 0
M  V30 6520 C 601.813 2.35346 2.55401 0
M  V30 6521 C 600.767 3.5075 2.45272 0
M  V30 6522 C 600.093 3.72437 3.8366 0
M  V30 6523 C 601.393 4.84216 1.95787 0
M  V30 6524 H 603.087 2.86792 0.859699 0
M  V30 6525 H 600.633 1.37977 0.412103 0
M  V30 6526 H 602.586 2.63843 3.2858 0
M  V30 6527 H 601.31 1.44864 2.92715 0
M  V30 6528 H 599.969 3.2238 1.74547 0
M  V30 6529 H 599.617 2.79246 4.18367 0
M  V30 6530 H 599.317 4.50087 3.77751 0
M  V30 6531 H 600.841 4.03334 4.58426 0
M  V30 6532 H 602.255 5.11592 2.5874 0
M  V30 6533 H 600.652 5.65498 2.00827 0
M  V30 6534 H 601.722 4.76243 0.912159 0
M  V30 6535 N 603.065 -0.440357 1.51323 0
M  V30 6536 C 604.028 -1.51679 1.71832 0
M  V30 6537 C 605.028 -1.49648 0.588386 0
M  V30 6538 O 606.218 -1.51724 0.855891 0
M  V30 6539 C 603.35 -2.91228 1.77199 0
M  V30 6540 H 604.543 -1.34799 2.67898 0
M  V30 6541 H 602.096 -0.66883 1.41267 0
M  V30 6542 H 602.831 -3.13516 0.829363 0
M  V30 6543 H 602.616 -2.94107 2.59314 0
M  V30 6544 H 604.106 -3.69321 1.94915 0
M  V30 6545 N 604.543 -1.41418 -0.695603 0
M  V30 6546 C 605.768 -1.44329 -1.48942 0
M  V30 6547 C 606.193 -0.0501579 -1.88033 0
M  V30 6548 O 605.551 0.946598 -1.54626 0
M  V30 6549 C 605.599 -2.3578 -2.72837 0
M  V30 6550 O 604.703 -1.81482 -3.70322 0
M  V30 6551 H 604.044 -0.489838 -0.44828 0
M  V30 6552 H 606.574 -1.85878 -0.855014 0
M  V30 6553 H 606.584 -2.51654 -3.21145 0
M  V30 6554 H 605.259 -3.37005 -2.43722 0
M  V30 6555 H 603.836 -1.75058 -3.29255 0
M  V30 6556 N 606.021 0.929856 -1.27246 0
M  V30 6557 C 607.298 1.65544 -1.04186 0
M  V30 6558 C 607.678 2.06796 0.424097 0
M  V30 6559 O 607.026 1.80053 1.40688 0
M  V30 6560 C 607.236 2.85912 -2.00138 0
M  V30 6561 C 608.584 3.57305 -2.29387 0
M  V30 6562 O 609.608 2.96036 -1.98094 0
M  V30 6563 O 608.467 4.67688 -2.82719 0
M  V30 6564 H 605.561 0.725473 -0.397011 0
M  V30 6565 H 608.107 0.980583 -1.38501 0
M  V30 6566 H 606.879 2.52403 -2.99013 0
M  V30 6567 H 606.502 3.61118 -1.66371 0
M  V30 6568 N 607.499 1.09233 1.13605 0
M  V30 6569 C 608.727 0.848908 1.88683 0
M  V30 6570 C 609.142 -0.599667 1.79024 0
M  V30 6571 O 608.499 -1.41265 1.15544 0
M  V30 6572 C 608.55 1.27273 3.38355 0
M  V30 6573 O 608.271 2.66449 3.47759 0
M  V30 6574 C 609.772 1.0614 4.30406 0
M  V30 6575 H 606.992 0.305549 0.597395 0
M  V30 6576 H 609.536 1.4538 1.43823 0
M  V30 6577 H 607.691 0.711776 3.80805 0
M  V30 6578 H 608.105 2.84264 4.40788 0
M  V30 6579 H 609.579 1.40725 5.33761 0
M  V30 6580 H 610.056 -0.000960332 4.392 0
M  V30 6581 H 610.662 1.60821 3.93722 0
M  V30 6582 N 608.977 -1.30795 0.87923 0
M  V30 6583 C 610.254 -1.91145 0.415086 0
M  V30 6584 C 610.634 -1.7995 -1.10368 0
M  V30 6585 O 609.982 -1.21305 -1.93642 0
M  V30 6586 C 610.192 -3.37014 0.906778 0
M  V30 6587 C 611.54 -4.14101 0.938358 0
M  V30 6588 O 612.564 -3.45834 0.853053 0
M  V30 6589 O 611.423 -5.36054 1.06342 0
M  V30 6590 H 608.517 -0.81736 0.125905 0
M  V30 6591 H 611.063 -1.39401 0.967753 0
M  V30 6592 H 609.835 -3.3922 1.95053 0
M  V30 6593 H 609.458 -3.96204 0.332948 0
M  V30 6594 N 610.455 -0.639598 -1.44038 0
M  V30 6595 C 611.68 -0.153117 -2.06834 0
M  V30 6596 C 612.105 1.16676 -1.47541 0
M  V30 6597 O 611.463 1.71769 -0.580093 0
M  V30 6598 C 611.511 -0.0609169 -3.60549 0
M  V30 6599 O 610.615 0.98071 -4.00569 0
M  V30 6600 H 609.956 -0.0886402 -0.658057 0
M  V30 6601 H 612.486 -0.878674 -1.84771 0
M  V30 6602 H 612.496 0.126892 -4.07803 0
M  V30 6603 H 611.171 -1.0245 -4.03084 0
M  V30 6604 H 609.748 0.766789 -3.64931 0
M  V30 6605 N 611.933 1.52934 -0.380664 0
M  V30 6606 C 613.158 2.06363 0.207157 0
M  V30 6607 C 613.583 1.25122 1.4045 0
M  V30 6608 O 612.941 0.274062 1.79217 0
M  V30 6609 C 612.989 3.56162 0.563996 0
M  V30 6610 O 612.093 3.77552 1.65917 0
M  V30 6611 H 611.434 0.663468 0.0265859 0
M  V30 6612 H 613.964 1.9719 -0.545635 0
M  V30 6613 H 613.974 3.99453 0.830752 0
M  V30 6614 H 612.649 4.14732 -0.311427 0
M  V30 6615 H 611.226 3.46154 1.3868 0
M  V30 6616 N 613.412 0.11024 1.57214 0
M  V30 6617 C 614.342 -0.840002 2.17867 0
M  V30 6618 C 615.323 -1.28352 1.11624 0
M  V30 6619 O 616.508 -1.3477 1.39824 0
M  V30 6620 C 613.638 -2.09349 2.77111 0
M  V30 6621 C 612.592 -1.78807 3.8886 0
M  V30 6622 C 611.918 -3.11112 4.34872 0
M  V30 6623 C 613.218 -1.0632 5.11364 0
M  V30 6624 H 614.912 -0.334608 2.97524 0
M  V30 6625 H 612.458 -0.159502 1.43114 0
M  V30 6626 H 614.411 -2.76275 3.18198 0
M  V30 6627 H 613.135 -2.62198 1.9473 0
M  V30 6628 H 611.794 -1.14273 3.48335 0
M  V30 6629 H 611.442 -3.61877 3.49362 0
M  V30 6630 H 611.142 -2.91453 5.10224 0
M  V30 6631 H 612.666 -3.79171 4.78604 0
M  V30 6632 H 614.08 -1.63383 5.49526 0
M  V30 6633 H 612.477 -0.967876 5.92243 0
M  V30 6634 H 613.547 -0.0484569 4.84876 0
M  V30 6635 N 614.89 -1.56749 -0.16351 0
M  V30 6636 C 615.8 -2.00255 -1.2221 0
M  V30 6637 C 616.816 -0.915194 -1.47987 0
M  V30 6638 O 617.992 -1.22342 -1.59982 0
M  V30 6639 C 615.057 -2.36035 -2.53946 0
M  V30 6640 C 614.118 -3.58637 -2.35962 0
M  V30 6641 C 613.351 -3.92701 -3.61416 0
M  V30 6642 O 613.574 -3.27632 -4.66919 0
M  V30 6643 O 612.508 -4.86019 -3.55062 0
M  V30 6644 H 616.334 -2.90586 -0.882794 0
M  V30 6645 H 613.919 -1.44721 -0.370978 0
M  V30 6646 H 615.801 -2.59982 -3.31643 0
M  V30 6647 H 614.476 -1.48863 -2.8744 0
M  V30 6648 H 613.383 -3.39898 -1.5627 0
M  V30 6649 H 614.716 -4.46374 -2.0739 0
M  V30 6650 N 616.368 0.432326 -1.51554 0
M  V30 6651 C 617.331 1.50765 -1.72634 0
M  V30 6652 C 618.331 1.49334 -0.596314 0
M  V30 6653 O 619.521 1.51268 -0.863925 0
M  V30 6654 C 616.653 2.90284 -1.7874 0
M  V30 6655 H 617.846 1.33377 -2.68609 0
M  V30 6656 H 615.399 0.661329 -1.4162 0
M  V30 6657 H 616.134 3.13071 -0.845977 0
M  V30 6658 H 615.919 2.92727 -2.6087 0
M  V30 6659 H 617.409 3.68282 -1.96871 0
M  V30 6660 N 617.846 1.41785 0.688094 0
M  V30 6661 C 618.809 1.43936 1.78368 0
M  V30 6662 C 619.809 0.328866 1.57401 0
M  V30 6663 O 620.999 0.589093 1.63937 0
M  V30 6664 C 618.131 1.25804 3.16838 0
M  V30 6665 H 619.324 2.41472 1.77852 0
M  V30 6666 H 616.877 1.28037 0.896448 0
M  V30 6667 H 617.612 0.291386 3.22988 0
M  V30 6668 H 617.397 2.06272 3.33458 0
M  V30 6669 H 618.887 1.30162 3.96797 0
M  V30 6670 N 619.324 -0.923095 1.27737 0
M  V30 6671 C 620.287 -2.00587 1.10894 0
M  V30 6672 C 621.287 -1.60718 0.0514927 0
M  V30 6673 O 622.477 -1.71658 0.296481 0
M  V30 6674 C 619.609 -3.33829 0.690717 0
M  V30 6675 H 620.802 -2.16959 2.07048 0
M  V30 6676 H 618.355 -1.10451 1.1059 0
M  V30 6677 H 619.09 -3.23157 -0.272 0
M  V30 6678 H 618.875 -3.64125 1.45448 0
M  V30 6679 H 620.365 -4.13336 0.595252 0
M  V30 6680 N 620.802 -1.09834 -1.13024 0
M  V30 6681 C 622.05 -0.835297 -1.8403 0
M  V30 6682 C 622.371 0.640944 -1.84165 0
M  V30 6683 O 621.641 1.46517 -1.30037 0
M  V30 6684 H 620.221 -0.306018 -0.681441 0
M  V30 6685 H 622.883 -1.38734 -1.36891 0
M  V30 6686 H 621.979 -1.19258 -2.88416 0
M  V30 6687 N 622.28 1.30327 -0.886154 0
M  V30 6688 C 623.691 1.78243 -0.555554 0
M  V30 6689 C 624.042 1.72849 0.928314 0
M  V30 6690 O 623.167 1.30607 1.72542 0
M  V30 6691 C 623.762 3.23654 -1.00168 0
M  V30 6692 C 622.321 3.69401 -0.722471 0
M  V30 6693 C 621.468 2.50753 -1.18399 0
M  V30 6694 H 624.419 1.1718 -1.07026 0
M  V30 6695 H 624.44 3.79056 -0.331152 0
M  V30 6696 H 623.952 3.27548 -2.08169 0
M  V30 6697 H 622.053 3.70995 0.345496 0
M  V30 6698 H 622.166 4.60818 -1.31085 0
M  V30 6699 H 620.53 2.47452 -0.603303 0
M  V30 6700 H 621.313 2.57383 -2.27176 0
M  V30 6701 N 623.758 0.647228 1.43697 0
M  V30 6702 C 624.688 -0.0345631 2.33474 0
M  V30 6703 C 625.669 -0.818193 1.4913 0
M  V30 6704 O 626.854 -0.780867 1.77809 0
M  V30 6705 C 623.984 -1.00576 3.32418 0
M  V30 6706 C 622.938 -0.33266 4.26705 0
M  V30 6707 C 622.264 -1.41489 5.1564 0
M  V30 6708 C 623.564 0.771204 5.16575 0
M  V30 6709 H 625.258 0.715163 2.90733 0
M  V30 6710 H 622.804 0.345364 1.39797 0
M  V30 6711 H 624.757 -1.49159 3.94119 0
M  V30 6712 H 623.481 -1.78657 2.73403 0
M  V30 6713 H 622.14 0.13267 3.6636 0
M  V30 6714 H 621.788 -2.18698 4.52968 0
M  V30 6715 H 621.488 -0.969799 5.79542 0
M  V30 6716 H 623.012 -1.9022 5.80214 0
M  V30 6717 H 624.426 0.36779 5.72119 0
M  V30 6718 H 622.823 1.1404 5.89165 0
M  V30 6719 H 623.893 1.63169 4.56622 0
M  V30 6720 N 625.236 -1.5273 0.388769 0
M  V30 6721 C 626.484 -2.01174 -0.193208 0
M  V30 6722 C 626.805 -1.27705 -1.47365 0
M  V30 6723 O 626.075 -0.396966 -1.91836 0
M  V30 6724 H 624.655 -0.743287 -0.0743871 0
M  V30 6725 H 627.317 -1.87826 0.520336 0
M  V30 6726 H 626.413 -3.09477 -0.403803 0
M  V30 6727 N 626.714 -0.118576 -1.57153 0
M  V30 6728 C 627.954 0.542618 -1.97066 0
M  V30 6729 C 628.318 1.63874 -1.00046 0
M  V30 6730 O 629.519 2.3588 -1.28895 0
M  V30 6731 C 627.79 1.06196 -3.41258 0
M  V30 6732 S 629.349 1.73174 -4.03183 0
M  V30 6733 H 626.167 0.17638 -0.688775 0
M  V30 6734 H 628.769 -0.203556 -1.94437 0
M  V30 6735 H 627.473 0.253016 -4.09619 0
M  V30 6736 H 627.004 1.84342 -3.47536 0
M  V30 6737 H 629.019 3.01749 -3.93906 0
M  V30 6738 N 628.193 1.56834 0.155195 0
M  V30 6739 C 629.433 1.84701 0.875488 0
M  V30 6740 C 629.797 0.701747 1.78716 0
M  V30 6741 O 630.998 0.861263 2.54629 0
M  V30 6742 C 629.269 3.1773 1.63654 0
M  V30 6743 S 630.828 3.67128 2.40338 0
M  V30 6744 H 627.646 0.647856 0.292923 0
M  V30 6745 H 630.248 1.95026 0.136024 0
M  V30 6746 H 628.952 3.99059 0.958117 0
M  V30 6747 H 628.483 3.10388 2.41708 0
M  V30 6748 H 630.498 3.35739 3.65368 0
M  V30 6749 N 629.671 -0.424282 1.51781 0
M  V30 6750 C 631.087 -0.761768 1.40247 0
M  V30 6751 C 631.287 -1.95324 0.495041 0
M  V30 6752 O 630.343 -2.5246 -0.0448949 0
M  V30 6753 C 631.656 -1.0299 2.82513 0
M  V30 6754 C 633.204 -1.13354 2.91753 0
M  V30 6755 C 633.679 -1.43453 4.34954 0
M  V30 6756 N 635.17 -1.5035 4.3812 0
M  V30 6757 C 635.905 -1.75236 5.45967 0
M  V30 6758 N 635.401 -1.97827 6.63955 0
M  V30 6759 N 637.194 -1.77126 5.33463 0
M  V30 6760 H 629.345 0.360228 2.09323 0
M  V30 6761 H 631.608 0.0988128 0.942836 0
M  V30 6762 H 631.314 -0.226961 3.50967 0
M  V30 6763 H 631.188 -1.95411 3.22637 0
M  V30 6764 H 633.575 -1.92709 2.23489 0
M  V30 6765 H 633.656 -0.188041 2.55108 0
M  V30 6766 H 633.3 -0.646209 5.03772 0
M  V30 6767 H 633.23 -2.3923 4.69123 0
M  V30 6768 H 635.721 -1.34742 3.53062 0
M  V30 6769 H 636.034 -2.16223 7.41935 0
M  V30 6770 H 634.379 -1.95123 6.67047 0
M  V30 6771 H 637.57 -1.59005 4.40267 0
M  V30 6772 H 637.743 -1.96182 6.17589 0
M  V30 6773 O 631.188 -1.51103 -0.570103 0
M  V30 6774 H 631.879 -1.50032 -1.22516 0
M  V30 END ATOM
M  V30 BEGIN BOND
M  V30 END BOND
M  V30 END CTAB
M  END
$$$$
