drugbank_target|P51857 3-oxo-5-beta-steroid 4-dehydrogenase (DB00548; DB01216; DB07447; DB07557)
 OpenBabel12092120353D

  0  0  0     0  0            999 V3000
M  V30 BEGIN CTAB
M  V30 COUNTS 5269 5334 0 0 0
M  V30 BEGIN ATOM
M  V30 1 H -0.908 1.98254 -0.117106 0
M  V30 2 N 0 1.576 0 0
M  V30 3 C 0.933 2.03868 1.02534 0
M  V30 4 C 1.911 0.928543 1.3348 0
M  V30 5 O 3.095 1.19667 1.45644 0
M  V30 6 C 0.222 2.43627 2.35294 0
M  V30 7 C -0.732 3.65373 2.2001 0
M  V30 8 S 0.101 5.13292 1.52614 0
M  V30 9 C 1.257 5.56322 2.86805 0
M  V30 10 H 1.49 2.90518 0.631377 0
M  V30 11 H -0.977 1.52953 0.210867 0
M  V30 12 H 0.981 2.67203 3.11629 0
M  V30 13 H -0.358 1.57376 2.7183 0
M  V30 14 H -1.165 3.90944 3.18086 0
M  V30 15 H -1.563 3.418 1.51819 0
M  V30 16 H 0.729 5.58782 3.83104 0
M  V30 17 H 1.672 6.56266 2.65933 0
M  V30 18 H 2.08 4.83886 2.90714 0
M  V30 19 N 1.4781 -0.272755 1.55222 0
M  V30 20 C 2.7551 -1.02562 1.66555 0
M  V30 21 C 3.1351 -2.04282 0.532189 0
M  V30 22 O 2.4831 -2.23662 -0.467717 0
M  V30 23 C 2.6931 -1.6822 3.05782 0
M  V30 24 C 4.0411 -2.19373 3.63539 0
M  V30 25 O 5.0651 -1.78206 3.08417 0
M  V30 26 O 3.9241 -2.94883 4.60115 0
M  V30 27 H 1.0181 -0.475755 0.676451 0
M  V30 28 H 3.5641 -0.268593 1.67561 0
M  V30 29 H 2.3361 -0.945112 3.79715 0
M  V30 30 H 1.9591 -2.50609 3.08676 0
M  V30 31 N 2.9562 -1.48159 -0.537278 0
M  V30 32 C 3.8862 -1.65029 -1.6519 0
M  V30 33 C 4.8672 -0.499281 -1.62607 0
M  V30 34 O 6.0522 -0.730972 -1.79918 0
M  V30 35 C 3.1822 -1.68303 -3.03795 0
M  V30 36 C 2.1362 -2.8283 -3.21234 0
M  V30 37 C 1.4622 -2.71189 -4.60826 0
M  V30 38 C 2.7622 -4.24211 -3.04701 0
M  V30 39 H 4.4562 -2.58341 -1.51328 0
M  V30 40 H 2.0022 -1.24325 -0.726585 0
M  V30 41 H 3.9552 -1.78693 -3.81637 0
M  V30 42 H 2.6792 -0.715635 -3.18663 0
M  V30 43 H 1.3382 -2.71983 -2.45807 0
M  V30 44 H 0.9862 -1.72435 -4.7252 0
M  V30 45 H 0.6862 -3.48035 -4.7344 0
M  V30 46 H 2.2102 -2.83537 -5.40777 0
M  V30 47 H 3.6242 -4.3593 -3.72341 0
M  V30 48 H 2.0212 -5.01998 -3.28813 0
M  V30 49 H 3.0912 -4.41184 -2.01209 0
M  V30 50 N 4.4343 0.785586 -1.36625 0
M  V30 51 C 5.6593 1.57963 -1.34397 0
M  V30 52 C 6.0843 1.87964 0.071526 0
M  V30 53 O 5.4423 1.48182 1.0446 0
M  V30 54 C 5.4903 2.87511 -2.17646 0
M  V30 55 O 4.5943 3.81281 -1.57158 0
M  V30 56 H 3.9353 0.479014 -0.459828 0
M  V30 57 H 6.4653 0.973411 -1.79961 0
M  V30 58 H 6.4753 3.36745 -2.30362 0
M  V30 59 H 5.1503 2.65002 -3.20541 0
M  V30 60 H 3.7273 3.39885 -1.53403 0
M  V30 61 N 5.9124 1.20967 1.01018 0
M  V30 62 C 6.8754 0.965918 2.07853 0
M  V30 63 C 7.8754 -0.0610545 1.60684 0
M  V30 64 O 9.0654 0.175681 1.73312 0
M  V30 65 C 6.1974 0.455513 3.37843 0
M  V30 66 H 7.3904 1.91365 2.3091 0
M  V30 67 H 4.9434 1.02594 1.17916 0
M  V30 68 H 5.6784 -0.497381 3.20463 0
M  V30 69 H 5.4634 1.19622 3.73407 0
M  V30 70 H 6.9534 0.304667 4.16487 0
M  V30 71 N 7.3905 -1.2043 1.01659 0
M  V30 72 C 8.3535 -2.21433 0.591616 0
M  V30 73 C 9.3535 -1.57203 -0.338226 0
M  V30 74 O 10.5435 -1.73737 -0.126918 0
M  V30 75 C 7.6755 -3.40628 -0.136058 0
M  V30 76 H 8.8685 -2.60545 1.48514 0
M  V30 77 H 6.4215 -1.33893 0.806379 0
M  V30 78 H 7.1565 -3.07019 -1.04449 0
M  V30 79 H 6.9415 -3.88475 0.531917 0
M  V30 80 H 8.4315 -4.15475 -0.420735 0
M  V30 81 N 8.8686 -0.792821 -1.36206 0
M  V30 82 C 10.0936 -0.377701 -2.03932 0
M  V30 83 C 10.5186 0.998947 -1.59382 0
M  V30 84 O 9.8766 1.64421 -0.763903 0
M  V30 85 C 9.9246 -0.453635 -3.57735 0
M  V30 86 O 9.0286 0.538151 -4.08874 0
M  V30 87 H 8.3696 -0.159855 -0.644471 0
M  V30 88 H 10.8996 -1.07488 -1.7409 0
M  V30 89 H 10.9096 -0.318464 -4.06755 0
M  V30 90 H 9.5846 -1.45784 -3.89512 0
M  V30 91 H 8.1616 0.364359 -3.71116 0
M  V30 92 N 10.3467 1.47872 -0.545128 0
M  V30 93 C 11.2967 2.26842 0.229456 0
M  V30 94 C 12.2807 1.33626 0.896267 0
M  V30 95 O 13.4727 1.58063 0.79657 0
M  V30 96 C 10.6017 3.19089 1.26638 0
M  V30 97 C 9.6877 4.19783 0.603598 0
M  V30 98 N 10.0787 5.0479 -0.319405 0
M  V30 99 C 8.3767 4.3765 0.858989 0
M  V30 100 C 9.0777 5.77433 -0.703241 0
M  V30 101 N 8.0537 5.43566 -0.0608309 0
M  V30 102 H 11.8557 2.89947 -0.480391 0
M  V30 103 H 9.3697 1.58263 -0.364209 0
M  V30 104 H 11.3667 3.74337 1.83515 0
M  V30 105 H 10.0267 2.5754 1.97745 0
M  V30 106 H 11.0377 5.13244 -0.692889 0
M  V30 107 H 7.7147 3.87281 1.55948 0
M  V30 108 H 9.1047 6.55824 -1.46098 0
M  V30 109 N 11.8248 0.280983 1.55075 0
M  V30 110 C 13.2408 -0.0729964 1.59433 0
M  V30 111 C 13.4408 -1.5411 1.29817 0
M  V30 112 O 12.4968 -2.29086 1.06187 0
M  V30 113 C 13.8098 0.306921 2.9913 0
M  V30 114 C 15.3578 0.254023 3.11968 0
M  V30 115 C 15.8328 0.608467 4.5394 0
M  V30 116 N 17.3238 0.560241 4.59799 0
M  V30 117 C 18.0588 0.80722 5.6769 0
M  V30 118 N 17.5548 1.11912 6.83701 0
M  V30 119 N 19.3478 0.735623 5.57266 0
M  V30 120 H 11.4988 1.238 1.7259 0
M  V30 121 H 13.7618 0.500547 0.805082 0
M  V30 122 H 13.4678 1.32816 3.25657 0
M  V30 123 H 13.3418 -0.349363 3.75579 0
M  V30 124 H 15.7288 -0.75794 2.852 0
M  V30 125 H 15.8098 0.944649 2.37718 0
M  V30 126 H 15.4538 1.61814 4.81434 0
M  V30 127 H 15.3838 -0.104013 5.26497 0
M  V30 128 H 17.8748 0.329288 3.76463 0
M  V30 129 H 18.1878 1.29409 7.61888 0
M  V30 130 H 16.5328 1.15695 6.85303 0
M  V30 131 H 19.7238 0.491752 4.6551 0
M  V30 132 H 19.8968 0.931482 6.4127 0
M  V30 133 N 13.3029 -1.57598 0.00835791 0
M  V30 134 C 14.5519 -1.90107 -0.673968 0
M  V30 135 C 14.8649 -0.884275 -1.7447 0
M  V30 136 O 16.0709 -1.09987 -2.48224 0
M  V30 137 C 14.5269 -3.37497 -1.24995 0
M  V30 138 C 14.1349 -4.47491 -0.2136 0
M  V30 139 C 15.8789 -3.79104 -1.90999 0
M  V30 140 C 13.7859 -5.85963 -0.80005 0
M  V30 141 H 12.7159 -0.709393 -0.255495 0
M  V30 142 H 15.3669 -1.83365 0.0702693 0
M  V30 143 H 13.7489 -3.39102 -2.04513 0
M  V30 144 H 14.9229 -4.57414 0.557596 0
M  V30 145 H 13.2379 -4.14956 0.346474 0
M  V30 146 H 15.8349 -4.79901 -2.35795 0
M  V30 147 H 16.1779 -3.1306 -2.74407 0
M  V30 148 H 16.7109 -3.79833 -1.18203 0
M  V30 149 H 13.4499 -6.555 -0.00456708 0
M  V30 150 H 12.9699 -5.79687 -1.54021 0
M  V30 151 H 14.6489 -6.33884 -1.29615 0
M  V30 152 N 14.781 0.264519 -1.55364 0
M  V30 153 C 16.192 0.834936 -1.6699 0
M  V30 154 C 16.543 1.86718 -0.602552 0
M  V30 155 O 15.668 2.14899 0.254425 0
M  V30 156 C 16.263 1.5212 -3.02729 0
M  V30 157 C 14.822 2.03954 -3.16354 0
M  V30 158 C 13.969 0.884498 -2.62815 0
M  V30 159 H 16.92 0.0406869 -1.58648 0
M  V30 160 H 16.941 2.38853 -2.96191 0
M  V30 161 H 16.453 0.769668 -3.80392 0
M  V30 162 H 14.554 2.82041 -2.43482 0
M  V30 163 H 14.667 2.24902 -4.23032 0
M  V30 164 H 13.031 1.2802 -2.20188 0
M  V30 165 H 13.814 0.14634 -3.42988 0
M  V30 166 N 16.2591 1.48442 0.529413 0
M  V30 167 C 17.1891 1.65902 1.64313 0
M  V30 168 C 18.1701 0.507897 1.6234 0
M  V30 169 O 19.3551 0.740503 1.79528 0
M  V30 170 C 16.4851 1.69911 3.02898 0
M  V30 171 C 15.4391 2.8453 3.19729 0
M  V30 172 C 14.7651 2.73629 4.59381 0
M  V30 173 C 16.0651 4.25821 3.02447 0
M  V30 174 H 17.7591 2.5914 1.49955 0
M  V30 175 H 15.3051 1.24709 0.719982 0
M  V30 176 H 17.2581 1.80715 3.80684 0
M  V30 177 H 15.9821 0.732524 3.18279 0
M  V30 178 H 14.6411 2.73283 2.44361 0
M  V30 179 H 14.2891 1.74938 4.71599 0
M  V30 180 H 13.9891 3.50541 4.71588 0
M  V30 181 H 15.5131 2.86401 5.39265 0
M  V30 182 H 16.9271 4.37898 3.70024 0
M  V30 183 H 15.3241 5.03735 3.26146 0
M  V30 184 H 16.3941 4.42244 1.98867 0
M  V30 185 N 17.7372 -0.778329 1.37039 0
M  V30 186 C 18.9622 -1.57248 1.35233 0
M  V30 187 C 19.3872 -1.87999 -0.0615568 0
M  V30 188 O 18.7452 -1.48734 -1.03672 0
M  V30 189 C 18.7932 -2.86353 2.19167 0
M  V30 190 O 17.8972 -3.80442 1.59178 0
M  V30 191 H 17.2382 -0.476569 0.462362 0
M  V30 192 H 19.7682 -0.963853 1.80474 0
M  V30 193 H 19.7782 -3.35519 2.32145 0
M  V30 194 H 18.4532 -2.63299 3.21942 0
M  V30 195 H 17.0302 -3.39067 1.55203 0
M  V30 196 N 19.2153 -1.21501 -1.00376 0
M  V30 197 C 20.4923 -0.941745 -1.71437 0
M  V30 198 C 20.8723 0.546114 -2.03914 0
M  V30 199 O 20.2203 1.51128 -1.71384 0
M  V30 200 C 20.4303 -1.82812 -2.97289 0
M  V30 201 C 21.7783 -2.07771 -3.70292 0
M  V30 202 O 22.8023 -1.80171 -3.07273 0
M  V30 203 O 21.6613 -2.54456 -4.83647 0
M  V30 204 H 18.7553 -0.353243 -0.747762 0
M  V30 205 H 21.3013 -1.32436 -1.06108 0
M  V30 206 H 20.0733 -2.83501 -2.69709 0
M  V30 207 H 19.6963 -1.4464 -3.70358 0
M  V30 208 N 20.6934 1.19889 -1.02296 0
M  V30 209 C 21.9414 1.89046 -0.714558 0
M  V30 210 C 22.2624 1.79636 0.758681 0
M  V30 211 O 21.5324 1.20292 1.54618 0
M  V30 212 H 20.1124 0.699802 -0.261317 0
M  V30 213 H 22.7744 1.45574 -1.29592 0
M  V30 214 H 21.8704 2.95524 -1.0036 0
M  V30 215 N 22.1715 0.800033 1.35784 0
M  V30 216 C 23.1195 0.193851 2.31791 0
M  V30 217 C 24.1135 -0.652744 1.56319 0
M  V30 218 O 25.3195 -0.546641 1.71499 0
M  V30 219 H 21.6945 0.04392 0.750716 0
M  V30 220 H 23.6655 1.01883 2.80468 0
M  V30 221 C 22.4145 -0.648338 3.41602 0
M  V30 222 H 21.7375 -0.00624665 3.998 0
M  V30 223 H 23.1775 -1.03898 4.11073 0
M  V30 224 C 21.6365 -1.8111 2.84079 0
M  V30 225 O 22.1665 -2.90825 2.77099 0
M  V30 226 N 20.3725 -1.62056 2.41218 0
M  V30 227 H 19.9195 -0.728123 2.47095 0
M  V30 228 H 19.8775 -2.40013 2.03079 0
M  V30 229 N 23.6496 -1.47581 0.552962 0
M  V30 230 C 24.8746 -2.07378 0.0300593 0
M  V30 231 C 25.2996 -1.40355 -1.25229 0
M  V30 232 O 24.6576 -0.477099 -1.7491 0
M  V30 233 C 24.7056 -3.60274 -0.153231 0
M  V30 234 O 23.8096 -3.94041 -1.21678 0
M  V30 235 H 23.1506 -0.662158 0.0494182 0
M  V30 236 H 25.6806 -1.89662 0.767434 0
M  V30 237 H 25.6906 -4.0633 -0.368761 0
M  V30 238 H 24.3656 -4.08455 0.783397 0
M  V30 239 H 22.9426 -3.59735 -0.982079 0
M  V30 240 N 25.1277 -0.289203 -1.54924 0
M  V30 241 C 26.3767 0.324231 -1.99077 0
M  V30 242 C 26.6897 1.5591 -1.18117 0
M  V30 243 O 27.8957 2.24637 -1.52481 0
M  V30 244 C 26.3517 0.628209 -3.54375 0
M  V30 245 C 25.9597 -0.587647 -4.44129 0
M  V30 246 C 27.7037 1.20349 -4.07083 0
M  V30 247 C 25.6107 -0.257475 -5.90839 0
M  V30 248 H 24.5407 0.124924 -0.743579 0
M  V30 249 H 27.1917 -0.396063 -1.79175 0
M  V30 250 H 25.5737 1.40778 -3.70132 0
M  V30 251 H 26.7477 -1.36418 -4.40144 0
M  V30 252 H 25.0627 -1.08074 -4.0213 0
M  V30 253 H 27.6597 1.46456 -5.14252 0
M  V30 254 H 28.0027 2.14195 -3.56968 0
M  V30 255 H 28.5357 0.485889 -3.94821 0
M  V30 256 H 25.2747 -1.16419 -6.45079 0
M  V30 257 H 24.7947 0.482018 -5.9786 0
M  V30 258 H 26.4737 0.145238 -6.46837 0
M  V30 259 N 26.6058 1.57591 -0.0167156 0
M  V30 260 C 28.0168 1.79201 0.523834 0
M  V30 261 C 28.3678 0.925796 1.72984 0
M  V30 262 O 27.4928 0.132792 2.15992 0
M  V30 263 C 28.0878 3.25 0.957091 0
M  V30 264 C 26.6468 3.47648 1.44283 0
M  V30 265 C 25.7938 2.74374 0.401757 0
M  V30 266 H 28.7448 1.56831 -0.242816 0
M  V30 267 H 28.7658 3.34031 1.82219 0
M  V30 268 H 28.2778 3.88019 0.0791415 0
M  V30 269 H 26.3788 2.89866 2.34113 0
M  V30 270 H 26.4918 4.56352 1.45877 0
M  V30 271 H 24.8558 2.39485 0.867121 0
M  V30 272 H 25.6388 3.40102 -0.467513 0
M  V30 273 N 28.0839 -0.256276 1.55502 0
M  V30 274 C 29.3329 -0.983486 1.76098 0
M  V30 275 C 29.6459 -1.86837 0.578896 0
M  V30 276 O 30.8519 -2.63163 0.667648 0
M  V30 277 C 29.3079 -1.79868 3.1173 0
M  V30 278 C 28.9159 -0.961648 4.37557 0
M  V30 279 C 30.6599 -2.51919 3.41668 0
M  V30 280 C 28.5669 -1.77219 5.64223 0
M  V30 281 H 27.4969 -0.370936 0.656447 0
M  V30 282 H 30.1479 -0.238492 1.81944 0
M  V30 283 H 28.5299 -2.58527 2.99966 0
M  V30 284 H 29.7039 -0.218048 4.60284 0
M  V30 285 H 28.0189 -0.354913 4.14885 0
M  V30 286 H 30.6159 -3.12998 4.33516 0
M  V30 287 H 30.9589 -3.23059 2.62562 0
M  V30 288 H 31.4919 -1.80278 3.54605 0
M  V30 289 H 28.2309 -1.10471 6.46124 0
M  V30 290 H 27.7509 -2.49132 5.45613 0
M  V30 291 H 29.4299 -2.34169 6.03137 0
M  V30 292 N 29.562 -1.4872 -0.521534 0
M  V30 293 C 30.811 -1.56419 -1.27341 0
M  V30 294 C 31.124 -0.246805 -1.94037 0
M  V30 295 O 32.33 -0.202122 -2.70747 0
M  V30 296 C 30.786 -2.75896 -2.31105 0
M  V30 297 C 30.394 -4.14311 -1.70441 0
M  V30 298 C 32.138 -2.92913 -3.07249 0
M  V30 299 C 30.045 -5.25038 -2.72194 0
M  V30 300 H 28.975 -0.582344 -0.478949 0
M  V30 301 H 31.626 -1.75071 -0.549779 0
M  V30 302 H 30.008 -2.50697 -3.06541 0
M  V30 303 H 31.182 -4.49564 -1.01136 0
M  V30 304 H 29.497 -4.02482 -1.06759 0
M  V30 305 H 32.094 -3.72805 -3.83302 0
M  V30 306 H 32.437 -2.02689 -3.63625 0
M  V30 307 H 32.97 -3.18054 -2.38928 0
M  V30 308 H 29.709 -6.17255 -2.20627 0
M  V30 309 H 29.229 -4.94263 -3.39801 0
M  V30 310 H 30.908 -5.53508 -3.35019 0
M  V30 311 N 31.0401 0.771051 -1.3745 0
M  V30 312 C 32.2881 1.52661 -1.32435 0
M  V30 313 C 32.6091 1.9479 0.0905024 0
M  V30 314 O 31.8791 1.66348 1.03466 0
M  V30 315 H 30.4591 0.566218 -0.487244 0
M  V30 316 H 33.1211 0.917636 -1.71946 0
M  V30 317 H 32.2171 2.42568 -1.96385 0
M  V30 318 N 32.5182 1.22032 0.997298 0
M  V30 319 C 33.4482 1.01065 2.10495 0
M  V30 320 C 34.4292 -0.0669542 1.69968 0
M  V30 321 O 35.6142 0.0943987 1.9397 0
M  V30 322 C 32.7442 0.582874 3.42374 0
M  V30 323 C 31.6982 1.60592 3.96729 0
M  V30 324 C 31.0242 1.03412 5.24605 0
M  V30 325 C 32.3242 2.99478 4.27914 0
M  V30 326 H 34.0182 1.93708 2.28292 0
M  V30 327 H 31.5642 0.932761 1.09707 0
M  V30 328 H 33.5172 0.423332 4.19268 0
M  V30 329 H 32.2412 -0.379213 3.24391 0
M  V30 330 H 30.9002 1.75316 3.21963 0
M  V30 331 H 30.5482 0.063518 5.0296 0
M  V30 332 H 30.2482 1.71754 5.61938 0
M  V30 333 H 31.7722 0.886066 6.04137 0
M  V30 334 H 33.1862 2.88153 4.95622 0
M  V30 335 H 31.5832 3.64903 4.76409 0
M  V30 336 H 32.6532 3.49742 3.3587 0
M  V30 337 N 33.9963 -1.19345 1.0293 0
M  V30 338 C 35.2443 -1.88665 0.724574 0
M  V30 339 C 35.5653 -1.80036 -0.749144 0
M  V30 340 O 34.8353 -1.2111 -1.53978 0
M  V30 341 H 33.4153 -0.698406 0.265025 0
M  V30 342 H 36.0773 -1.44885 1.30362 0
M  V30 343 H 35.1733 -2.94987 1.01926 0
M  V30 344 N 35.4744 -0.807222 -1.35358 0
M  V30 345 C 36.7024 -0.400377 -2.02989 0
M  V30 346 C 37.1174 0.988859 -1.60832 0
M  V30 347 O 36.4744 1.63729 -0.806175 0
M  V30 348 C 36.5254 -0.474867 -3.58368 0
M  V30 349 O 36.2464 -1.80933 -3.98992 0
M  V30 350 C 37.7474 -0.0609112 -4.43258 0
M  V30 351 H 34.9674 -0.162587 -0.651004 0
M  V30 352 H 37.5114 -1.09102 -1.72965 0
M  V30 353 H 35.6664 0.167534 -3.87038 0
M  V30 354 H 36.0804 -1.77256 -4.9364 0
M  V30 355 H 37.5544 -0.164145 -5.51756 0
M  V30 356 H 38.0314 0.993831 -4.27808 0
M  V30 357 H 38.6374 -0.676492 -4.19885 0
M  V30 358 N 36.9525 1.47285 -0.560781 0
M  V30 359 C 38.1825 2.06555 -0.0429638 0
M  V30 360 C 38.5905 1.41339 1.25777 0
M  V30 361 O 37.9335 0.505182 1.76617 0
M  V30 362 C 37.9955 3.58827 0.219887 0
M  V30 363 C 37.6595 4.46105 -0.991944 0
M  V30 364 C 38.6565 4.84 -1.89843 0
M  V30 365 C 36.3415 4.87567 -1.20762 0
M  V30 366 C 38.3355 5.6216 -3.00425 0
M  V30 367 C 36.0225 5.65491 -2.31653 0
M  V30 368 C 37.0205 6.02699 -3.21315 0
M  V30 369 O 36.7085 6.79052 -4.30283 0
M  V30 370 H 36.4405 0.674537 -0.0444468 0
M  V30 371 H 38.9945 1.90225 -0.774818 0
M  V30 372 H 37.2245 3.73383 1.00609 0
M  V30 373 H 38.9135 4.00103 0.683522 0
M  V30 374 H 39.6795 4.52564 -1.74387 0
M  V30 375 H 35.5585 4.5807 -0.518893 0
M  V30 376 H 39.1025 5.9112 -3.70436 0
M  V30 377 H 34.9995 5.9634 -2.47081 0
M  V30 378 H 35.7675 6.9745 -4.28376 0
M  V30 379 N 38.4306 0.297415 1.54768 0
M  V30 380 C 39.6556 -0.318435 2.04941 0
M  V30 381 C 40.0806 -1.4701 1.17345 0
M  V30 382 O 39.4386 -1.80436 0.176758 0
M  V30 383 C 39.4866 -0.755749 3.52592 0
M  V30 384 O 38.5906 -1.86088 3.68028 0
M  V30 385 H 37.9316 -0.062421 0.661059 0
M  V30 386 H 40.4616 0.438215 1.99852 0
M  V30 387 H 40.4716 -1.04552 3.94376 0
M  V30 388 H 39.1466 0.0867233 4.1581 0
M  V30 389 H 37.7236 -1.57193 3.38149 0
M  V30 390 N 39.9087 -1.5758 0.0250728 0
M  V30 391 C 40.8187 -2.1343 -0.973905 0
M  V30 392 C 41.8347 -1.08556 -1.35984 0
M  V30 393 O 43.0107 -1.40592 -1.44207 0
M  V30 394 C 40.0757 -2.64703 -2.23904 0
M  V30 395 C 39.1367 -3.84276 -1.91391 0
M  V30 396 C 38.3697 -4.33095 -3.11873 0
M  V30 397 O 38.5927 -3.81107 -4.24398 0
M  V30 398 O 37.5267 -5.24984 -2.94406 0
M  V30 399 H 41.3527 -2.99057 -0.529036 0
M  V30 400 H 38.9377 -1.48118 -0.195288 0
M  V30 401 H 40.8197 -2.97769 -2.98181 0
M  V30 402 H 39.4947 -1.82161 -2.6758 0
M  V30 403 H 38.4017 -3.56143 -1.14511 0
M  V30 404 H 39.7347 -4.67968 -1.52534 0
M  V30 405 N 41.3868 0.248026 -1.55636 0
M  V30 406 C 42.7978 0.817177 -1.67866 0
M  V30 407 C 43.1488 1.86069 -0.622322 0
M  V30 408 O 42.2738 2.15157 0.231618 0
M  V30 409 C 42.8688 1.489 -3.04326 0
M  V30 410 C 41.4278 2.00587 -3.185 0
M  V30 411 C 40.5748 0.856573 -2.63739 0
M  V30 412 H 43.5258 0.0238579 -1.58682 0
M  V30 413 H 43.5468 2.35698 -2.98708 0
M  V30 414 H 43.0588 0.729279 -3.81186 0
M  V30 415 H 41.1598 2.79443 -2.4646 0
M  V30 416 H 41.2728 2.20402 -4.25393 0
M  V30 417 H 39.6368 1.25678 -2.21534 0
M  V30 418 H 40.4198 0.109953 -3.43124 0
M  V30 419 N 42.8649 1.48995 0.513639 0
M  V30 420 C 43.8119 1.6473 1.61656 0
M  V30 421 C 44.7819 0.488984 1.58739 0
M  V30 422 O 45.9669 0.714478 1.76918 0
M  V30 423 C 43.1069 1.7082 2.99858 0
M  V30 424 C 42.2199 2.9787 3.12885 0
M  V30 425 C 41.3549 2.95017 4.41744 0
M  V30 426 C 40.3939 4.16702 4.48359 0
M  V30 427 N 39.5309 4.11832 5.68629 0
M  V30 428 H 44.3709 2.58909 1.47547 0
M  V30 429 H 41.9079 1.28382 0.71808 0
M  V30 430 H 43.8659 1.72331 3.79944 0
M  V30 431 H 42.4959 0.801181 3.12699 0
M  V30 432 H 41.5479 3.06029 2.25944 0
M  V30 433 H 42.8599 3.8786 3.13633 0
M  V30 434 H 42.0139 2.95021 5.30139 0
M  V30 435 H 40.7529 2.02784 4.43542 0
M  V30 436 H 39.7579 4.16955 3.58369 0
M  V30 437 H 40.9829 5.10113 4.48287 0
M  V30 438 H 38.9289 3.22428 5.71293 0
M  V30 439 H 38.8459 4.95543 5.7094 0
M  V30 440 H 40.1139 4.1592 6.59266 0
M  V30 441 N 44.343 -0.763751 1.37857 0
M  V30 442 C 45.568 -1.55805 1.36893 0
M  V30 443 C 45.993 -1.88054 -0.0416135 0
M  V30 444 O 45.351 -1.49825 -1.02089 0
M  V30 445 C 45.399 -2.84012 2.22192 0
M  V30 446 O 44.503 -3.78732 1.63204 0
M  V30 447 H 43.844 -0.471638 0.46739 0
M  V30 448 H 46.374 -0.944657 1.81487 0
M  V30 449 H 46.384 -3.33037 2.35691 0
M  V30 450 H 45.059 -2.59869 3.24716 0
M  V30 451 H 43.636 -3.37402 1.58791 0
M  V30 452 N 45.8211 -1.22559 -0.990812 0
M  V30 453 C 47.0491 -1.07779 -1.76611 0
M  V30 454 C 47.4641 0.371513 -1.85109 0
M  V30 455 O 46.8211 1.25737 -1.32274 0
M  V30 456 C 46.8721 -1.68512 -3.19822 0
M  V30 457 O 46.5931 -3.07774 -3.1178 0
M  V30 458 C 48.0941 -1.59035 -4.13791 0
M  V30 459 H 45.3141 -0.377729 -0.554583 0
M  V30 460 H 47.8581 -1.62195 -1.24551 0
M  V30 461 H 46.0131 -1.18154 -3.68942 0
M  V30 462 H 46.4271 -3.37062 -4.01858 0
M  V30 463 H 47.9011 -2.0625 -5.1202 0
M  V30 464 H 48.3781 -0.547273 -4.35777 0
M  V30 465 H 48.9841 -2.08709 -3.70568 0
M  V30 466 N 47.2992 1.18797 -1.03562 0
M  V30 467 C 48.7102 1.70322 -0.764676 0
M  V30 468 C 49.0612 1.82708 0.714996 0
M  V30 469 O 48.1862 1.50299 1.55689 0
M  V30 470 C 48.7812 3.09356 -1.38145 0
M  V30 471 C 47.3402 3.58114 -1.15895 0
M  V30 472 C 46.4872 2.34798 -1.4753 0
M  V30 473 H 49.4382 1.03543 -1.20268 0
M  V30 474 H 49.4592 3.72378 -0.781977 0
M  V30 475 H 48.9712 3.00309 -2.45837 0
M  V30 476 H 47.0722 3.72464 -0.100544 0
M  V30 477 H 47.1852 4.4184 -1.8524 0
M  V30 478 H 45.5492 2.38464 -0.894829 0
M  V30 479 H 46.3322 2.28375 -2.56319 0
M  V30 480 N 48.7773 0.814389 1.34928 0
M  V30 481 C 49.7243 0.22822 2.29669 0
M  V30 482 C 50.6943 -0.642164 1.53184 0
M  V30 483 O 51.8793 -0.585605 1.81591 0
M  V30 484 C 49.0193 -0.61089 3.3965 0
M  V30 485 C 48.1323 0.280792 4.31086 0
M  V30 486 C 47.2673 -0.567067 5.28165 0
M  V30 487 C 46.3063 0.324531 6.11239 0
M  V30 488 N 45.4433 -0.483756 7.00431 0
M  V30 489 H 50.2833 1.04153 2.79206 0
M  V30 490 H 47.8203 0.525133 1.37407 0
M  V30 491 H 49.7783 -1.11263 4.0209 0
M  V30 492 H 48.4083 -1.38939 2.91369 0
M  V30 493 H 47.4603 0.900688 3.69583 0
M  V30 494 H 48.7723 0.966723 4.89342 0
M  V30 495 H 47.9263 -1.13363 5.96015 0
M  V30 496 H 46.6653 -1.28654 4.70425 0
M  V30 497 H 45.6703 0.903298 5.42329 0
M  V30 498 H 46.8953 1.04198 6.71059 0
M  V30 499 H 44.8413 -1.18706 6.45171 0
M  V30 500 H 44.7583 0.143965 7.55863 0
M  V30 501 H 46.0263 -1.03334 7.7262 0
M  V30 502 N 50.2554 -1.46986 0.568584 0
M  V30 503 C 51.5034 -2.02041 0.0487022 0
M  V30 504 C 51.8244 -1.44408 -1.31039 0
M  V30 505 O 51.0944 -0.623477 -1.85714 0
M  V30 506 H 49.6744 -0.746849 0.015014 0
M  V30 507 H 52.3364 -1.80257 0.741168 0
M  V30 508 H 51.4324 -3.12085 -0.0308961 0
M  V30 509 N 51.7335 -0.305618 -1.54608 0
M  V30 510 C 52.6965 0.555591 -2.22364 0
M  V30 511 C 53.6965 1.05768 -1.21119 0
M  V30 512 O 54.8865 0.952972 -1.45822 0
M  V30 513 C 52.0185 1.76974 -2.91364 0
M  V30 514 H 53.2115 -0.0364572 -2.99878 0
M  V30 515 H 50.7645 -0.0565007 -1.56198 0
M  V30 516 H 51.4995 2.40151 -2.17941 0
M  V30 517 H 51.2845 1.41732 -3.65588 0
M  V30 518 H 52.7745 2.38148 -3.43038 0
M  V30 519 N 53.2116 1.57565 -0.0334293 0
M  V30 520 C 54.4516 1.93844 0.648379 0
M  V30 521 C 54.8156 0.910387 1.69044 0
M  V30 522 O 56.0166 1.15952 2.42505 0
M  V30 523 C 54.2876 3.35017 1.24492 0
M  V30 524 S 55.8466 3.93229 1.94721 0
M  V30 525 H 52.6646 0.678231 0.213364 0
M  V30 526 H 55.2666 1.95254 -0.0981253 0
M  V30 527 H 53.9706 4.07652 0.474128 0
M  V30 528 H 53.5016 3.37061 2.02864 0
M  V30 529 H 55.5166 3.77014 3.22606 0
M  V30 530 N 54.6897 -0.239769 1.55765 0
M  V30 531 C 55.6527 -1.28038 1.90103 0
M  V30 532 C 56.6527 -1.40723 0.778055 0
M  V30 533 O 57.8427 -1.39301 1.04599 0
M  V30 534 C 54.9747 -2.65702 2.13577 0
M  V30 535 H 56.1677 -0.988048 2.83157 0
M  V30 536 H 53.7207 -0.479382 1.48767 0
M  V30 537 H 54.4557 -3.00063 1.23015 0
M  V30 538 H 54.2407 -2.57875 2.95369 0
M  V30 539 H 55.7307 -3.40828 2.41301 0
M  V30 540 N 56.1678 -1.49265 -0.50573 0
M  V30 541 C 57.3958 -1.62215 -1.28429 0
M  V30 542 C 57.8108 -0.291697 -1.86533 0
M  V30 543 O 57.1678 0.722233 -1.67601 0
M  V30 544 C 57.2188 -2.68735 -2.41793 0
M  V30 545 O 56.9398 -3.96619 -1.86078 0
M  V30 546 C 58.4408 -2.92346 -3.3324 0
M  V30 547 H 55.6608 -0.546239 -0.389697 0
M  V30 548 H 58.2048 -1.95265 -0.607609 0
M  V30 549 H 56.3598 -2.38476 -3.053 0
M  V30 550 H 56.7738 -4.55256 -2.60465 0
M  V30 551 H 58.2478 -3.70623 -4.09075 0
M  V30 552 H 58.7248 -2.02081 -3.89948 0
M  V30 553 H 59.3308 -3.24003 -2.75503 0
M  V30 554 N 57.6459 0.756429 -1.3826 0
M  V30 555 C 58.8709 1.55077 -1.37717 0
M  V30 556 C 59.2959 1.88073 0.03164 0
M  V30 557 O 58.6539 1.50364 1.01293 0
M  V30 558 C 58.7019 2.8283 -2.23695 0
M  V30 559 O 57.8059 3.77862 -1.6521 0
M  V30 560 H 57.1469 0.469152 -0.469885 0
M  V30 561 H 59.6769 0.935019 -1.81985 0
M  V30 562 H 59.6869 3.31783 -2.37453 0
M  V30 563 H 58.3619 2.58144 -3.2609 0
M  V30 564 H 56.9389 3.36555 -1.60578 0
M  V30 565 N 59.124 1.23083 0.984299 0
M  V30 566 C 60.37 1.06214 1.72761 0
M  V30 567 C 60.703 -0.400584 1.90024 0
M  V30 568 O 59.978 -1.29672 1.44967 0
M  V30 569 C 60.261 1.78375 3.12817 0
M  V30 570 C 60.114 3.32296 3.03149 0
M  V30 571 C 61.433 1.54309 4.12161 0
M  V30 572 H 58.552 0.387251 0.627061 0
M  V30 573 H 61.194 1.51536 1.14616 0
M  V30 574 H 59.344 1.39848 3.62457 0
M  V30 575 H 61.016 3.8032 2.61064 0
M  V30 576 H 59.259 3.6153 2.39747 0
M  V30 577 H 59.93 3.77972 4.02295 0
M  V30 578 H 62.406 1.87791 3.71314 0
M  V30 579 H 61.282 2.07281 5.08258 0
M  V30 580 H 61.543 0.477572 4.39513 0
M  V30 581 N 60.6021 -1.18246 1.0419 0
M  V30 582 C 61.5491 -2.2192 0.634037 0
M  V30 583 C 62.5191 -1.62179 -0.358765 0
M  V30 584 O 63.7041 -1.89122 -0.252466 0
M  V30 585 C 60.8441 -3.451 0.00445535 0
M  V30 586 C 59.9571 -4.19174 1.04487 0
M  V30 587 C 59.0921 -5.29813 0.383676 0
M  V30 588 C 58.1311 -5.9566 1.4091 0
M  V30 589 N 57.2681 -6.97834 0.772784 0
M  V30 590 H 62.1081 -2.56164 1.52263 0
M  V30 591 H 59.6451 -1.25843 0.761701 0
M  V30 592 H 61.6031 -4.15485 -0.377919 0
M  V30 593 H 60.2331 -3.11472 -0.847652 0
M  V30 594 H 59.2851 -3.47604 1.54518 0
M  V30 595 H 60.5971 -4.64267 1.82368 0
M  V30 596 H 59.7511 -6.06677 -0.0528366 0
M  V30 597 H 58.4901 -4.85825 -0.427208 0
M  V30 598 H 57.4951 -5.17535 1.85574 0
M  V30 599 H 58.7201 -6.4173 2.22171 0
M  V30 600 H 56.6661 -6.55998 -0.0177708 0
M  V30 601 H 56.5831 -7.41186 1.48928 0
M  V30 602 H 57.8511 -7.78665 0.36071 0
M  V30 603 N 62.0802 -0.821533 -1.34494 0
M  V30 604 C 63.3262 -0.409552 -1.98622 0
M  V30 605 C 63.6592 1.0244 -1.64984 0
M  V30 606 O 62.9342 1.71325 -0.920758 0
M  V30 607 C 63.2172 -0.610458 -3.54888 0
M  V30 608 C 63.0702 -2.09043 -3.98273 0
M  V30 609 C 64.3892 -0.0455379 -4.40076 0
M  V30 610 H 61.5082 -0.15028 -0.721516 0
M  V30 611 H 64.1502 -1.03384 -1.59411 0
M  V30 612 H 62.3002 -0.079044 -3.8842 0
M  V30 613 H 63.9722 -2.68537 -3.75081 0
M  V30 614 H 62.2152 -2.58139 -3.48635 0
M  V30 615 H 62.8862 -2.18182 -5.07051 0
M  V30 616 H 65.3622 -0.499557 -4.1309 0
M  V30 617 H 64.2382 -0.215922 -5.48475 0
M  V30 618 H 64.4992 1.04939 -4.29465 0
M  V30 619 N 63.5583 1.46682 -0.576371 0
M  V30 620 C 64.5213 2.28707 0.150239 0
M  V30 621 C 65.5213 1.38035 0.824794 0
M  V30 622 O 66.7113 1.60476 0.677719 0
M  V30 623 C 63.8433 3.18248 1.22192 0
M  V30 624 H 65.0363 2.94423 -0.570521 0
M  V30 625 H 62.5893 1.52688 -0.334078 0
M  V30 626 H 63.3243 2.57265 1.97447 0
M  V30 627 H 63.1093 3.85 0.742812 0
M  V30 628 H 64.5993 3.80001 1.73172 0
M  V30 629 N 65.0364 0.313813 1.54444 0
M  V30 630 C 66.2854 -0.292519 1.99568 0
M  V30 631 C 66.5984 -1.54011 1.20582 0
M  V30 632 O 67.8044 -2.22183 1.56035 0
M  V30 633 C 66.2604 -0.571752 3.55329 0
M  V30 634 C 65.8684 0.658229 4.43138 0
M  V30 635 C 67.6124 -1.13857 4.08946 0
M  V30 636 C 65.5194 0.351439 5.90355 0
M  V30 637 H 64.4494 -0.113079 0.745472 0
M  V30 638 H 67.1004 0.424518 1.78522 0
M  V30 639 H 65.4824 -1.34872 3.72325 0
M  V30 640 H 66.6564 1.43403 4.37918 0
M  V30 641 H 64.9714 1.14458 4.0036 0
M  V30 642 H 67.5684 -1.38257 5.16516 0
M  V30 643 H 67.9114 -2.08489 3.6033 0
M  V30 644 H 68.4444 -0.423015 3.95544 0
M  V30 645 H 65.1834 1.26667 6.43145 0
M  V30 646 H 64.7034 -0.386842 5.98551 0
M  V30 647 H 66.3824 -0.0423134 6.46986 0
M  V30 648 N 66.5145 -1.57545 0.0417849 0
M  V30 649 C 67.7915 -1.83642 -0.673433 0
M  V30 650 C 68.1715 -0.928298 -1.89594 0
M  V30 651 O 67.5195 0.0129955 -2.28496 0
M  V30 652 C 67.7295 -3.33155 -1.03964 0
M  V30 653 C 69.0775 -3.99941 -1.42592 0
M  V30 654 O 70.1015 -3.37725 -1.13226 0
M  V30 655 O 68.9605 -5.09619 -1.9736 0
M  V30 656 H 66.0545 -0.757638 -0.331533 0
M  V30 657 H 68.6005 -1.69554 0.070433 0
M  V30 658 H 67.3725 -3.9093 -0.170098 0
M  V30 659 H 66.9955 -3.52396 -1.84126 0
M  V30 660 N 67.9926 0.231505 -1.5589 0
M  V30 661 C 69.2206 0.974505 -1.82513 0
M  V30 662 C 69.6356 1.78344 -0.619591 0
M  V30 663 O 68.9926 1.77792 0.411848 0
M  V30 664 C 69.0436 1.90007 -3.07538 0
M  V30 665 O 68.7646 1.12385 -4.2344 0
M  V30 666 C 70.2656 2.75779 -3.47075 0
M  V30 667 H 67.4856 0.286065 -0.606966 0
M  V30 668 H 70.0296 0.249739 -2.02969 0
M  V30 669 H 68.1846 2.57891 -2.89086 0
M  V30 670 H 68.5986 1.75125 -4.944 0
M  V30 671 H 70.0726 3.36443 -4.37619 0
M  V30 672 H 70.5496 3.47672 -2.68367 0
M  V30 673 H 71.1556 2.13323 -3.67931 0
M  V30 674 N 69.4707 1.49531 0.497807 0
M  V30 675 C 70.7187 1.58865 1.24926 0
M  V30 676 C 71.0397 0.278721 1.92998 0
M  V30 677 O 70.3097 -0.702144 1.82885 0
M  V30 678 H 68.8897 0.585343 0.464094 0
M  V30 679 H 71.5517 1.86174 0.57666 0
M  V30 680 H 70.6477 2.38633 2.01149 0
M  V30 681 N 70.9488 -0.749086 1.3866 0
M  V30 682 C 72.1788 -1.53611 1.38157 0
M  V30 683 C 72.5868 -1.89177 -0.0293595 0
M  V30 684 O 71.9298 -1.53606 -1.00752 0
M  V30 685 C 71.9918 -2.86087 2.17702 0
M  V30 686 C 71.6558 -2.73034 3.66472 0
M  V30 687 C 72.6528 -2.42526 4.59866 0
M  V30 688 C 70.3378 -2.90345 4.09884 0
M  V30 689 C 72.3318 -2.29492 5.94653 0
M  V30 690 C 70.0188 -2.7693 5.4475 0
M  V30 691 C 71.0168 -2.46547 6.36949 0
M  V30 692 O 70.7048 -2.33199 7.69333 0
M  V30 693 H 70.4368 -0.481773 0.474205 0
M  V30 694 H 72.9908 -0.934465 1.82912 0
M  V30 695 H 71.2208 -3.48458 1.67672 0
M  V30 696 H 72.9098 -3.47625 2.09551 0
M  V30 697 H 73.6758 -2.28816 4.27631 0
M  V30 698 H 69.5548 -3.1299 3.38464 0
M  V30 699 H 73.0988 -2.05698 6.66584 0
M  V30 700 H 68.9958 -2.90215 5.76581 0
M  V30 701 H 69.7638 -2.48376 7.79905 0
M  V30 702 N 72.4269 -1.23603 -0.977757 0
M  V30 703 C 73.8429 -0.999251 -1.24447 0
M  V30 704 C 74.0429 0.298053 -1.99283 0
M  V30 705 O 73.0989 1.01681 -2.31122 0
M  V30 706 C 74.4119 -2.20784 -2.04144 0
M  V30 707 C 75.9599 -2.25303 -2.17273 0
M  V30 708 C 76.4349 -3.45755 -3.00362 0
M  V30 709 N 77.9259 -3.4601 -3.07947 0
M  V30 710 C 78.6609 -4.35868 -3.72568 0
M  V30 711 N 78.1569 -5.35966 -4.38991 0
M  V30 712 N 79.9499 -4.23605 -3.6948 0
M  V30 713 H 72.1009 -2.06986 -0.476483 0
M  V30 714 H 74.3639 -0.907801 -0.273134 0
M  V30 715 H 74.0699 -3.14945 -1.56533 0
M  V30 716 H 73.9439 -2.22085 -3.04891 0
M  V30 717 H 76.3309 -1.3168 -2.64092 0
M  V30 718 H 76.4119 -2.28033 -1.15907 0
M  V30 719 H 76.0559 -4.39687 -2.5424 0
M  V30 720 H 75.9859 -3.40266 -4.01904 0
M  V30 721 H 78.4769 -2.73588 -2.60688 0
M  V30 722 H 78.7899 -6.00783 -4.86086 0
M  V30 723 H 77.1349 -5.39863 -4.37691 0
M  V30 724 H 80.3259 -3.44647 -3.16759 0
M  V30 725 H 80.4989 -4.93836 -4.1956 0
M  V30 726 N 73.905 1.17692 -1.04816 0
M  V30 727 C 74.855 2.1952 -0.616042 0
M  V30 728 C 75.839 1.57147 0.345485 0
M  V30 729 O 77.031 1.76245 0.163325 0
M  V30 730 C 74.16 3.43298 0.0116917 0
M  V30 731 C 73.246 4.12777 -0.973435 0
M  V30 732 N 73.637 4.5814 -2.14339 0
M  V30 733 C 71.935 4.38747 -0.80108 0
M  V30 734 C 72.636 5.11713 -2.7663 0
M  V30 735 N 71.612 5.03686 -2.04453 0
M  V30 736 H 75.414 2.52293 -1.5075 0
M  V30 737 H 72.928 1.3398 -0.917776 0
M  V30 738 H 74.925 4.15519 0.339006 0
M  V30 739 H 73.585 3.12018 0.898593 0
M  V30 740 H 74.596 4.52349 -2.52191 0
M  V30 741 H 71.273 4.17485 0.0350934 0
M  V30 742 H 72.663 5.56962 -3.75823 0
M  V30 743 N 75.3831 0.828654 1.34056 0
M  V30 744 C 76.6321 0.415828 1.97367 0
M  V30 745 C 76.9451 -1.02796 1.6641 0
M  V30 746 O 78.1511 -1.54497 2.23255 0
M  V30 747 C 76.6071 0.692601 3.53173 0
M  V30 748 C 76.2151 2.15038 3.93017 0
M  V30 749 C 77.9591 0.346222 4.23086 0
M  V30 750 C 75.8661 2.37174 5.41758 0
M  V30 751 H 74.7961 0.151755 0.738571 0
M  V30 752 H 77.4471 1.01581 1.52819 0
M  V30 753 H 75.8291 0.0223764 3.95994 0
M  V30 754 H 77.0031 2.86024 3.61285 0
M  V30 755 H 75.3181 2.45875 3.36057 0
M  V30 756 H 77.9151 0.48937 5.32456 0
M  V30 757 H 78.2581 -0.709842 4.10204 0
M  V30 758 H 78.7911 0.971258 3.85761 0
M  V30 759 H 75.5301 3.41308 5.59633 0
M  V30 760 H 75.0501 1.70738 5.74986 0
M  V30 761 H 76.7291 2.19818 6.08514 0
M  V30 762 N 76.8612 -1.46375 0.584142 0
M  V30 763 C 78.1382 -1.956 0.0033388 0
M  V30 764 C 78.5182 -1.52679 -1.45782 0
M  V30 765 O 77.8662 -0.77816 -2.14842 0
M  V30 766 C 78.0762 -3.48551 0.176891 0
M  V30 767 C 79.4242 -4.24576 0.0454609 0
M  V30 768 O 80.4482 -3.56043 0.105801 0
M  V30 769 O 79.3072 -5.46427 -0.0890376 0
M  V30 770 H 76.4012 -0.825547 -0.0490066 0
M  V30 771 H 78.9472 -1.56652 0.65256 0
M  V30 772 H 77.7192 -3.72683 1.1926 0
M  V30 773 H 77.3422 -3.94332 -0.508695 0
M  V30 774 N 78.3393 -0.321999 -1.54275 0
M  V30 775 C 79.5873 0.280489 -2.00144 0
M  V30 776 C 79.9083 1.52777 -1.21178 0
M  V30 777 O 79.1783 1.9338 -0.313187 0
M  V30 778 H 77.7583 0.106632 -0.73935 0
M  V30 779 H 80.4203 -0.438184 -1.8991 0
M  V30 780 H 79.5163 0.537972 -3.07428 0
M  V30 781 N 79.8174 1.5752 -0.0501392 0
M  V30 782 C 80.7804 2.1037 0.909786 0
M  V30 783 C 81.7804 1.02308 1.24056 0
M  V30 784 O 82.9704 1.28385 1.17741 0
M  V30 785 C 80.1024 2.58708 2.21998 0
M  V30 786 H 81.2954 2.96479 0.451665 0
M  V30 787 H 78.8484 1.55038 0.198248 0
M  V30 788 H 79.5834 1.75989 2.72394 0
M  V30 789 H 79.3684 3.37675 1.99295 0
M  V30 790 H 80.8584 2.99747 2.9076 0
M  V30 791 N 81.2955 -0.223234 1.56011 0
M  V30 792 C 82.5255 -0.963413 1.82762 0
M  V30 793 C 82.9335 -1.78516 0.626804 0
M  V30 794 O 82.2765 -1.78974 -0.414014 0
M  V30 795 C 82.3385 -1.93126 3.0322 0
M  V30 796 C 82.0025 -1.2942 4.38291 0
M  V30 797 C 82.9995 -0.684916 5.15369 0
M  V30 798 C 80.6845 -1.30647 4.85012 0
M  V30 799 C 82.6785 -0.0963971 6.37327 0
M  V30 800 C 80.3655 -0.71411 6.06913 0
M  V30 801 C 81.3635 -0.110123 6.82911 0
M  V30 802 O 81.0515 0.47303 8.02507 0
M  V30 803 H 80.7835 -0.288011 0.611576 0
M  V30 804 H 83.3375 -0.244103 2.03944 0
M  V30 805 H 81.5675 -2.68952 2.77852 0
M  V30 806 H 83.2565 -2.53685 3.16857 0
M  V30 807 H 84.0225 -0.667774 4.80381 0
M  V30 808 H 79.9015 -1.76598 4.25833 0
M  V30 809 H 83.4455 0.375657 6.96588 0
M  V30 810 H 79.3425 -0.728659 6.41374 0
M  V30 811 H 80.1105 0.367186 8.17676 0
M  V30 812 N 82.7736 -1.49793 -0.48987 0
M  V30 813 C 84.0226 -1.59085 -1.23995 0
M  V30 814 C 84.3356 -0.287907 -1.9347 0
M  V30 815 O 85.5416 -0.259506 -2.70257 0
M  V30 816 C 83.9976 -2.80736 -2.252 0
M  V30 817 C 83.6056 -4.17833 -1.61614 0
M  V30 818 C 85.3496 -2.99364 -3.00967 0
M  V30 819 C 83.2566 -5.30693 -2.60996 0
M  V30 820 H 82.1866 -0.592372 -0.466488 0
M  V30 821 H 84.8376 -1.76197 -0.51252 0
M  V30 822 H 83.2196 -2.57142 -3.01154 0
M  V30 823 H 84.3936 -4.51608 -0.915774 0
M  V30 824 H 82.7086 -4.04656 -0.981977 0
M  V30 825 H 85.3056 -3.80851 -3.75308 0
M  V30 826 H 85.6486 -2.10356 -3.59244 0
M  V30 827 H 86.1816 -3.2305 -2.32128 0
M  V30 828 H 82.9206 -6.21796 -2.07485 0
M  V30 829 H 82.4406 -5.01359 -3.2924 0
M  V30 830 H 84.1196 -5.6049 -3.23202 0
M  V30 831 N 84.2517 0.741722 -1.39055 0
M  V30 832 C 85.4817 1.52876 -1.3897 0
M  V30 833 C 85.8897 1.8919 0.0193266 0
M  V30 834 O 85.2327 1.54138 0.999356 0
M  V30 835 C 85.2947 2.84929 -2.19216 0
M  V30 836 C 84.9587 2.71086 -3.67915 0
M  V30 837 C 85.9557 2.40084 -4.61146 0
M  V30 838 C 83.6407 2.88168 -4.11418 0
M  V30 839 C 85.6347 2.26335 -5.95862 0
M  V30 840 C 83.3217 2.74037 -5.46211 0
M  V30 841 C 84.3197 2.43166 -6.38247 0
M  V30 842 O 84.0077 2.29115 -7.70559 0
M  V30 843 H 83.7397 0.479252 -0.476753 0
M  V30 844 H 86.2937 0.924751 -1.83405 0
M  V30 845 H 84.5237 3.47564 -1.69518 0
M  V30 846 H 86.2127 3.46509 -2.11392 0
M  V30 847 H 86.9787 2.26545 -4.28838 0
M  V30 848 H 82.8577 3.11191 -3.40119 0
M  V30 849 H 86.4017 2.0216 -6.67665 0
M  V30 850 H 82.2987 2.87153 -5.78112 0
M  V30 851 H 83.0667 2.44237 -7.81211 0
M  V30 852 N 85.7298 1.2412 0.971189 0
M  V30 853 C 86.6618 0.988349 2.06795 0
M  V30 854 C 87.6748 -0.0409541 1.62748 0
M  V30 855 O 88.8638 0.195673 1.77424 0
M  V30 856 C 85.9638 0.469023 3.35639 0
M  V30 857 C 85.1368 1.56065 4.08611 0
M  V30 858 C 84.1958 1.04458 5.15728 0
M  V30 859 O 83.2218 1.73553 5.42096 0
M  V30 860 N 84.4238 -0.122817 5.8037 0
M  V30 861 H 87.1888 1.93265 2.29061 0
M  V30 862 H 84.7498 1.15102 1.13856 0
M  V30 863 H 86.7418 0.108613 4.04554 0
M  V30 864 H 85.3118 -0.380919 3.1027 0
M  V30 865 H 84.5318 2.09341 3.34021 0
M  V30 866 H 85.8198 2.29449 4.54126 0
M  V30 867 H 85.2178 -0.700563 5.61345 0
M  V30 868 H 83.7748 -0.424404 6.50417 0
M  V30 869 N 87.2079 -1.17134 1.05439 0
M  V30 870 C 88.1559 -2.23289 0.651511 0
M  V30 871 C 89.1499 -1.66186 -0.328411 0
M  V30 872 O 90.3559 -1.78949 -0.194206 0
M  V30 873 H 86.7309 -0.726938 0.192523 0
M  V30 874 H 88.7019 -2.54565 1.55689 0
M  V30 875 C 87.4509 -3.47671 0.0448436 0
M  V30 876 H 86.7739 -3.91918 0.78996 0
M  V30 877 H 88.2139 -4.2353 -0.19964 0
M  V30 878 C 86.6729 -3.14453 -1.20918 0
M  V30 879 O 87.2029 -3.29459 -2.29825 0
M  V30 880 N 85.4089 -2.68657 -1.10779 0
M  V30 881 H 84.9559 -2.56646 -0.221526 0
M  V30 882 H 84.9139 -2.46804 -1.9477 0
M  V30 883 N 88.686 -0.835752 -1.33615 0
M  V30 884 C 89.596 -0.269088 -2.33052 0
M  V30 885 C 90.612 0.603251 -1.63208 0
M  V30 886 O 91.788 0.508112 -1.94885 0
M  V30 887 C 88.853 0.549091 -3.42324 0
M  V30 888 C 87.914 -0.347156 -4.27894 0
M  V30 889 C 87.147 0.43207 -5.31948 0
M  V30 890 O 87.37 1.66409 -5.45586 0
M  V30 891 O 86.304 -0.192298 -6.01593 0
M  V30 892 H 90.13 -1.09243 -2.83372 0
M  V30 893 H 87.715 -0.598198 -1.36901 0
M  V30 894 H 89.597 1.01414 -4.09015 0
M  V30 895 H 88.272 1.34955 -2.94226 0
M  V30 896 H 87.179 -0.859979 -3.64081 0
M  V30 897 H 88.512 -1.1123 -4.79467 0
M  V30 898 N 90.1641 1.46063 -0.591896 0
M  V30 899 C 91.1141 2.27458 0.157172 0
M  V30 900 C 92.0981 1.3641 0.853301 0
M  V30 901 O 93.2901 1.60517 0.74588 0
M  V30 902 C 90.4191 3.22956 1.16423 0
M  V30 903 C 89.5051 4.2149 0.469742 0
M  V30 904 N 89.8961 5.03519 -0.479839 0
M  V30 905 C 88.1941 4.40161 0.719319 0
M  V30 906 C 88.8951 5.74904 -0.886591 0
M  V30 907 N 87.8711 5.43097 -0.233731 0
M  V30 908 H 91.6731 2.88272 -0.572392 0
M  V30 909 H 89.1871 1.57024 -0.414375 0
M  V30 910 H 91.1841 3.79986 1.71513 0
M  V30 911 H 89.8441 2.63701 1.89451 0
M  V30 912 H 90.8551 5.1078 -0.855823 0
M  V30 913 H 87.5321 3.92046 1.43548 0
M  V30 914 H 88.9221 6.50844 -1.66888 0
M  V30 915 N 91.6422 0.330177 1.54103 0
M  V30 916 C 92.5522 -0.541534 2.28264 0
M  V30 917 C 93.5682 -1.12351 1.32866 0
M  V30 918 O 94.7442 -1.14206 1.65888 0
M  V30 919 C 91.8092 -1.68322 3.03098 0
M  V30 920 C 90.8702 -1.13238 4.14096 0
M  V30 921 C 90.1032 -2.21966 4.85352 0
M  V30 922 O 90.3262 -3.42437 4.56172 0
M  V30 923 O 89.2602 -1.87013 5.7211 0
M  V30 924 H 93.0862 0.060938 3.03639 0
M  V30 925 H 90.6712 0.09565 1.49093 0
M  V30 926 H 92.5532 -2.34777 3.49939 0
M  V30 927 H 91.2282 -2.27176 2.30593 0
M  V30 928 H 90.1352 -0.432736 3.71589 0
M  V30 929 H 91.4682 -0.588898 4.88664 0
M  V30 930 N 93.1203 -1.57491 0.0584922 0
M  V30 931 C 94.3663 -1.93264 -0.614558 0
M  V30 932 C 94.6993 -0.937717 -1.7006 0
M  V30 933 O 93.9743 0.0351652 -1.94468 0
M  V30 934 C 94.2573 -3.3938 -1.20386 0
M  V30 935 C 94.1103 -4.49625 -0.125375 0
M  V30 936 C 95.4293 -3.86039 -2.11334 0
M  V30 937 H 92.5483 -0.702791 -0.221933 0
M  V30 938 H 95.1903 -1.8961 0.12175 0
M  V30 939 H 93.3403 -3.42626 -1.83139 0
M  V30 940 H 95.0123 -4.58506 0.506971 0
M  V30 941 H 93.2553 -4.30354 0.545672 0
M  V30 942 H 93.9263 -5.48967 -0.577861 0
M  V30 943 H 96.4023 -3.84716 -1.58534 0
M  V30 944 H 95.2783 -4.88914 -2.49507 0
M  V30 945 H 95.5393 -3.23215 -3.01636 0
M  V30 946 N 94.5984 0.214957 -1.56127 0
M  V30 947 C 95.8464 0.936518 -1.79091 0
M  V30 948 C 96.1674 1.84606 -0.628148 0
M  V30 949 O 95.4374 1.92664 0.35462 0
M  V30 950 H 94.0174 0.3488 -0.660566 0
M  V30 951 H 96.6794 0.22523 -1.93594 0
M  V30 952 H 95.7754 1.53943 -2.71492 0
M  V30 953 N 96.0765 1.50051 0.48192 0
M  V30 954 C 96.9865 1.7089 1.60728 0
M  V30 955 C 98.0025 0.591788 1.63627 0
M  V30 956 O 99.1785 0.868817 1.81696 0
M  V30 957 C 96.2435 1.78855 2.97005 0
M  V30 958 C 95.3045 3.02537 3.04581 0
M  V30 959 C 94.5375 3.10112 4.34357 0
M  V30 960 O 94.7605 2.24765 5.24249 0
M  V30 961 O 93.6945 4.02747 4.47301 0
M  V30 962 H 97.5205 2.66264 1.46072 0
M  V30 963 H 95.1055 1.34018 0.660264 0
M  V30 964 H 96.9875 1.86336 3.77964 0
M  V30 965 H 95.6625 0.866628 3.11883 0
M  V30 966 H 94.5695 3.00563 2.22739 0
M  V30 967 H 95.9025 3.94272 2.94636 0
M  V30 968 N 97.5546 -0.734337 1.39446 0
M  V30 969 C 98.5176 -1.83004 1.37994 0
M  V30 970 C 99.5176 -1.58397 0.276938 0
M  V30 971 O 100.708 -1.65785 0.534875 0
M  V30 972 C 97.8396 -3.20802 1.1532 0
M  V30 973 H 99.0326 -1.85694 2.35494 0
M  V30 974 H 96.5856 -0.938059 1.25021 0
M  V30 975 H 97.3206 -3.23772 0.185036 0
M  V30 976 H 97.1056 -3.4006 1.95197 0
M  V30 977 H 98.5956 -4.00862 1.17046 0
M  V30 978 N 99.0327 -1.24633 -0.964593 0
M  V30 979 C 100.282 -1.08188 -1.7023 0
M  V30 980 C 100.595 0.37873 -1.91898 0
M  V30 981 O 101.801 0.663427 -2.6327 0
M  V30 982 C 100.257 -1.88773 -3.06419 0
M  V30 983 C 99.8647 -3.39263 -2.92582 0
M  V30 984 C 101.609 -1.80867 -3.84041 0
M  V30 985 C 99.5157 -4.1218 -4.24101 0
M  V30 986 H 98.4457 -0.401245 -0.638372 0
M  V30 987 H 101.097 -1.48742 -1.07462 0
M  V30 988 H 99.4787 -1.41035 -3.70034 0
M  V30 989 H 100.653 -3.94603 -2.37961 0
M  V30 990 H 98.9677 -3.48154 -2.28424 0
M  V30 991 H 101.565 -2.32646 -4.81435 0
M  V30 992 H 101.908 -0.774543 -4.09031 0
M  V30 993 H 102.441 -2.26301 -3.27159 0
M  V30 994 H 99.1797 -5.15965 -4.04303 0
M  V30 995 H 98.6997 -3.61626 -4.78526 0
M  V30 996 H 100.379 -4.19349 -4.92702 0
M  V30 997 N 100.511 1.16574 -1.06058 0
M  V30 998 C 101.927 1.3904 -0.783585 0
M  V30 999 C 102.127 1.91784 0.618145 0
M  V30 1000 O 101.183 2.11511 1.37911 0
M  V30 1001 C 102.496 2.37329 -1.84649 0
M  V30 1002 C 104.044 2.51018 -1.86973 0
M  V30 1003 C 104.519 3.52588 -2.92311 0
M  V30 1004 N 106.01 3.60113 -2.91329 0
M  V30 1005 C 106.745 4.38486 -3.69482 0
M  V30 1006 N 106.241 5.20302 -4.57447 0
M  V30 1007 N 108.034 4.33446 -3.57885 0
M  V30 1008 H 100.185 0.806725 -1.96483 0
M  V30 1009 H 102.448 0.417117 -0.851303 0
M  V30 1010 H 102.154 2.05663 -2.85299 0
M  V30 1011 H 102.028 3.36946 -1.6955 0
M  V30 1012 H 104.415 2.81989 -0.869827 0
M  V30 1013 H 104.496 1.51445 -2.0615 0
M  V30 1014 H 104.14 3.22354 -3.92492 0
M  V30 1015 H 104.07 4.51886 -2.70383 0
M  V30 1016 H 106.561 3.01707 -2.27555 0
M  V30 1017 H 106.874 5.77311 -5.13743 0
M  V30 1018 H 105.219 5.19653 -4.61503 0
M  V30 1019 H 108.41 3.68586 -2.88551 0
M  V30 1020 H 108.583 4.94279 -4.19037 0
M  V30 1021 N 101.989 0.842826 1.3317 0
M  V30 1022 C 102.899 0.281444 2.32906 0
M  V30 1023 C 103.915 -0.594587 1.63526 0
M  V30 1024 O 105.091 -0.49777 1.95152 0
M  V30 1025 C 102.156 -0.530929 3.42611 0
M  V30 1026 C 101.217 0.369843 4.27704 0
M  V30 1027 C 100.45 -0.403853 5.3217 0
M  V30 1028 O 100.673 -1.63513 5.46461 0
M  V30 1029 O 99.6069 0.224199 6.01482 0
M  V30 1030 H 103.433 1.10744 2.82789 0
M  V30 1031 H 101.018 0.60545 1.36582 0
M  V30 1032 H 102.9 -0.992437 4.09547 0
M  V30 1033 H 101.575 -1.33392 2.94938 0
M  V30 1034 H 100.482 0.879275 3.6362 0
M  V30 1035 H 101.815 1.13771 4.78871 0
M  V30 1036 N 103.467 -1.45747 0.599634 0
M  V30 1037 C 104.414 -2.30467 -0.123849 0
M  V30 1038 C 105.384 -1.41632 -0.86774 0
M  V30 1039 O 106.569 -1.70568 -0.855056 0
M  V30 1040 C 103.709 -3.26402 -1.12051 0
M  V30 1041 C 102.822 -4.3034 -0.37832 0
M  V30 1042 C 101.957 -5.13389 -1.364 0
M  V30 1043 C 100.996 -6.09061 -0.609171 0
M  V30 1044 N 100.133 -6.84918 -1.54374 0
M  V30 1045 H 104.973 -2.91802 0.604627 0
M  V30 1046 H 102.51 -1.43797 0.309972 0
M  V30 1047 H 104.468 -3.80482 -1.7114 0
M  V30 1048 H 103.098 -2.66839 -1.8165 0
M  V30 1049 H 102.15 -3.78984 0.327929 0
M  V30 1050 H 103.462 -4.98354 0.210997 0
M  V30 1051 H 102.616 -5.7183 -2.02719 0
M  V30 1052 H 101.355 -4.45376 -1.98725 0
M  V30 1053 H 100.36 -5.49758 0.0676979 0
M  V30 1054 H 101.585 -6.79099 0.00891991 0
M  V30 1055 H 99.531 -6.19601 -2.15478 0
M  V30 1056 H 99.448 -7.49254 -1.00766 0
M  V30 1057 H 100.716 -7.47906 -2.19676 0
M  V30 1058 N 104.945 -0.338344 -1.53925 0
M  V30 1059 C 106.194 0.260732 -2.00008 0
M  V30 1060 C 106.507 1.52073 -1.23017 0
M  V30 1061 O 107.713 2.19672 -1.5955 0
M  V30 1062 C 106.169 0.51515 -3.56194 0
M  V30 1063 C 105.777 -0.728645 -4.42035 0
M  V30 1064 C 107.521 1.07337 -4.10706 0
M  V30 1065 C 105.428 -0.445315 -5.89721 0
M  V30 1066 H 104.358 0.101205 -0.747177 0
M  V30 1067 H 107.009 -0.452866 -1.77824 0
M  V30 1068 H 105.391 1.28932 -3.74423 0
M  V30 1069 H 106.565 -1.50352 -4.35581 0
M  V30 1070 H 104.88 -1.20813 -3.98489 0
M  V30 1071 H 107.477 1.30022 -5.18651 0
M  V30 1072 H 107.82 2.0273 -3.63602 0
M  V30 1073 H 108.353 0.360034 -3.96167 0
M  V30 1074 H 105.092 -1.36883 -6.41049 0
M  V30 1075 H 104.612 0.291569 -5.99091 0
M  V30 1076 H 106.291 -0.0606218 -6.46972 0
M  V30 1077 N 106.423 1.57458 -0.0668435 0
M  V30 1078 C 107.386 2.11323 0.887422 0
M  V30 1079 C 108.386 1.03618 1.22964 0
M  V30 1080 O 109.576 1.29626 1.16373 0
M  V30 1081 C 106.708 2.61048 2.19242 0
M  V30 1082 H 107.901 2.96942 0.420194 0
M  V30 1083 H 105.454 1.55239 0.181793 0
M  V30 1084 H 106.189 1.78868 2.70512 0
M  V30 1085 H 105.974 3.39769 1.95702 0
M  V30 1086 H 107.464 3.02814 2.87565 0
M  V30 1087 N 107.901 -0.206675 1.56239 0
M  V30 1088 C 108.811 -1.27686 1.96808 0
M  V30 1089 C 109.827 -1.50455 0.874035 0
M  V30 1090 O 111.003 -1.63295 1.17884 0
M  V30 1091 C 108.068 -2.60358 2.28942 0
M  V30 1092 C 107.129 -2.45762 3.51994 0
M  V30 1093 C 106.362 -3.72108 3.82585 0
M  V30 1094 O 106.585 -4.75776 3.14631 0
M  V30 1095 O 105.519 -3.6833 4.76043 0
M  V30 1096 H 109.345 -0.962593 2.88041 0
M  V30 1097 H 106.93 -0.410746 1.43643 0
M  V30 1098 H 108.812 -3.38687 2.50737 0
M  V30 1099 H 107.487 -2.91435 1.4088 0
M  V30 1100 H 106.394 -1.65584 3.35459 0
M  V30 1101 H 107.727 -2.19621 4.40486 0
M  V30 1102 N 109.379 -1.50304 -0.473955 0
M  V30 1103 C 110.627 -1.60832 -1.22382 0
M  V30 1104 C 110.948 -0.30939 -1.9253 0
M  V30 1105 O 110.218 0.67296 -1.83978 0
M  V30 1106 H 108.798 -0.592652 -0.454723 0
M  V30 1107 H 111.46 -1.87068 -0.546968 0
M  V30 1108 H 110.556 -2.41803 -1.97327 0
M  V30 1109 N 110.857 0.726932 -1.39834 0
M  V30 1110 C 111.804 1.841 -1.39197 0
M  V30 1111 C 112.774 1.642 -0.250502 0
M  V30 1112 O 113.959 1.85494 -0.446846 0
M  V30 1113 C 111.099 3.21697 -1.24919 0
M  V30 1114 C 110.212 3.53247 -2.48678 0
M  V30 1115 C 109.347 4.80289 -2.26928 0
M  V30 1116 C 108.386 5.04707 -3.4632 0
M  V30 1117 N 107.523 6.22956 -3.23836 0
M  V30 1118 H 112.363 1.83979 -2.34427 0
M  V30 1119 H 109.9 0.898876 -1.16442 0
M  V30 1120 H 111.858 4.01137 -1.1465 0
M  V30 1121 H 110.488 3.21076 -0.333153 0
M  V30 1122 H 109.54 2.68447 -2.69519 0
M  V30 1123 H 110.852 3.67205 -3.37582 0
M  V30 1124 H 110.006 5.67725 -2.13947 0
M  V30 1125 H 108.745 4.68519 -1.35431 0
M  V30 1126 H 107.75 4.1573 -3.5979 0
M  V30 1127 H 108.975 5.18357 -4.38729 0
M  V30 1128 H 106.921 6.12459 -2.35011 0
M  V30 1129 H 106.838 6.37539 -4.063 0
M  V30 1130 H 108.106 7.1321 -3.14566 0
M  V30 1131 N 112.336 1.25143 0.95797 0
M  V30 1132 C 113.582 1.09855 1.70469 0
M  V30 1133 C 113.915 -0.360187 1.90831 0
M  V30 1134 O 113.19 -1.26568 1.47685 0
M  V30 1135 C 113.473 1.8497 3.08963 0
M  V30 1136 C 113.326 3.38652 2.96032 0
M  V30 1137 C 114.645 1.63016 4.08795 0
M  V30 1138 H 111.764 0.400465 0.618706 0
M  V30 1139 H 114.406 1.53933 1.11376 0
M  V30 1140 H 112.556 1.47505 3.59409 0
M  V30 1141 H 114.228 3.85772 2.52938 0
M  V30 1142 H 112.471 3.66534 2.32025 0
M  V30 1143 H 113.142 3.8642 3.94187 0
M  V30 1144 H 115.618 1.95625 3.67247 0
M  V30 1145 H 114.494 2.18015 5.03747 0
M  V30 1146 H 114.755 0.570692 4.38401 0
M  V30 1147 N 113.814 -1.1601 1.06675 0
M  V30 1148 C 115.23 -1.38622 0.790948 0
M  V30 1149 C 115.43 -1.92109 -0.607965 0
M  V30 1150 O 114.486 -2.12239 -1.36787 0
M  V30 1151 C 115.799 -2.36347 1.85905 0
M  V30 1152 C 117.347 -2.50023 1.88301 0
M  V30 1153 C 117.822 -3.51033 2.94176 0
M  V30 1154 N 119.313 -3.58563 2.93235 0
M  V30 1155 C 120.048 -4.36521 3.71803 0
M  V30 1156 N 119.544 -5.17869 4.602 0
M  V30 1157 N 121.337 -4.31541 3.60178 0
M  V30 1158 H 113.488 -0.796294 1.96908 0
M  V30 1159 H 115.751 -0.412597 0.853503 0
M  V30 1160 H 115.457 -2.04147 2.86386 0
M  V30 1161 H 115.331 -3.36042 1.71334 0
M  V30 1162 H 117.718 -2.81524 0.884769 0
M  V30 1163 H 117.799 -1.5035 2.06951 0
M  V30 1164 H 117.443 -3.20268 3.94196 0
M  V30 1165 H 117.373 -4.50445 2.72776 0
M  V30 1166 H 119.864 -3.00496 2.29152 0
M  V30 1167 H 120.177 -5.74578 5.16797 0
M  V30 1168 H 118.522 -5.17199 4.64253 0
M  V30 1169 H 121.713 -3.67051 2.90502 0
M  V30 1170 H 121.886 -4.9205 4.21653 0
M  V30 1171 N 115.292 -0.849877 -1.32721 0
M  V30 1172 C 116.708 -0.539102 -1.50219 0
M  V30 1173 C 116.908 0.931271 -1.78689 0
M  V30 1174 O 115.964 1.71455 -1.85363 0
M  V30 1175 C 117.277 -1.42196 -2.64954 0
M  V30 1176 C 118.825 -1.42189 -2.78839 0
M  V30 1177 C 119.3 -2.28985 -3.96648 0
M  V30 1178 N 120.791 -2.26754 -4.03902 0
M  V30 1179 C 121.526 -2.90644 -4.94281 0
M  V30 1180 N 121.022 -3.63629 -5.897 0
M  V30 1181 N 122.815 -2.80057 -4.87365 0
M  V30 1182 H 114.966 -1.80156 -1.12506 0
M  V30 1183 H 117.229 -0.769217 -0.554085 0
M  V30 1184 H 116.935 -2.46733 -2.50631 0
M  V30 1185 H 116.809 -1.10591 -3.60624 0
M  V30 1186 H 119.196 -0.38419 -2.92588 0
M  V30 1187 H 119.277 -1.77807 -1.83898 0
M  V30 1188 H 118.921 -3.32819 -3.83658 0
M  V30 1189 H 118.851 -1.90702 -4.90857 0
M  V30 1190 H 121.342 -1.73688 -3.3562 0
M  V30 1191 H 121.655 -4.09558 -6.55349 0
M  V30 1192 H 120 -3.67737 -5.89741 0
M  V30 1193 H 123.191 -2.22593 -4.11789 0
M  V30 1194 H 123.364 -3.30132 -5.57599 0
M  V30 1195 N 116.77 1.45427 -0.607355 0
M  V30 1196 C 117.68 2.34325 0.113463 0
M  V30 1197 C 118.696 1.51226 0.860617 0
M  V30 1198 O 119.872 1.84029 0.818255 0
M  V30 1199 C 116.937 3.28839 1.09844 0
M  V30 1200 C 115.998 4.27844 0.353271 0
M  V30 1201 C 115.231 5.17842 1.29133 0
M  V30 1202 O 115.454 5.11264 2.52913 0
M  V30 1203 O 114.388 5.96713 0.788523 0
M  V30 1204 H 118.214 2.97364 -0.617094 0
M  V30 1205 H 115.799 1.44807 -0.367619 0
M  V30 1206 H 117.681 3.8708 1.66575 0
M  V30 1207 H 116.356 2.68365 1.81003 0
M  V30 1208 H 115.263 3.7322 -0.256494 0
M  V30 1209 H 116.596 4.91173 -0.317822 0
M  V30 1210 N 118.248 0.346503 1.53744 0
M  V30 1211 C 119.525 -0.304532 1.93215 0
M  V30 1212 C 119.905 -1.67993 1.27834 0
M  V30 1213 O 119.253 -2.24411 0.430352 0
M  V30 1214 C 119.463 -0.373852 3.46992 0
M  V30 1215 C 120.811 -0.62329 4.2 0
M  V30 1216 O 121.835 -0.455847 3.53271 0
M  V30 1217 O 120.694 -0.947879 5.38217 0
M  V30 1218 H 117.788 -0.178318 0.807547 0
M  V30 1219 H 120.334 0.397895 1.64969 0
M  V30 1220 H 119.106 0.591224 3.86808 0
M  V30 1221 H 118.729 -1.12294 3.81413 0
M  V30 1222 N 119.726 -1.57421 0.075193 0
M  V30 1223 C 120.975 -1.92794 -0.592731 0
M  V30 1224 C 121.288 -0.957478 -1.70563 0
M  V30 1225 O 122.494 -1.20417 -2.43335 0
M  V30 1226 C 120.95 -3.42495 -1.10569 0
M  V30 1227 C 120.558 -4.47994 -0.0236121 0
M  V30 1228 C 122.302 -3.86864 -1.74748 0
M  V30 1229 C 120.209 -5.88829 -0.550803 0
M  V30 1230 H 119.139 -0.719591 -0.225177 0
M  V30 1231 H 121.79 -1.82902 0.147978 0
M  V30 1232 H 120.172 -3.47471 -1.89947 0
M  V30 1233 H 121.346 -4.54637 0.751099 0
M  V30 1234 H 119.661 -4.13113 0.522159 0
M  V30 1235 H 122.258 -4.8947 -2.15229 0
M  V30 1236 H 122.601 -3.24417 -2.60882 0
M  V30 1237 H 123.134 -3.84504 -1.01986 0
M  V30 1238 H 119.873 -6.54929 0.273457 0
M  V30 1239 H 119.393 -5.85698 -1.29296 0
M  V30 1240 H 121.072 -6.38811 -1.02613 0
M  V30 1241 N 121.204 0.198386 -1.56346 0
M  V30 1242 C 122.451 0.919286 -1.80431 0
M  V30 1243 C 122.779 1.83393 -0.647866 0
M  V30 1244 O 122.034 1.92236 0.366556 0
M  V30 1245 C 122.333 1.77031 -3.10475 0
M  V30 1246 C 121.999 1.00693 -4.39513 0
M  V30 1247 C 120.661 0.796145 -4.74568 0
M  V30 1248 C 123.013 0.469559 -5.19081 0
M  V30 1249 C 120.341 0.0364588 -5.86689 0
M  V30 1250 C 122.693 -0.2769 -6.31994 0
M  V30 1251 C 121.357 -0.49873 -6.65634 0
M  V30 1252 H 120.627 0.336391 -0.660244 0
M  V30 1253 H 123.274 0.185872 -1.90596 0
M  V30 1254 H 121.579 2.5723 -2.95533 0
M  V30 1255 H 123.276 2.33065 -3.26315 0
M  V30 1256 H 119.866 1.18122 -4.12001 0
M  V30 1257 H 124.05 0.619816 -4.92414 0
M  V30 1258 H 119.306 -0.145412 -6.11227 0
M  V30 1259 H 123.48 -0.700684 -6.92866 0
M  V30 1260 H 121.107 -1.0893 -7.52355 0
M  V30 1261 N 122.682 1.50554 0.465978 0
M  V30 1262 C 123.912 1.65323 1.23903 0
M  V30 1263 C 124.32 0.338051 1.86155 0
M  V30 1264 O 123.663 -0.690518 1.70228 0
M  V30 1265 C 123.725 2.69048 2.3844 0
M  V30 1266 C 123.389 4.12462 1.96784 0
M  V30 1267 C 124.386 4.98168 1.48745 0
M  V30 1268 C 122.071 4.58407 2.05349 0
M  V30 1269 C 124.065 6.27868 1.0982 0
M  V30 1270 C 121.752 5.88112 1.66035 0
M  V30 1271 C 122.75 6.72668 1.18349 0
M  V30 1272 O 122.438 7.99951 0.795825 0
M  V30 1273 H 122.17 0.558629 0.38067 0
M  V30 1274 H 124.724 1.97561 0.562022 0
M  V30 1275 H 122.954 2.32062 3.09328 0
M  V30 1276 H 124.643 2.72985 3.0039 0
M  V30 1277 H 125.409 4.63885 1.41546 0
M  V30 1278 H 121.288 3.92735 2.41414 0
M  V30 1279 H 124.832 6.93819 0.725293 0
M  V30 1280 H 120.729 6.21914 1.72895 0
M  V30 1281 H 121.497 8.13265 0.924222 0
M  V30 1282 N 124.16 -0.719506 1.40217 0
M  V30 1283 C 125.4 -1.49181 1.39729 0
M  V30 1284 C 125.764 -1.92 -0.00250614 0
M  V30 1285 O 126.965 -2.68473 -0.132479 0
M  V30 1286 C 125.236 -2.68767 2.35582 0
M  V30 1287 S 126.795 -3.58224 2.53418 0
M  V30 1288 H 123.613 -0.510091 0.495307 0
M  V30 1289 H 126.215 -0.841724 1.76452 0
M  V30 1290 H 124.919 -2.35475 3.36124 0
M  V30 1291 H 124.45 -3.38691 2.0013 0
M  V30 1292 H 126.465 -4.63033 1.78367 0
M  V30 1293 N 125.638 -1.25649 -0.95132 0
M  V30 1294 C 126.886 -1.10375 -1.69298 0
M  V30 1295 C 127.207 0.355339 -1.91735 0
M  V30 1296 O 126.477 1.25188 -1.50681 0
M  V30 1297 H 125.057 -0.405461 -0.627384 0
M  V30 1298 H 127.719 -1.57823 -1.14358 0
M  V30 1299 H 126.815 -1.61465 -2.67087 0
M  V30 1300 N 127.117 1.15442 -1.07289 0
M  V30 1301 C 128.064 2.20161 -0.692653 0
M  V30 1302 C 129.034 1.63073 0.31564 0
M  V30 1303 O 130.219 1.89725 0.202235 0
M  V30 1304 C 127.359 3.44967 -0.0959509 0
M  V30 1305 C 126.472 4.16256 -1.15564 0
M  V30 1306 C 125.607 5.28609 -0.524011 0
M  V30 1307 C 124.646 5.91715 -1.56653 0
M  V30 1308 N 123.783 6.9554 -0.957531 0
M  V30 1309 H 128.623 2.52037 -1.59002 0
M  V30 1310 H 126.16 1.2378 -0.794798 0
M  V30 1311 H 128.118 4.16341 0.267628 0
M  V30 1312 H 126.748 3.1361 0.764772 0
M  V30 1313 H 125.8 3.43385 -1.6368 0
M  V30 1314 H 127.112 4.59268 -1.94613 0
M  V30 1315 H 126.266 6.06604 -0.108032 0
M  V30 1316 H 125.005 4.86787 0.29825 0
M  V30 1317 H 124.01 5.12433 -1.9923 0
M  V30 1318 H 125.235 6.35614 -2.39107 0
M  V30 1319 H 123.181 6.55814 -0.156162 0
M  V30 1320 H 123.098 7.36977 -1.68526 0
M  V30 1321 H 124.366 7.77435 -0.567032 0
M  V30 1322 N 128.595 0.856903 1.32268 0
M  V30 1323 C 129.525 0.31858 2.31316 0
M  V30 1324 C 130.506 -0.583487 1.59779 0
M  V30 1325 O 131.691 -0.503259 1.87566 0
M  V30 1326 C 128.821 -0.491979 3.43798 0
M  V30 1327 C 127.775 0.315849 4.26833 0
M  V30 1328 C 127.101 -0.619586 5.31098 0
M  V30 1329 C 128.401 1.54282 4.98993 0
M  V30 1330 H 130.095 1.14621 2.76591 0
M  V30 1331 H 127.641 0.552613 1.32974 0
M  V30 1332 H 129.594 -0.879012 4.1213 0
M  V30 1333 H 128.318 -1.35299 2.97257 0
M  V30 1334 H 126.977 0.684664 3.6015 0
M  V30 1335 H 126.625 -1.47751 4.8081 0
M  V30 1336 H 126.325 -0.0830621 5.87541 0
M  V30 1337 H 127.849 -1.00375 6.02293 0
M  V30 1338 H 129.263 1.22796 5.59995 0
M  V30 1339 H 127.66 2.01745 5.65172 0
M  V30 1340 H 128.73 2.30285 4.26728 0
M  V30 1341 N 130.073 -1.45103 0.615059 0
M  V30 1342 C 131.319 -2.03035 0.121804 0
M  V30 1343 C 131.674 -1.47393 -1.23665 0
M  V30 1344 O 130.967 -0.642061 -1.80522 0
M  V30 1345 C 131.161 -3.57386 0.0318797 0
M  V30 1346 C 130.99 -4.28 1.38007 0
M  V30 1347 C 129.76 -4.65624 1.9627 0
M  V30 1348 C 131.958 -4.5948 2.31047 0
M  V30 1349 N 129.94 -5.21132 3.24492 0
M  V30 1350 C 131.311 -5.159 3.43872 0
M  V30 1351 C 133.366 -4.41423 2.30326 0
M  V30 1352 C 132.069 -5.56165 4.5615 0
M  V30 1353 C 134.095 -4.82726 3.41658 0
M  V30 1354 C 133.457 -5.39245 4.53205 0
M  V30 1355 H 129.556 -0.77702 0.0881159 0
M  V30 1356 H 132.14 -1.76819 0.815044 0
M  V30 1357 H 130.311 -3.83247 -0.630599 0
M  V30 1358 H 132.043 -4.01976 -0.468721 0
M  V30 1359 H 128.798 -4.49421 1.49392 0
M  V30 1360 H 129.222 -5.53377 3.90004 0
M  V30 1361 H 133.864 -3.97033 1.45343 0
M  V30 1362 H 131.582 -5.99517 5.41854 0
M  V30 1363 H 135.168 -4.7048 3.42257 0
M  V30 1364 H 134.048 -5.70616 5.37929 0
M  V30 1365 N 131.551 -0.354651 -1.53558 0
M  V30 1366 C 132.514 0.484566 -2.24019 0
M  V30 1367 C 133.514 1.01861 -1.24422 0
M  V30 1368 O 134.704 0.906097 -1.4878 0
M  V30 1369 C 131.836 1.67615 -2.96847 0
M  V30 1370 H 133.029 -0.131843 -2.9961 0
M  V30 1371 H 130.582 -0.106165 -1.55939 0
M  V30 1372 H 131.317 2.33095 -2.25471 0
M  V30 1373 H 131.102 1.30029 -3.69912 0
M  V30 1374 H 132.592 2.27114 -3.50441 0
M  V30 1375 N 133.029 1.57378 -0.0835403 0
M  V30 1376 C 134.257 1.98263 0.59157 0
M  V30 1377 C 134.672 0.962302 1.62435 0
M  V30 1378 O 134.029 -0.049581 1.82433 0
M  V30 1379 C 134.08 3.39214 1.24965 0
M  V30 1380 O 133.801 4.37339 0.258186 0
M  V30 1381 C 135.302 3.95038 2.01147 0
M  V30 1382 H 132.522 0.651773 0.159477 0
M  V30 1383 H 135.066 2.03878 -0.159415 0
M  V30 1384 H 133.221 3.34649 1.95164 0
M  V30 1385 H 133.635 5.19371 0.731734 0
M  V30 1386 H 135.109 4.95848 2.42567 0
M  V30 1387 H 135.586 3.32222 2.87272 0
M  V30 1388 H 136.192 4.0304 1.35789 0
M  V30 1389 N 134.507 -0.190092 1.56449 0
M  V30 1390 C 135.455 -1.25501 1.95837 0
M  V30 1391 C 136.449 -1.4685 0.844485 0
M  V30 1392 O 137.655 -1.47651 1.02952 0
M  V30 1393 H 134.03 -0.421447 0.622805 0
M  V30 1394 H 136.001 -0.895821 2.84636 0
M  V30 1395 C 134.75 -2.59124 2.31841 0
M  V30 1396 H 134.073 -2.43514 3.17082 0
M  V30 1397 H 135.513 -3.32371 2.6326 0
M  V30 1398 C 133.972 -3.16488 1.15486 0
M  V30 1399 O 134.502 -3.99365 0.432535 0
M  V30 1400 N 132.708 -2.75305 0.930349 0
M  V30 1401 H 132.255 -2.08013 1.51948 0
M  V30 1402 H 132.213 -3.14024 0.153634 0
M  V30 1403 N 135.985 -1.50799 -0.457987 0
M  V30 1404 C 136.935 -1.67003 -1.55222 0
M  V30 1405 C 137.919 -0.52434 -1.52117 0
M  V30 1406 O 139.111 -0.779345 -1.58919 0
M  V30 1407 C 136.24 -1.77956 -2.93576 0
M  V30 1408 C 135.326 -2.98243 -3.01516 0
M  V30 1409 N 135.717 -4.21732 -2.79241 0
M  V30 1410 C 134.015 -2.97072 -3.32662 0
M  V30 1411 C 134.716 -5.02817 -2.92489 0
M  V30 1412 N 133.692 -4.37038 -3.23262 0
M  V30 1413 H 137.494 -2.60163 -1.36721 0
M  V30 1414 H 135.008 -1.48163 -0.664952 0
M  V30 1415 H 137.005 -1.87671 -3.72271 0
M  V30 1416 H 135.665 -0.859634 -3.13114 0
M  V30 1417 H 136.676 -4.51016 -2.54567 0
M  V30 1418 H 133.353 -2.14631 -3.58106 0
M  V30 1419 H 134.743 -6.11054 -2.79396 0
M  V30 1420 N 137.463 0.71206 -1.40597 0
M  V30 1421 C 138.709 1.47416 -1.39271 0
M  V30 1422 C 139.042 1.942 0.00388791 0
M  V30 1423 O 138.317 1.68403 0.973179 0
M  V30 1424 C 138.6 2.69774 -2.38525 0
M  V30 1425 C 138.453 2.28861 -3.87224 0
M  V30 1426 C 139.772 3.71939 -2.35264 0
M  V30 1427 H 136.891 0.534713 -0.5072 0
M  V30 1428 H 139.533 0.812375 -1.71757 0
M  V30 1429 H 137.683 3.26238 -2.10953 0
M  V30 1430 H 139.355 1.77852 -4.25636 0
M  V30 1431 H 137.598 1.60824 -4.02887 0
M  V30 1432 H 138.269 3.16584 -4.52193 0
M  V30 1433 H 140.745 3.25113 -2.59694 0
M  V30 1434 H 139.621 4.55186 -3.06753 0
M  V30 1435 H 139.882 4.20484 -1.36549 0
M  V30 1436 N 138.941 1.26152 0.944643 0
M  V30 1437 C 140.352 1.10454 1.50522 0
M  V30 1438 C 140.703 -0.31635 1.93633 0
M  V30 1439 O 139.828 -1.20746 1.79581 0
M  V30 1440 C 140.423 1.99891 2.73549 0
M  V30 1441 C 138.982 1.88348 3.25886 0
M  V30 1442 C 138.129 1.93447 1.9868 0
M  V30 1443 H 141.08 1.39292 0.760489 0
M  V30 1444 H 141.101 1.54477 3.47732 0
M  V30 1445 H 140.613 3.03297 2.42141 0
M  V30 1446 H 138.714 0.878636 3.62092 0
M  V30 1447 H 138.827 2.73696 3.93227 0
M  V30 1448 H 137.191 1.37456 2.14425 0
M  V30 1449 H 137.974 2.98476 1.69607 0
M  V30 1450 N 140.419 -1.14872 1.07899 0
M  V30 1451 C 141.329 -2.2341 0.715915 0
M  V30 1452 C 142.345 -1.71808 -0.275306 0
M  V30 1453 O 143.521 -2.01039 -0.120545 0
M  V30 1454 C 140.586 -3.46474 0.125168 0
M  V30 1455 C 139.647 -4.13039 1.17034 0
M  V30 1456 C 138.88 -5.30229 0.607688 0
M  V30 1457 O 139.103 -5.675 -0.574497 0
M  V30 1458 O 138.037 -5.86444 1.35526 0
M  V30 1459 H 141.863 -2.56808 1.62121 0
M  V30 1460 H 139.448 -1.22702 0.852322 0
M  V30 1461 H 141.33 -4.20917 -0.201729 0
M  V30 1462 H 140.005 -3.14811 -0.753364 0
M  V30 1463 H 138.912 -3.40493 1.54968 0
M  V30 1464 H 140.245 -4.48796 2.02097 0
M  V30 1465 N 141.898 -0.863906 -1.31812 0
M  V30 1466 C 142.831 -0.259963 -2.26714 0
M  V30 1467 C 143.809 0.607392 -1.50829 0
M  V30 1468 O 144.993 0.562155 -1.79922 0
M  V30 1469 C 142.12 0.632456 -3.32743 0
M  V30 1470 C 141.166 -0.162743 -4.26189 0
M  V30 1471 S 141.999 -1.53726 -5.12961 0
M  V30 1472 C 143.155 -0.650803 -6.22507 0
M  V30 1473 H 143.388 -1.06445 -2.77591 0
M  V30 1474 H 140.921 -0.662071 -1.39485 0
M  V30 1475 H 142.879 1.14167 -3.94305 0
M  V30 1476 H 141.54 1.41083 -2.80632 0
M  V30 1477 H 140.733 0.517366 -5.01338 0
M  V30 1478 H 140.335 -0.60385 -3.69093 0
M  V30 1479 H 142.627 0.141134 -6.77353 0
M  V30 1480 H 143.57 -1.37322 -6.94657 0
M  V30 1481 H 143.978 -0.221041 -5.64067 0
M  V30 1482 N 143.376 1.44774 -0.622745 0
M  V30 1483 C 144.622 2.0242 -0.124083 0
M  V30 1484 C 144.955 1.4881 1.24777 0
M  V30 1485 O 144.23 0.668799 1.8264 0
M  V30 1486 C 144.513 3.59957 -0.101619 0
M  V30 1487 C 144.366 4.23867 -1.50521 0
M  V30 1488 C 145.685 4.36284 0.578272 0
M  V30 1489 H 142.804 0.735528 -0.0465645 0
M  V30 1490 H 145.446 1.72447 -0.797617 0
M  V30 1491 H 143.596 3.85623 0.471934 0
M  V30 1492 H 145.268 4.09336 -2.12701 0
M  V30 1493 H 143.511 3.81684 -2.06154 0
M  V30 1494 H 144.182 5.32843 -1.4416 0
M  V30 1495 H 146.658 4.16001 0.0906057 0
M  V30 1496 H 145.534 5.46004 0.563149 0
M  V30 1497 H 145.795 4.10271 1.64713 0
M  V30 1498 N 144.854 0.36279 1.53368 0
M  V30 1499 C 146.27 0.0116182 1.59596 0
M  V30 1500 C 146.47 -1.47012 1.37803 0
M  V30 1501 O 145.526 -2.23136 1.18181 0
M  V30 1502 C 146.839 0.465052 2.97082 0
M  V30 1503 C 148.387 0.419033 3.10182 0
M  V30 1504 C 148.862 0.848235 4.50077 0
M  V30 1505 N 150.353 0.803183 4.56183 0
M  V30 1506 C 151.088 1.107 5.62613 0
M  V30 1507 N 150.584 1.47996 6.76808 0
M  V30 1508 N 152.377 1.02998 5.52583 0
M  V30 1509 H 144.528 1.32775 1.65785 0
M  V30 1510 H 146.791 0.542518 0.777417 0
M  V30 1511 H 146.497 1.49892 3.18159 0
M  V30 1512 H 146.371 -0.149786 3.76902 0
M  V30 1513 H 148.758 -0.605696 2.88817 0
M  V30 1514 H 148.839 1.06933 2.32377 0
M  V30 1515 H 148.483 1.87107 4.7218 0
M  V30 1516 H 148.413 0.175218 5.26308 0
M  V30 1517 H 150.904 0.52838 3.74188 0
M  V30 1518 H 151.217 1.69613 7.53957 0
M  V30 1519 H 149.562 1.51859 6.78206 0
M  V30 1520 H 152.753 0.737817 4.62249 0
M  V30 1521 H 152.926 1.2701 6.35431 0
M  V30 1522 N 146.332 -1.57332 0.0918853 0
M  V30 1523 C 147.743 -1.81496 -0.437739 0
M  V30 1524 C 148.094 -1.00727 -1.6837 0
M  V30 1525 O 147.219 -0.235694 -2.15113 0
M  V30 1526 C 147.814 -3.29197 -0.800939 0
M  V30 1527 C 146.373 -3.54136 -1.27532 0
M  V30 1528 C 145.52 -2.75979 -0.270392 0
M  V30 1529 H 148.471 -1.55494 0.317366 0
M  V30 1530 H 148.492 -3.42344 -1.66074 0
M  V30 1531 H 148.004 -3.87955 0.106078 0
M  V30 1532 H 146.105 -3.00705 -2.20016 0
M  V30 1533 H 146.218 -4.62792 -1.23938 0
M  V30 1534 H 144.582 -2.43349 -0.751872 0
M  V30 1535 H 145.365 -3.37484 0.629248 0
M  V30 1536 N 147.81 0.181792 -1.56548 0
M  V30 1537 C 149.038 0.915947 -1.85521 0
M  V30 1538 C 149.453 1.76282 -0.676016 0
M  V30 1539 O 148.81 1.79012 0.355077 0
M  V30 1540 C 148.861 1.80126 -3.13427 0
M  V30 1541 O 148.582 0.988562 -4.26801 0
M  V30 1542 C 150.083 2.64597 -3.55673 0
M  V30 1543 H 147.303 0.26661 -0.61576 0
M  V30 1544 H 149.847 0.185039 -2.03661 0
M  V30 1545 H 148.002 2.48563 -2.97145 0
M  V30 1546 H 148.416 1.59308 -4.99721 0
M  V30 1547 H 149.89 3.2235 -4.48101 0
M  V30 1548 H 150.367 3.38958 -2.79292 0
M  V30 1549 H 150.973 2.0151 -3.74532 0
M  V30 1550 N 149.288 1.51039 0.449983 0
M  V30 1551 C 150.218 1.74379 1.55288 0
M  V30 1552 C 151.199 0.593236 1.5942 0
M  V30 1553 O 152.384 0.834625 1.7535 0
M  V30 1554 C 149.514 1.85728 2.93466 0
M  V30 1555 C 148.468 3.01078 3.04197 0
M  V30 1556 C 147.794 2.97595 4.44231 0
M  V30 1557 C 149.094 4.41254 2.7945 0
M  V30 1558 H 150.788 2.66725 1.36008 0
M  V30 1559 H 148.334 1.2835 0.652864 0
M  V30 1560 H 150.287 2.0064 3.70569 0
M  V30 1561 H 149.011 0.900207 3.13949 0
M  V30 1562 H 147.67 2.85851 2.29531 0
M  V30 1563 H 147.318 1.99691 4.61663 0
M  V30 1564 H 147.018 3.75046 4.52343 0
M  V30 1565 H 148.542 3.14583 5.23326 0
M  V30 1566 H 149.956 4.56897 3.46292 0
M  V30 1567 H 148.353 5.20315 2.98985 0
M  V30 1568 H 149.423 4.52164 1.75144 0
M  V30 1569 N 150.766 -0.704594 1.40972 0
M  V30 1570 C 151.676 -1.84856 1.44448 0
M  V30 1571 C 152.692 -1.70726 0.335961 0
M  V30 1572 O 153.868 -1.92799 0.582276 0
M  V30 1573 C 150.933 -3.20758 1.31587 0
M  V30 1574 C 149.994 -3.47063 2.52677 0
M  V30 1575 C 149.227 -4.76481 2.4042 0
M  V30 1576 O 149.45 -5.52341 1.42391 0
M  V30 1577 O 148.384 -5.03367 3.30007 0
M  V30 1578 H 152.21 -1.8488 2.40942 0
M  V30 1579 H 149.795 -0.85647 1.22413 0
M  V30 1580 H 151.677 -4.01913 1.26665 0
M  V30 1581 H 150.352 -3.21438 0.382049 0
M  V30 1582 H 149.259 -2.65873 2.63177 0
M  V30 1583 H 150.592 -3.5119 3.44858 0
M  V30 1584 N 152.244 -1.26651 -0.937939 0
M  V30 1585 C 153.66 -1.03834 -1.21205 0
M  V30 1586 C 153.86 0.234502 -2.00131 0
M  V30 1587 O 152.916 0.942767 -2.3424 0
M  V30 1588 C 154.229 -2.27167 -1.97017 0
M  V30 1589 C 155.777 -2.32101 -2.09996 0
M  V30 1590 C 156.252 -3.55136 -2.8921 0
M  V30 1591 N 157.743 -3.55632 -2.96783 0
M  V30 1592 C 158.478 -4.475 -3.58512 0
M  V30 1593 N 157.974 -5.4966 -4.21717 0
M  V30 1594 N 159.767 -4.35145 -3.55816 0
M  V30 1595 H 151.918 -2.08398 -0.410391 0
M  V30 1596 H 154.181 -0.916031 -0.244114 0
M  V30 1597 H 153.887 -3.19765 -1.46434 0
M  V30 1598 H 153.761 -2.31672 -2.97671 0
M  V30 1599 H 156.148 -1.40015 -2.59769 0
M  V30 1600 H 156.229 -2.31605 -1.08594 0
M  V30 1601 H 155.873 -4.47553 -2.40123 0
M  V30 1602 H 155.803 -3.5288 -3.90875 0
M  V30 1603 H 158.294 -2.81743 -2.51852 0
M  V30 1604 H 158.607 -6.15943 -4.66727 0
M  V30 1605 H 156.952 -5.53514 -4.20294 0
M  V30 1606 H 160.143 -3.5455 -3.05634 0
M  V30 1607 H 160.316 -5.06934 -4.03636 0
M  V30 1608 N 153.722 1.14298 -1.08507 0
M  V30 1609 C 154.95 1.89219 -0.836876 0
M  V30 1610 C 155.365 1.78638 0.611054 0
M  V30 1611 O 154.722 1.14643 1.41998 0
M  V30 1612 C 154.773 3.39158 -1.25116 0
M  V30 1613 O 154.494 3.49449 -2.64229 0
M  V30 1614 C 155.995 4.31073 -1.03398 0
M  V30 1615 H 153.215 0.599328 -0.301739 0
M  V30 1616 H 155.759 1.44746 -1.44461 0
M  V30 1617 H 153.914 3.81251 -0.687514 0
M  V30 1618 H 154.328 4.42589 -2.81452 0
M  V30 1619 H 155.802 5.34646 -1.37323 0
M  V30 1620 H 156.279 4.3919 0.0289259 0
M  V30 1621 H 156.885 3.94738 -1.58311 0
M  V30 1622 N 155.201 0.870884 1.31352 0
M  V30 1623 C 156.131 0.343096 2.30966 0
M  V30 1624 C 157.112 -0.566507 1.60389 0
M  V30 1625 O 158.297 -0.483336 1.88089 0
M  V30 1626 C 155.427 -0.455487 3.443 0
M  V30 1627 C 154.381 0.361103 4.26474 0
M  V30 1628 C 153.707 -0.563221 5.31725 0
M  V30 1629 C 155.007 1.59566 4.97329 0
M  V30 1630 H 156.701 1.17548 2.75359 0
M  V30 1631 H 154.247 0.566686 1.32381 0
M  V30 1632 H 156.2 -0.83525 4.13039 0
M  V30 1633 H 154.924 -1.32139 2.98675 0
M  V30 1634 H 153.583 0.722825 3.59403 0
M  V30 1635 H 153.231 -1.42643 4.82351 0
M  V30 1636 H 152.931 -0.0207409 5.87596 0
M  V30 1637 H 154.455 -0.939808 6.03324 0
M  V30 1638 H 155.869 1.28728 5.58661 0
M  V30 1639 H 154.266 2.07728 5.63 0
M  V30 1640 H 155.336 2.34798 4.24262 0
M  V30 1641 N 156.679 -1.44442 0.630414 0
M  V30 1642 C 158.095 -1.56832 0.295973 0
M  V30 1643 C 158.295 -1.61806 -1.20088 0
M  V30 1644 O 157.351 -1.5607 -1.9849 0
M  V30 1645 C 158.664 -2.84031 0.987264 0
M  V30 1646 C 160.212 -2.97742 0.96534 0
M  V30 1647 C 160.687 -4.27743 1.63708 0
M  V30 1648 N 162.178 -4.34555 1.60364 0
M  V30 1649 C 162.913 -5.33862 2.09234 0
M  V30 1650 N 162.409 -6.39578 2.66292 0
M  V30 1651 N 164.202 -5.25366 1.99867 0
M  V30 1652 H 156.353 -1.39457 1.60205 0
M  V30 1653 H 158.616 -0.668237 0.672431 0
M  V30 1654 H 158.322 -2.86338 2.04215 0
M  V30 1655 H 158.196 -3.73534 0.524588 0
M  V30 1656 H 160.583 -2.94989 -0.0810639 0
M  V30 1657 H 160.664 -2.09589 1.4665 0
M  V30 1658 H 160.308 -4.31255 2.68293 0
M  V30 1659 H 160.238 -5.14752 1.11076 0
M  V30 1660 H 162.729 -3.58772 1.18705 0
M  V30 1661 H 163.042 -7.11637 3.01317 0
M  V30 1662 H 161.387 -6.40265 2.70343 0
M  V30 1663 H 164.578 -4.41688 1.55013 0
M  V30 1664 H 164.751 -6.02606 2.38265 0
M  V30 1665 N 158.157 -0.370918 -1.53173 0
M  V30 1666 C 159.403 0.217423 -2.01631 0
M  V30 1667 C 159.736 1.47983 -1.25756 0
M  V30 1668 O 159.011 1.91274 -0.352764 0
M  V30 1669 C 159.294 0.503982 -3.56556 0
M  V30 1670 C 159.147 -0.77243 -4.43118 0
M  V30 1671 C 160.466 1.30234 -4.20389 0
M  V30 1672 H 157.585 0.0775486 -0.732909 0
M  V30 1673 H 160.227 -0.496863 -1.83388 0
M  V30 1674 H 158.377 1.11248 -3.72231 0
M  V30 1675 H 160.049 -1.4098 -4.39229 0
M  V30 1676 H 158.292 -1.39167 -4.10871 0
M  V30 1677 H 158.963 -0.526815 -5.4948 0
M  V30 1678 H 161.439 0.787546 -4.08579 0
M  V30 1679 H 160.315 1.47158 -5.28806 0
M  V30 1680 H 160.576 2.31237 -3.76805 0
M  V30 1681 N 159.635 1.57281 -0.100228 0
M  V30 1682 C 160.565 2.17328 0.853857 0
M  V30 1683 C 161.546 1.10804 1.2906 0
M  V30 1684 O 162.731 1.38963 1.35657 0
M  V30 1685 C 159.861 2.75772 2.11109 0
M  V30 1686 C 158.815 3.87713 1.81279 0
M  V30 1687 C 158.141 4.32882 3.13874 0
M  V30 1688 C 159.441 5.10677 1.09574 0
M  V30 1689 H 161.135 2.97305 0.353545 0
M  V30 1690 H 158.681 1.43009 0.168612 0
M  V30 1691 H 160.634 3.16433 2.78296 0
M  V30 1692 H 159.358 1.93057 2.63432 0
M  V30 1693 H 158.017 3.476 1.16489 0
M  V30 1694 H 157.665 3.47051 3.64095 0
M  V30 1695 H 157.365 5.08358 2.94696 0
M  V30 1696 H 158.889 4.7618 3.82211 0
M  V30 1697 H 160.303 5.48474 1.66879 0
M  V30 1698 H 158.7 5.91615 1.00557 0
M  V30 1699 H 159.77 4.84835 0.0793299 0
M  V30 1700 N 161.113 -0.173488 1.56642 0
M  V30 1701 C 162.045 -1.23935 1.92802 0
M  V30 1702 C 163.058 -1.40589 0.820889 0
M  V30 1703 O 164.247 -1.40631 1.09933 0
M  V30 1704 C 161.347 -2.60837 2.16373 0
M  V30 1705 C 160.52 -2.6551 3.47596 0
M  V30 1706 C 159.579 -3.8376 3.60021 0
M  V30 1707 O 158.605 -3.69859 4.32658 0
M  V30 1708 N 159.807 -5.00127 2.94709 0
M  V30 1709 H 162.572 -0.932236 2.84832 0
M  V30 1710 H 160.133 -0.363268 1.57772 0
M  V30 1711 H 162.125 -3.38407 2.21952 0
M  V30 1712 H 160.695 -2.83948 1.30738 0
M  V30 1713 H 159.915 -1.74052 3.53694 0
M  V30 1714 H 161.203 -2.65641 4.33949 0
M  V30 1715 H 160.601 -5.14322 2.35563 0
M  V30 1716 H 159.158 -5.75567 3.05886 0
M  V30 1717 N 162.591 -1.51276 -0.441967 0
M  V30 1718 C 163.521 -1.752 -1.54361 0
M  V30 1719 C 164.502 -0.601682 -1.59103 0
M  V30 1720 O 165.687 -0.843913 -1.74905 0
M  V30 1721 C 162.817 -1.87282 -2.92477 0
M  V30 1722 C 161.771 -3.02687 -3.02596 0
M  V30 1723 C 161.097 -2.99947 -4.42647 0
M  V30 1724 C 162.397 -4.4273 -2.77106 0
M  V30 1725 H 164.091 -2.67442 -1.34592 0
M  V30 1726 H 161.637 -1.28694 -0.646048 0
M  V30 1727 H 163.59 -2.02602 -3.695 0
M  V30 1728 H 162.314 -0.916844 -3.13467 0
M  V30 1729 H 160.973 -2.87065 -2.28012 0
M  V30 1730 H 160.621 -2.02136 -4.60597 0
M  V30 1731 H 160.321 -3.77439 -4.50348 0
M  V30 1732 H 161.845 -3.17354 -5.2165 0
M  V30 1733 H 163.259 -4.58727 -3.43864 0
M  V30 1734 H 161.656 -5.21893 -2.96222 0
M  V30 1735 H 162.726 -4.53087 -1.72744 0
M  V30 1736 N 164.069 0.697108 -1.41344 0
M  V30 1737 C 165.346 1.45154 -1.31109 0
M  V30 1738 C 165.726 2.11009 0.0620449 0
M  V30 1739 O 165.074 2.01571 1.07618 0
M  V30 1740 C 165.284 2.47223 -2.46337 0
M  V30 1741 C 166.632 3.1252 -2.87431 0
M  V30 1742 O 167.656 2.57547 -2.46065 0
M  V30 1743 O 166.515 4.12083 -3.58957 0
M  V30 1744 H 163.609 0.646365 -0.515889 0
M  V30 1745 H 166.155 0.727716 -1.53305 0
M  V30 1746 H 164.927 1.97204 -3.37974 0
M  V30 1747 H 164.55 3.27116 -2.2601 0
M  V30 1748 N 165.547 1.27147 0.931209 0
M  V30 1749 C 166.777 1.15914 1.71019 0
M  V30 1750 C 167.185 -0.287112 1.87009 0
M  V30 1751 O 166.528 -1.20761 1.38429 0
M  V30 1752 C 166.59 1.76647 3.13107 0
M  V30 1753 C 166.254 3.25807 3.20467 0
M  V30 1754 C 167.251 4.22489 3.02983 0
M  V30 1755 C 164.936 3.66452 3.43538 0
M  V30 1756 C 166.93 5.57794 3.08454 0
M  V30 1757 C 164.617 5.01888 3.48643 0
M  V30 1758 C 165.615 5.97369 3.31119 0
M  V30 1759 O 165.303 7.30337 3.35952 0
M  V30 1760 H 165.035 0.404062 0.54195 0
M  V30 1761 H 167.589 1.68457 1.17521 0
M  V30 1762 H 165.819 1.18578 3.68071 0
M  V30 1763 H 167.508 1.60179 3.72958 0
M  V30 1764 H 168.274 3.92425 2.85004 0
M  V30 1765 H 164.153 2.92611 3.5623 0
M  V30 1766 H 167.697 6.32298 2.94694 0
M  V30 1767 H 163.594 5.31609 3.66145 0
M  V30 1768 H 164.362 7.38739 3.5243 0
M  V30 1769 N 167.025 -1.13721 1.09112 0
M  V30 1770 C 168.271 -1.85198 0.826414 0
M  V30 1771 C 168.604 -1.83129 -0.646319 0
M  V30 1772 O 167.879 -1.2671 -1.47563 0
M  V30 1773 C 168.162 -3.33507 1.35812 0
M  V30 1774 C 168.015 -3.44108 2.89672 0
M  V30 1775 C 169.334 -4.28838 0.989256 0
M  V30 1776 H 166.453 -0.67243 0.301675 0
M  V30 1777 H 169.095 -1.33499 1.35197 0
M  V30 1778 H 167.245 -3.77666 0.911082 0
M  V30 1779 H 168.917 -3.08684 3.428 0
M  V30 1780 H 167.16 -2.85087 3.26967 0
M  V30 1781 H 167.831 -4.48388 3.21951 0
M  V30 1782 H 170.307 -3.92734 1.37475 0
M  V30 1783 H 169.183 -5.31051 1.38838 0
M  V30 1784 H 169.444 -4.4198 -0.102924 0
M  V30 1785 N 168.503 -0.877838 -1.30888 0
M  V30 1786 C 169.78 -0.413052 -1.91189 0
M  V30 1787 C 170.16 1.1056 -1.79832 0
M  V30 1788 O 169.508 1.93771 -1.21099 0
M  V30 1789 C 169.718 -0.903191 -3.3711 0
M  V30 1790 C 171.066 -0.93395 -4.14201 0
M  V30 1791 O 172.09 -0.849373 -3.45925 0
M  V30 1792 O 170.949 -1.05772 -5.36167 0
M  V30 1793 H 168.043 -0.125035 -0.817493 0
M  V30 1794 H 170.589 -0.966269 -1.39504 0
M  V30 1795 H 169.361 -1.94692 -3.39427 0
M  V30 1796 H 168.984 -0.328732 -3.96239 0
M  V30 1797 N 169.982 1.44106 -0.638065 0
M  V30 1798 C 170.912 2.33448 0.0494287 0
M  V30 1799 C 171.893 1.48606 0.827672 0
M  V30 1800 O 173.078 1.77308 0.792173 0
M  V30 1801 C 170.208 3.31771 1.02691 0
M  V30 1802 C 169.162 4.26485 0.359823 0
M  V30 1803 C 168.488 5.14729 1.44769 0
M  V30 1804 C 169.788 5.17056 -0.738296 0
M  V30 1805 H 171.482 2.91183 -0.696636 0
M  V30 1806 H 169.028 1.40014 -0.336456 0
M  V30 1807 H 170.981 3.93161 1.51666 0
M  V30 1808 H 169.705 2.7226 1.80395 0
M  V30 1809 H 168.364 3.66437 -0.10934 0
M  V30 1810 H 168.012 4.51566 2.21578 0
M  V30 1811 H 167.712 5.78913 1.00668 0
M  V30 1812 H 169.236 5.78991 1.93911 0
M  V30 1813 H 170.65 5.72342 -0.331354 0
M  V30 1814 H 169.047 5.89879 -1.10286 0
M  V30 1815 H 170.117 4.57652 -1.60258 0
M  V30 1816 N 171.46 0.379036 1.52974 0
M  V30 1817 C 172.69 -0.20649 2.05566 0
M  V30 1818 C 173.098 -1.41906 1.25137 0
M  V30 1819 O 172.441 -1.81421 0.288464 0
M  V30 1820 C 172.503 -0.651086 3.53555 0
M  V30 1821 C 172.167 0.446626 4.54812 0
M  V30 1822 C 173.164 1.30079 5.03364 0
M  V30 1823 C 170.849 0.610719 4.98573 0
M  V30 1824 C 172.843 2.30426 5.94292 0
M  V30 1825 C 170.53 1.61754 5.89304 0
M  V30 1826 C 171.528 2.46274 6.37054 0
M  V30 1827 O 171.216 3.45237 7.25994 0
M  V30 1828 H 170.948 -0.0372381 0.674974 0
M  V30 1829 H 173.502 0.539718 1.98182 0
M  V30 1830 H 171.732 -1.44911 3.58522 0
M  V30 1831 H 173.421 -1.16112 3.88938 0
M  V30 1832 H 174.187 1.18527 4.70294 0
M  V30 1833 H 170.066 -0.0374044 4.60985 0
M  V30 1834 H 173.61 2.96432 6.31485 0
M  V30 1835 H 169.507 1.73348 6.21788 0
M  V30 1836 H 170.275 3.41124 7.44027 0
M  V30 1837 N 172.938 -1.57226 0.108567 0
M  V30 1838 C 174.187 -1.94008 -0.551703 0
M  V30 1839 C 174.5 -0.993442 -1.68494 0
M  V30 1840 O 175.706 -1.25551 -2.40726 0
M  V30 1841 C 174.162 -3.44763 -1.03279 0
M  V30 1842 C 173.77 -4.47943 0.0714193 0
M  V30 1843 C 175.514 -3.90483 -1.66503 0
M  V30 1844 C 173.421 -5.89865 -0.425779 0
M  V30 1845 H 172.351 -0.724206 -0.209863 0
M  V30 1846 H 175.002 -1.82547 0.186741 0
M  V30 1847 H 173.384 -3.51422 -1.82533 0
M  V30 1848 H 174.558 -4.52942 0.847365 0
M  V30 1849 H 172.873 -4.11913 0.609669 0
M  V30 1850 H 175.47 -4.93925 -2.04798 0
M  V30 1851 H 175.813 -3.29877 -2.53942 0
M  V30 1852 H 176.346 -3.86581 -0.938074 0
M  V30 1853 H 173.085 -6.54202 0.412316 0
M  V30 1854 H 172.605 -5.88309 -1.16843 0
M  V30 1855 H 174.284 -6.40844 -0.890397 0
M  V30 1856 N 174.416 0.165178 -1.56732 0
M  V30 1857 C 175.665 0.879143 -1.81532 0
M  V30 1858 C 175.978 1.83144 -0.686842 0
M  V30 1859 O 177.184 2.58823 -0.819944 0
M  V30 1860 C 175.64 1.61388 -3.21686 0
M  V30 1861 C 175.248 0.704904 -4.4242 0
M  V30 1862 C 176.992 2.3157 -3.55774 0
M  V30 1863 C 174.899 1.44022 -5.73595 0
M  V30 1864 H 173.829 0.332033 -0.676957 0
M  V30 1865 H 176.48 0.132008 -1.83025 0
M  V30 1866 H 174.862 2.40599 -3.14529 0
M  V30 1867 H 176.036 -0.0506815 -4.60772 0
M  V30 1868 H 174.351 0.112419 -4.16248 0
M  V30 1869 H 176.948 2.8719 -4.51028 0
M  V30 1870 H 177.291 3.07201 -2.8095 0
M  V30 1871 H 177.824 1.59297 -3.64513 0
M  V30 1872 H 174.563 0.72612 -6.51466 0
M  V30 1873 H 174.083 2.16898 -5.5921 0
M  V30 1874 H 175.762 1.98606 -6.15764 0
M  V30 1875 N 175.894 1.51508 0.433938 0
M  V30 1876 C 176.804 1.75917 1.5521 0
M  V30 1877 C 177.82 0.643545 1.61662 0
M  V30 1878 O 178.996 0.926183 1.7884 0
M  V30 1879 C 176.061 1.88213 2.91164 0
M  V30 1880 C 175.122 3.12074 2.94802 0
M  V30 1881 C 174.355 3.23774 4.24271 0
M  V30 1882 O 174.578 2.4133 5.16833 0
M  V30 1883 O 173.512 4.16774 4.34262 0
M  V30 1884 H 177.338 2.70777 1.37527 0
M  V30 1885 H 174.923 1.36051 0.617293 0
M  V30 1886 H 176.805 1.98267 3.71845 0
M  V30 1887 H 175.48 0.965413 3.08968 0
M  V30 1888 H 174.387 3.07497 2.13065 0
M  V30 1889 H 175.72 4.03446 2.81943 0
M  V30 1890 N 177.372 -0.689602 1.41712 0
M  V30 1891 C 178.618 -1.45181 1.41599 0
M  V30 1892 C 178.951 -1.94181 0.0270081 0
M  V30 1893 O 178.226 -1.6993 -0.946265 0
M  V30 1894 C 178.509 -2.65945 2.42787 0
M  V30 1895 C 178.362 -2.22672 3.90816 0
M  V30 1896 C 179.681 -3.68149 2.41151 0
M  V30 1897 H 176.8 -0.526576 0.515642 0
M  V30 1898 H 179.442 -0.784947 1.73028 0
M  V30 1899 H 177.592 -3.2284 2.16116 0
M  V30 1900 H 179.264 -1.71058 4.28412 0
M  V30 1901 H 177.507 -1.54394 4.05395 0
M  V30 1902 H 178.178 -3.0935 4.57172 0
M  V30 1903 H 180.654 -3.2094 2.64834 0
M  V30 1904 H 179.53 -4.50248 3.13955 0
M  V30 1905 H 179.791 -4.18259 1.43221 0
M  V30 1906 N 178.85 -1.27639 -0.924453 0
M  V30 1907 C 180.261 -1.12834 -1.48746 0
M  V30 1908 C 180.612 0.285505 -1.94112 0
M  V30 1909 O 179.737 1.17874 -1.81479 0
M  V30 1910 C 180.332 -2.04217 -2.70334 0
M  V30 1911 C 178.891 -1.93509 -3.22848 0
M  V30 1912 C 178.038 -1.96583 -1.95577 0
M  V30 1913 H 180.989 -1.40484 -0.738233 0
M  V30 1914 H 181.01 -1.59989 -3.4523 0
M  V30 1915 H 180.522 -3.07111 -2.37285 0
M  V30 1916 H 178.623 -0.936131 -3.60649 0
M  V30 1917 H 178.736 -2.79917 -3.88823 0
M  V30 1918 H 177.1 -1.4085 -2.12211 0
M  V30 1919 H 177.883 -3.01137 -1.64837 0
M  V30 1920 N 180.328 1.1314 -1.09713 0
M  V30 1921 C 181.261 2.17735 -0.683137 0
M  V30 1922 C 182.239 1.59582 0.311841 0
M  V30 1923 O 183.423 1.87298 0.212514 0
M  V30 1924 C 180.55 3.38699 -0.00684324 0
M  V30 1925 C 179.596 4.1546 -0.964102 0
M  V30 1926 S 180.429 4.74733 -2.47767 0
M  V30 1927 C 181.585 5.9904 -1.81387 0
M  V30 1928 H 181.818 2.52515 -1.56918 0
M  V30 1929 H 179.351 1.24484 -0.913404 0
M  V30 1930 H 181.309 4.08765 0.377044 0
M  V30 1931 H 179.97 3.02214 0.85589 0
M  V30 1932 H 179.163 5.02093 -0.43803 0
M  V30 1933 H 178.765 3.51066 -1.28953 0
M  V30 1934 H 181.057 6.67846 -1.13967 0
M  V30 1935 H 182 6.56261 -2.65947 0
M  V30 1936 H 182.408 5.4976 -1.28155 0
M  V30 1937 N 181.806 0.884767 1.30421 0
M  V30 1938 C 182.769 0.356277 2.26414 0
M  V30 1939 C 183.769 -0.501124 1.52792 0
M  V30 1940 O 184.959 -0.30831 1.7145 0
M  V30 1941 C 182.091 -0.492316 3.37326 0
M  V30 1942 H 183.284 1.20389 2.74675 0
M  V30 1943 H 180.837 0.661607 1.41607 0
M  V30 1944 H 181.572 -1.36052 2.94381 0
M  V30 1945 H 181.357 0.121832 3.91911 0
M  V30 1946 H 182.847 -0.853871 4.08777 0
M  V30 1947 N 183.284 -1.43765 0.645699 0
M  V30 1948 C 184.531 -2.01898 0.15604 0
M  V30 1949 C 184.859 -1.50887 -1.22733 0
M  V30 1950 O 184.114 -0.689271 -1.8316 0
M  V30 1951 C 184.413 -3.57238 0.107679 0
M  V30 1952 C 184.079 -4.27564 1.43178 0
M  V30 1953 C 182.741 -4.46492 1.7944 0
M  V30 1954 C 185.093 -4.67454 2.30513 0
M  V30 1955 C 182.421 -5.02573 3.02716 0
M  V30 1956 C 184.773 -5.24901 3.53074 0
M  V30 1957 C 183.437 -5.42046 3.89541 0
M  V30 1958 H 182.707 -0.738797 0.057099 0
M  V30 1959 H 185.354 -1.72341 0.834912 0
M  V30 1960 H 183.659 -3.86293 -0.654618 0
M  V30 1961 H 185.356 -3.99965 -0.287938 0
M  V30 1962 H 181.946 -4.13171 1.13963 0
M  V30 1963 H 186.13 -4.5253 2.0379 0
M  V30 1964 H 181.386 -5.14033 3.31028 0
M  V30 1965 H 185.56 -5.54758 4.20971 0
M  V30 1966 H 183.187 -5.85268 4.85145 0
M  V30 1967 N 184.763 -0.387143 -1.52771 0
M  V30 1968 C 185.71 0.449048 -2.26389 0
M  V30 1969 C 186.68 1.05961 -1.27912 0
M  V30 1970 O 187.865 1.08804 -1.56737 0
M  V30 1971 C 185.005 1.57155 -3.0724 0
M  V30 1972 C 184.118 0.984066 -4.20643 0
M  V30 1973 C 183.253 2.07745 -4.88892 0
M  V30 1974 C 182.292 1.46574 -5.94292 0
M  V30 1975 N 181.429 2.49834 -6.56146 0
M  V30 1976 H 186.269 -0.185205 -2.97424 0
M  V30 1977 H 183.806 -0.103164 -1.46738 0
M  V30 1978 H 185.764 2.23309 -3.52405 0
M  V30 1979 H 184.394 2.17615 -2.38419 0
M  V30 1980 H 183.446 0.212193 -3.79808 0
M  V30 1981 H 184.758 0.497029 -4.96318 0
M  V30 1982 H 183.912 2.81673 -5.3735 0
M  V30 1983 H 182.651 2.59807 -4.12737 0
M  V30 1984 H 181.656 0.711696 -5.45174 0
M  V30 1985 H 182.881 0.953088 -6.72379 0
M  V30 1986 H 180.827 3.0107 -5.82832 0
M  V30 1987 H 180.744 2.05879 -7.27427 0
M  V30 1988 H 182.012 3.23399 -7.09249 0
M  V30 1989 N 186.241 1.57166 -0.116904 0
M  V30 1990 C 187.652 1.82169 0.408809 0
M  V30 1991 C 188.003 1.03393 1.66746 0
M  V30 1992 O 187.128 0.269886 2.1471 0
M  V30 1993 C 187.723 3.30429 0.748466 0
M  V30 1994 C 186.282 3.5612 1.21882 0
M  V30 1995 C 185.429 2.76374 0.226452 0
M  V30 1996 H 188.38 1.5497 -0.342063 0
M  V30 1997 H 188.401 3.44943 1.60607 0
M  V30 1998 H 187.913 3.87737 -0.167784 0
M  V30 1999 H 186.014 3.04168 2.15204 0
M  V30 2000 H 186.127 4.64705 1.16559 0
M  V30 2001 H 184.491 2.44515 0.713063 0
M  V30 2002 H 185.274 3.3644 -0.682859 0
M  V30 2003 N 187.719 -0.156864 1.56817 0
M  V30 2004 C 188.967 -0.869404 1.82444 0
M  V30 2005 C 189.288 -1.82147 0.69623 0
M  V30 2006 O 188.558 -1.93847 -0.28287 0
M  V30 2007 H 187.138 -0.324043 0.673056 0
M  V30 2008 H 189.8 -0.153224 1.94297 0
M  V30 2009 H 188.896 -1.43761 2.77019 0
M  V30 2010 N 189.197 -1.51736 -0.425897 0
M  V30 2011 C 190.474 -1.55519 -1.1863 0
M  V30 2012 C 190.854 -0.326219 -2.08564 0
M  V30 2013 O 190.202 0.688012 -2.17896 0
M  V30 2014 C 190.412 -2.87521 -1.9782 0
M  V30 2015 C 191.76 -3.39899 -2.54468 0
M  V30 2016 O 192.784 -2.89148 -2.08019 0
M  V30 2017 O 191.643 -4.2848 -3.39215 0
M  V30 2018 H 188.737 -0.625739 -0.540721 0
M  V30 2019 H 191.283 -1.64055 -0.434038 0
M  V30 2020 H 190.055 -3.68422 -1.31836 0
M  V30 2021 H 189.678 -2.822 -2.80088 0
M  V30 2022 N 190.675 0.682077 -1.42076 0
M  V30 2023 C 191.585 1.82535 -1.47371 0
M  V30 2024 C 192.601 1.7017 -0.363079 0
M  V30 2025 O 193.777 1.91848 -0.612875 0
M  V30 2026 C 190.842 3.18624 -1.36674 0
M  V30 2027 C 189.903 3.42999 -2.58167 0
M  V30 2028 C 189.136 4.72595 -2.4797 0
M  V30 2029 O 189.359 5.50006 -1.5116 0
M  V30 2030 O 188.293 4.98054 -3.37974 0
M  V30 2031 H 192.119 1.81023 -2.43853 0
M  V30 2032 H 189.704 0.836887 -1.2376 0
M  V30 2033 H 191.586 3.99847 -1.33043 0
M  V30 2034 H 190.261 3.20789 -0.433138 0
M  V30 2035 H 189.168 2.61653 -2.67373 0
M  V30 2036 H 190.501 3.45659 -3.50401 0
M  V30 2037 N 192.153 1.28127 0.917671 0
M  V30 2038 C 193.402 1.14432 1.66097 0
M  V30 2039 C 193.715 -0.307247 1.93172 0
M  V30 2040 O 194.921 -0.565259 2.65551 0
M  V30 2041 C 193.377 2.00015 2.99202 0
M  V30 2042 C 192.985 3.49889 2.79789 0
M  V30 2043 C 194.729 1.94996 3.77064 0
M  V30 2044 C 192.636 4.27636 4.08511 0
M  V30 2045 H 191.566 0.424662 0.62304 0
M  V30 2046 H 194.217 1.52628 1.01868 0
M  V30 2047 H 192.599 1.54672 3.64544 0
M  V30 2048 H 193.773 4.03162 2.23152 0
M  V30 2049 H 192.088 3.56392 2.15345 0
M  V30 2050 H 194.685 2.50354 4.72469 0
M  V30 2051 H 195.028 0.925819 4.05875 0
M  V30 2052 H 195.561 2.38287 3.18534 0
M  V30 2053 H 192.3 5.30615 3.84874 0
M  V30 2054 H 191.82 3.79137 4.64774 0
M  V30 2055 H 193.499 4.37346 4.76799 0
M  V30 2056 N 193.631 -1.12557 1.10312 0
M  V30 2057 C 194.861 -1.87592 0.865617 0
M  V30 2058 C 195.269 -1.79851 -0.587389 0
M  V30 2059 O 194.612 -1.16949 -1.41664 0
M  V30 2060 C 194.674 -3.37665 1.23381 0
M  V30 2061 C 194.338 -3.69181 2.69359 0
M  V30 2062 C 195.335 -3.67652 3.67597 0
M  V30 2063 C 193.02 -3.98555 3.05711 0
M  V30 2064 C 195.014 -3.95053 5.00212 0
M  V30 2065 C 192.701 -4.25616 4.38514 0
M  V30 2066 C 193.699 -4.23851 5.35574 0
M  V30 2067 O 193.387 -4.50242 6.65986 0
M  V30 2068 H 193.119 -0.600442 0.310557 0
M  V30 2069 H 195.673 -1.4335 1.47105 0
M  V30 2070 H 193.903 -3.82454 0.571467 0
M  V30 2071 H 195.592 -3.94041 0.973994 0
M  V30 2072 H 196.358 -3.45024 3.40857 0
M  V30 2073 H 192.237 -3.99071 2.30789 0
M  V30 2074 H 195.781 -3.93591 5.75962 0
M  V30 2075 H 191.678 -4.47718 4.64994 0
M  V30 2076 H 192.446 -4.67867 6.71597 0
M  V30 2077 N 195.109 -0.891671 -1.2995 0
M  V30 2078 C 196.52 -0.563104 -1.78006 0
M  V30 2079 C 196.871 0.920978 -1.73241 0
M  V30 2080 O 195.996 1.71987 -1.31337 0
M  V30 2081 C 196.591 -1.01539 -3.23226 0
M  V30 2082 C 195.15 -0.738124 -3.69092 0
M  V30 2083 C 194.297 -1.19461 -2.50249 0
M  V30 2084 H 197.248 -1.07522 -1.16725 0
M  V30 2085 H 197.269 -0.347217 -3.78912 0
M  V30 2086 H 196.781 -2.09555 -3.26662 0
M  V30 2087 H 194.882 0.329766 -3.71138 0
M  V30 2088 H 194.995 -1.33037 -4.60259 0
M  V30 2089 H 193.359 -0.613787 -2.47194 0
M  V30 2090 H 194.142 -2.28265 -2.56417 0
M  V30 2091 N 196.587 1.43421 -0.653314 0
M  V30 2092 C 198.003 1.56341 -0.320886 0
M  V30 2093 C 198.203 1.63696 1.17499 0
M  V30 2094 O 197.259 1.59208 1.95982 0
M  V30 2095 C 198.572 2.82424 -1.03233 0
M  V30 2096 C 200.12 2.96168 -1.01259 0
M  V30 2097 C 200.595 4.25084 -1.70492 0
M  V30 2098 N 202.086 4.31948 -1.67257 0
M  V30 2099 C 202.821 5.30466 -2.17701 0
M  V30 2100 N 202.317 6.35261 -2.76434 0
M  V30 2101 N 204.11 5.2212 -2.082 0
M  V30 2102 H 196.261 1.3689 -1.62403 0
M  V30 2103 H 198.524 0.657455 -0.682977 0
M  V30 2104 H 198.23 2.83053 -2.08744 0
M  V30 2105 H 198.104 3.72653 -0.583948 0
M  V30 2106 H 200.491 2.9508 0.0341235 0
M  V30 2107 H 200.572 2.07229 -1.49966 0
M  V30 2108 H 200.216 4.26932 -2.7512 0
M  V30 2109 H 200.146 5.1292 -1.19251 0
M  V30 2110 H 202.637 3.56838 -1.24398 0
M  V30 2111 H 202.95 7.06754 -3.12601 0
M  V30 2112 H 201.295 6.35884 -2.80495 0
M  V30 2113 H 204.486 4.39166 -1.62021 0
M  V30 2114 H 204.659 5.98739 -2.47822 0
M  V30 2115 N 198.065 0.39524 1.52563 0
M  V30 2116 C 199.342 -0.242908 1.94086 0
M  V30 2117 C 199.722 -1.63841 1.33114 0
M  V30 2118 O 199.07 -2.22928 0.501529 0
M  V30 2119 C 199.28 -0.26327 3.48006 0
M  V30 2120 C 200.628 -0.489354 4.21771 0
M  V30 2121 O 201.652 -0.343226 3.54543 0
M  V30 2122 O 200.511 -0.776169 5.4096 0
M  V30 2123 H 197.605 -0.152536 0.812811 0
M  V30 2124 H 200.151 0.450178 1.6362 0
M  V30 2125 H 198.923 0.713985 3.84731 0
M  V30 2126 H 198.546 -1.00103 3.84792 0
M  V30 2127 N 199.544 -1.57102 0.125237 0
M  V30 2128 C 200.454 -2.19191 -0.8362 0
M  V30 2129 C 201.47 -1.16985 -1.28805 0
M  V30 2130 O 202.646 -1.49479 -1.34974 0
M  V30 2131 C 199.711 -2.78407 -2.06617 0
M  V30 2132 C 198.772 -3.9567 -1.66565 0
M  V30 2133 C 198.005 -4.52052 -2.83698 0
M  V30 2134 O 198.228 -4.07326 -3.99302 0
M  V30 2135 O 197.162 -5.42645 -2.60423 0
M  V30 2136 H 200.988 -3.01816 -0.337776 0
M  V30 2137 H 198.573 -1.4906 -0.100695 0
M  V30 2138 H 200.455 -3.16129 -2.7864 0
M  V30 2139 H 199.13 -1.9881 -2.55453 0
M  V30 2140 H 198.037 -3.62705 -0.916296 0
M  V30 2141 H 199.37 -4.76722 -1.22464 0
M  V30 2142 N 201.022 0.148545 -1.56898 0
M  V30 2143 C 201.97 1.20265 -1.99096 0
M  V30 2144 C 202.964 1.44559 -0.883123 0
M  V30 2145 O 204.17 1.4487 -1.0683 0
M  V30 2146 H 200.545 0.404786 -0.63376 0
M  V30 2147 H 202.516 0.82004 -2.86911 0
M  V30 2148 C 201.265 2.52886 -2.3863 0
M  V30 2149 H 200.588 2.35021 -3.23427 0
M  V30 2150 H 202.028 3.25274 -2.7198 0
M  V30 2151 C 200.487 3.13315 -1.23837 0
M  V30 2152 O 201.017 3.98077 -0.538268 0
M  V30 2153 N 199.223 2.72742 -1.00301 0
M  V30 2154 H 198.77 2.03912 -1.5741 0
M  V30 2155 H 198.728 3.13507 -0.236838 0
M  V30 2156 N 202.5 1.5196 0.417844 0
M  V30 2157 C 203.748 1.65263 1.16329 0
M  V30 2158 C 204.069 0.380634 1.91249 0
M  V30 2159 O 203.339 -0.604214 1.86349 0
M  V30 2160 H 201.919 0.60912 0.432414 0
M  V30 2161 H 204.581 1.88969 0.477162 0
M  V30 2162 H 203.677 2.4896 1.88217 0
M  V30 2163 N 203.978 -0.674533 1.42435 0
M  V30 2164 C 204.925 -1.78807 1.45934 0
M  V30 2165 C 205.895 -1.63157 0.311271 0
M  V30 2166 O 207.08 -1.83707 0.515383 0
M  V30 2167 C 204.22 -3.16839 1.36773 0
M  V30 2168 C 203.333 -3.43774 2.61617 0
M  V30 2169 C 202.468 -4.71536 2.44597 0
M  V30 2170 C 201.507 -4.91505 3.64814 0
M  V30 2171 N 200.644 -6.10508 3.46734 0
M  V30 2172 H 205.484 -1.75151 2.41093 0
M  V30 2173 H 203.021 -0.85504 1.19697 0
M  V30 2174 H 204.979 -3.96606 1.29459 0
M  V30 2175 H 203.609 -3.19619 0.452089 0
M  V30 2176 H 202.661 -2.58259 2.79297 0
M  V30 2177 H 203.973 -3.54423 3.50978 0
M  V30 2178 H 203.127 -5.59393 2.3487 0
M  V30 2179 H 201.866 -4.6317 1.52726 0
M  V30 2180 H 200.871 -4.0209 3.74972 0
M  V30 2181 H 202.096 -5.01716 4.57665 0
M  V30 2182 H 200.042 -6.03315 2.5758 0
M  V30 2183 H 199.959 -6.2202 4.29682 0
M  V30 2184 H 201.227 -7.01044 3.40819 0
M  V30 2185 N 205.456 -1.28612 -0.910864 0
M  V30 2186 C 206.702 -1.17116 -1.66299 0
M  V30 2187 C 207.057 0.276917 -1.90397 0
M  V30 2188 O 206.35 1.19795 -1.49532 0
M  V30 2189 C 206.544 -1.90624 -3.0232 0
M  V30 2190 C 206.373 -3.42431 -2.91498 0
M  V30 2191 C 205.143 -4.11773 -2.92867 0
M  V30 2192 C 207.341 -4.38124 -2.69355 0
M  V30 2193 N 205.323 -5.50025 -2.72664 0
M  V30 2194 C 206.694 -5.63759 -2.58023 0
M  V30 2195 C 208.749 -4.28016 -2.54375 0
M  V30 2196 C 207.452 -6.80436 -2.33238 0
M  V30 2197 C 209.478 -5.44433 -2.30969 0
M  V30 2198 C 208.84 -6.69034 -2.20394 0
M  V30 2199 H 204.939 -0.483506 -0.61461 0
M  V30 2200 H 207.523 -1.62299 -1.0755 0
M  V30 2201 H 205.694 -1.4787 -3.5915 0
M  V30 2202 H 207.426 -1.71488 -3.66571 0
M  V30 2203 H 204.181 -3.63378 -3.03732 0
M  V30 2204 H 204.605 -6.22705 -2.65646 0
M  V30 2205 H 209.247 -3.32388 -2.613 0
M  V30 2206 H 206.965 -7.7613 -2.25051 0
M  V30 2207 H 210.551 -5.38504 -2.20238 0
M  V30 2208 H 209.431 -7.57595 -2.02531 0
M  V30 2209 N 206.934 1.1197 -1.10907 0
M  V30 2210 C 207.864 2.19928 -0.784473 0
M  V30 2211 C 208.845 1.6833 0.244726 0
M  V30 2212 O 210.03 1.93892 0.109418 0
M  V30 2213 C 207.16 3.46597 -0.220827 0
M  V30 2214 C 206.114 4.11376 -1.18127 0
M  V30 2215 C 205.44 5.32554 -0.478594 0
M  V30 2216 C 206.74 4.56945 -2.52979 0
M  V30 2217 H 208.434 2.47337 -1.68715 0
M  V30 2218 H 205.98 1.18879 -0.812642 0
M  V30 2219 H 207.933 4.21396 0.0184278 0
M  V30 2220 H 206.657 3.1863 0.717113 0
M  V30 2221 H 205.316 3.38564 -1.40606 0
M  V30 2222 H 204.964 5.00856 0.463976 0
M  V30 2223 H 204.664 5.76844 -1.11912 0
M  V30 2224 H 206.188 6.10096 -0.248 0
M  V30 2225 H 207.602 5.23093 -2.3462 0
M  V30 2226 H 205.999 5.1203 -3.12962 0
M  V30 2227 H 207.069 3.70676 -3.12614 0
M  V30 2228 N 208.412 0.89855 1.29475 0
M  V30 2229 C 209.642 0.538479 1.99459 0
M  V30 2230 C 210.05 -0.880922 1.67441 0
M  V30 2231 O 209.393 -1.59283 0.915127 0
M  V30 2232 C 209.455 0.649564 3.53583 0
M  V30 2233 C 209.119 2.03573 4.09154 0
M  V30 2234 C 210.116 3.00675 4.24135 0
M  V30 2235 C 207.801 2.3448 4.44212 0
M  V30 2236 C 209.795 4.26809 4.73405 0
M  V30 2237 C 207.482 3.60857 4.93179 0
M  V30 2238 C 208.48 4.56836 5.0773 0
M  V30 2239 O 208.168 5.80969 5.55635 0
M  V30 2240 H 207.9 0.205372 0.644048 0
M  V30 2241 H 210.454 1.20958 1.66007 0
M  V30 2242 H 208.684 -0.0785592 3.8662 0
M  V30 2243 H 210.373 0.29881 4.04799 0
M  V30 2244 H 211.139 2.78112 3.97339 0
M  V30 2245 H 207.018 1.60534 4.32145 0
M  V30 2246 H 210.562 5.0173 4.84678 0
M  V30 2247 H 206.459 3.83251 5.19412 0
M  V30 2248 H 207.227 5.83542 5.73952 0
M  V30 2249 N 209.89 -1.43072 0.660911 0
M  V30 2250 C 210.84 -2.27948 -0.04847 0
M  V30 2251 C 211.824 -1.40325 -0.787246 0
M  V30 2252 O 213.016 -1.63893 -0.668446 0
M  V30 2253 C 210.145 -3.28143 -1.00881 0
M  V30 2254 C 209.231 -4.23252 -0.268108 0
M  V30 2255 N 209.622 -5.00656 0.719528 0
M  V30 2256 C 207.92 -4.43092 -0.508493 0
M  V30 2257 C 208.621 -5.70019 1.15988 0
M  V30 2258 N 207.597 -5.41364 0.492584 0
M  V30 2259 H 211.399 -2.85213 0.709279 0
M  V30 2260 H 208.913 -1.54869 0.488822 0
M  V30 2261 H 210.91 -3.87736 -1.53188 0
M  V30 2262 H 209.57 -2.7244 -1.76654 0
M  V30 2263 H 210.581 -5.06115 1.09855 0
M  V30 2264 H 207.258 -3.98449 -1.24679 0
M  V30 2265 H 208.648 -6.4214 1.97751 0
M  V30 2266 N 211.368 -0.403325 -1.52352 0
M  V30 2267 C 212.315 0.425011 -2.26853 0
M  V30 2268 C 213.285 1.04598 -1.29029 0
M  V30 2269 O 214.47 1.07135 -1.57882 0
M  V30 2270 C 211.61 1.53888 -3.08889 0
M  V30 2271 C 210.723 0.939396 -4.21663 0
M  V30 2272 C 209.858 2.02547 -4.91068 0
M  V30 2273 C 208.897 1.40263 -5.95813 0
M  V30 2274 N 208.034 2.4286 -6.58759 0
M  V30 2275 H 212.874 -0.21674 -2.97211 0
M  V30 2276 H 210.411 -0.118722 -1.4662 0
M  V30 2277 H 212.369 2.19558 -3.54753 0
M  V30 2278 H 210.999 2.15074 -2.40714 0
M  V30 2279 H 210.051 0.171898 -3.80011 0
M  V30 2280 H 211.363 0.44436 -4.96817 0
M  V30 2281 H 210.517 2.75958 -5.40308 0
M  V30 2282 H 209.256 2.55415 -4.15469 0
M  V30 2283 H 208.261 0.653833 -5.45898 0
M  V30 2284 H 209.486 0.881719 -6.73352 0
M  V30 2285 H 207.432 2.94871 -5.85992 0
M  V30 2286 H 207.349 1.98152 -7.2957 0
M  V30 2287 H 208.617 3.15858 -7.12639 0
M  V30 2288 N 212.846 1.57033 -0.133567 0
M  V30 2289 C 214.071 2.00475 0.531477 0
M  V30 2290 C 214.496 1.01291 1.58499 0
M  V30 2291 O 213.854 -0.0133279 1.81295 0
M  V30 2292 C 213.902 3.42729 1.12113 0
M  V30 2293 O 213.006 3.46498 2.23636 0
M  V30 2294 H 212.347 0.650876 0.131362 0
M  V30 2295 H 214.877 2.03344 -0.22634 0
M  V30 2296 H 214.887 3.81246 1.4531 0
M  V30 2297 H 213.562 4.14428 0.349557 0
M  V30 2298 H 212.139 3.19811 1.91769 0
M  V30 2299 N 214.325 -0.140222 1.56975 0
M  V30 2300 C 215.273 -1.19207 1.99731 0
M  V30 2301 C 216.267 -1.44089 0.890777 0
M  V30 2302 O 217.473 -1.44301 1.07597 0
M  V30 2303 H 213.848 -0.40142 0.635898 0
M  V30 2304 H 215.819 -0.804813 2.87342 0
M  V30 2305 C 214.568 -2.51617 2.39967 0
M  V30 2306 H 213.891 -2.33303 3.24669 0
M  V30 2307 H 215.331 -3.23827 2.73701 0
M  V30 2308 C 213.79 -3.12654 1.25496 0
M  V30 2309 O 214.32 -3.97786 0.559371 0
M  V30 2310 N 212.526 -2.72206 1.01746 0
M  V30 2311 H 212.073 -2.03074 1.58489 0
M  V30 2312 H 212.031 -3.13377 0.253461 0
M  V30 2313 N 215.803 -1.52179 -0.40978 0
M  V30 2314 C 216.733 -1.78435 -1.5061 0
M  V30 2315 C 217.714 -0.635295 -1.57791 0
M  V30 2316 O 218.899 -0.880823 -1.73076 0
M  V30 2317 C 216.029 -1.93444 -2.88439 0
M  V30 2318 C 214.983 -3.09038 -2.96108 0
M  V30 2319 C 214.309 -3.09268 -4.36185 0
M  V30 2320 C 215.609 -4.48508 -2.67652 0
M  V30 2321 H 217.303 -2.70237 -1.28889 0
M  V30 2322 H 214.849 -1.30036 -0.618605 0
M  V30 2323 H 216.802 -2.10394 -3.65119 0
M  V30 2324 H 215.526 -0.983129 -3.11452 0
M  V30 2325 H 214.185 -2.91837 -2.21872 0
M  V30 2326 H 213.833 -2.11861 -4.56206 0
M  V30 2327 H 213.533 -3.86907 -4.42241 0
M  V30 2328 H 215.057 -3.28348 -5.14801 0
M  V30 2329 H 216.471 -4.65918 -3.34056 0
M  V30 2330 H 214.868 -5.28059 -2.85085 0
M  V30 2331 H 215.938 -4.56649 -1.63095 0
M  V30 2332 N 217.281 0.66697 -1.42791 0
M  V30 2333 C 218.521 1.43892 -1.4517 0
M  V30 2334 C 218.885 1.91877 -0.0687551 0
M  V30 2335 O 220.086 2.6878 0.0327455 0
M  V30 2336 C 218.357 2.59839 -2.45395 0
M  V30 2337 S 219.916 3.48572 -2.66539 0
M  V30 2338 H 216.734 0.491356 -0.513897 0
M  V30 2339 H 219.336 0.775656 -1.79454 0
M  V30 2340 H 218.04 2.22838 -3.44632 0
M  V30 2341 H 217.571 3.3103 -2.12562 0
M  V30 2342 H 219.586 4.56094 -1.95429 0
M  V30 2343 N 218.759 1.29093 0.90403 0
M  V30 2344 C 219.722 1.1386 1.98919 0
M  V30 2345 C 220.722 0.0753457 1.60623 0
M  V30 2346 O 221.912 0.321931 1.71199 0
M  V30 2347 C 219.044 0.740198 3.32767 0
M  V30 2348 H 220.237 2.10246 2.13861 0
M  V30 2349 H 217.79 1.12218 1.08797 0
M  V30 2350 H 218.525 -0.223997 3.23525 0
M  V30 2351 H 218.31 1.50838 3.61926 0
M  V30 2352 H 219.8 0.656546 4.12407 0
M  V30 2353 N 220.237 -1.11381 1.11499 0
M  V30 2354 C 221.465 -1.86934 0.88675 0
M  V30 2355 C 221.88 -1.80195 -0.563476 0
M  V30 2356 O 221.237 -1.18367 -1.38908 0
M  V30 2357 C 221.288 -3.35722 1.34064 0
M  V30 2358 O 221.009 -3.4232 2.73401 0
M  V30 2359 C 222.51 -4.2818 1.14791 0
M  V30 2360 H 219.73 -0.591117 0.317523 0
M  V30 2361 H 222.274 -1.40865 1.48248 0
M  V30 2362 H 220.429 -3.79294 0.788355 0
M  V30 2363 H 220.843 -4.34971 2.93087 0
M  V30 2364 H 222.317 -5.30817 1.5145 0
M  V30 2365 H 222.794 -4.39113 0.0875279 0
M  V30 2366 H 223.4 -3.90402 1.68721 0
M  V30 2367 N 221.715 -0.905404 -1.28997 0
M  V30 2368 C 222.961 -0.544465 -1.95977 0
M  V30 2369 C 223.316 0.90041 -1.70031 0
M  V30 2370 O 222.609 1.63064 -1.00601 0
M  V30 2371 C 222.803 -0.779906 -3.48787 0
M  V30 2372 C 222.632 -2.24612 -3.89589 0
M  V30 2373 C 221.402 -2.89464 -4.14172 0
M  V30 2374 C 223.6 -3.22182 -4.00878 0
M  V30 2375 N 221.582 -4.26469 -4.41585 0
M  V30 2376 C 222.953 -4.44323 -4.32409 0
M  V30 2377 C 225.008 -3.17694 -3.83373 0
M  V30 2378 C 223.711 -5.62546 -4.48258 0
M  V30 2379 C 225.737 -4.35208 -4.00435 0
M  V30 2380 C 225.099 -5.56121 -4.3233 0
M  V30 2381 H 221.198 -0.248948 -0.741316 0
M  V30 2382 H 223.782 -1.1674 -1.5582 0
M  V30 2383 H 221.953 -0.186308 -3.87953 0
M  V30 2384 H 223.685 -0.383833 -4.02876 0
M  V30 2385 H 220.44 -2.40232 -4.08149 0
M  V30 2386 H 220.864 -4.97283 -4.5939 0
M  V30 2387 H 225.506 -2.25297 -3.57773 0
M  V30 2388 H 223.224 -6.55429 -4.72692 0
M  V30 2389 H 226.81 -4.33228 -3.88336 0
M  V30 2390 H 225.69 -6.45537 -4.45255 0
M  V30 2391 N 223.193 1.4272 -0.668489 0
M  V30 2392 C 224.103 2.34596 0.0139753 0
M  V30 2393 C 225.119 1.5474 0.795703 0
M  V30 2394 O 226.295 1.87334 0.739466 0
M  V30 2395 C 223.36 3.33202 0.957982 0
M  V30 2396 C 222.421 4.28957 0.17149 0
M  V30 2397 C 221.654 5.22853 1.07053 0
M  V30 2398 O 221.877 5.21531 2.31001 0
M  V30 2399 O 220.811 5.9952 0.534727 0
M  V30 2400 H 224.637 2.9448 -0.742661 0
M  V30 2401 H 222.222 1.43117 -0.428705 0
M  V30 2402 H 224.104 3.93796 1.50008 0
M  V30 2403 H 222.779 2.758 1.69458 0
M  V30 2404 H 221.686 3.71796 -0.414558 0
M  V30 2405 H 223.019 4.89383 -0.52586 0
M  V30 2406 N 224.671 0.411399 1.52136 0
M  V30 2407 C 225.634 -0.401089 2.25663 0
M  V30 2408 C 226.634 -0.971732 1.28117 0
M  V30 2409 O 227.824 -0.850254 1.52041 0
M  V30 2410 C 224.956 -1.56483 3.02863 0
M  V30 2411 H 226.149 0.24295 2.98914 0
M  V30 2412 H 223.702 0.163968 1.55438 0
M  V30 2413 H 224.437 -2.24567 2.33967 0
M  V30 2414 H 224.222 -1.16211 3.74483 0
M  V30 2415 H 225.712 -2.13951 3.58629 0
M  V30 2416 N 226.149 -1.5696 0.141893 0
M  V30 2417 C 227.082 -2.12271 -0.837627 0
M  V30 2418 C 228.06 -1.04495 -1.24578 0
M  V30 2419 O 229.244 -1.32293 -1.34278 0
M  V30 2420 C 226.371 -2.63822 -2.12404 0
M  V30 2421 C 225.417 -3.83698 -1.86221 0
M  V30 2422 S 226.25 -5.24948 -1.05781 0
M  V30 2423 C 227.406 -5.79884 -2.35552 0
M  V30 2424 H 227.639 -2.95023 -0.367249 0
M  V30 2425 H 225.172 -1.54231 -0.0723014 0
M  V30 2426 H 227.13 -2.94175 -2.86307 0
M  V30 2427 H 225.791 -1.8121 -2.56557 0
M  V30 2428 H 224.984 -4.17995 -2.81596 0
M  V30 2429 H 224.586 -3.5408 -1.20429 0
M  V30 2430 H 226.878 -5.91005 -3.31239 0
M  V30 2431 H 227.821 -6.77544 -2.05767 0
M  V30 2432 H 228.229 -5.08095 -2.45967 0
M  V30 2433 N 227.627 0.131896 -1.57047 0
M  V30 2434 C 228.537 1.1815 -2.02676 0
M  V30 2435 C 229.553 1.46113 -0.944824 0
M  V30 2436 O 230.729 1.57485 -1.25541 0
M  V30 2437 C 227.794 2.49139 -2.41103 0
M  V30 2438 C 226.855 2.28688 -3.63318 0
M  V30 2439 C 226.088 3.53431 -3.99903 0
M  V30 2440 O 226.311 4.60223 -3.36973 0
M  V30 2441 O 225.245 3.45198 -4.93074 0
M  V30 2442 H 229.071 0.824069 -2.92306 0
M  V30 2443 H 226.656 0.341745 -1.45439 0
M  V30 2444 H 228.538 3.26338 -2.66611 0
M  V30 2445 H 227.213 2.84382 -1.54624 0
M  V30 2446 H 226.12 1.4939 -3.42977 0
M  V30 2447 H 227.453 1.98355 -4.50462 0
M  V30 2448 N 229.106 1.52395 0.401703 0
M  V30 2449 C 230.069 1.75636 1.47257 0
M  V30 2450 C 231.069 0.62628 1.48103 0
M  V30 2451 O 232.259 0.894227 1.49497 0
M  V30 2452 C 229.391 1.84553 2.86624 0
M  V30 2453 H 230.584 2.71241 1.27938 0
M  V30 2454 H 228.137 1.42923 0.632662 0
M  V30 2455 H 228.872 0.908882 3.11303 0
M  V30 2456 H 228.657 2.66715 2.87412 0
M  V30 2457 H 230.147 2.04251 3.64241 0
M  V30 2458 N 230.584 -0.659388 1.43143 0
M  V30 2459 C 231.824 -1.43121 1.45931 0
M  V30 2460 C 232.188 -1.91838 0.0789298 0
M  V30 2461 O 233.389 -2.68794 -0.018491 0
M  V30 2462 C 231.66 -2.58534 2.46769 0
M  V30 2463 S 233.219 -3.47154 2.68384 0
M  V30 2464 H 230.037 -0.488624 0.516496 0
M  V30 2465 H 232.639 -0.766128 1.79863 0
M  V30 2466 H 231.343 -2.21007 3.45809 0
M  V30 2467 H 230.874 -3.29898 2.14315 0
M  V30 2468 H 232.889 -4.55051 1.97845 0
M  V30 2469 N 232.062 -1.29571 -0.897171 0
M  V30 2470 C 233.009 -1.14916 -2.00158 0
M  V30 2471 C 233.979 -0.0418149 -1.66047 0
M  V30 2472 O 235.164 -0.209793 -1.89643 0
M  V30 2473 C 232.304 -0.834307 -3.34863 0
M  V30 2474 C 231.417 -2.02234 -3.8174 0
M  V30 2475 C 230.552 -1.64664 -5.05034 0
M  V30 2476 C 229.591 -2.80033 -5.44286 0
M  V30 2477 N 228.728 -2.42843 -6.58765 0
M  V30 2478 H 233.568 -2.09403 -2.12025 0
M  V30 2479 H 231.105 -1.042 -1.0383 0
M  V30 2480 H 233.063 -0.632436 -4.12379 0
M  V30 2481 H 231.693 0.0736656 -3.22716 0
M  V30 2482 H 230.745 -2.33583 -3.00238 0
M  V30 2483 H 232.057 -2.88673 -4.06779 0
M  V30 2484 H 231.211 -1.4078 -5.9014 0
M  V30 2485 H 229.95 -0.753766 -4.8184 0
M  V30 2486 H 228.955 -3.04596 -4.57713 0
M  V30 2487 H 230.18 -3.69989 -5.6946 0
M  V30 2488 H 228.126 -1.56046 -6.3717 0
M  V30 2489 H 228.043 -3.22815 -6.83613 0
M  V30 2490 H 229.311 -2.22285 -7.47134 0
M  V30 2491 N 233.54 1.10788 -1.12088 0
M  V30 2492 C 234.817 1.79136 -0.785476 0
M  V30 2493 C 235.197 1.98246 0.725377 0
M  V30 2494 O 234.545 1.57258 1.65778 0
M  V30 2495 C 234.755 3.12375 -1.55636 0
M  V30 2496 C 236.103 3.8731 -1.74001 0
M  V30 2497 O 237.127 3.22085 -1.52117 0
M  V30 2498 O 235.986 5.04369 -2.10415 0
M  V30 2499 H 233.08 0.776226 -0.285311 0
M  V30 2500 H 235.626 1.1747 -1.2247 0
M  V30 2501 H 234.398 2.93863 -2.5838 0
M  V30 2502 H 234.021 3.81758 -1.11114 0
M  V30 2503 N 235.018 0.912232 1.28515 0
M  V30 2504 C 235.981 0.404223 2.25607 0
M  V30 2505 C 236.981 -0.468602 1.53821 0
M  V30 2506 O 238.171 -0.271873 1.72065 0
M  V30 2507 C 235.303 -0.420653 3.38295 0
M  V30 2508 H 236.496 1.26188 2.7206 0
M  V30 2509 H 234.049 0.691495 1.40171 0
M  V30 2510 H 234.784 -1.29777 2.97201 0
M  V30 2511 H 234.569 0.204935 3.91564 0
M  V30 2512 H 236.059 -0.766971 4.10496 0
M  V30 2513 N 236.496 -1.42363 0.676048 0
M  V30 2514 C 237.744 -2.01123 0.198437 0
M  V30 2515 C 238.065 -1.53731 -1.19966 0
M  V30 2516 O 237.335 -0.759518 -1.80577 0
M  V30 2517 H 235.915 -0.743678 0.0703721 0
M  V30 2518 H 238.577 -1.74263 0.872837 0
M  V30 2519 H 237.673 -3.11454 0.200686 0
M  V30 2520 N 237.974 -0.419461 -1.51915 0
M  V30 2521 C 238.904 0.391813 -2.30189 0
M  V30 2522 C 239.885 1.03699 -1.34836 0
M  V30 2523 O 241.07 1.04403 -1.63748 0
M  V30 2524 C 238.2 1.50312 -3.13087 0
M  V30 2525 C 237.154 0.9824 -4.16573 0
M  V30 2526 C 236.48 2.18809 -4.8788 0
M  V30 2527 C 237.78 0.0292356 -5.22292 0
M  V30 2528 H 239.474 -0.26135 -2.98257 0
M  V30 2529 H 237.02 -0.127134 -1.43438 0
M  V30 2530 H 238.973 2.07773 -3.66617 0
M  V30 2531 H 237.697 2.18431 -2.42807 0
M  V30 2532 H 236.356 0.430119 -3.64068 0
M  V30 2533 H 236.004 2.85507 -4.14119 0
M  V30 2534 H 235.704 1.84615 -5.57845 0
M  V30 2535 H 237.228 2.76858 -5.44226 0
M  V30 2536 H 238.642 0.512976 -5.71 0
M  V30 2537 H 237.039 -0.2244 -5.9968 0
M  V30 2538 H 238.109 -0.912931 -4.76228 0
M  V30 2539 N 239.452 1.56882 -0.150215 0
M  V30 2540 C 240.698 1.96518 0.500834 0
M  V30 2541 C 241.031 1.03527 1.64304 0
M  V30 2542 O 240.306 0.0782751 1.94342 0
M  V30 2543 C 240.589 3.45822 1.00395 0
M  V30 2544 C 240.442 4.49591 -0.136983 0
M  V30 2545 C 241.761 3.97704 1.88467 0
M  V30 2546 H 238.88 0.714535 0.18058 0
M  V30 2547 H 241.522 1.88577 -0.232091 0
M  V30 2548 H 239.672 3.5272 1.62851 0
M  V30 2549 H 241.344 4.5477 -0.77343 0
M  V30 2550 H 239.587 4.26441 -0.795652 0
M  V30 2551 H 240.258 5.51402 0.256815 0
M  V30 2552 H 242.734 3.93304 1.35834 0
M  V30 2553 H 241.61 5.0263 2.20578 0
M  V30 2554 H 241.871 3.40252 2.82279 0
M  V30 2555 N 240.93 -0.123565 1.57115 0
M  V30 2556 C 241.877 -1.15177 2.00007 0
M  V30 2557 C 242.847 -1.41403 0.871454 0
M  V30 2558 O 244.032 -1.53346 1.13533 0
M  V30 2559 C 241.172 -2.47436 2.40561 0
M  V30 2560 C 240.285 -2.28184 3.66819 0
M  V30 2561 C 239.42 -3.53641 3.96373 0
M  V30 2562 C 238.459 -3.29528 5.15827 0
M  V30 2563 N 237.596 -4.47175 5.41275 0
M  V30 2564 H 242.436 -0.779008 2.87638 0
M  V30 2565 H 239.973 -0.373166 1.42288 0
M  V30 2566 H 241.931 -3.24584 2.62109 0
M  V30 2567 H 240.561 -2.82614 1.55978 0
M  V30 2568 H 239.613 -1.41976 3.52912 0
M  V30 2569 H 240.925 -2.0634 4.5412 0
M  V30 2570 H 240.079 -4.39209 4.18545 0
M  V30 2571 H 238.818 -3.78512 3.07538 0
M  V30 2572 H 237.823 -2.42349 4.93505 0
M  V30 2573 H 239.048 -3.06031 6.06236 0
M  V30 2574 H 236.994 -4.72175 4.55397 0
M  V30 2575 H 236.911 -4.28419 6.22891 0
M  V30 2576 H 238.179 -5.3389 5.67963 0
M  V30 2577 N 242.408 -1.52605 -0.393616 0
M  V30 2578 C 243.633 -1.71592 -1.16495 0
M  V30 2579 C 244.058 -0.43133 -1.83088 0
M  V30 2580 O 243.416 0.612523 -1.7064 0
M  V30 2581 C 243.464 -2.86318 -2.19213 0
M  V30 2582 O 242.568 -2.52969 -3.257 0
M  V30 2583 H 241.909 -0.570734 -0.33935 0
M  V30 2584 H 244.439 -1.99377 -0.459324 0
M  V30 2585 H 244.449 -3.1168 -2.63286 0
M  V30 2586 H 243.124 -3.79511 -1.7013 0
M  V30 2587 H 241.701 -2.38332 -2.86797 0
M  V30 2588 N 243.887 0.651787 -1.4349 0
M  V30 2589 C 244.817 1.77621 -1.51569 0
M  V30 2590 C 245.798 1.66022 -0.370253 0
M  V30 2591 O 246.983 1.85095 -0.587658 0
M  V30 2592 C 244.113 3.16056 -1.43966 0
M  V30 2593 C 243.067 3.4242 -2.56774 0
M  V30 2594 C 242.393 4.8067 -2.34223 0
M  V30 2595 C 243.693 3.37023 -3.99015 0
M  V30 2596 H 245.387 1.71117 -2.45681 0
M  V30 2597 H 242.933 0.821825 -1.18246 0
M  V30 2598 H 244.886 3.94472 -1.48221 0
M  V30 2599 H 243.61 3.23293 -0.463586 0
M  V30 2600 H 242.269 2.66375 -2.51873 0
M  V30 2601 H 241.917 4.84585 -1.34856 0
M  V30 2602 H 241.617 4.9927 -3.09844 0
M  V30 2603 H 243.141 5.61342 -2.40265 0
M  V30 2604 H 244.555 4.05374 -4.05395 0
M  V30 2605 H 242.952 3.67159 -4.74673 0
M  V30 2606 H 244.022 2.3518 -4.2405 0
M  V30 2607 N 245.365 1.30045 0.890287 0
M  V30 2608 C 246.613 1.18327 1.63839 0
M  V30 2609 C 246.934 -0.263455 1.93212 0
M  V30 2610 O 246.204 -1.17856 1.56482 0
M  V30 2611 H 244.784 0.434933 0.607324 0
M  V30 2612 H 247.446 1.631 1.06698 0
M  V30 2613 H 246.542 1.74024 2.59079 0
M  V30 2614 N 246.843 -1.10192 1.12674 0
M  V30 2615 C 248.089 -1.82475 0.884915 0
M  V30 2616 C 248.422 -1.85093 -0.58773 0
M  V30 2617 O 247.697 -1.3134 -1.43457 0
M  V30 2618 C 247.98 -3.29018 1.46353 0
M  V30 2619 C 247.833 -3.34718 3.00473 0
M  V30 2620 C 249.152 -4.25473 1.12519 0
M  V30 2621 H 246.271 -0.662492 0.322915 0
M  V30 2622 H 248.913 -1.2913 1.39375 0
M  V30 2623 H 247.063 -3.74576 1.03077 0
M  V30 2624 H 248.735 -2.97622 3.52447 0
M  V30 2625 H 246.978 -2.74541 3.35872 0
M  V30 2626 H 247.649 -4.37918 3.36053 0
M  V30 2627 H 250.125 -3.88161 1.499 0
M  V30 2628 H 249.001 -5.26365 1.55663 0
M  V30 2629 H 249.262 -4.42084 0.0377407 0
M  V30 2630 N 248.321 -0.919034 -1.28029 0
M  V30 2631 C 249.546 -0.570357 -1.99403 0
M  V30 2632 C 249.971 0.842486 -1.68178 0
M  V30 2633 O 249.329 1.56391 -0.917141 0
M  V30 2634 C 249.377 -0.792541 -3.51783 0
M  V30 2635 O 248.481 0.145988 -4.12142 0
M  V30 2636 H 247.822 -0.220555 -0.6263 0
M  V30 2637 H 250.352 -1.23592 -1.63053 0
M  V30 2638 H 250.362 -0.704708 -4.01868 0
M  V30 2639 H 249.037 -1.82247 -3.73844 0
M  V30 2640 H 247.614 0.00897528 -3.72899 0
M  V30 2641 N 249.799 1.42003 -0.683588 0
M  V30 2642 C 250.747 2.326 0.000815408 0
M  V30 2643 C 251.741 1.50308 0.781278 0
M  V30 2644 O 252.947 1.66322 0.688251 0
M  V30 2645 H 249.322 0.751758 0.0190616 0
M  V30 2646 H 251.293 2.88011 -0.780528 0
M  V30 2647 C 250.042 3.34978 0.93195 0
M  V30 2648 H 249.365 3.98345 0.340817 0
M  V30 2649 H 250.805 4.00936 1.37936 0
M  V30 2650 C 249.264 2.67925 2.04249 0
M  V30 2651 O 249.794 2.51788 3.12995 0
M  V30 2652 N 248 2.2681 1.81675 0
M  V30 2653 H 247.547 2.40135 0.932363 0
M  V30 2654 H 247.505 1.8228 2.56167 0
M  V30 2655 N 251.277 0.427512 1.51691 0
M  V30 2656 C 252.524 -0.142229 2.02 0
M  V30 2657 C 252.852 -1.43566 1.31221 0
M  V30 2658 O 252.107 -1.91298 0.412744 0
M  V30 2659 C 252.406 -0.418249 3.54944 0
M  V30 2660 C 252.072 0.788187 4.43958 0
M  V30 2661 C 250.734 1.11906 4.68007 0
M  V30 2662 C 253.086 1.59347 4.96244 0
M  V30 2663 C 250.414 2.25608 5.41588 0
M  V30 2664 C 252.766 2.7214 5.71072 0
M  V30 2665 C 251.43 3.05692 5.93387 0
M  V30 2666 H 250.7 -0.0520451 0.73917 0
M  V30 2667 H 253.347 0.572697 1.82736 0
M  V30 2668 H 251.652 -1.21496 3.72486 0
M  V30 2669 H 253.349 -0.872339 3.91397 0
M  V30 2670 H 249.939 0.520344 4.2543 0
M  V30 2671 H 254.123 1.35106 4.77556 0
M  V30 2672 H 249.379 2.51929 5.57083 0
M  V30 2673 H 253.553 3.34914 6.10578 0
M  V30 2674 H 251.18 3.9391 6.50184 0
M  V30 2675 N 252.755 -1.56801 0.158532 0
M  V30 2676 C 253.703 -2.18638 -0.793729 0
M  V30 2677 C 254.697 -1.14669 -1.24689 0
M  V30 2678 O 255.903 -1.32895 -1.21403 0
M  V30 2679 H 252.278 -0.700226 -0.274204 0
M  V30 2680 H 254.249 -2.97367 -0.248095 0
M  V30 2681 C 252.998 -2.83139 -2.0181 0
M  V30 2682 H 252.321 -3.62863 -1.67841 0
M  V30 2683 H 253.761 -3.29894 -2.66357 0
M  V30 2684 C 252.22 -1.82244 -2.83353 0
M  V30 2685 O 252.75 -1.3 -3.80083 0
M  V30 2686 N 250.956 -1.51288 -2.48114 0
M  V30 2687 H 250.503 -1.93964 -1.69516 0
M  V30 2688 H 250.461 -0.840296 -3.02963 0
M  V30 2689 N 254.233 0.115231 -1.57178 0
M  V30 2690 C 255.649 0.468877 -1.52557 0
M  V30 2691 C 255.849 1.81649 -0.872125 0
M  V30 2692 O 254.905 2.48347 -0.45606 0
M  V30 2693 C 256.218 0.4499 -2.97315 0
M  V30 2694 C 257.766 0.533185 -3.08425 0
M  V30 2695 C 258.241 0.54456 -4.54751 0
M  V30 2696 N 259.732 0.605892 -4.5922 0
M  V30 2697 C 260.467 0.636203 -5.6986 0
M  V30 2698 N 259.963 0.623931 -6.89985 0
M  V30 2699 N 261.756 0.679496 -5.57978 0
M  V30 2700 H 253.907 -0.767712 -1.9804 0
M  V30 2701 H 256.17 -0.283609 -0.904583 0
M  V30 2702 H 255.876 -0.472721 -3.48509 0
M  V30 2703 H 255.75 1.27632 -3.5495 0
M  V30 2704 H 258.137 1.44623 -2.57232 0
M  V30 2705 H 258.218 -0.320995 -2.53778 0
M  V30 2706 H 257.862 -0.364452 -5.06591 0
M  V30 2707 H 257.792 1.41568 -5.07214 0
M  V30 2708 H 260.283 0.621386 -3.72756 0
M  V30 2709 H 260.596 0.649787 -7.70063 0
M  V30 2710 H 258.941 0.591296 -6.9248 0
M  V30 2711 H 262.132 0.686472 -4.63039 0
M  V30 2712 H 262.305 0.69965 -6.44212 0
M  V30 2713 N 255.711 1.52812 0.385517 0
M  V30 2714 C 257.127 1.4214 0.725829 0
M  V30 2715 C 257.327 0.544589 1.94001 0
M  V30 2716 O 256.383 0.0193693 2.52493 0
M  V30 2717 C 257.696 2.85042 0.957668 0
M  V30 2718 C 259.244 2.94543 1.05892 0
M  V30 2719 C 259.719 4.38464 1.32337 0
M  V30 2720 N 261.21 4.41804 1.39151 0
M  V30 2721 C 261.945 5.5025 1.61285 0
M  V30 2722 N 261.441 6.68775 1.80866 0
M  V30 2723 N 263.234 5.37798 1.63492 0
M  V30 2724 H 255.385 2.08338 -0.413383 0
M  V30 2725 H 257.648 0.940016 -0.122775 0
M  V30 2726 H 257.354 3.51431 0.137568 0
M  V30 2727 H 257.228 3.27505 1.87137 0
M  V30 2728 H 259.615 2.28321 1.86959 0
M  V30 2729 H 259.696 2.55504 0.123057 0
M  V30 2730 H 259.34 5.05254 0.517793 0
M  V30 2731 H 259.27 4.75059 2.27214 0
M  V30 2732 H 261.761 3.56377 1.25713 0
M  V30 2733 H 262.074 7.47197 1.97271 0
M  V30 2734 H 260.419 6.71797 1.78083 0
M  V30 2735 H 263.61 4.44171 1.47749 0
M  V30 2736 H 263.783 6.22382 1.80402 0
M  V30 2737 N 257.189 -0.644168 1.43834 0
M  V30 2738 C 258.121 -1.76955 1.45669 0
M  V30 2739 C 259.134 -1.58956 0.351666 0
M  V30 2740 O 260.323 -1.6751 0.616644 0
M  V30 2741 C 257.423 -3.14507 1.26248 0
M  V30 2742 C 256.596 -3.59083 2.49757 0
M  V30 2743 C 255.655 -4.75467 2.25427 0
M  V30 2744 O 254.681 -4.84444 2.98836 0
M  V30 2745 N 255.883 -5.66289 1.27661 0
M  V30 2746 H 258.648 -1.75856 2.42682 0
M  V30 2747 H 256.209 -0.828312 1.39106 0
M  V30 2748 H 258.201 -3.90067 1.0784 0
M  V30 2749 H 256.771 -3.10325 0.376478 0
M  V30 2750 H 255.991 -2.7387 2.8353 0
M  V30 2751 H 257.279 -3.85613 3.31934 0
M  V30 2752 H 256.677 -5.61718 0.670064 0
M  V30 2753 H 255.234 -6.41533 1.15234 0
M  V30 2754 N 258.668 -1.30515 -0.883378 0
M  V30 2755 C 259.598 -1.19607 -2.00541 0
M  V30 2756 C 260.579 -0.086346 -1.69881 0
M  V30 2757 O 261.764 -0.268654 -1.92333 0
M  V30 2758 C 258.894 -0.888758 -3.35736 0
M  V30 2759 C 257.848 -1.95659 -3.8066 0
M  V30 2760 C 257.174 -1.50224 -5.13164 0
M  V30 2761 C 258.474 -3.36788 -3.99213 0
M  V30 2762 H 260.168 -2.13476 -2.09925 0
M  V30 2763 H 257.714 -1.02775 -1.00863 0
M  V30 2764 H 259.667 -0.799094 -4.13754 0
M  V30 2765 H 258.391 0.0856125 -3.26488 0
M  V30 2766 H 257.05 -2.03591 -3.04871 0
M  V30 2767 H 256.698 -0.516092 -5.00345 0
M  V30 2768 H 256.398 -2.2165 -5.44192 0
M  V30 2769 H 257.922 -1.42639 -5.93706 0
M  V30 2770 H 259.336 -3.31605 -4.67665 0
M  V30 2771 H 257.733 -4.06314 -4.41621 0
M  V30 2772 H 258.803 -3.78561 -3.03017 0
M  V30 2773 N 260.146 1.09593 -1.13257 0
M  V30 2774 C 261.056 2.19739 -0.821691 0
M  V30 2775 C 262.072 1.72926 0.19302 0
M  V30 2776 O 263.248 2.01385 0.0244895 0
M  V30 2777 C 260.313 3.45482 -0.290333 0
M  V30 2778 C 259.374 4.06985 -1.36607 0
M  V30 2779 C 258.607 5.26726 -0.859975 0
M  V30 2780 O 258.83 5.69594 0.303082 0
M  V30 2781 O 257.764 5.7931 -1.63351 0
M  V30 2782 H 261.59 2.48781 -1.74189 0
M  V30 2783 H 259.175 1.18496 -0.909894 0
M  V30 2784 H 261.057 4.214 0.000674022 0
M  V30 2785 H 259.732 3.18047 0.602306 0
M  V30 2786 H 258.639 3.32712 -1.71037 0
M  V30 2787 H 259.972 4.38643 -2.23279 0
M  V30 2788 N 261.624 0.925811 1.2754 0
M  V30 2789 C 262.554 0.440748 2.29303 0
M  V30 2790 C 263.535 -0.497971 1.62648 0
M  V30 2791 O 264.72 -0.403126 1.8997 0
M  V30 2792 C 261.85 -0.309048 3.45922 0
M  V30 2793 C 260.804 0.54166 4.24559 0
M  V30 2794 C 260.13 -0.337191 5.33636 0
M  V30 2795 C 261.43 1.80516 4.90114 0
M  V30 2796 H 263.124 1.29121 2.70126 0
M  V30 2797 H 260.67 0.622323 1.29858 0
M  V30 2798 H 262.623 -0.659315 4.1621 0
M  V30 2799 H 261.347 -1.19352 3.04011 0
M  V30 2800 H 260.006 0.874609 3.56014 0
M  V30 2801 H 259.654 -1.22056 4.87966 0
M  V30 2802 H 259.354 0.228497 5.87156 0
M  V30 2803 H 260.878 -0.683072 6.06767 0
M  V30 2804 H 262.292 1.52307 5.52698 0
M  V30 2805 H 260.689 2.3142 5.53683 0
M  V30 2806 H 261.759 2.52581 4.13921 0
M  V30 2807 N 263.102 -1.41638 0.69111 0
M  V30 2808 C 264.351 -2.00526 0.217318 0
M  V30 2809 C 264.664 -1.55353 -1.18848 0
M  V30 2810 O 265.87 -2.06769 -1.75951 0
M  V30 2811 C 264.326 -3.58313 0.337639 0
M  V30 2812 C 263.934 -4.12469 1.74852 0
M  V30 2813 C 265.678 -4.24431 -0.0766066 0
M  V30 2814 C 263.585 -5.62675 1.82074 0
M  V30 2815 H 262.515 -0.750008 0.0774893 0
M  V30 2816 H 265.166 -1.6217 0.858661 0
M  V30 2817 H 263.548 -3.9425 -0.371879 0
M  V30 2818 H 264.722 -3.8796 2.48644 0
M  V30 2819 H 263.037 -3.58861 2.11205 0
M  V30 2820 H 265.634 -5.34683 -0.0430284 0
M  V30 2821 H 265.977 -4.01101 -1.1146 0
M  V30 2822 H 266.51 -3.93512 0.582476 0
M  V30 2823 H 263.249 -5.90826 2.83911 0
M  V30 2824 H 262.769 -5.89124 1.12661 0
M  V30 2825 H 264.448 -6.27371 1.58159 0
M  V30 2826 N 264.58 -0.43555 -1.51462 0
M  V30 2827 C 265.51 0.367376 -2.30592 0
M  V30 2828 C 266.491 1.02263 -1.35928 0
M  V30 2829 O 267.676 1.02661 -1.64847 0
M  V30 2830 C 264.806 1.46983 -3.14664 0
M  V30 2831 C 263.76 0.938161 -4.17591 0
M  V30 2832 C 263.086 2.13622 -4.90173 0
M  V30 2833 C 264.386 -0.0261621 -5.22293 0
M  V30 2834 H 266.08 -0.292969 -2.97963 0
M  V30 2835 H 263.626 -0.14234 -1.43295 0
M  V30 2836 H 265.579 2.03873 -3.688 0
M  V30 2837 H 264.303 2.15843 -2.4511 0
M  V30 2838 H 262.962 0.391481 -3.64504 0
M  V30 2839 H 262.61 2.81098 -4.17124 0
M  V30 2840 H 262.31 1.78688 -5.59772 0
M  V30 2841 H 263.834 2.7107 -5.47132 0
M  V30 2842 H 265.248 0.452384 -5.71512 0
M  V30 2843 H 263.645 -0.287992 -5.99409 0
M  V30 2844 H 264.715 -0.963391 -4.75233 0
M  V30 2845 N 266.058 1.56714 -0.166846 0
M  V30 2846 C 267.006 2.19056 0.782123 0
M  V30 2847 C 268 1.15328 1.24079 0
M  V30 2848 O 269.206 1.33537 1.20697 0
M  V30 2849 H 265.581 0.70167 0.270486 0
M  V30 2850 H 267.552 2.97494 0.232322 0
M  V30 2851 C 266.301 2.84206 2.00306 0
M  V30 2852 H 265.624 3.63748 1.65914 0
M  V30 2853 H 267.064 3.31302 2.64604 0
M  V30 2854 C 265.523 1.83744 2.82382 0
M  V30 2855 O 266.053 1.32014 3.79388 0
M  V30 2856 N 264.259 1.52601 2.47308 0
M  V30 2857 H 263.806 1.9486 1.68485 0
M  V30 2858 H 263.764 0.856351 3.02513 0
M  V30 2859 N 267.536 -0.106894 1.57237 0
M  V30 2860 C 268.483 -1.13049 2.01217 0
M  V30 2861 C 269.453 -1.40471 0.886403 0
M  V30 2862 O 270.638 -1.52133 1.15153 0
M  V30 2863 C 267.778 -2.4487 2.43172 0
M  V30 2864 C 266.891 -2.24281 3.69218 0
M  V30 2865 C 266.026 -3.49417 4.00101 0
M  V30 2866 C 265.065 -3.24038 5.19294 0
M  V30 2867 N 264.202 -4.41409 5.45988 0
M  V30 2868 H 269.042 -0.748456 2.88448 0
M  V30 2869 H 266.579 -0.358054 1.42676 0
M  V30 2870 H 268.537 -3.21786 2.65537 0
M  V30 2871 H 267.167 -2.80944 1.58967 0
M  V30 2872 H 266.219 -1.38224 3.54398 0
M  V30 2873 H 267.531 -2.01512 4.56283 0
M  V30 2874 H 266.685 -4.34746 4.2318 0
M  V30 2875 H 265.424 -3.75229 3.11535 0
M  V30 2876 H 264.429 -2.37102 4.96047 0
M  V30 2877 H 265.654 -2.99584 6.09447 0
M  V30 2878 H 263.6 -4.67319 4.60379 0
M  V30 2879 H 263.517 -4.21788 6.274 0
M  V30 2880 H 264.785 -5.27836 5.73593 0
M  V30 2881 N 269.014 -1.53014 -0.377408 0
M  V30 2882 C 270.425 -1.60438 -0.954798 0
M  V30 2883 C 270.776 -0.464418 -1.90624 0
M  V30 2884 O 269.901 0.41087 -2.12464 0
M  V30 2885 C 270.496 -2.90797 -1.73847 0
M  V30 2886 C 269.055 -3.00595 -2.26538 0
M  V30 2887 C 268.202 -2.55645 -1.07429 0
M  V30 2888 H 271.153 -1.57926 -0.156575 0
M  V30 2889 H 271.174 -2.77935 -2.5987 0
M  V30 2890 H 270.686 -3.73746 -1.04574 0
M  V30 2891 H 268.787 -2.22208 -2.99089 0
M  V30 2892 H 268.9 -4.05456 -2.5523 0
M  V30 2893 H 267.264 -2.10239 -1.43777 0
M  V30 2894 H 268.047 -3.41 -0.396728 0
M  V30 2895 N 270.492 0.636531 -1.44174 0
M  V30 2896 C 271.74 1.39343 -1.46383 0
M  V30 2897 C 272.061 1.94766 -0.0955715 0
M  V30 2898 O 271.331 1.75452 0.871395 0
M  V30 2899 H 269.911 0.517199 -0.538994 0
M  V30 2900 H 272.573 0.74957 -1.7991 0
M  V30 2901 H 271.669 2.22746 -2.18611 0
M  V30 2902 N 271.97 1.30982 0.876444 0
M  V30 2903 C 272.9 1.20668 1.99903 0
M  V30 2904 C 273.881 0.095354 1.69833 0
M  V30 2905 O 275.066 0.27885 1.92188 0
M  V30 2906 C 272.196 0.90655 3.3526 0
M  V30 2907 C 271.15 1.97675 3.79617 0
M  V30 2908 C 270.476 1.52943 5.1236 0
M  V30 2909 C 271.776 3.389 3.97422 0
M  V30 2910 H 273.47 2.14586 2.0879 0
M  V30 2911 H 271.016 1.03308 1.00317 0
M  V30 2912 H 272.969 0.821025 4.13324 0
M  V30 2913 H 271.693 -0.0682969 3.26529 0
M  V30 2914 H 270.352 2.05205 3.03787 0
M  V30 2915 H 270 0.54262 5.00065 0
M  V30 2916 H 269.7 2.24532 5.43009 0
M  V30 2917 H 271.224 1.45786 5.92941 0
M  V30 2918 H 272.638 3.34081 4.659 0
M  V30 2919 H 271.035 4.0865 4.3946 0
M  V30 2920 H 272.105 3.80163 3.01006 0
M  V30 2921 N 273.449 -1.08991 1.13837 0
M  V30 2922 C 274.396 -2.15748 0.819835 0
M  V30 2923 C 275.366 -1.64636 -0.220026 0
M  V30 2924 O 276.551 -1.90582 -0.0912757 0
M  V30 2925 C 273.691 -3.4382 0.296913 0
M  V30 2926 C 272.804 -4.0881 1.39636 0
M  V30 2927 C 271.939 -5.24655 0.831314 0
M  V30 2928 C 270.978 -5.81575 1.90886 0
M  V30 2929 N 270.115 -6.88774 1.36142 0
M  V30 2930 H 274.955 -2.42338 1.73426 0
M  V30 2931 H 272.492 -1.18935 0.865613 0
M  V30 2932 H 274.45 -4.17193 -0.0244339 0
M  V30 2933 H 273.08 -3.17535 -0.580628 0
M  V30 2934 H 272.132 -3.33258 1.83422 0
M  V30 2935 H 273.444 -4.47141 2.21058 0
M  V30 2936 H 272.598 -6.04942 0.461515 0
M  V30 2937 H 271.337 -4.87698 -0.013932 0
M  V30 2938 H 270.342 -4.99946 2.28767 0
M  V30 2939 H 271.567 -6.20592 2.75758 0
M  V30 2940 H 269.513 -6.53788 0.538254 0
M  V30 2941 H 269.43 -7.25898 2.11208 0
M  V30 2942 H 270.698 -7.72806 1.01933 0
M  V30 2943 N 274.927 -0.932562 -1.27047 0
M  V30 2944 C 275.877 -0.406392 -2.24349 0
M  V30 2945 C 276.861 0.492066 -1.53191 0
M  V30 2946 O 278.053 0.328717 -1.73921 0
M  V30 2947 C 275.182 0.335214 -3.41659 0
M  V30 2948 C 274.268 -0.58004 -4.20115 0
M  V30 2949 N 274.659 -1.70203 -4.76303 0
M  V30 2950 C 272.957 -0.383974 -4.44344 0
M  V30 2951 C 273.658 -2.27167 -5.35509 0
M  V30 2952 N 272.634 -1.56068 -5.20715 0
M  V30 2953 H 276.436 -1.26299 -2.65378 0
M  V30 2954 H 273.95 -0.787408 -1.42034 0
M  V30 2955 H 275.947 0.729142 -4.10474 0
M  V30 2956 H 274.607 1.18868 -3.0216 0
M  V30 2957 H 275.618 -2.08433 -4.74106 0
M  V30 2958 H 272.295 0.428436 -4.15296 0
M  V30 2959 H 273.685 -3.21654 -5.89905 0
M  V30 2960 N 276.405 1.4127 -0.698611 0
M  V30 2961 C 277.352 2.30773 -0.0352094 0
M  V30 2962 C 278.322 1.47273 0.768111 0
M  V30 2963 O 279.507 1.76053 0.735524 0
M  V30 2964 C 276.647 3.33346 0.893 0
M  V30 2965 C 275.76 4.31924 0.0809695 0
M  V30 2966 C 274.895 5.21566 1.0071 0
M  V30 2967 C 273.934 6.11811 0.188155 0
M  V30 2968 N 273.071 6.93926 1.06825 0
M  V30 2969 H 277.911 2.86943 -0.804207 0
M  V30 2970 H 275.448 1.4132 -0.408294 0
M  V30 2971 H 277.406 3.91368 1.44523 0
M  V30 2972 H 276.036 2.78719 1.62836 0
M  V30 2973 H 275.088 3.75825 -0.588224 0
M  V30 2974 H 276.4 4.95716 -0.553801 0
M  V30 2975 H 275.554 5.84437 1.62845 0
M  V30 2976 H 274.293 4.58008 1.67572 0
M  V30 2977 H 273.298 5.47986 -0.446254 0
M  V30 2978 H 274.523 6.77425 -0.476716 0
M  V30 2979 H 272.469 6.32973 1.72283 0
M  V30 2980 H 272.386 7.54416 0.489123 0
M  V30 2981 H 273.654 7.61262 1.67632 0
M  V30 2982 N 277.883 0.443576 1.51229 0
M  V30 2983 C 279.294 -0.0180867 1.86691 0
M  V30 2984 C 279.645 -1.41384 1.36033 0
M  V30 2985 O 278.77 -2.04291 0.713722 0
M  V30 2986 C 279.365 -0.039597 3.38777 0
M  V30 2987 C 277.924 -0.445692 3.73752 0
M  V30 2988 C 277.071 0.357584 2.74985 0
M  V30 2989 H 280.022 0.659138 1.44364 0
M  V30 2990 H 280.043 -0.847761 3.70936 0
M  V30 2991 H 279.555 0.976382 3.75617 0
M  V30 2992 H 277.656 -1.46704 3.42503 0
M  V30 2993 H 277.769 -0.166155 4.78812 0
M  V30 2994 H 276.133 -0.184973 2.54027 0
M  V30 2995 H 276.916 1.37256 3.14668 0
M  V30 2996 N 279.361 -1.56624 0.175154 0
M  V30 2997 C 280.607 -1.9729 -0.469506 0
M  V30 2998 C 280.94 -1.06128 -1.62636 0
M  V30 2999 O 280.215 -0.109183 -1.94193 0
M  V30 3000 C 280.498 -3.47375 -0.948804 0
M  V30 3001 C 280.351 -4.49317 0.208491 0
M  V30 3002 C 281.67 -4.00652 -1.82116 0
M  V30 3003 H 278.789 -0.717317 -0.16919 0
M  V30 3004 H 281.431 -1.88184 0.262062 0
M  V30 3005 H 279.581 -3.55267 -1.57219 0
M  V30 3006 H 281.253 -4.53482 0.845682 0
M  V30 3007 H 279.496 -4.25121 0.863395 0
M  V30 3008 H 280.167 -5.51741 -0.169059 0
M  V30 3009 H 282.643 -3.95416 -1.2956 0
M  V30 3010 H 281.519 -5.06075 -2.12554 0
M  V30 3011 H 281.78 -3.44699 -2.7683 0
M  V30 3012 N 280.839 0.0985539 -1.57292 0
M  V30 3013 C 282.064 0.820196 -1.90493 0
M  V30 3014 C 282.489 1.71658 -0.769094 0
M  V30 3015 O 281.847 1.79133 0.279495 0
M  V30 3016 C 281.895 1.61242 -3.22542 0
M  V30 3017 O 280.999 2.72108 -3.09888 0
M  V30 3018 H 280.34 0.225547 -0.62452 0
M  V30 3019 H 282.87 0.0748159 -2.04463 0
M  V30 3020 H 282.88 1.99737 -3.55766 0
M  V30 3021 H 281.555 0.954535 -4.04798 0
M  V30 3022 H 280.132 2.36667 -2.88172 0
M  V30 3023 N 282.317 1.53212 0.369288 0
M  V30 3024 C 283.265 1.80054 1.47253 0
M  V30 3025 C 284.259 0.669456 1.55611 0
M  V30 3026 O 285.465 0.852328 1.58541 0
M  V30 3027 H 281.84 0.570034 0.490475 0
M  V30 3028 H 283.811 2.72403 1.21817 0
M  V30 3029 C 282.56 2.00403 2.84137 0
M  V30 3030 H 281.883 2.86876 2.78464 0
M  V30 3031 H 283.323 2.23164 3.60519 0
M  V30 3032 C 281.782 0.782081 3.27697 0
M  V30 3033 O 282.312 -0.0310205 4.01688 0
M  V30 3034 N 280.518 0.606573 2.84199 0
M  V30 3035 H 280.065 1.26939 2.24152 0
M  V30 3036 H 280.023 -0.20962 3.137 0
M  V30 3037 N 283.795 -0.628877 1.44509 0
M  V30 3038 C 284.727 -1.754 1.47538 0
M  V30 3039 C 285.74 -1.58575 0.368506 0
M  V30 3040 O 286.929 -1.66847 0.634376 0
M  V30 3041 C 284.029 -3.1315 1.29577 0
M  V30 3042 C 283.202 -3.56413 2.53551 0
M  V30 3043 C 282.261 -4.7305 2.30457 0
M  V30 3044 O 281.287 -4.81247 3.03957 0
M  V30 3045 N 282.489 -5.64903 1.3366 0
M  V30 3046 H 285.254 -1.73272 2.44534 0
M  V30 3047 H 282.815 -0.813512 1.39977 0
M  V30 3048 H 284.807 -3.88902 1.11971 0
M  V30 3049 H 283.377 -3.09908 0.409371 0
M  V30 3050 H 282.597 -2.70847 2.86419 0
M  V30 3051 H 283.885 -3.82071 3.36005 0
M  V30 3052 H 283.283 -5.60975 0.729604 0
M  V30 3053 H 281.84 -6.40275 1.22032 0
M  V30 3054 N 285.273 -1.31445 -0.869486 0
M  V30 3055 C 286.519 -1.21337 -1.62496 0
M  V30 3056 C 286.852 0.227872 -1.92858 0
M  V30 3057 O 286.127 1.16094 -1.56053 0
M  V30 3058 C 286.41 -2.05814 -2.95487 0
M  V30 3059 C 286.263 -3.5824 -2.72 0
M  V30 3060 C 287.582 -1.9079 -3.96594 0
M  V30 3061 H 284.701 -0.442135 -0.589649 0
M  V30 3062 H 287.343 -1.6124 -1.00507 0
M  V30 3063 H 285.493 -1.71913 -3.48394 0
M  V30 3064 H 287.165 -4.0228 -2.25762 0
M  V30 3065 H 285.408 -3.81647 -2.06224 0
M  V30 3066 H 286.079 -4.12657 -3.66631 0
M  V30 3067 H 288.555 -2.20459 -3.52898 0
M  V30 3068 H 287.431 -2.52199 -4.87531 0
M  V30 3069 H 287.692 -0.871341 -4.33428 0
M  V30 3070 N 286.751 1.08385 -1.14413 0
M  V30 3071 C 287.661 2.18856 -0.844951 0
M  V30 3072 C 288.677 1.73121 0.174668 0
M  V30 3073 O 289.853 2.014 0.00312857 0
M  V30 3074 C 286.918 3.45155 -0.32696 0
M  V30 3075 C 285.979 4.05513 -1.40916 0
M  V30 3076 C 285.212 5.25784 -0.915793 0
M  V30 3077 O 285.435 5.69884 0.242651 0
M  V30 3078 O 284.369 5.77545 -1.69487 0
M  V30 3079 H 288.195 2.46919 -1.76818 0
M  V30 3080 H 285.78 1.17524 -0.922411 0
M  V30 3081 H 287.662 4.21377 -0.0440211 0
M  V30 3082 H 286.337 3.18668 0.568539 0
M  V30 3083 H 285.244 3.30879 -1.74556 0
M  V30 3084 H 286.577 4.3625 -2.27919 0
M  V30 3085 N 288.23 0.939286 1.26551 0
M  V30 3086 C 289.47 0.5933 1.956 0
M  V30 3087 C 289.834 -0.851515 1.72085 0
M  V30 3088 O 291.035 -1.30634 2.34921 0
M  V30 3089 C 289.306 0.923996 3.45249 0
M  V30 3090 S 290.865 0.688269 4.33369 0
M  V30 3091 H 287.683 0.218591 0.676564 0
M  V30 3092 H 290.285 1.2102 1.5354 0
M  V30 3093 H 288.989 1.97297 3.59864 0
M  V30 3094 H 288.52 0.296746 3.92279 0
M  V30 3095 H 290.535 -0.448434 4.9417 0
M  V30 3096 N 289.708 -1.40897 0.706093 0
M  V30 3097 C 290.658 -2.27987 0.0240746 0
M  V30 3098 C 291.642 -1.42759 -0.742204 0
M  V30 3099 O 292.834 -1.65936 -0.615966 0
M  V30 3100 C 289.963 -3.31186 -0.903907 0
M  V30 3101 C 289.049 -4.2389 -0.133318 0
M  V30 3102 N 289.44 -4.98113 0.878444 0
M  V30 3103 C 287.738 -4.44485 -0.367269 0
M  V30 3104 C 288.439 -5.6604 1.34064 0
M  V30 3105 N 287.415 -5.39522 0.664565 0
M  V30 3106 H 291.217 -2.82812 0.799658 0
M  V30 3107 H 288.731 -1.53235 0.537845 0
M  V30 3108 H 290.728 -3.92413 -1.40775 0
M  V30 3109 H 289.388 -2.77922 -1.67897 0
M  V30 3110 H 290.399 -5.02364 1.25901 0
M  V30 3111 H 287.076 -4.02213 -1.1194 0
M  V30 3112 H 288.466 -6.35524 2.1808 0
M  V30 3113 N 291.186 -0.45159 -1.50991 0
M  V30 3114 C 292.597 0.00818571 -1.86698 0
M  V30 3115 C 292.948 1.40661 -1.3678 0
M  V30 3116 O 292.073 2.0391 -0.724546 0
M  V30 3117 C 292.668 0.0216303 -3.38793 0
M  V30 3118 C 291.227 0.425865 -3.73983 0
M  V30 3119 C 290.374 -0.372163 -2.74791 0
M  V30 3120 H 293.325 -0.666785 -1.44013 0
M  V30 3121 H 293.346 0.828078 -3.7138 0
M  V30 3122 H 292.858 -0.996288 -3.75094 0
M  V30 3123 H 290.959 1.44886 -3.43277 0
M  V30 3124 H 291.072 0.140761 -4.78893 0
M  V30 3125 H 289.436 0.171498 -2.54122 0
M  V30 3126 H 290.219 -1.38922 -3.13935 0
M  V30 3127 N 292.664 1.56529 -0.183458 0
M  V30 3128 C 293.894 2.01331 0.463612 0
M  V30 3129 C 294.302 1.06278 1.5653 0
M  V30 3130 O 293.645 0.0577976 1.83609 0
M  V30 3131 C 293.707 3.42547 1.09096 0
M  V30 3132 C 293.371 4.56817 0.129442 0
M  V30 3133 C 294.368 5.15734 -0.656807 0
M  V30 3134 C 292.053 5.02295 0.02174 0
M  V30 3135 C 294.047 6.1857 -1.53784 0
M  V30 3136 C 291.734 6.04978 -0.862864 0
M  V30 3137 C 292.732 6.62988 -1.64123 0
M  V30 3138 O 292.42 7.63677 -2.51103 0
M  V30 3139 H 292.152 0.664917 0.121907 0
M  V30 3140 H 294.706 2.034 -0.285954 0
M  V30 3141 H 292.936 3.37428 1.88889 0
M  V30 3142 H 294.625 3.71228 1.64148 0
M  V30 3143 H 295.391 4.81473 -0.583839 0
M  V30 3144 H 291.27 4.56847 0.617392 0
M  V30 3145 H 294.814 6.63777 -2.14583 0
M  V30 3146 H 290.711 6.38663 -0.93699 0
M  V30 3147 H 291.479 7.81049 -2.44753 0
M  V30 3148 N 294.142 -0.090211 1.57342 0
M  V30 3149 C 295.389 -0.792807 1.86335 0
M  V30 3150 C 295.717 -1.78494 0.772662 0
M  V30 3151 O 294.972 -1.94305 -0.233258 0
M  V30 3152 C 295.271 -1.55222 3.21933 0
M  V30 3153 C 294.937 -0.701765 4.45406 0
M  V30 3154 C 293.599 -0.467334 4.78925 0
M  V30 3155 C 295.951 -0.11086 5.21082 0
M  V30 3156 C 293.279 0.367785 5.85546 0
M  V30 3157 C 295.631 0.711609 6.28585 0
M  V30 3158 C 294.295 0.956086 6.60617 0
M  V30 3159 H 293.565 -0.290109 0.681849 0
M  V30 3160 H 296.212 -0.0541332 1.91423 0
M  V30 3161 H 294.517 -2.3626 3.12551 0
M  V30 3162 H 296.214 -2.10032 3.41595 0
M  V30 3163 H 292.804 -0.894598 4.1916 0
M  V30 3164 H 296.988 -0.279129 4.95514 0
M  V30 3165 H 292.244 0.566128 6.08773 0
M  V30 3166 H 296.418 1.17632 6.86393 0
M  V30 3167 H 294.045 1.60499 7.43064 0
M  V30 3168 N 295.62 -1.53406 -0.361157 0
M  V30 3169 C 296.848 -1.73717 -1.12383 0
M  V30 3170 C 297.263 -0.468161 -1.82904 0
M  V30 3171 O 296.62 0.559198 -1.73722 0
M  V30 3172 C 296.671 -2.90558 -2.15078 0
M  V30 3173 O 296.392 -4.12549 -1.47428 0
M  V30 3174 C 297.893 -3.22777 -3.03858 0
M  V30 3175 H 295.113 -0.580896 -0.335858 0
M  V30 3176 H 297.657 -2.00167 -0.418728 0
M  V30 3177 H 295.812 -2.66489 -2.8118 0
M  V30 3178 H 296.226 -4.78009 -2.15887 0
M  V30 3179 H 297.7 -4.07927 -3.71887 0
M  V30 3180 H 298.177 -2.38329 -3.68912 0
M  V30 3181 H 298.783 -3.48787 -2.43367 0
M  V30 3182 N 297.098 0.621204 -1.44841 0
M  V30 3183 C 298.03 1.74615 -1.48466 0
M  V30 3184 C 299.043 1.58377 -0.37691 0
M  V30 3185 O 300.232 1.66508 -0.643215 0
M  V30 3186 C 297.332 3.12459 -1.31236 0
M  V30 3187 C 296.505 3.55064 -2.55438 0
M  V30 3188 C 295.564 4.71821 -2.32963 0
M  V30 3189 O 294.59 4.79628 -3.06505 0
M  V30 3190 N 295.792 5.64186 -1.36654 0
M  V30 3191 H 298.557 1.71973 -2.45449 0
M  V30 3192 H 296.118 0.806077 -1.40407 0
M  V30 3193 H 298.11 3.88302 -1.14032 0
M  V30 3194 H 296.68 3.09686 -0.4258 0
M  V30 3195 H 295.9 2.69324 -2.87851 0
M  V30 3196 H 297.188 3.80284 -3.38026 0
M  V30 3197 H 296.586 5.6058 -0.759344 0
M  V30 3198 H 295.143 6.39618 -1.25425 0
M  V30 3199 N 298.576 1.31904 0.862503 0
M  V30 3200 C 299.987 1.19803 1.43193 0
M  V30 3201 C 300.338 -0.192567 1.95253 0
M  V30 3202 O 299.463 -1.09081 1.86896 0
M  V30 3203 C 300.058 2.16883 2.60283 0
M  V30 3204 C 298.617 2.08692 3.13248 0
M  V30 3205 C 297.764 2.05691 1.85975 0
M  V30 3206 H 300.715 1.43846 0.670365 0
M  V30 3207 H 300.736 1.76278 3.37204 0
M  V30 3208 H 300.248 3.18083 2.22363 0
M  V30 3209 H 298.349 1.10713 3.55771 0
M  V30 3210 H 298.462 2.9815 3.75025 0
M  V30 3211 H 296.826 1.50814 2.05249 0
M  V30 3212 H 297.609 3.08659 1.50282 0
M  V30 3213 N 300.054 -1.07777 1.14986 0
M  V30 3214 C 301.001 -2.14867 0.842672 0
M  V30 3215 C 301.971 -1.6486 -0.202552 0
M  V30 3216 O 303.156 -1.90668 -0.0710568 0
M  V30 3217 C 300.296 -3.43486 0.333363 0
M  V30 3218 C 299.409 -4.07306 1.43965 0
M  V30 3219 C 298.544 -5.23744 0.886914 0
M  V30 3220 C 297.583 -5.79517 1.97043 0
M  V30 3221 N 296.72 -6.87291 1.4344 0
M  V30 3222 H 301.56 -2.40485 1.75986 0
M  V30 3223 H 299.097 -1.1801 0.878179 0
M  V30 3224 H 301.055 -4.17195 0.0198163 0
M  V30 3225 H 299.685 -3.18133 -0.546916 0
M  V30 3226 H 298.737 -3.31293 1.86946 0
M  V30 3227 H 300.049 -4.44771 2.25788 0
M  V30 3228 H 299.203 -6.04419 0.525651 0
M  V30 3229 H 297.942 -4.87685 0.0377957 0
M  V30 3230 H 296.947 -4.97491 2.34057 0
M  V30 3231 H 298.172 -6.17632 2.82325 0
M  V30 3232 H 296.118 -6.5318 0.607567 0
M  V30 3233 H 296.035 -7.23617 2.18895 0
M  V30 3234 H 297.303 -7.71682 1.10124 0
M  V30 3235 N 301.532 -0.945985 -1.26051 0
M  V30 3236 C 302.462 -0.477172 -2.28572 0
M  V30 3237 C 303.443 0.472032 -1.63419 0
M  V30 3238 O 304.628 0.372853 -1.90587 0
M  V30 3239 C 301.758 0.253975 -3.4637 0
M  V30 3240 C 300.712 -0.609135 -4.23643 0
M  V30 3241 C 300.038 0.252252 -5.34105 0
M  V30 3242 C 301.338 -1.8829 -4.8718 0
M  V30 3243 H 303.032 -1.33402 -2.68038 0
M  V30 3244 H 300.578 -0.642904 -1.28852 0
M  V30 3245 H 302.531 0.593016 -4.17207 0
M  V30 3246 H 301.255 1.145 -3.05871 0
M  V30 3247 H 299.914 -0.931138 -3.54578 0
M  V30 3248 H 299.562 1.14278 -4.89846 0
M  V30 3249 H 299.262 -0.32188 -5.86718 0
M  V30 3250 H 300.786 0.586454 -6.07777 0
M  V30 3251 H 302.2 -1.61081 -5.50205 0
M  V30 3252 H 300.597 -2.40199 -5.49931 0
M  V30 3253 H 301.667 -2.59134 -4.09851 0
M  V30 3254 N 303.011 1.40521 -0.713556 0
M  V30 3255 C 303.941 2.33381 -0.0743864 0
M  V30 3256 C 304.922 1.52784 0.747735 0
M  V30 3257 O 306.107 1.81258 0.697071 0
M  V30 3258 C 303.237 3.36748 0.849598 0
M  V30 3259 C 302.191 4.27793 0.133247 0
M  V30 3260 C 301.517 5.21679 1.17281 0
M  V30 3261 C 302.817 5.12415 -1.01134 0
M  V30 3262 H 304.511 2.87081 -0.850007 0
M  V30 3263 H 302.057 1.38034 -0.410201 0
M  V30 3264 H 304.01 4.00648 1.30612 0
M  V30 3265 H 302.734 2.81439 1.65709 0
M  V30 3266 H 301.393 3.65342 -0.303426 0
M  V30 3267 H 301.041 4.62677 1.9733 0
M  V30 3268 H 300.741 5.83435 0.698397 0
M  V30 3269 H 302.265 5.88456 1.62947 0
M  V30 3270 H 303.679 5.69781 -0.634274 0
M  V30 3271 H 302.076 5.83203 -1.41399 0
M  V30 3272 H 303.146 4.48514 -1.84292 0
M  V30 3273 N 304.489 0.459591 1.5075 0
M  V30 3274 C 305.436 -0.340524 2.28274 0
M  V30 3275 C 306.406 -0.997371 1.32822 0
M  V30 3276 O 307.591 -1.01202 1.61749 0
M  V30 3277 C 304.731 -1.42317 3.14388 0
M  V30 3278 C 303.844 -0.782251 4.24859 0
M  V30 3279 C 302.979 -1.84182 4.98247 0
M  V30 3280 C 302.018 -1.18053 6.00608 0
M  V30 3281 N 301.155 -2.18244 6.67319 0
M  V30 3282 H 305.995 0.326899 2.96202 0
M  V30 3283 H 303.532 0.173057 1.46078 0
M  V30 3284 H 305.49 -2.06241 3.62658 0
M  V30 3285 H 304.12 -2.05992 2.4853 0
M  V30 3286 H 303.172 -0.0307404 3.80388 0
M  V30 3287 H 304.484 -0.259663 4.98124 0
M  V30 3288 H 303.638 -2.55714 5.50177 0
M  V30 3289 H 302.377 -2.39819 4.24662 0
M  V30 3290 H 301.382 -0.450776 5.47949 0
M  V30 3291 H 302.607 -0.631202 6.7616 0
M  V30 3292 H 300.553 -2.72919 5.96533 0
M  V30 3293 H 300.47 -1.70938 7.36421 0
M  V30 3294 H 301.738 -2.89191 7.23871 0
M  V30 3295 N 305.967 -1.56429 0.191757 0
M  V30 3296 C 307.214 -1.97485 -0.447891 0
M  V30 3297 C 307.542 -1.07852 -1.61859 0
M  V30 3298 O 306.797 -0.116903 -1.95351 0
M  V30 3299 C 307.096 -3.44449 -0.953384 0
M  V30 3300 C 306.762 -4.50781 0.103586 0
M  V30 3301 C 305.424 -4.79584 0.394023 0
M  V30 3302 C 307.776 -5.1471 0.819946 0
M  V30 3303 C 305.104 -5.69607 1.40585 0
M  V30 3304 C 307.456 -6.05827 1.8209 0
M  V30 3305 C 306.12 -6.32987 2.11857 0
M  V30 3306 H 305.39 -0.722648 -0.163895 0
M  V30 3307 H 308.037 -1.89322 0.28802 0
M  V30 3308 H 306.342 -3.49666 -1.76751 0
M  V30 3309 H 308.039 -3.73569 -1.45765 0
M  V30 3310 H 304.629 -4.28394 -0.132951 0
M  V30 3311 H 308.813 -4.92552 0.608789 0
M  V30 3312 H 304.069 -5.88926 1.64243 0
M  V30 3313 H 308.243 -6.54424 2.38123 0
M  V30 3314 H 305.87 -7.02544 2.90407 0
M  V30 3315 N 307.445 0.0818655 -1.57387 0
M  V30 3316 C 308.685 0.788375 -1.88584 0
M  V30 3317 C 309.049 1.75248 -0.784351 0
M  V30 3318 O 310.25 2.50334 -0.979105 0
M  V30 3319 C 308.521 1.48654 -3.25018 0
M  V30 3320 S 310.08 2.22951 -3.7794 0
M  V30 3321 H 306.898 0.262383 -0.660815 0
M  V30 3322 H 309.5 0.0448995 -1.95448 0
M  V30 3323 H 308.204 0.770919 -4.03094 0
M  V30 3324 H 307.735 2.26965 -3.21326 0
M  V30 3325 H 309.75 3.49309 -3.52417 0
M  V30 3326 N 308.923 1.53595 0.353017 0
M  V30 3327 C 309.855 1.77219 1.45348 0
M  V30 3328 C 310.868 0.65324 1.49119 0
M  V30 3329 O 312.057 0.929775 1.52373 0
M  V30 3330 C 309.157 1.84841 2.84055 0
M  V30 3331 C 308.33 3.14649 3.03833 0
M  V30 3332 C 307.389 3.13351 4.22727 0
M  V30 3333 O 306.415 3.87107 4.17297 0
M  V30 3334 N 307.617 2.35052 5.30783 0
M  V30 3335 H 310.382 2.72178 1.25457 0
M  V30 3336 H 307.943 1.52528 0.542833 0
M  V30 3337 H 309.935 1.81435 3.61751 0
M  V30 3338 H 308.505 0.971114 2.97133 0
M  V30 3339 H 307.725 3.31256 2.13689 0
M  V30 3340 H 309.013 4.00411 3.13925 0
M  V30 3341 H 308.411 1.74663 5.38061 0
M  V30 3342 H 306.968 2.37453 6.07009 0
M  V30 3343 N 310.401 -0.613514 1.45168 0
M  V30 3344 C 311.333 -1.73825 1.4939 0
M  V30 3345 C 312.346 -1.58175 0.385304 0
M  V30 3346 O 313.535 -1.66165 0.652036 0
M  V30 3347 C 310.635 -3.11758 1.32891 0
M  V30 3348 C 309.808 -3.53704 2.57317 0
M  V30 3349 C 308.867 -4.70579 2.35462 0
M  V30 3350 O 307.893 -4.77996 3.09044 0
M  V30 3351 N 309.095 -5.63454 1.39644 0
M  V30 3352 H 311.86 -1.70669 2.46358 0
M  V30 3353 H 309.421 -0.79862 1.40832 0
M  V30 3354 H 311.413 -3.87692 1.1609 0
M  V30 3355 H 309.983 -3.09456 0.442218 0
M  V30 3356 H 309.203 -2.67794 2.89275 0
M  V30 3357 H 310.491 -3.78486 3.40038 0
M  V30 3358 H 309.889 -5.6017 0.789062 0
M  V30 3359 H 308.446 -6.38944 1.28816 0
M  V30 3360 N 311.879 -1.3236 -0.855495 0
M  V30 3361 C 312.829 -1.17809 -1.95205 0
M  V30 3362 C 313.813 -0.0852319 -1.60674 0
M  V30 3363 O 315.005 -0.311651 -1.74235 0
M  V30 3364 C 312.134 -0.902437 -3.31226 0
M  V30 3365 C 311.22 -2.03695 -3.7198 0
M  V30 3366 N 311.611 -3.28544 -3.84568 0
M  V30 3367 C 309.909 -1.93993 -4.016 0
M  V30 3368 C 310.61 -4.02847 -4.19629 0
M  V30 3369 N 309.586 -3.31138 -4.31102 0
M  V30 3370 H 313.388 -2.12462 -2.0307 0
M  V30 3371 H 310.902 -1.24127 -1.0472 0
M  V30 3372 H 312.899 -0.77915 -4.09554 0
M  V30 3373 H 311.559 0.0357267 -3.2468 0
M  V30 3374 H 312.57 -3.6349 -3.68911 0
M  V30 3375 H 309.247 -1.07733 -4.03361 0
M  V30 3376 H 310.637 -5.10506 -4.36845 0
M  V30 3377 N 313.357 1.07166 -1.15556 0
M  V30 3378 C 314.634 1.76546 -0.842069 0
M  V30 3379 C 315.014 2.00453 0.661939 0
M  V30 3380 O 314.362 1.62452 1.60691 0
M  V30 3381 C 314.572 3.07266 -1.65495 0
M  V30 3382 C 315.92 3.81578 -1.86234 0
M  V30 3383 O 316.944 3.17083 -1.62287 0
M  V30 3384 O 315.803 4.97419 -2.26355 0
M  V30 3385 H 312.897 0.766756 -0.309862 0
M  V30 3386 H 315.443 1.13514 -1.26145 0
M  V30 3387 H 314.215 2.85494 -2.67598 0
M  V30 3388 H 313.838 3.7803 -1.23203 0
M  V30 3389 N 314.835 0.952656 1.25548 0
M  V30 3390 C 316.084 0.602053 1.92505 0
M  V30 3391 C 316.397 -0.864663 1.75451 0
M  V30 3392 O 317.603 -1.32514 2.36965 0
M  V30 3393 C 316.059 1.02607 3.44963 0
M  V30 3394 C 315.667 2.51519 3.70732 0
M  V30 3395 C 317.411 0.747905 4.1786 0
M  V30 3396 C 315.318 2.87732 5.16686 0
M  V30 3397 H 314.248 0.22146 0.720744 0
M  V30 3398 H 316.899 1.15684 1.42441 0
M  V30 3399 H 315.281 0.399712 3.93978 0
M  V30 3400 H 316.455 3.19157 3.32378 0
M  V30 3401 H 314.77 2.76786 3.11092 0
M  V30 3402 H 317.367 0.994647 5.25367 0
M  V30 3403 H 317.71 -0.315629 4.15102 0
M  V30 3404 H 318.243 1.33452 3.74747 0
M  V30 3405 H 314.982 3.93095 5.24554 0
M  V30 3406 H 314.502 2.24765 5.56094 0
M  V30 3407 H 316.181 2.76817 5.84792 0
M  V30 3408 N 316.313 -1.40141 0.720998 0
M  V30 3409 C 317.559 -2.01084 0.263231 0
M  V30 3410 C 317.892 -1.57052 -1.14229 0
M  V30 3411 O 317.167 -0.793027 -1.77599 0
M  V30 3412 C 317.45 -3.58401 0.349344 0
M  V30 3413 C 317.303 -4.12491 1.79363 0
M  V30 3414 C 318.622 -4.39231 -0.276351 0
M  V30 3415 H 315.741 -0.730572 0.0971228 0
M  V30 3416 H 318.383 -1.66543 0.914518 0
M  V30 3417 H 316.533 -3.87958 -0.205165 0
M  V30 3418 H 318.205 -3.93711 2.40394 0
M  V30 3419 H 316.448 -3.66576 2.31958 0
M  V30 3420 H 317.119 -5.21646 1.80524 0
M  V30 3421 H 319.595 -4.15637 0.196184 0
M  V30 3422 H 318.471 -5.48586 -0.185681 0
M  V30 3423 H 318.732 -4.20643 -1.36059 0
M  V30 3424 N 317.792 -0.46758 -1.50504 0
M  V30 3425 C 319.041 0.0902868 -2.01498 0
M  V30 3426 C 319.354 1.411 -1.35463 0
M  V30 3427 O 320.56 2.0536 -1.77594 0
M  V30 3428 C 319.016 0.21142 -3.59278 0
M  V30 3429 C 318.624 -1.10065 -4.34269 0
M  V30 3430 C 320.368 0.721433 -4.18325 0
M  V30 3431 C 318.275 -0.943505 -5.83825 0
M  V30 3432 H 317.205 0.037517 -0.753066 0
M  V30 3433 H 319.856 -0.601943 -1.73346 0
M  V30 3434 H 318.238 0.967352 -3.84003 0
M  V30 3435 H 319.412 -1.86726 -4.21272 0
M  V30 3436 H 317.727 -1.5415 -3.86816 0
M  V30 3437 H 320.324 0.85598 -5.27804 0
M  V30 3438 H 320.667 1.71186 -3.79475 0
M  V30 3439 H 321.2 0.0229843 -3.97793 0
M  V30 3440 H 317.939 -1.90719 -6.27141 0
M  V30 3441 H 317.459 -0.217213 -5.99407 0
M  V30 3442 H 319.138 -0.608715 -6.4413 0
M  V30 3443 N 319.27 1.56325 -0.20005 0
M  V30 3444 C 320.498 2.02105 0.442874 0
M  V30 3445 C 320.913 1.08014 1.5485 0
M  V30 3446 O 320.27 0.0858797 1.82298 0
M  V30 3447 C 320.321 3.47549 0.994583 0
M  V30 3448 O 320.042 4.38049 -0.0669322 0
M  V30 3449 C 321.543 4.0887 1.7129 0
M  V30 3450 H 318.763 0.661807 0.110691 0
M  V30 3451 H 321.307 2.02134 -0.310207 0
M  V30 3452 H 319.462 3.48204 1.69803 0
M  V30 3453 H 319.876 5.23368 0.344462 0
M  V30 3454 H 321.35 5.12475 2.05118 0
M  V30 3455 H 321.827 3.52615 2.61838 0
M  V30 3456 H 322.433 4.12002 1.05518 0
M  V30 3457 N 320.748 -0.0735177 1.57428 0
M  V30 3458 C 321.711 -1.07192 2.02589 0
M  V30 3459 C 322.711 -1.31695 0.922661 0
M  V30 3460 O 323.901 -1.27445 1.18758 0
M  V30 3461 C 321.033 -2.41599 2.40506 0
M  V30 3462 H 322.226 -0.682727 2.92025 0
M  V30 3463 H 319.779 -0.319193 1.53006 0
M  V30 3464 H 320.514 -2.85354 1.5409 0
M  V30 3465 H 320.299 -2.25156 3.21009 0
M  V30 3466 H 321.789 -3.13367 2.76027 0
M  V30 3467 N 322.226 -1.5378 -0.344866 0
M  V30 3468 C 323.456 -1.74646 -1.10374 0
M  V30 3469 C 323.864 -0.48491 -1.8288 0
M  V30 3470 O 323.207 0.553062 -1.75177 0
M  V30 3471 C 323.269 -2.87145 -2.16306 0
M  V30 3472 C 322.933 -4.26795 -1.63386 0
M  V30 3473 C 323.93 -5.08412 -1.08688 0
M  V30 3474 C 321.615 -4.73276 -1.68272 0
M  V30 3475 C 323.609 -6.34609 -0.595792 0
M  V30 3476 C 321.296 -5.99446 -1.18776 0
M  V30 3477 C 322.294 -6.79946 -0.645215 0
M  V30 3478 O 321.982 -8.03745 -0.157626 0
M  V30 3479 H 321.714 -0.587112 -0.335075 0
M  V30 3480 H 324.268 -2.01403 -0.403252 0
M  V30 3481 H 322.498 -2.55909 -2.89909 0
M  V30 3482 H 324.187 -2.95992 -2.77747 0
M  V30 3483 H 324.953 -4.73666 -1.04236 0
M  V30 3484 H 320.832 -4.10677 -2.09442 0
M  V30 3485 H 324.376 -6.97389 -0.171654 0
M  V30 3486 H 320.273 -6.33687 -1.22928 0
M  V30 3487 H 321.041 -8.18038 -0.275037 0
M  V30 3488 N 323.704 0.605807 -1.45491 0
M  V30 3489 C 324.929 1.39625 -1.53361 0
M  V30 3490 C 325.354 1.87351 -0.167645 0
M  V30 3491 O 324.712 1.60243 0.848051 0
M  V30 3492 C 324.76 2.57559 -2.5238 0
M  V30 3493 O 323.864 3.58248 -2.04285 0
M  V30 3494 H 323.205 0.416771 -0.516912 0
M  V30 3495 H 325.735 0.737103 -1.90861 0
M  V30 3496 H 325.745 3.0478 -2.71244 0
M  V30 3497 H 324.42 2.22171 -3.51586 0
M  V30 3498 H 322.997 3.17664 -1.95305 0
M  V30 3499 N 325.182 1.32811 0.848464 0
M  V30 3500 C 326.593 1.21315 1.41914 0
M  V30 3501 C 326.944 -0.171847 1.95446 0
M  V30 3502 O 326.069 -1.07093 1.88043 0
M  V30 3503 C 326.664 2.19631 2.57968 0
M  V30 3504 C 325.223 2.12003 3.11017 0
M  V30 3505 C 324.37 2.07651 1.83783 0
M  V30 3506 H 327.321 1.44549 0.655071 0
M  V30 3507 H 327.342 1.79845 3.35315 0
M  V30 3508 H 326.854 3.20423 2.18976 0
M  V30 3509 H 324.955 1.14481 3.54577 0
M  V30 3510 H 325.068 3.02111 3.71841 0
M  V30 3511 H 323.432 1.52983 2.03638 0
M  V30 3512 H 324.215 3.10235 1.47 0
M  V30 3513 N 326.66 -1.06551 1.16123 0
M  V30 3514 C 327.59 -2.15935 0.88851 0
M  V30 3515 C 328.571 -1.69306 -0.164135 0
M  V30 3516 O 329.756 -1.94193 -0.0167857 0
M  V30 3517 C 326.886 -3.45149 0.385942 0
M  V30 3518 C 325.84 -4.05271 1.3762 0
M  V30 3519 C 325.166 -5.29664 0.732137 0
M  V30 3520 C 326.466 -4.44355 2.74493 0
M  V30 3521 H 328.16 -2.39006 1.80323 0
M  V30 3522 H 325.706 -1.14866 0.868435 0
M  V30 3523 H 327.659 -4.21004 0.182647 0
M  V30 3524 H 326.383 -3.21689 -0.564274 0
M  V30 3525 H 325.042 -3.3147 1.56599 0
M  V30 3526 H 324.69 -5.02499 -0.224483 0
M  V30 3527 H 324.39 -5.70848 1.39307 0
M  V30 3528 H 325.914 -6.08218 0.538802 0
M  V30 3529 H 327.328 -5.11303 2.59311 0
M  V30 3530 H 325.725 -4.96515 3.37035 0
M  V30 3531 H 326.795 -3.55339 3.29943 0
M  V30 3532 N 328.138 -0.959301 -1.25041 0
M  V30 3533 C 329.386 -0.615393 -1.92503 0
M  V30 3534 C 329.707 0.850969 -1.75452 0
M  V30 3535 O 328.977 1.60658 -1.12098 0
M  V30 3536 H 327.557 -0.224613 -0.712431 0
M  V30 3537 H 330.219 -1.21855 -1.5211 0
M  V30 3538 H 329.315 -0.848738 -3.00338 0
M  V30 3539 N 329.616 1.39756 -0.72842 0
M  V30 3540 C 330.844 2.04948 -0.283528 0
M  V30 3541 C 331.259 1.54908 1.0793 0
M  V30 3542 O 330.616 0.711135 1.68075 0
M  V30 3543 C 330.667 3.60498 -0.268957 0
M  V30 3544 O 330.388 4.08695 -1.57798 0
M  V30 3545 C 331.889 4.4288 0.192912 0
M  V30 3546 H 329.109 0.659243 -0.125056 0
M  V30 3547 H 331.653 1.78927 -0.990226 0
M  V30 3548 H 329.808 3.85444 0.388801 0
M  V30 3549 H 330.222 5.02977 -1.48709 0
M  V30 3550 H 331.696 5.51791 0.151952 0
M  V30 3551 H 332.173 4.21418 1.23708 0
M  V30 3552 H 332.779 4.23069 -0.435039 0
M  V30 3553 N 331.094 0.475555 1.50254 0
M  V30 3554 C 332.319 -0.0777042 2.07254 0
M  V30 3555 C 332.744 -1.3235 1.3366 0
M  V30 3556 O 332.102 -1.77152 0.385597 0
M  V30 3557 C 332.15 -0.340169 3.58992 0
M  V30 3558 O 331.254 -1.41982 3.87188 0
M  V30 3559 H 330.595 0.0149556 0.663832 0
M  V30 3560 H 333.125 0.667878 1.93392 0
M  V30 3561 H 333.135 -0.579332 4.03866 0
M  V30 3562 H 331.81 0.570167 4.11973 0
M  V30 3563 H 330.387 -1.16762 3.54148 0
M  V30 3564 N 332.573 -1.56217 0.208337 0
M  V30 3565 C 333.989 -1.58919 -0.14729 0
M  V30 3566 C 334.189 -1.22486 -1.59998 0
M  V30 3567 O 333.245 -0.953849 -2.3379 0
M  V30 3568 C 334.558 -3.00236 0.167048 0
M  V30 3569 C 336.106 -3.12813 0.108219 0
M  V30 3570 C 336.581 -4.56284 0.396049 0
M  V30 3571 N 338.072 -4.61912 0.345142 0
M  V30 3572 C 338.807 -5.70837 0.541523 0
M  V30 3573 N 338.303 -6.88178 0.798968 0
M  V30 3574 N 340.096 -5.60091 0.474867 0
M  V30 3575 H 332.247 -1.78177 1.15614 0
M  V30 3576 H 334.51 -0.827555 0.462446 0
M  V30 3577 H 334.216 -3.31499 1.1748 0
M  V30 3578 H 334.09 -3.7354 -0.524184 0
M  V30 3579 H 336.477 -2.81354 -0.890157 0
M  V30 3580 H 336.558 -2.41866 0.832729 0
M  V30 3581 H 336.202 -4.88458 1.3918 0
M  V30 3582 H 336.132 -5.25439 -0.349502 0
M  V30 3583 H 338.623 -3.77589 0.153316 0
M  V30 3584 H 338.936 -7.67095 0.93727 0
M  V30 3585 H 337.281 -6.89953 0.836013 0
M  V30 3586 H 340.472 -4.67297 0.274064 0
M  V30 3587 H 340.645 -6.44917 0.631326 0
M  V30 3588 N 334.051 0.0651679 -1.57465 0
M  V30 3589 C 334.999 1.09542 -2.05191 0
M  V30 3590 C 335.993 1.39675 -0.958509 0
M  V30 3591 O 337.199 1.39003 -1.14359 0
M  V30 3592 H 333.574 0.370623 -0.654326 0
M  V30 3593 H 335.545 0.666802 -2.90854 0
M  V30 3594 C 334.294 2.39881 -2.51699 0
M  V30 3595 H 333.617 2.17547 -3.3543 0
M  V30 3596 H 335.057 3.104 -2.88839 0
M  V30 3597 C 333.516 3.0631 -1.40271 0
M  V30 3598 O 334.046 3.94664 -0.748523 0
M  V30 3599 N 332.252 2.67041 -1.14618 0
M  V30 3600 H 331.799 1.95281 -1.67997 0
M  V30 3601 H 331.757 3.1181 -0.402688 0
M  V30 3602 N 335.529 1.53961 0.336706 0
M  V30 3603 C 336.94 1.62914 0.911925 0
M  V30 3604 C 337.291 0.514795 1.89326 0
M  V30 3605 O 336.416 -0.354395 2.13478 0
M  V30 3606 C 337.011 2.95304 1.66076 0
M  V30 3607 C 335.57 3.06496 2.18489 0
M  V30 3608 C 334.717 2.58403 1.00613 0
M  V30 3609 H 337.668 1.58285 0.114649 0
M  V30 3610 H 337.689 2.84727 2.5241 0
M  V30 3611 H 337.201 3.76387 0.946276 0
M  V30 3612 H 335.302 2.3006 2.93092 0
M  V30 3613 H 335.415 4.1208 2.44391 0
M  V30 3614 H 333.779 2.13977 1.38152 0
M  V30 3615 H 334.562 3.41932 0.306179 0
M  V30 3616 N 337.007 -0.598083 1.45811 0
M  V30 3617 C 338.256 -1.35295 1.49594 0
M  V30 3618 C 338.569 -1.95057 0.145679 0
M  V30 3619 O 339.775 -2.71431 0.0612099 0
M  V30 3620 C 338.231 -2.45124 2.63519 0
M  V30 3621 C 337.839 -1.91732 4.04899 0
M  V30 3622 C 339.583 -3.2205 2.76558 0
M  V30 3623 C 337.49 -2.991 5.1019 0
M  V30 3624 H 336.42 -0.508552 0.556679 0
M  V30 3625 H 339.071 -0.639977 1.71978 0
M  V30 3626 H 337.453 -3.19149 2.34435 0
M  V30 3627 H 338.627 -1.24352 4.43704 0
M  V30 3628 H 336.942 -1.27522 3.96393 0
M  V30 3629 H 339.539 -4.0215 3.52391 0
M  V30 3630 H 339.882 -3.73663 1.83526 0
M  V30 3631 H 340.415 -2.55127 3.05213 0
M  V30 3632 H 337.154 -2.52393 6.04961 0
M  V30 3633 H 336.674 -3.65017 4.75944 0
M  V30 3634 H 338.353 -3.63318 5.35359 0
M  V30 3635 N 338.485 -1.33259 -0.841409 0
M  V30 3636 C 339.731 -1.25766 -1.59857 0
M  V30 3637 C 340.086 0.175602 -1.91597 0
M  V30 3638 O 339.379 1.117 -1.55672 0
M  V30 3639 C 339.573 -2.06381 -2.9179 0
M  V30 3640 C 339.402 -3.57401 -2.72937 0
M  V30 3641 C 338.172 -4.26718 -2.70628 0
M  V30 3642 C 340.37 -4.51786 -2.45753 0
M  V30 3643 N 338.352 -5.63705 -2.43125 0
M  V30 3644 C 339.723 -5.76643 -2.27777 0
M  V30 3645 C 341.778 -4.40898 -2.31329 0
M  V30 3646 C 340.481 -6.91842 -1.96841 0
M  V30 3647 C 342.507 -5.55911 -2.01786 0
M  V30 3648 C 341.869 -6.79776 -1.8462 0
M  V30 3649 H 337.968 -0.515406 -0.588117 0
M  V30 3650 H 340.552 -1.67772 -0.987955 0
M  V30 3651 H 338.723 -1.667 -3.50807 0
M  V30 3652 H 340.455 -1.90678 -3.56965 0
M  V30 3653 H 337.21 -3.78968 -2.84043 0
M  V30 3654 H 337.634 -6.35911 -2.32265 0
M  V30 3655 H 342.276 -3.45772 -2.43314 0
M  V30 3656 H 339.994 -7.86968 -1.83594 0
M  V30 3657 H 343.58 -5.49421 -1.91384 0
M  V30 3658 H 342.46 -7.67266 -1.62088 0
M  V30 3659 N 339.963 1.05934 -1.16686 0
M  V30 3660 C 341.209 1.79065 -0.95203 0
M  V30 3661 C 341.542 1.87147 0.518629 0
M  V30 3662 O 340.817 1.36574 1.38484 0
M  V30 3663 C 341.1 3.23359 -1.58464 0
M  V30 3664 C 340.953 3.23336 -3.12689 0
M  V30 3665 C 342.272 4.21004 -1.28232 0
M  V30 3666 H 339.391 0.65005 -0.34728 0
M  V30 3667 H 342.033 1.23868 -1.44072 0
M  V30 3668 H 340.183 3.70493 -1.16908 0
M  V30 3669 H 341.855 2.84336 -3.6325 0
M  V30 3670 H 340.098 2.61886 -3.4583 0
M  V30 3671 H 340.769 4.25144 -3.52075 0
M  V30 3672 H 343.245 3.8233 -1.64203 0
M  V30 3673 H 342.121 5.20225 -1.75092 0
M  V30 3674 H 342.382 4.41639 -0.201791 0
M  V30 3675 N 341.441 0.965919 1.2453 0
M  V30 3676 C 342.389 0.486506 2.27455 0
M  V30 3677 C 343.383 -0.449041 1.6334 0
M  V30 3678 O 344.589 -0.324527 1.7705 0
M  V30 3679 H 340.964 0.138857 0.739069 0
M  V30 3680 H 342.935 1.3666 2.65267 0
M  V30 3681 C 341.684 -0.209481 3.47068 0
M  V30 3682 H 341.007 0.50129 3.96645 0
M  V30 3683 H 342.447 -0.508775 4.20936 0
M  V30 3684 C 340.906 -1.43586 3.0477 0
M  V30 3685 O 341.436 -2.53299 3.11773 0
M  V30 3686 N 339.642 -1.30126 2.59838 0
M  V30 3687 H 339.189 -0.408583 2.54339 0
M  V30 3688 H 339.147 -2.12294 2.31902 0
M  V30 3689 N 342.919 -1.39368 0.735821 0
M  V30 3690 C 344.165 -2.00794 0.284544 0
M  V30 3691 C 344.498 -1.58255 -1.12557 0
M  V30 3692 O 343.773 -0.811819 -1.76748 0
M  V30 3693 C 344.056 -3.58011 0.387337 0
M  V30 3694 C 343.909 -4.10566 1.83728 0
M  V30 3695 C 345.228 -4.395 -0.22975 0
M  V30 3696 H 342.347 -0.729501 0.104866 0
M  V30 3697 H 344.989 -1.65564 0.93213 0
M  V30 3698 H 343.139 -3.88154 -0.164006 0
M  V30 3699 H 344.811 -3.91139 2.44556 0
M  V30 3700 H 343.054 -3.64095 2.35833 0
M  V30 3701 H 343.725 -5.19702 1.86047 0
M  V30 3702 H 346.201 -4.15406 0.240257 0
M  V30 3703 H 345.077 -5.48752 -0.127485 0
M  V30 3704 H 345.338 -4.22062 -1.3159 0
M  V30 3705 N 344.397 -0.483516 -1.5 0
M  V30 3706 C 345.622 0.0667119 -2.07293 0
M  V30 3707 C 346.047 1.3164 -1.3436 0
M  V30 3708 O 345.405 1.76945 -0.394987 0
M  V30 3709 C 345.453 0.321126 -3.59167 0
M  V30 3710 O 344.557 1.39927 -3.87936 0
M  V30 3711 H 343.898 -0.0184758 -0.663743 0
M  V30 3712 H 346.428 -0.678125 -1.93035 0
M  V30 3713 H 346.438 0.557906 -4.04168 0
M  V30 3714 H 345.113 -0.592007 -4.11665 0
M  V30 3715 H 343.69 1.14882 -3.54763 0
M  V30 3716 N 345.875 1.56104 -0.216619 0
M  V30 3717 C 347.1 2.0301 0.424462 0
M  V30 3718 C 347.525 1.0955 1.52907 0
M  V30 3719 O 346.883 0.0827914 1.81111 0
M  V30 3720 C 346.931 3.4819 0.937883 0
M  V30 3721 O 346.035 3.57865 2.04955 0
M  V30 3722 H 345.376 0.656925 0.0966755 0
M  V30 3723 H 347.906 2.01859 -0.33381 0
M  V30 3724 H 347.916 3.88413 1.24897 0
M  V30 3725 H 346.591 4.15699 0.129387 0
M  V30 3726 H 345.168 3.29527 1.74546 0
M  V30 3727 N 347.353 -0.0568162 1.57498 0
M  V30 3728 C 348.764 -0.606858 1.76562 0
M  V30 3729 C 349.115 -1.77114 0.844094 0
M  V30 3730 O 348.24 -2.16376 0.0318911 0
M  V30 3731 C 348.835 -1.10766 3.20182 0
M  V30 3732 C 347.394 -1.60344 3.40539 0
M  V30 3733 C 346.541 -0.529311 2.72201 0
M  V30 3734 H 349.492 0.169393 1.57793 0
M  V30 3735 H 349.513 -1.97602 3.25167 0
M  V30 3736 H 349.025 -0.26006 3.87228 0
M  V30 3737 H 347.126 -2.47379 2.78629 0
M  V30 3738 H 347.239 -1.67006 4.4905 0
M  V30 3739 H 345.603 -0.977893 2.35179 0
M  V30 3740 H 346.386 0.308352 3.41912 0
M  V30 3741 N 348.832 -1.54138 -0.328536 0
M  V30 3742 C 350.243 -1.63395 -0.903272 0
M  V30 3743 C 350.594 -0.524828 -1.8905 0
M  V30 3744 O 349.719 0.343068 -2.13663 0
M  V30 3745 C 350.314 -2.9618 -1.64507 0
M  V30 3746 C 348.873 -3.0765 -2.1686 0
M  V30 3747 C 348.02 -2.58933 -0.992416 0
M  V30 3748 H 350.971 -1.58344 -0.106253 0
M  V30 3749 H 350.992 -2.86061 -2.50897 0
M  V30 3750 H 350.504 -3.76884 -0.926302 0
M  V30 3751 H 348.605 -2.31611 -2.91868 0
M  V30 3752 H 348.718 -4.1337 -2.42202 0
M  V30 3753 H 347.082 -2.14706 -1.37016 0
M  V30 3754 H 347.865 -3.42089 -0.288041 0
M  V30 3755 N 350.31 0.590341 -1.46126 0
M  V30 3756 C 351.24 1.71032 -1.58966 0
M  V30 3757 C 352.221 1.64302 -0.440335 0
M  V30 3758 O 353.406 1.82436 -0.665634 0
M  V30 3759 C 350.536 3.09665 -1.57241 0
M  V30 3760 C 349.49 3.31221 -2.71066 0
M  V30 3761 C 348.816 4.70303 -2.54399 0
M  V30 3762 C 350.116 3.19796 -4.1295 0
M  V30 3763 H 351.81 1.60543 -2.52718 0
M  V30 3764 H 349.356 0.770933 -1.21625 0
M  V30 3765 H 351.309 3.87831 -1.64819 0
M  V30 3766 H 350.033 3.21036 -0.600289 0
M  V30 3767 H 348.692 2.55452 -2.62944 0
M  V30 3768 H 348.34 4.78429 -1.55288 0
M  V30 3769 H 348.04 4.85679 -3.30741 0
M  V30 3770 H 349.564 5.50647 -2.63857 0
M  V30 3771 H 350.978 3.87815 -4.22223 0
M  V30 3772 H 349.375 3.46696 -4.89818 0
M  V30 3773 H 350.445 2.16983 -4.33643 0
M  V30 3774 N 351.788 1.33704 0.83433 0
M  V30 3775 C 352.718 1.26967 1.95963 0
M  V30 3776 C 353.699 0.149337 1.69443 0
M  V30 3777 O 354.884 0.339852 1.91203 0
M  V30 3778 C 352.014 1.01275 3.32206 0
M  V30 3779 C 350.968 2.09652 3.73136 0
M  V30 3780 C 350.294 1.69166 5.07235 0
M  V30 3781 C 351.594 3.51372 3.86439 0
M  V30 3782 H 353.288 2.2112 2.01857 0
M  V30 3783 H 350.834 1.06447 0.969793 0
M  V30 3784 H 352.787 0.952106 4.10503 0
M  V30 3785 H 351.511 0.0356203 3.26581 0
M  V30 3786 H 350.17 2.14766 2.97104 0
M  V30 3787 H 349.818 0.701437 4.98085 0
M  V30 3788 H 349.518 2.41694 5.35591 0
M  V30 3789 H 351.042 1.64576 5.88003 0
M  V30 3790 H 352.456 3.48734 4.55036 0
M  V30 3791 H 350.853 4.22425 4.26236 0
M  V30 3792 H 351.923 3.89546 2.88759 0
M  V30 3793 N 353.266 -1.05314 1.17247 0
M  V30 3794 C 354.213 -2.13031 0.888058 0
M  V30 3795 C 355.183 -1.65253 -0.167537 0
M  V30 3796 O 356.368 -1.90775 -0.0305974 0
M  V30 3797 C 353.508 -3.42702 0.406147 0
M  V30 3798 C 352.621 -4.04161 1.52572 0
M  V30 3799 C 351.756 -5.21744 0.997808 0
M  V30 3800 C 350.795 -5.75207 2.09291 0
M  V30 3801 N 349.932 -6.84094 1.57986 0
M  V30 3802 H 354.772 -2.36698 1.81048 0
M  V30 3803 H 352.309 -1.16121 0.903013 0
M  V30 3804 H 354.267 -4.17059 0.108305 0
M  V30 3805 H 352.897 -3.19222 -0.479313 0
M  V30 3806 H 351.949 -3.27253 1.93931 0
M  V30 3807 H 353.261 -4.39881 2.35172 0
M  V30 3808 H 352.415 -6.03168 0.653739 0
M  V30 3809 H 351.154 -4.87495 0.141232 0
M  V30 3810 H 350.159 -4.92414 2.44557 0
M  V30 3811 H 351.384 -6.11505 2.95362 0
M  V30 3812 H 349.33 -6.51745 0.74598 0
M  V30 3813 H 349.247 -7.18811 2.34195 0
M  V30 3814 H 350.515 -7.69172 1.26468 0
M  V30 3815 N 354.744 -0.972509 -1.24016 0
M  V30 3816 C 356.021 -0.553733 -1.87598 0
M  V30 3817 C 356.401 0.969158 -1.87538 0
M  V30 3818 O 355.749 1.84255 -1.35139 0
M  V30 3819 C 355.959 -1.15076 -3.29482 0
M  V30 3820 C 357.307 -1.23862 -4.06132 0
M  V30 3821 O 358.331 -1.10363 -3.38672 0
M  V30 3822 O 357.19 -1.45252 -5.26844 0
M  V30 3823 H 354.284 -0.185331 -0.805966 0
M  V30 3824 H 356.83 -1.06709 -1.31952 0
M  V30 3825 H 355.602 -2.19333 -3.2405 0
M  V30 3826 H 355.225 -0.621746 -3.92709 0
M  V30 3827 N 356.222 1.38976 -0.743202 0
M  V30 3828 C 357.185 2.28901 -0.117014 0
M  V30 3829 C 358.185 1.46698 0.658503 0
M  V30 3830 O 359.375 1.67274 0.486305 0
M  V30 3831 C 356.507 3.30309 0.84315 0
M  V30 3832 H 357.7 2.8578 -0.909373 0
M  V30 3833 H 355.253 1.47761 -0.509547 0
M  V30 3834 H 355.988 2.785 1.66157 0
M  V30 3835 H 355.773 3.91029 0.289594 0
M  V30 3836 H 357.263 3.97577 1.2776 0
M  V30 3837 N 357.7 0.491464 1.49741 0
M  V30 3838 C 358.63 -0.28154 2.31796 0
M  V30 3839 C 359.611 -0.971473 1.3963 0
M  V30 3840 O 360.796 -0.964719 1.68543 0
M  V30 3841 C 357.926 -1.35203 3.19902 0
M  V30 3842 C 356.88 -0.782529 4.20786 0
M  V30 3843 C 356.206 -1.95283 4.97764 0
M  V30 3844 C 357.506 0.21999 5.21837 0
M  V30 3845 H 359.2 0.403355 2.96671 0
M  V30 3846 H 356.746 0.195425 1.42668 0
M  V30 3847 H 358.699 -1.90045 3.76113 0
M  V30 3848 H 357.423 -2.06598 2.52953 0
M  V30 3849 H 356.082 -0.255928 3.65706 0
M  V30 3850 H 355.73 -2.65423 4.2727 0
M  V30 3851 H 355.43 -1.57789 5.66018 0
M  V30 3852 H 356.954 -2.50577 5.56816 0
M  V30 3853 H 358.368 -0.23996 5.72798 0
M  V30 3854 H 356.765 0.51026 5.97927 0
M  V30 3855 H 357.835 1.13911 4.7133 0
M  V30 3856 N 359.178 -1.55987 0.224894 0
M  V30 3857 C 360.108 -2.23426 -0.678457 0
M  V30 3858 C 361.089 -1.20709 -1.19847 0
M  V30 3859 O 362.274 -1.49304 -1.24186 0
M  V30 3860 C 359.404 -2.91676 -1.88527 0
M  V30 3861 C 358.358 -4.00893 -1.49896 0
M  V30 3862 C 357.684 -4.56455 -2.78483 0
M  V30 3863 C 358.984 -5.17769 -0.686461 0
M  V30 3864 H 360.678 -2.99175 -0.116173 0
M  V30 3865 H 358.224 -1.43897 -0.054436 0
M  V30 3866 H 360.177 -3.37547 -2.5227 0
M  V30 3867 H 358.901 -2.1338 -2.47258 0
M  V30 3868 H 357.56 -3.55758 -0.884985 0
M  V30 3869 H 357.208 -3.74886 -3.35365 0
M  V30 3870 H 356.908 -5.30169 -2.53368 0
M  V30 3871 H 358.432 -5.05047 -3.43162 0
M  V30 3872 H 359.846 -5.60001 -1.22767 0
M  V30 3873 H 358.243 -5.97735 -0.532259 0
M  V30 3874 H 359.313 -4.83932 0.306196 0
M  V30 3875 N 360.656 0.0484629 -1.57525 0
M  V30 3876 C 361.604 1.07359 -2.06341 0
M  V30 3877 C 362.598 1.3865 -0.973269 0
M  V30 3878 O 363.804 1.37783 -1.15827 0
M  V30 3879 H 360.179 0.363662 -0.65822 0
M  V30 3880 H 362.15 0.635916 -2.91545 0
M  V30 3881 C 360.899 2.37198 -2.54229 0
M  V30 3882 H 360.222 2.13977 -3.37719 0
M  V30 3883 H 361.662 3.07319 -2.92115 0
M  V30 3884 C 360.121 3.04805 -1.43511 0
M  V30 3885 O 360.651 3.93848 -0.79034 0
M  V30 3886 N 358.857 2.65811 -1.17444 0
M  V30 3887 H 358.404 1.93488 -1.70059 0
M  V30 3888 H 358.362 3.11366 -0.435737 0
M  V30 3889 N 362.134 1.5431 0.320358 0
M  V30 3890 C 363.359 1.76954 1.08175 0
M  V30 3891 C 363.784 0.518193 1.80821 0
M  V30 3892 O 363.142 -0.530411 1.73368 0
M  V30 3893 C 363.19 2.96451 2.05303 0
M  V30 3894 O 362.294 2.68221 3.13259 0
M  V30 3895 H 361.635 0.586275 0.311733 0
M  V30 3896 H 364.165 2.01342 0.363676 0
M  V30 3897 H 364.175 3.23887 2.48116 0
M  V30 3898 H 362.85 3.87196 1.51829 0
M  V30 3899 H 361.427 2.51744 2.75099 0
M  V30 3900 N 363.613 -0.582584 1.46437 0
M  V30 3901 C 364.543 -1.70187 1.59871 0
M  V30 3902 C 365.524 -1.64066 0.449042 0
M  V30 3903 O 366.709 -1.82081 0.6753 0
M  V30 3904 C 363.839 -3.08827 1.58881 0
M  V30 3905 C 362.793 -3.29779 2.72819 0
M  V30 3906 C 362.119 -4.68947 2.5689 0
M  V30 3907 C 363.419 -3.17601 4.1464 0
M  V30 3908 H 365.113 -1.592 2.53566 0
M  V30 3909 H 362.659 -0.764472 1.22032 0
M  V30 3910 H 364.612 -3.86951 1.66873 0
M  V30 3911 H 363.336 -3.20713 0.617306 0
M  V30 3912 H 361.995 -2.54054 2.64296 0
M  V30 3913 H 361.643 -4.77599 1.57823 0
M  V30 3914 H 361.343 -4.83919 3.33312 0
M  V30 3915 H 362.867 -5.4924 2.66773 0
M  V30 3916 H 364.281 -3.8557 4.24274 0
M  V30 3917 H 362.678 -3.44094 4.9165 0
M  V30 3918 H 363.748 -2.14681 4.34788 0
M  V30 3919 N 365.091 -1.34144 -0.827227 0
M  V30 3920 C 366.339 -1.26009 -1.58007 0
M  V30 3921 C 366.66 0.170971 -1.94249 0
M  V30 3922 O 365.93 1.10256 -1.61927 0
M  V30 3923 H 364.51 -0.463414 -0.585881 0
M  V30 3924 H 367.172 -1.68005 -0.987951 0
M  V30 3925 H 366.268 -1.86187 -2.50481 0
M  V30 3926 N 366.569 1.04691 -1.17803 0
M  V30 3927 C 367.516 2.12557 -0.899343 0
M  V30 3928 C 368.486 1.65339 0.158771 0
M  V30 3929 O 369.671 1.90789 0.0204797 0
M  V30 3930 C 366.811 3.42481 -0.424315 0
M  V30 3931 C 365.924 4.03346 -1.54713 0
M  V30 3932 C 365.059 5.21208 -1.02546 0
M  V30 3933 C 364.098 5.74089 -2.12339 0
M  V30 3934 N 363.235 6.83247 -1.61612 0
M  V30 3935 H 368.075 2.35734 -1.823 0
M  V30 3936 H 365.612 1.1564 -0.909159 0
M  V30 3937 H 367.57 4.16996 -0.130421 0
M  V30 3938 H 366.2 3.19471 0.462377 0
M  V30 3939 H 365.252 3.2622 -1.95664 0
M  V30 3940 H 366.564 4.38628 -2.37501 0
M  V30 3941 H 365.718 6.02812 -0.685718 0
M  V30 3942 H 364.457 4.87414 -0.167084 0
M  V30 3943 H 363.462 4.91111 -2.47165 0
M  V30 3944 H 364.687 6.0993 -2.98601 0
M  V30 3945 H 362.633 6.5134 -0.780533 0
M  V30 3946 H 362.55 7.17559 -2.38003 0
M  V30 3947 H 363.818 7.68491 -1.30545 0
M  V30 3948 N 368.047 0.979072 1.23499 0
M  V30 3949 C 369.463 0.687475 1.44034 0
M  V30 3950 C 369.663 -0.746801 1.8715 0
M  V30 3951 O 368.719 -1.51939 2.0167 0
M  V30 3952 C 370.032 1.68127 2.49307 0
M  V30 3953 C 371.58 1.69516 2.63122 0
M  V30 3954 C 372.055 2.67723 3.71603 0
M  V30 3955 N 373.546 2.66233 3.79044 0
M  V30 3956 C 374.281 3.38891 4.62537 0
M  V30 3957 N 373.777 4.21103 5.50131 0
M  V30 3958 N 375.57 3.27661 4.56721 0
M  V30 3959 H 367.721 1.90559 0.938135 0
M  V30 3960 H 369.984 0.821051 0.473897 0
M  V30 3961 H 369.69 2.70693 2.2454 0
M  V30 3962 H 369.564 1.46306 3.4767 0
M  V30 3963 H 371.951 0.676561 2.8724 0
M  V30 3964 H 372.032 1.95404 1.65079 0
M  V30 3965 H 371.676 3.69724 3.48233 0
M  V30 3966 H 371.606 2.39111 4.69184 0
M  V30 3967 H 374.097 2.06568 3.16446 0
M  V30 3968 H 374.41 4.73403 6.10827 0
M  V30 3969 H 372.755 4.25195 5.49759 0
M  V30 3970 H 375.946 2.62887 3.87309 0
M  V30 3971 H 376.119 3.84547 5.21562 0
M  V30 3972 N 369.525 -1.3858 0.750561 0
M  V30 3973 C 370.755 -2.04175 0.31564 0
M  V30 3974 C 371.163 -1.56726 -1.05989 0
M  V30 3975 O 370.506 -0.734225 -1.68389 0
M  V30 3976 C 370.568 -3.58585 0.256389 0
M  V30 3977 C 370.232 -4.29077 1.57296 0
M  V30 3978 C 371.229 -4.54656 2.52159 0
M  V30 3979 C 368.914 -4.67324 1.84156 0
M  V30 3980 C 370.908 -5.17512 3.72103 0
M  V30 3981 C 368.595 -5.29905 3.04374 0
M  V30 3982 C 369.593 -5.54933 3.98168 0
M  V30 3983 O 369.281 -6.16212 5.16273 0
M  V30 3984 H 369.013 -0.662742 0.133226 0
M  V30 3985 H 371.567 -1.78313 1.01948 0
M  V30 3986 H 369.797 -3.83406 -0.503677 0
M  V30 3987 H 371.486 -4.05628 -0.148612 0
M  V30 3988 H 372.252 -4.25539 2.32683 0
M  V30 3989 H 368.131 -4.47191 1.11988 0
M  V30 3990 H 371.675 -5.36963 4.45327 0
M  V30 3991 H 367.572 -5.58444 3.23745 0
M  V30 3992 H 368.34 -6.34701 5.16815 0
M  V30 3993 N 371.003 -0.499398 -1.49478 0
M  V30 3994 C 371.951 0.293604 -2.3074 0
M  V30 3995 C 372.945 0.96427 -1.39277 0
M  V30 3996 O 374.151 0.892141 -1.56336 0
M  V30 3997 H 370.526 0.113541 -0.743379 0
M  V30 3998 H 372.497 -0.411772 -2.95545 0
M  V30 3999 C 371.246 1.3462 -3.20582 0
M  V30 4000 H 370.569 0.83954 -3.90886 0
M  V30 4001 H 372.009 1.87308 -3.80384 0
M  V30 4002 C 370.468 2.36351 -2.40083 0
M  V30 4003 O 370.998 3.422 -2.10385 0
M  V30 4004 N 369.204 2.0878 -2.02137 0
M  V30 4005 H 368.751 1.22723 -2.26488 0
M  V30 4006 H 368.709 2.77075 -1.48583 0
M  V30 4007 N 372.481 1.55866 -0.233164 0
M  V30 4008 C 373.428 2.20796 0.67215 0
M  V30 4009 C 374.398 1.16731 1.18166 0
M  V30 4010 O 375.583 1.45129 1.23864 0
M  V30 4011 C 372.723 2.90072 1.86955 0
M  V30 4012 C 371.836 4.08759 1.39786 0
M  V30 4013 C 370.971 4.65787 2.55374 0
M  V30 4014 C 370.01 5.76752 2.04998 0
M  V30 4015 N 369.147 6.28021 3.13901 0
M  V30 4016 H 373.987 2.9779 0.111749 0
M  V30 4017 H 371.524 1.47036 0.0434007 0
M  V30 4018 H 373.482 3.28428 2.57276 0
M  V30 4019 H 372.112 2.15575 2.40265 0
M  V30 4020 H 371.164 3.7581 0.589173 0
M  V30 4021 H 372.476 4.88906 0.98856 0
M  V30 4022 H 371.63 5.06646 3.33758 0
M  V30 4023 H 370.369 3.84828 2.99598 0
M  V30 4024 H 369.374 5.35383 1.25079 0
M  V30 4025 H 370.599 6.59553 1.61759 0
M  V30 4026 H 368.545 5.49971 3.57586 0
M  V30 4027 H 368.462 7.03323 2.7726 0
M  V30 4028 H 369.73 6.73538 3.92386 0
M  V30 4029 N 373.959 -0.0401083 1.57549 0
M  V30 4030 C 375.187 -0.745196 1.93014 0
M  V30 4031 C 375.602 -1.6948 0.831984 0
M  V30 4032 O 374.959 -1.81482 -0.192463 0
M  V30 4033 C 375.01 -1.51176 3.28372 0
M  V30 4034 O 374.731 -0.600284 4.33968 0
M  V30 4035 C 376.232 -2.315 3.78051 0
M  V30 4036 H 373.452 -0.210088 0.637263 0
M  V30 4037 H 375.996 -0.000924689 2.045 0
M  V30 4038 H 374.151 -2.20801 3.18317 0
M  V30 4039 H 374.565 -1.13669 5.12035 0
M  V30 4040 H 376.039 -2.80697 4.75303 0
M  V30 4041 H 376.516 -3.12436 3.08675 0
M  V30 4042 H 377.122 -1.66971 3.91153 0
M  V30 4043 N 375.437 -1.54477 -0.31217 0
M  V30 4044 C 376.4 -1.83923 -1.36766 0
M  V30 4045 C 377.4 -0.711563 -1.44199 0
M  V30 4046 O 378.59 -0.979866 -1.44029 0
M  V30 4047 C 375.722 -2.0095 -2.75376 0
M  V30 4048 H 376.915 -2.78239 -1.11906 0
M  V30 4049 H 374.468 -1.46369 -0.548257 0
M  V30 4050 H 375.203 -1.08883 -3.05475 0
M  V30 4051 H 374.988 -2.83018 -2.71373 0
M  V30 4052 H 376.478 -2.2514 -3.51713 0
M  V30 4053 N 376.915 0.57481 -1.46744 0
M  V30 4054 C 377.878 1.66533 -1.57478 0
M  V30 4055 C 378.878 1.54338 -0.451263 0
M  V30 4056 O 380.068 1.58814 -0.715813 0
M  V30 4057 C 377.2 3.05999 -1.50259 0
M  V30 4058 H 378.393 1.58372 -2.54673 0
M  V30 4059 H 375.946 0.793301 -1.34672 0
M  V30 4060 H 376.681 3.19709 -0.543725 0
M  V30 4061 H 376.466 3.16259 -2.31781 0
M  V30 4062 H 377.956 3.8537 -1.60872 0
M  V30 4063 N 378.394 1.34581 0.820102 0
M  V30 4064 C 379.326 1.22236 1.93884 0
M  V30 4065 C 380.339 0.148776 1.62119 0
M  V30 4066 O 381.528 0.400877 1.7394 0
M  V30 4067 C 378.628 0.856542 3.27897 0
M  V30 4068 C 377.801 2.02569 3.87666 0
M  V30 4069 C 376.86 1.63782 5.00062 0
M  V30 4070 O 375.886 2.35477 5.18208 0
M  V30 4071 N 377.088 0.553611 5.77854 0
M  V30 4072 H 379.853 2.18615 2.05006 0
M  V30 4073 H 377.414 1.27573 0.99683 0
M  V30 4074 H 379.406 0.578806 4.0054 0
M  V30 4075 H 377.976 -0.0171518 3.12595 0
M  V30 4076 H 377.196 2.468 3.07382 0
M  V30 4077 H 378.484 2.80752 4.24329 0
M  V30 4078 H 377.882 -0.0423528 5.65684 0
M  V30 4079 H 376.439 0.335614 6.50935 0
M  V30 4080 N 379.872 -1.04064 1.18357 0
M  V30 4081 C 381.121 -1.76662 0.973313 0
M  V30 4082 C 381.434 -1.89154 -0.497991 0
M  V30 4083 O 382.64 -2.58606 -0.826762 0
M  V30 4084 C 381.096 -3.17624 1.69242 0
M  V30 4085 C 380.704 -3.13225 3.20303 0
M  V30 4086 C 382.448 -3.946 1.56497 0
M  V30 4087 C 380.355 -4.49046 3.84853 0
M  V30 4088 H 379.285 -0.662214 0.36054 0
M  V30 4089 H 381.936 -1.16553 1.41731 0
M  V30 4090 H 380.318 -3.78129 1.1762 0
M  V30 4091 H 381.492 -2.62172 3.78949 0
M  V30 4092 H 379.807 -2.49749 3.33189 0
M  V30 4093 H 382.404 -4.95042 2.02084 0
M  V30 4094 H 382.747 -4.13074 0.517243 0
M  V30 4095 H 383.28 -3.4067 2.05399 0
M  V30 4096 H 380.019 -4.35777 4.89672 0
M  V30 4097 H 379.539 -5.00203 3.30994 0
M  V30 4098 H 381.218 -5.17961 3.87718 0
M  V30 4099 N 381.35 -0.985608 -1.22978 0
M  V30 4100 C 382.596 -0.65836 -1.91816 0
M  V30 4101 C 382.929 0.806692 -1.76653 0
M  V30 4102 O 382.204 1.58252 -1.13078 0
M  V30 4103 C 382.487 -1.056 -3.44268 0
M  V30 4104 C 382.34 -2.57906 -3.68516 0
M  V30 4105 C 383.659 -0.603781 -4.35939 0
M  V30 4106 H 380.778 -0.24065 -0.696604 0
M  V30 4107 H 383.42 -1.22783 -1.44998 0
M  V30 4108 H 381.57 -0.571445 -3.84274 0
M  V30 4109 H 383.242 -3.13976 -3.3796 0
M  V30 4110 H 381.485 -3.00305 -3.13048 0
M  V30 4111 H 382.156 -2.80779 -4.75255 0
M  V30 4112 H 384.632 -1.01987 -4.03408 0
M  V30 4113 H 383.508 -0.910383 -5.41298 0
M  V30 4114 H 383.769 0.495761 -4.39312 0
M  V30 4115 N 382.828 1.3818 -0.7579 0
M  V30 4116 C 383.758 2.33027 -0.148597 0
M  V30 4117 C 384.739 1.55085 0.69875 0
M  V30 4118 O 385.924 1.83384 0.639053 0
M  V30 4119 C 383.054 3.3928 0.742034 0
M  V30 4120 C 382.008 4.28 -0.00291946 0
M  V30 4121 C 381.334 5.25146 1.00625 0
M  V30 4122 C 382.634 5.08938 -1.17385 0
M  V30 4123 H 384.328 2.84231 -0.940909 0
M  V30 4124 H 381.874 1.36659 -0.453908 0
M  V30 4125 H 383.827 4.046 1.17799 0
M  V30 4126 H 382.551 2.86569 1.56671 0
M  V30 4127 H 381.21 3.64192 -0.419504 0
M  V30 4128 H 380.858 4.68721 1.8251 0
M  V30 4129 H 380.558 5.85361 0.512428 0
M  V30 4130 H 382.082 5.93342 1.44143 0
M  V30 4131 H 383.496 5.67474 -0.815224 0
M  V30 4132 H 381.893 5.7841 -1.59882 0
M  V30 4133 H 382.963 4.42424 -1.98468 0
M  V30 4134 N 384.306 0.507319 1.49211 0
M  V30 4135 C 385.722 0.163682 1.58758 0
M  V30 4136 C 385.922 -1.33208 1.51188 0
M  V30 4137 O 384.978 -2.10855 1.38911 0
M  V30 4138 C 386.291 0.746095 2.91297 0
M  V30 4139 C 387.839 0.712773 3.04776 0
M  V30 4140 C 388.314 1.27336 4.39943 0
M  V30 4141 N 389.805 1.23433 4.46451 0
M  V30 4142 C 390.54 1.63821 5.495 0
M  V30 4143 N 390.036 2.11832 6.5962 0
M  V30 4144 N 391.829 1.55198 5.4025 0
M  V30 4145 H 383.98 1.47972 1.52375 0
M  V30 4146 H 386.243 0.614147 0.722168 0
M  V30 4147 H 385.949 1.79534 3.02424 0
M  V30 4148 H 385.823 0.210137 3.76614 0
M  V30 4149 H 388.21 -0.327656 2.93275 0
M  V30 4150 H 388.291 1.28595 2.21127 0
M  V30 4151 H 387.935 2.3126 4.52196 0
M  V30 4152 H 387.865 0.676066 5.22242 0
M  V30 4153 H 390.356 0.882627 3.67448 0
M  V30 4154 H 390.669 2.40703 7.34358 0
M  V30 4155 H 389.014 2.1581 6.60644 0
M  V30 4156 H 392.205 1.17505 4.53112 0
M  V30 4157 H 392.378 1.86997 6.20432 0
M  V30 4158 N 385.784 -1.5574 0.241426 0
M  V30 4159 C 387.031 -1.9881 -0.384836 0
M  V30 4160 C 387.359 -1.12947 -1.58346 0
M  V30 4161 O 386.614 -0.178993 -1.9488 0
M  V30 4162 C 386.913 -3.47308 -0.843317 0
M  V30 4163 C 386.579 -4.50223 0.246946 0
M  V30 4164 C 385.241 -4.78088 0.546399 0
M  V30 4165 C 387.593 -5.11841 0.983282 0
M  V30 4166 C 384.921 -5.64846 1.58636 0
M  V30 4167 C 387.273 -5.99727 2.01272 0
M  V30 4168 C 385.937 -6.25927 2.31888 0
M  V30 4169 H 385.207 -0.727496 -0.140821 0
M  V30 4170 H 387.854 -1.8831 0.348106 0
M  V30 4171 H 386.159 -3.55112 -1.65537 0
M  V30 4172 H 387.856 -3.78017 -1.33806 0
M  V30 4173 H 384.446 -4.286 0.00340639 0
M  V30 4174 H 388.63 -4.90366 0.765182 0
M  V30 4175 H 383.886 -5.83403 1.82896 0
M  V30 4176 H 388.06 -6.46517 2.58823 0
M  V30 4177 H 385.687 -6.92949 3.12611 0
M  V30 4178 N 387.262 0.0317525 -1.57568 0
M  V30 4179 C 388.21 1.05165 -2.07468 0
M  V30 4180 C 389.204 1.3761 -0.98792 0
M  V30 4181 O 390.41 1.36546 -1.17282 0
M  V30 4182 H 386.785 0.35666 -0.66204 0
M  V30 4183 H 388.756 0.604958 -2.92203 0
M  V30 4184 C 387.505 2.34488 -2.56731 0
M  V30 4185 H 386.828 2.10383 -3.39969 0
M  V30 4186 H 388.268 3.04203 -2.95358 0
M  V30 4187 C 386.727 3.03266 -1.46736 0
M  V30 4188 O 387.257 3.92988 -0.832069 0
M  V30 4189 N 385.463 2.6455 -1.20256 0
M  V30 4190 H 385.01 1.91674 -1.72102 0
M  V30 4191 H 384.968 3.10886 -0.468737 0
M  V30 4192 N 388.74 1.54641 0.303973 0
M  V30 4193 C 389.989 1.7299 1.03717 0
M  V30 4194 C 390.302 0.521168 1.88529 0
M  V30 4195 O 391.508 0.586408 2.65092 0
M  V30 4196 C 389.964 3.06051 1.89369 0
M  V30 4197 C 389.572 4.34393 1.09574 0
M  V30 4198 C 391.316 3.3376 2.62306 0
M  V30 4199 C 389.223 5.58506 1.94486 0
M  V30 4200 H 388.153 0.64473 0.390947 0
M  V30 4201 H 390.804 1.81124 0.294328 0
M  V30 4202 H 389.186 2.91874 2.67629 0
M  V30 4203 H 390.36 4.59396 0.359485 0
M  V30 4204 H 388.675 4.13597 0.482324 0
M  V30 4205 H 391.272 4.23687 3.26181 0
M  V30 4206 H 391.615 2.52503 3.3098 0
M  V30 4207 H 392.148 3.48894 1.91097 0
M  V30 4208 H 388.887 6.42422 1.30287 0
M  V30 4209 H 388.407 5.37694 2.65792 0
M  V30 4210 H 390.086 5.95651 2.52605 0
M  V30 4211 N 390.218 -0.567019 1.47046 0
M  V30 4212 C 391.15 -1.68985 1.54844 0
M  V30 4213 C 392.163 -1.56869 0.435431 0
M  V30 4214 O 393.352 -1.64006 0.70457 0
M  V30 4215 C 390.452 -3.07373 1.42742 0
M  V30 4216 C 389.625 -3.45339 2.6844 0
M  V30 4217 C 388.684 -4.62849 2.50314 0
M  V30 4218 O 387.71 -4.67922 3.24095 0
M  V30 4219 N 388.912 -5.58726 1.57499 0
M  V30 4220 H 391.677 -1.62745 2.51663 0
M  V30 4221 H 389.238 -0.753411 1.43302 0
M  V30 4222 H 391.23 -3.83803 1.28365 0
M  V30 4223 H 389.8 -3.07893 0.540445 0
M  V30 4224 H 389.02 -2.58455 2.97648 0
M  V30 4225 H 390.308 -3.67476 3.51907 0
M  V30 4226 H 389.706 -5.57376 0.966876 0
M  V30 4227 H 388.263 -6.34523 1.49078 0
M  V30 4228 N 391.696 -1.35014 -0.812953 0
M  V30 4229 C 393.112 -1.14914 -1.10757 0
M  V30 4230 C 393.312 0.0426818 -2.01455 0
M  V30 4231 O 392.368 0.715212 -2.42159 0
M  V30 4232 C 393.681 -2.44911 -1.74468 0
M  V30 4233 C 395.229 -2.5106 -1.86917 0
M  V30 4234 C 395.704 -3.81085 -2.54044 0
M  V30 4235 N 397.195 -3.82301 -2.61535 0
M  V30 4236 C 397.93 -4.79634 -3.14227 0
M  V30 4237 N 397.426 -5.87353 -3.67407 0
M  V30 4238 N 399.219 -4.67078 -3.12721 0
M  V30 4239 H 391.37 -2.1136 -0.20989 0
M  V30 4240 H 393.633 -0.935128 -0.155692 0
M  V30 4241 H 393.339 -3.32267 -1.15289 0
M  V30 4242 H 393.213 -2.58989 -2.74234 0
M  V30 4243 H 395.6 -1.64137 -2.45241 0
M  V30 4244 H 395.681 -2.40901 -0.860242 0
M  V30 4245 H 395.325 -4.68402 -1.96372 0
M  V30 4246 H 395.255 -3.88529 -3.55461 0
M  V30 4247 H 397.746 -3.04465 -2.23851 0
M  V30 4248 H 398.059 -6.57624 -4.05894 0
M  V30 4249 H 396.404 -5.91054 -3.65623 0
M  V30 4250 H 399.595 -3.82067 -2.70449 0
M  V30 4251 H 399.768 -5.43098 -3.53481 0
M  V30 4252 N 393.175 1.03435 -1.18907 0
M  V30 4253 C 394.423 1.76394 -0.986382 0
M  V30 4254 C 394.744 1.88883 0.484567 0
M  V30 4255 O 394.014 1.41843 1.3512 0
M  V30 4256 H 392.594 0.65344 -0.361975 0
M  V30 4257 H 395.256 1.248 -1.49703 0
M  V30 4258 H 394.352 2.77424 -1.42978 0
M  V30 4259 N 394.653 0.992116 1.22453 0
M  V30 4260 C 395.899 0.668523 1.91464 0
M  V30 4261 C 396.232 -0.797313 1.77078 0
M  V30 4262 O 395.507 -1.5765 1.13916 0
M  V30 4263 C 395.79 1.07424 3.43703 0
M  V30 4264 C 395.643 2.59857 3.67143 0
M  V30 4265 C 396.962 0.626891 4.35612 0
M  V30 4266 H 394.081 0.244341 0.695318 0
M  V30 4267 H 396.723 1.2355 1.44345 0
M  V30 4268 H 394.873 0.591816 3.83966 0
M  V30 4269 H 396.545 3.15764 3.3629 0
M  V30 4270 H 394.788 3.01961 3.11451 0
M  V30 4271 H 395.459 2.83296 4.73759 0
M  V30 4272 H 397.935 1.04125 4.02861 0
M  V30 4273 H 396.811 0.939076 5.40807 0
M  V30 4274 H 397.072 -0.472457 4.39568 0
M  V30 4275 N 396.131 -1.37776 0.765217 0
M  V30 4276 C 397.377 -2.00145 0.327072 0
M  V30 4277 C 397.71 -1.60607 -1.09175 0
M  V30 4278 O 396.985 -0.849127 -1.74986 0
M  V30 4279 C 397.268 -3.57109 0.46319 0
M  V30 4280 C 397.121 -4.06576 1.92395 0
M  V30 4281 C 398.44 -4.39888 -0.136473 0
M  V30 4282 H 395.559 -0.727113 0.120316 0
M  V30 4283 H 398.201 -1.63549 0.967039 0
M  V30 4284 H 396.351 -3.88414 -0.0816358 0
M  V30 4285 H 398.023 -3.85864 2.52798 0
M  V30 4286 H 396.266 -3.59011 2.43503 0
M  V30 4287 H 396.937 -5.15639 1.97028 0
M  V30 4288 H 399.413 -4.14803 0.328317 0
M  V30 4289 H 398.289 -5.48899 -0.0110582 0
M  V30 4290 H 398.55 -4.24758 -1.22608 0
M  V30 4291 N 397.609 -0.515225 -1.4894 0
M  V30 4292 C 398.855 0.0242508 -2.02785 0
M  V30 4293 C 399.188 1.35323 -1.39289 0
M  V30 4294 O 398.463 1.87041 -0.533469 0
M  V30 4295 C 398.746 0.16184 -3.59736 0
M  V30 4296 C 398.599 -1.19127 -4.33738 0
M  V30 4297 C 399.918 0.895719 -4.30888 0
M  V30 4298 H 397.037 0.00733914 -0.736963 0
M  V30 4299 H 399.679 -0.669395 -1.77818 0
M  V30 4300 H 397.829 0.752624 -3.8114 0
M  V30 4301 H 399.501 -1.82202 -4.23792 0
M  V30 4302 H 397.744 -1.77695 -3.95736 0
M  V30 4303 H 398.415 -1.04815 -5.41957 0
M  V30 4304 H 400.891 0.394528 -4.14225 0
M  V30 4305 H 399.767 0.960859 -5.40425 0
M  V30 4306 H 400.028 1.9427 -3.97129 0
M  V30 4307 N 399.087 1.5561 -0.249682 0
M  V30 4308 C 400.336 1.98187 0.37479 0
M  V30 4309 C 400.649 1.14111 1.58865 0
M  V30 4310 O 401.855 1.46714 2.28445 0
M  V30 4311 C 400.311 3.52661 0.718192 0
M  V30 4312 C 399.919 4.45481 -0.474428 0
M  V30 4313 C 401.663 4.03888 1.3067 0
M  V30 4314 C 399.57 5.91303 -0.107026 0
M  V30 4315 H 398.5 0.740159 0.143808 0
M  V30 4316 H 401.151 1.80125 -0.350336 0
M  V30 4317 H 399.533 3.66429 1.50152 0
M  V30 4318 H 400.707 4.43473 -1.25172 0
M  V30 4319 H 399.022 4.04751 -0.978052 0
M  V30 4320 H 401.619 5.10358 1.59496 0
M  V30 4321 H 401.962 3.51401 2.23211 0
M  V30 4322 H 402.495 3.93457 0.586211 0
M  V30 4323 H 399.234 6.47833 -0.999642 0
M  V30 4324 H 398.754 5.9644 0.634013 0
M  V30 4325 H 400.433 6.46258 0.309807 0
M  V30 4326 N 400.565 -0.0233959 1.57583 0
M  V30 4327 C 401.976 -0.56927 1.77809 0
M  V30 4328 C 402.327 -1.75284 0.881472 0
M  V30 4329 O 401.452 -2.1626 0.0777805 0
M  V30 4330 C 402.047 -1.03949 3.22459 0
M  V30 4331 C 400.606 -1.53084 3.43864 0
M  V30 4332 C 399.753 -0.471454 2.73263 0
M  V30 4333 H 402.704 0.202825 1.57399 0
M  V30 4334 H 402.725 -1.90661 3.29285 0
M  V30 4335 H 402.237 -0.177865 3.87692 0
M  V30 4336 H 400.338 -2.41414 2.83814 0
M  V30 4337 H 400.451 -1.57443 4.52491 0
M  V30 4338 H 398.815 -0.927788 2.37201 0
M  V30 4339 H 399.598 0.380808 3.41181 0
M  V30 4340 N 402.043 -1.548 -0.295768 0
M  V30 4341 C 402.99 -1.86113 -1.36494 0
M  V30 4342 C 403.96 -0.7105 -1.50137 0
M  V30 4343 O 405.145 -0.959626 -1.64912 0
M  V30 4344 C 402.285 -2.11861 -2.72413 0
M  V30 4345 C 401.398 -3.39471 -2.67177 0
M  V30 4346 C 400.533 -3.55035 -3.95125 0
M  V30 4347 C 399.572 -4.76418 -3.84308 0
M  V30 4348 N 398.709 -4.8876 -5.04042 0
M  V30 4349 H 403.549 -2.77314 -1.09091 0
M  V30 4350 H 401.086 -1.37315 -0.52753 0
M  V30 4351 H 403.044 -2.24786 -3.51464 0
M  V30 4352 H 401.674 -1.2392 -2.98066 0
M  V30 4353 H 400.726 -3.35139 -1.79962 0
M  V30 4354 H 402.038 -4.28646 -2.55076 0
M  V30 4355 H 401.192 -3.67653 -4.82614 0
M  V30 4356 H 399.931 -2.64002 -4.10066 0
M  V30 4357 H 398.936 -4.63827 -2.95202 0
M  V30 4358 H 400.161 -5.68863 -3.70906 0
M  V30 4359 H 398.107 -4.00652 -5.19436 0
M  V30 4360 H 398.024 -5.71945 -4.94384 0
M  V30 4361 H 399.292 -5.0574 -5.93167 0
M  V30 4362 N 403.521 0.559213 -1.47345 0
M  V30 4363 C 404.746 1.34676 -1.57725 0
M  V30 4364 C 405.171 1.86723 -0.227164 0
M  V30 4365 O 404.529 1.6286 0.796642 0
M  V30 4366 C 404.577 2.49399 -2.60447 0
M  V30 4367 O 403.681 3.51567 -2.15578 0
M  V30 4368 H 403.022 0.400115 -0.52991 0
M  V30 4369 H 405.552 0.676009 -1.93109 0
M  V30 4370 H 405.562 2.95996 -2.80803 0
M  V30 4371 H 404.237 2.10873 -3.58477 0
M  V30 4372 H 402.814 3.11289 -2.05313 0
M  V30 4373 N 404.999 1.35443 0.805782 0
M  V30 4374 C 406.246 1.28761 1.56291 0
M  V30 4375 C 406.574 -0.137747 1.94012 0
M  V30 4376 O 405.829 -1.1032 1.61642 0
M  V30 4377 C 406.128 2.14045 2.86216 0
M  V30 4378 C 405.794 3.62826 2.67709 0
M  V30 4379 C 404.456 4.0338 2.6237 0
M  V30 4380 C 406.808 4.57227 2.50186 0
M  V30 4381 C 404.136 5.36501 2.37451 0
M  V30 4382 C 406.488 5.90547 2.26797 0
M  V30 4383 C 405.152 6.30245 2.1988 0
M  V30 4384 H 404.422 0.471171 0.571908 0
M  V30 4385 H 407.069 1.67347 0.930974 0
M  V30 4386 H 405.374 1.68342 3.53791 0
M  V30 4387 H 407.071 2.0621 3.43917 0
M  V30 4388 H 403.661 3.30644 2.72713 0
M  V30 4389 H 407.845 4.2678 2.53323 0
M  V30 4390 H 403.101 5.66259 2.30567 0
M  V30 4391 H 407.275 6.63274 2.12228 0
M  V30 4392 H 404.902 7.33328 2.00333 0
M  V30 4393 N 406.477 -1.02803 1.19454 0
M  V30 4394 C 407.425 -2.13213 0.929673 0
M  V30 4395 C 408.419 -1.69011 -0.114806 0
M  V30 4396 O 409.625 -1.79967 0.0345147 0
M  V30 4397 H 406 -0.69662 0.28324 0
M  V30 4398 H 407.971 -2.32744 1.86743 0
M  V30 4399 C 406.72 -3.4429 0.485797 0
M  V30 4400 H 406.043 -3.7872 1.28105 0
M  V30 4401 H 407.483 -4.22638 0.339582 0
M  V30 4402 C 405.942 -3.27258 -0.800244 0
M  V30 4403 O 406.472 -3.55967 -1.86146 0
M  V30 4404 N 404.678 -2.80545 -0.75781 0
M  V30 4405 H 404.225 -2.57382 0.106039 0
M  V30 4406 H 404.183 -2.6953 -1.61867 0
M  V30 4407 N 407.956 -0.998596 -1.21925 0
M  V30 4408 C 408.886 -0.573688 -2.26343 0
M  V30 4409 C 409.867 0.402296 -1.65274 0
M  V30 4410 O 411.052 0.291683 -1.91997 0
M  V30 4411 C 408.182 0.106839 -3.47136 0
M  V30 4412 C 407.136 -0.788269 -4.20678 0
M  V30 4413 C 406.462 0.0254927 -5.34694 0
M  V30 4414 C 407.762 -2.08784 -4.78755 0
M  V30 4415 H 409.456 -1.44651 -2.62138 0
M  V30 4416 H 407.002 -0.696975 -1.26009 0
M  V30 4417 H 408.955 0.415531 -4.19346 0
M  V30 4418 H 407.679 1.01424 -3.10452 0
M  V30 4419 H 406.338 -1.08069 -3.50309 0
M  V30 4420 H 405.986 0.933989 -4.94253 0
M  V30 4421 H 405.686 -0.570437 -5.84825 0
M  V30 4422 H 407.21 0.328147 -6.09718 0
M  V30 4423 H 408.624 -1.84272 -5.42878 0
M  V30 4424 H 407.021 -2.63307 -5.39249 0
M  V30 4425 H 408.091 -2.76284 -3.98491 0
M  V30 4426 N 409.434 1.37368 -0.772513 0
M  V30 4427 C 410.344 2.34053 -0.160081 0
M  V30 4428 C 411.36 1.60216 0.678728 0
M  V30 4429 O 412.536 1.92303 0.59847 0
M  V30 4430 C 409.601 3.3939 0.708182 0
M  V30 4431 C 408.662 4.29048 -0.147172 0
M  V30 4432 C 407.895 5.29354 0.679744 0
M  V30 4433 O 408.118 5.3723 1.91678 0
M  V30 4434 O 407.052 6.01835 0.0885444 0
M  V30 4435 H 410.878 2.88159 -0.959053 0
M  V30 4436 H 408.463 1.39543 -0.533685 0
M  V30 4437 H 410.345 4.03839 1.20384 0
M  V30 4438 H 409.02 2.8761 1.48533 0
M  V30 4439 H 407.927 3.67697 -0.689205 0
M  V30 4440 H 409.26 4.84134 -0.887423 0
M  V30 4441 N 410.912 0.523116 1.48665 0
M  V30 4442 C 412.328 0.180511 1.58576 0
M  V30 4443 C 412.528 -1.31597 1.52592 0
M  V30 4444 O 411.584 -2.0937 1.4114 0
M  V30 4445 C 412.897 0.776949 2.90489 0
M  V30 4446 C 414.445 0.745058 3.04003 0
M  V30 4447 C 414.92 1.31995 4.38567 0
M  V30 4448 N 416.411 1.28162 4.45117 0
M  V30 4449 C 417.146 1.6964 5.47731 0
M  V30 4450 N 416.642 2.18816 6.57337 0
M  V30 4451 N 418.435 1.6092 5.38573 0
M  V30 4452 H 410.586 1.4958 1.50797 0
M  V30 4453 H 412.849 0.621772 0.715614 0
M  V30 4454 H 412.555 1.82732 3.00503 0
M  V30 4455 H 412.429 0.25007 3.7637 0
M  V30 4456 H 414.816 -0.296532 2.93606 0
M  V30 4457 H 414.897 1.30933 2.1975 0
M  V30 4458 H 414.541 2.36043 4.49718 0
M  V30 4459 H 414.471 0.731418 5.21496 0
M  V30 4460 H 416.962 0.92155 3.66491 0
M  V30 4461 H 417.275 2.48478 7.31764 0
M  V30 4462 H 415.62 2.22805 6.58318 0
M  V30 4463 H 418.811 1.22304 4.5184 0
M  V30 4464 H 418.984 1.93567 6.18414 0
M  V30 4465 N 412.39 -1.55475 0.257931 0
M  V30 4466 C 413.639 -1.98383 -0.364275 0
M  V30 4467 C 413.952 -1.14952 -1.58258 0
M  V30 4468 O 415.158 -1.47924 -2.27664 0
M  V30 4469 C 413.614 -3.53037 -0.699479 0
M  V30 4470 C 413.222 -4.45223 0.498046 0
M  V30 4471 C 414.966 -4.04575 -1.28526 0
M  V30 4472 C 412.873 -5.91238 0.138383 0
M  V30 4473 H 411.803 -0.740911 -0.13988 0
M  V30 4474 H 414.454 -1.79936 0.359883 0
M  V30 4475 H 412.836 -3.6722 -1.48207 0
M  V30 4476 H 414.01 -4.42803 1.27522 0
M  V30 4477 H 412.325 -4.04226 0.999503 0
M  V30 4478 H 414.922 -5.11196 -1.56788 0
M  V30 4479 H 415.265 -3.5258 -2.21344 0
M  V30 4480 H 415.798 -3.93762 -0.565337 0
M  V30 4481 H 412.537 -6.47294 1.03398 0
M  V30 4482 H 412.057 -5.96768 -0.602374 0
M  V30 4483 H 413.736 -6.46413 -0.27553 0
M  V30 4484 N 413.868 0.0150385 -1.57593 0
M  V30 4485 C 414.815 1.01126 -2.07466 0
M  V30 4486 C 415.785 1.35064 -0.966794 0
M  V30 4487 O 416.97 1.4516 -1.23827 0
M  V30 4488 C 414.11 2.30276 -2.57035 0
M  V30 4489 C 413.223 2.02373 -3.81666 0
M  V30 4490 C 412.358 3.25496 -4.19793 0
M  V30 4491 C 411.397 2.93211 -5.37303 0
M  V30 4492 N 410.534 4.08826 -5.70794 0
M  V30 4493 H 415.374 0.57901 -2.92321 0
M  V30 4494 H 412.911 0.27426 -1.44521 0
M  V30 4495 H 414.869 3.05757 -2.83846 0
M  V30 4496 H 413.499 2.71197 -1.75077 0
M  V30 4497 H 412.551 1.17327 -3.61854 0
M  V30 4498 H 413.863 1.74567 -4.67256 0
M  V30 4499 H 413.017 4.09333 -4.47807 0
M  V30 4500 H 411.756 3.56428 -3.32882 0
M  V30 4501 H 410.761 2.07777 -5.09027 0
M  V30 4502 H 411.986 2.63542 -6.25877 0
M  V30 4503 H 409.932 4.39682 -4.86842 0
M  V30 4504 H 409.849 3.84491 -6.50924 0
M  V30 4505 H 411.117 4.93496 -6.03392 0
M  V30 4506 N 415.346 1.54954 0.287554 0
M  V30 4507 C 416.256 1.8991 1.37736 0
M  V30 4508 C 417.272 0.794701 1.54792 0
M  V30 4509 O 418.448 1.09243 1.69198 0
M  V30 4510 C 415.513 2.15108 2.71899 0
M  V30 4511 C 414.574 3.38752 2.63715 0
M  V30 4512 C 413.807 3.62739 3.91479 0
M  V30 4513 O 414.03 2.89492 4.91478 0
M  V30 4514 O 412.964 4.56267 3.92561 0
M  V30 4515 H 416.79 2.82652 1.11092 0
M  V30 4516 H 414.375 1.41315 0.484807 0
M  V30 4517 H 416.257 2.32806 3.51254 0
M  V30 4518 H 414.932 1.25551 2.9836 0
M  V30 4519 H 413.839 3.26405 1.82786 0
M  V30 4520 H 415.172 4.28483 2.42205 0
M  V30 4521 N 416.824 -0.551391 1.4764 0
M  V30 4522 C 417.772 -1.67896 1.60978 0
M  V30 4523 C 418.766 -1.62549 0.476877 0
M  V30 4524 O 419.972 -1.67664 0.654878 0
M  V30 4525 H 416.347 -0.555649 0.506713 0
M  V30 4526 H 418.318 -1.53784 2.55721 0
M  V30 4527 C 417.067 -3.06234 1.64669 0
M  V30 4528 H 416.39 -3.11033 2.51194 0
M  V30 4529 H 417.83 -3.84804 1.7805 0
M  V30 4530 C 416.289 -3.34737 0.381115 0
M  V30 4531 O 416.819 -3.98381 -0.515297 0
M  V30 4532 N 415.025 -2.8944 0.259354 0
M  V30 4533 H 414.572 -2.37827 0.98976 0
M  V30 4534 H 414.53 -3.08882 -0.586464 0
M  V30 4535 N 418.302 -1.35869 -0.798587 0
M  V30 4536 C 419.549 -1.29588 -1.55606 0
M  V30 4537 C 419.877 0.127456 -1.94082 0
M  V30 4538 O 419.132 1.09461 -1.62225 0
M  V30 4539 C 419.431 -2.1556 -2.85077 0
M  V30 4540 C 419.097 -3.6424 -2.65781 0
M  V30 4541 C 417.759 -4.04766 -2.60227 0
M  V30 4542 C 420.111 -4.58547 -2.47758 0
M  V30 4543 C 417.439 -5.37753 -2.34603 0
M  V30 4544 C 419.791 -5.91742 -2.23662 0
M  V30 4545 C 418.455 -6.31402 -2.16534 0
M  V30 4546 H 417.725 -0.474197 -0.569402 0
M  V30 4547 H 420.372 -1.67839 -0.922086 0
M  V30 4548 H 418.677 -1.70216 -3.52893 0
M  V30 4549 H 420.374 -2.08031 -3.42818 0
M  V30 4550 H 416.964 -3.32086 -2.70956 0
M  V30 4551 H 421.148 -4.28117 -2.51056 0
M  V30 4552 H 416.404 -5.67474 -2.2756 0
M  V30 4553 H 420.578 -6.6439 -2.08708 0
M  V30 4554 H 418.205 -7.34381 -1.96441 0
M  V30 4555 N 419.78 1.02168 -1.19998 0
M  V30 4556 C 420.712 2.10705 -0.901994 0
M  V30 4557 C 421.725 1.6244 0.108216 0
M  V30 4558 O 422.914 1.78082 -0.12214 0
M  V30 4559 C 420.014 3.37291 -0.329834 0
M  V30 4560 C 419.187 4.14714 -1.39035 0
M  V30 4561 C 418.246 5.19606 -0.830432 0
M  V30 4562 O 417.272 5.48809 -1.50989 0
M  V30 4563 N 418.474 5.79366 0.362696 0
M  V30 4564 H 421.239 2.36856 -1.83628 0
M  V30 4565 H 418.8 1.18518 -1.10296 0
M  V30 4566 H 420.792 4.04657 0.0587633 0
M  V30 4567 H 419.362 3.0843 0.508891 0
M  V30 4568 H 418.582 3.42392 -1.9535 0
M  V30 4569 H 419.87 4.63226 -2.10474 0
M  V30 4570 H 419.268 5.57968 0.932081 0
M  V30 4571 H 417.825 6.48106 0.69299 0
M  V30 4572 N 421.258 1.00505 1.21394 0
M  V30 4573 C 422.507 0.683159 1.89778 0
M  V30 4574 C 422.82 -0.789471 1.7896 0
M  V30 4575 O 424.026 -1.22344 2.42372 0
M  V30 4576 C 422.482 1.17146 3.40301 0
M  V30 4577 C 422.09 2.67017 3.5973 0
M  V30 4578 C 423.834 0.924461 4.14311 0
M  V30 4579 C 421.741 3.09387 5.04017 0
M  V30 4580 H 420.671 0.25183 0.710702 0
M  V30 4581 H 423.322 1.21622 1.37406 0
M  V30 4582 H 421.704 0.566451 3.91928 0
M  V30 4583 H 422.878 3.32968 3.18542 0
M  V30 4584 H 421.193 2.89732 2.99073 0
M  V30 4585 H 423.79 1.21658 5.20676 0
M  V30 4586 H 424.133 -0.139286 4.16067 0
M  V30 4587 H 424.666 1.49226 3.6875 0
M  V30 4588 H 421.405 4.14989 5.07409 0
M  V30 4589 H 420.925 2.48149 5.46061 0
M  V30 4590 H 422.604 3.01371 5.72525 0
M  V30 4591 N 422.737 -1.36956 0.779787 0
M  V30 4592 C 423.984 -1.99491 0.347766 0
M  V30 4593 C 424.312 -1.61898 -1.07793 0
M  V30 4594 O 423.567 -0.86071 -1.75756 0
M  V30 4595 C 423.866 -3.54585 0.447686 0
M  V30 4596 C 423.532 -4.1197 1.83279 0
M  V30 4597 C 422.194 -4.27356 2.2118 0
M  V30 4598 C 424.546 -4.43354 2.74019 0
M  V30 4599 C 421.874 -4.71432 3.4924 0
M  V30 4600 C 424.226 -4.88858 4.01497 0
M  V30 4601 C 422.89 -5.0245 4.39432 0
M  V30 4602 H 422.16 -0.729991 0.127257 0
M  V30 4603 H 424.807 -1.63599 0.995376 0
M  V30 4604 H 423.112 -3.90773 -0.283447 0
M  V30 4605 H 424.809 -4.00888 0.0945948 0
M  V30 4606 H 421.399 -4.00428 1.52825 0
M  V30 4607 H 425.583 -4.31045 2.45995 0
M  V30 4608 H 420.839 -4.80141 3.78516 0
M  V30 4609 H 425.013 -5.12108 4.71931 0
M  V30 4610 H 422.64 -5.36362 5.38721 0
M  V30 4611 N 424.215 -0.530993 -1.48385 0
M  V30 4612 C 425.492 0.0671788 -1.95485 0
M  V30 4613 C 425.872 1.51191 -1.47324 0
M  V30 4614 O 425.22 2.17507 -0.700202 0
M  V30 4615 C 425.43 -0.0511206 -3.48963 0
M  V30 4616 C 426.778 0.107632 -4.24464 0
M  V30 4617 O 427.802 0.0226248 -3.56193 0
M  V30 4618 O 426.661 0.285972 -5.45751 0
M  V30 4619 H 423.755 0.0787365 -0.823243 0
M  V30 4620 H 426.301 -0.595662 -1.58902 0
M  V30 4621 H 425.073 -1.05747 -3.7674 0
M  V30 4622 H 424.696 0.650525 -3.92242 0
M  V30 4623 N 425.693 1.55336 -0.266172 0
M  V30 4624 C 426.94 1.99397 0.353158 0
M  V30 4625 C 427.268 1.15451 1.56529 0
M  V30 4626 O 426.523 0.209974 1.9457 0
M  V30 4627 C 426.822 3.48606 0.787957 0
M  V30 4628 C 426.488 4.49773 -0.318541 0
M  V30 4629 C 425.15 4.77158 -0.62239 0
M  V30 4630 C 427.502 5.10212 -1.06459 0
M  V30 4631 C 424.83 5.62251 -1.67602 0
M  V30 4632 C 427.182 5.96449 -2.10788 0
M  V30 4633 C 425.846 6.22158 -2.41817 0
M  V30 4634 H 425.116 0.729644 0.12923 0
M  V30 4635 H 427.763 1.87732 -0.37802 0
M  V30 4636 H 426.068 3.57701 1.59866 0
M  V30 4637 H 427.765 3.80098 1.27775 0
M  V30 4638 H 424.355 4.2854 -0.0715925 0
M  V30 4639 H 428.539 4.89086 -0.843098 0
M  V30 4640 H 423.795 5.80419 -1.92155 0
M  V30 4641 H 427.969 6.42317 -2.69076 0
M  V30 4642 H 425.596 6.87888 -3.23596 0
M  V30 4643 N 427.171 -0.0066808 1.57599 0
M  V30 4644 C 428.396 -0.707738 1.94951 0
M  V30 4645 C 428.821 -1.66882 0.867868 0
M  V30 4646 O 428.179 -1.80457 -0.17458 0
M  V30 4647 C 428.227 -1.42162 3.31394 0
M  V30 4648 O 427.331 -2.53578 3.25226 0
M  V30 4649 H 426.672 -0.188752 0.636607 0
M  V30 4650 H 429.202 0.0445193 2.04552 0
M  V30 4651 H 429.212 -1.78655 3.66806 0
M  V30 4652 H 427.887 -0.716903 4.09675 0
M  V30 4653 H 426.464 -2.19463 3.01481 0
M  V30 4654 N 428.649 -1.55105 -0.279332 0
M  V30 4655 C 429.579 -1.90557 -1.34945 0
M  V30 4656 C 430.56 -0.766738 -1.51839 0
M  V30 4657 O 431.745 -1.02434 -1.64988 0
M  V30 4658 C 428.875 -2.17193 -2.71006 0
M  V30 4659 C 427.829 -3.33021 -2.68851 0
M  V30 4660 C 427.155 -3.45123 -4.08405 0
M  V30 4661 C 428.455 -4.69578 -2.28678 0
M  V30 4662 H 430.149 -2.80188 -1.05522 0
M  V30 4663 H 427.695 -1.34811 -0.506173 0
M  V30 4664 H 429.648 -2.40581 -3.45975 0
M  V30 4665 H 428.372 -1.24355 -3.01999 0
M  V30 4666 H 427.031 -3.0959 -1.9634 0
M  V30 4667 H 426.679 -2.49762 -4.3661 0
M  V30 4668 H 426.379 -4.22995 -4.07859 0
M  V30 4669 H 427.903 -3.70796 -4.85121 0
M  V30 4670 H 429.317 -4.92553 -2.93368 0
M  V30 4671 H 427.714 -5.5032 -2.39306 0
M  V30 4672 H 428.784 -4.68828 -1.23807 0
M  V30 4673 N 430.127 0.543554 -1.4793 0
M  V30 4674 C 431.355 1.32516 -1.58894 0
M  V30 4675 C 431.77 1.87215 -0.244131 0
M  V30 4676 O 431.127 1.65709 0.764652 0
M  V30 4677 C 431.178 2.48554 -2.62494 0
M  V30 4678 O 430.899 1.96112 -3.91755 0
M  V30 4679 C 432.4 3.40572 -2.8377 0
M  V30 4680 H 429.62 0.403472 -0.536145 0
M  V30 4681 H 432.164 0.657106 -1.93655 0
M  V30 4682 H 430.319 3.1127 -2.30629 0
M  V30 4683 H 430.733 2.71967 -4.4848 0
M  V30 4684 H 432.207 4.18375 -3.60093 0
M  V30 4685 H 432.684 3.94965 -1.92092 0
M  V30 4686 H 433.29 2.8366 -3.16887 0
M  V30 4687 N 431.605 1.3629 0.791371 0
M  V30 4688 C 432.515 1.32606 1.93527 0
M  V30 4689 C 433.531 0.228541 1.72493 0
M  V30 4690 O 434.707 0.460571 1.96063 0
M  V30 4691 C 431.772 1.11271 3.28359 0
M  V30 4692 C 430.833 2.3048 3.62185 0
M  V30 4693 C 430.066 2.10154 4.90583 0
M  V30 4694 O 430.289 1.07572 5.60165 0
M  V30 4695 O 429.223 2.97884 5.23019 0
M  V30 4696 H 433.049 2.28909 1.99585 0
M  V30 4697 H 430.634 1.16818 0.931344 0
M  V30 4698 H 432.516 1.01283 4.09047 0
M  V30 4699 H 431.191 0.180292 3.23198 0
M  V30 4700 H 430.098 2.46036 2.81811 0
M  V30 4701 H 431.431 3.22221 3.72068 0
M  V30 4702 N 433.083 -1.0153 1.20538 0
M  V30 4703 C 433.993 -2.13557 0.971113 0
M  V30 4704 C 435.009 -1.73845 -0.0734366 0
M  V30 4705 O 436.185 -2.01075 0.114299 0
M  V30 4706 C 433.25 -3.42661 0.527639 0
M  V30 4707 C 432.311 -3.96608 1.64319 0
M  V30 4708 C 431.544 -5.1955 1.22078 0
M  V30 4709 O 431.767 -5.70329 0.0900198 0
M  V30 4710 O 430.701 -5.66681 2.02871 0
M  V30 4711 H 434.527 -2.3619 1.90913 0
M  V30 4712 H 432.112 -1.11946 0.989362 0
M  V30 4713 H 433.994 -4.20404 0.289621 0
M  V30 4714 H 432.669 -3.21441 -0.381779 0
M  V30 4715 H 431.576 -3.20139 1.93551 0
M  V30 4716 H 432.909 -4.22219 2.52966 0
M  V30 4717 N 434.561 -1.01147 -1.20859 0
M  V30 4718 C 435.471 -0.58686 -2.27141 0
M  V30 4719 C 436.487 0.373198 -1.69951 0
M  V30 4720 O 437.663 0.235423 -2.00019 0
M  V30 4721 C 434.728 0.0733602 -3.46622 0
M  V30 4722 C 433.789 -0.931995 -4.19061 0
M  V30 4723 C 433.022 -0.303186 -5.32838 0
M  V30 4724 O 433.245 0.898395 -5.63281 0
M  V30 4725 O 432.179 -1.01735 -5.9324 0
M  V30 4726 H 436.005 -1.47155 -2.65667 0
M  V30 4727 H 433.59 -0.780689 -1.2738 0
M  V30 4728 H 435.472 0.442333 -4.19072 0
M  V30 4729 H 434.147 0.932329 -3.09983 0
M  V30 4730 H 433.054 -1.35224 -3.48805 0
M  V30 4731 H 434.387 -1.76076 -4.59628 0
M  V30 4732 N 436.039 1.36541 -0.78704 0
M  V30 4733 C 436.972 2.27831 -0.129765 0
M  V30 4734 C 437.95 1.47105 0.692732 0
M  V30 4735 O 439.134 1.7641 0.664222 0
M  V30 4736 C 436.261 3.28577 0.821883 0
M  V30 4737 C 435.307 4.26422 0.0814771 0
M  V30 4738 S 436.14 5.20919 -1.24112 0
M  V30 4739 C 437.296 6.25212 -0.293409 0
M  V30 4740 H 437.529 2.83229 -0.903811 0
M  V30 4741 H 435.062 1.43046 -0.581144 0
M  V30 4742 H 437.02 3.87123 1.3655 0
M  V30 4743 H 435.681 2.72096 1.56916 0
M  V30 4744 H 434.874 4.97554 0.803485 0
M  V30 4745 H 434.476 3.71944 -0.391589 0
M  V30 4746 H 436.768 6.75435 0.528622 0
M  V30 4747 H 437.711 7.01378 -0.973344 0
M  V30 4748 H 438.119 5.64407 0.102196 0
M  V30 4749 N 437.518 0.538854 1.48102 0
M  V30 4750 C 438.465 -0.219042 2.29758 0
M  V30 4751 C 439.435 -0.925562 1.37922 0
M  V30 4752 O 440.62 -0.924855 1.66886 0
M  V30 4753 C 437.76 -1.25452 3.2149 0
M  V30 4754 C 436.873 -0.555943 4.28408 0
M  V30 4755 C 436.008 -1.57512 5.0731 0
M  V30 4756 C 435.047 -0.860498 6.06021 0
M  V30 4757 N 434.184 -1.82564 6.77949 0
M  V30 4758 H 439.024 0.483449 2.94052 0
M  V30 4759 H 436.561 0.250247 1.44956 0
M  V30 4760 H 438.519 -1.86727 3.7308 0
M  V30 4761 H 437.149 -1.92528 2.591 0
M  V30 4762 H 436.201 0.170938 3.80016 0
M  V30 4763 H 437.513 0.00474616 4.988 0
M  V30 4764 H 436.667 -2.26191 5.62959 0
M  V30 4765 H 435.406 -2.16972 4.36778 0
M  V30 4766 H 434.411 -0.159686 5.49568 0
M  V30 4767 H 435.636 -0.271897 6.78555 0
M  V30 4768 H 433.582 -2.40915 6.10161 0
M  V30 4769 H 433.499 -1.31662 7.44447 0
M  V30 4770 H 434.767 -2.50414 7.38182 0
M  V30 4771 N 438.996 -1.55193 0.274407 0
M  V30 4772 C 440.273 -1.91584 -0.394331 0
M  V30 4773 C 440.653 -1.19858 -1.73774 0
M  V30 4774 O 440.001 -0.3252 -2.26174 0
M  V30 4775 C 440.211 -3.4487 -0.535311 0
M  V30 4776 C 441.559 -4.16636 -0.818534 0
M  V30 4777 O 442.583 -3.5076 -0.620146 0
M  V30 4778 O 441.442 -5.33209 -1.19792 0
M  V30 4779 H 438.536 -0.798349 -0.215794 0
M  V30 4780 H 441.082 -1.66646 0.320507 0
M  V30 4781 H 439.854 -3.89145 0.410141 0
M  V30 4782 H 439.477 -3.75759 -1.29964 0
M  V30 4783 N 440.474 -0.00167713 -1.576 0
M  V30 4784 C 441.723 0.682021 -1.89819 0
M  V30 4785 C 442.036 1.74844 -0.876871 0
M  V30 4786 O 443.242 2.48688 -1.08934 0
M  V30 4787 C 441.698 1.26425 -3.36964 0
M  V30 4788 C 441.306 0.232568 -4.47396 0
M  V30 4789 C 443.05 1.92604 -3.78291 0
M  V30 4790 C 440.957 0.824882 -5.85619 0
M  V30 4791 H 439.887 0.258499 -0.708304 0
M  V30 4792 H 442.538 -0.0624957 -1.83394 0
M  V30 4793 H 440.92 2.05949 -3.38232 0
M  V30 4794 H 442.094 -0.5382 -4.57646 0
M  V30 4795 H 440.409 -0.32888 -4.15099 0
M  V30 4796 H 443.006 2.37827 -4.78897 0
M  V30 4797 H 443.349 2.75732 -3.11894 0
M  V30 4798 H 443.882 1.19812 -3.79328 0
M  V30 4799 H 440.621 0.0323542 -6.55492 0
M  V30 4800 H 440.141 1.56477 -5.79029 0
M  V30 4801 H 441.82 1.32301 -6.33329 0
M  V30 4802 N 441.952 1.55251 0.271103 0
M  V30 4803 C 442.862 1.9136 1.35714 0
M  V30 4804 C 443.878 0.811075 1.5394 0
M  V30 4805 O 445.054 1.11031 1.6803 0
M  V30 4806 C 442.119 2.1798 2.69603 0
M  V30 4807 C 441.18 3.4153 2.60107 0
M  V30 4808 C 440.413 3.66871 3.8761 0
M  V30 4809 O 440.636 2.94689 4.8838 0
M  V30 4810 O 439.57 4.60405 3.87699 0
M  V30 4811 H 443.396 2.83815 1.08088 0
M  V30 4812 H 440.981 1.41821 0.469792 0
M  V30 4813 H 442.863 2.36518 3.48765 0
M  V30 4814 H 441.538 1.28708 2.97012 0
M  V30 4815 H 440.445 3.28325 1.79314 0
M  V30 4816 H 441.778 4.31027 2.37647 0
M  V30 4817 N 443.43 -0.535701 1.48216 0
M  V30 4818 C 444.393 -1.623 1.61838 0
M  V30 4819 C 445.393 -1.53087 0.492024 0
M  V30 4820 O 446.583 -1.5686 0.757668 0
M  V30 4821 C 443.715 -3.01907 1.58319 0
M  V30 4822 H 444.908 -1.51564 2.58783 0
M  V30 4823 H 442.461 -0.757317 1.36727 0
M  V30 4824 H 443.196 -3.18155 0.628299 0
M  V30 4825 H 442.981 -3.10003 2.40085 0
M  V30 4826 H 444.471 -3.80969 1.71033 0
M  V30 4827 N 444.908 -1.36708 -0.784132 0
M  V30 4828 C 445.838 -1.34153 -1.91116 0
M  V30 4829 C 446.819 -0.212121 -1.68772 0
M  V30 4830 O 448.004 -0.410581 -1.8981 0
M  V30 4831 C 445.134 -1.13535 -3.28218 0
M  V30 4832 C 444.088 -2.23356 -3.65097 0
M  V30 4833 C 443.414 -1.87875 -5.00607 0
M  V30 4834 C 444.714 -3.65473 -3.73131 0
M  V30 4835 H 446.408 -2.28459 -1.93512 0
M  V30 4836 H 443.954 -1.09973 -0.929618 0
M  V30 4837 H 445.907 -1.10381 -4.06687 0
M  V30 4838 H 444.631 -0.156804 -3.26223 0
M  V30 4839 H 443.29 -2.25645 -2.88929 0
M  V30 4840 H 442.938 -0.885814 -4.95139 0
M  V30 4841 H 442.638 -2.61406 -5.26252 0
M  V30 4842 H 444.162 -1.86286 -5.81489 0
M  V30 4843 H 445.576 -3.65382 -4.41779 0
M  V30 4844 H 443.973 -4.37953 -4.10265 0
M  V30 4845 H 445.043 -3.99995 -2.74102 0
M  V30 4846 N 446.386 1.0089 -1.21074 0
M  V30 4847 C 447.334 2.11707 -0.963476 0
M  V30 4848 C 448.328 1.69172 0.0879032 0
M  V30 4849 O 449.534 1.79889 -0.0631415 0
M  V30 4850 H 445.909 0.692026 -0.294287 0
M  V30 4851 H 447.88 2.29743 -1.90422 0
M  V30 4852 C 446.629 3.43473 -0.540509 0
M  V30 4853 H 445.952 3.76634 -1.34114 0
M  V30 4854 H 447.392 4.22044 -0.406777 0
M  V30 4855 C 445.851 3.2849 0.748079 0
M  V30 4856 O 446.381 3.58883 1.8046 0
M  V30 4857 N 444.587 2.81715 0.713081 0
M  V30 4858 H 444.134 2.5718 -0.146973 0
M  V30 4859 H 444.092 2.72071 1.57558 0
M  V30 4860 N 447.864 1.01787 1.20321 0
M  V30 4861 C 448.811 0.589197 2.23153 0
M  V30 4862 C 449.781 -0.391367 1.61423 0
M  V30 4863 O 450.966 -0.290518 1.88575 0
M  V30 4864 C 448.106 -0.0650747 3.45039 0
M  V30 4865 C 447.219 0.960207 4.21194 0
M  V30 4866 C 446.354 0.276854 5.30478 0
M  V30 4867 C 445.393 1.2888 5.98378 0
M  V30 4868 N 444.53 0.632031 6.99249 0
M  V30 4869 H 449.37 1.47071 2.59179 0
M  V30 4870 H 446.907 0.736192 1.27352 0
M  V30 4871 H 448.865 -0.461552 4.14639 0
M  V30 4872 H 447.495 -0.910233 3.09701 0
M  V30 4873 H 446.547 1.47484 3.50646 0
M  V30 4874 H 447.859 1.72977 4.67847 0
M  V30 4875 H 447.013 -0.175056 6.06447 0
M  V30 4876 H 445.752 -0.525004 4.84866 0
M  V30 4877 H 444.757 1.75109 5.21169 0
M  V30 4878 H 445.982 2.09196 6.46076 0
M  V30 4879 H 443.928 -0.149935 6.55829 0
M  V30 4880 H 443.845 1.33964 7.44036 0
M  V30 4881 H 445.113 0.203755 7.79234 0
M  V30 4882 N 449.342 -1.36122 0.79427 0
M  V30 4883 C 450.29 -2.31871 0.184023 0
M  V30 4884 C 451.284 -1.56041 -0.659365 0
M  V30 4885 O 452.49 -1.71266 -0.553906 0
M  V30 4886 H 448.865 -0.750896 0.0407373 0
M  V30 4887 H 450.836 -2.80898 1.00693 0
M  V30 4888 C 449.585 -3.41324 -0.662813 0
M  V30 4889 H 448.908 -3.99793 -0.0231944 0
M  V30 4890 H 450.348 -4.10629 -1.05639 0
M  V30 4891 C 448.807 -2.83308 -1.82313 0
M  V30 4892 O 449.337 -2.75863 -2.91997 0
M  V30 4893 N 447.543 -2.40529 -1.63077 0
M  V30 4894 H 447.09 -2.46785 -0.738591 0
M  V30 4895 H 447.048 -2.02059 -2.40872 0
M  V30 4896 N 450.82 -0.546701 -1.47814 0
M  V30 4897 C 452.066 -0.0187684 -2.02791 0
M  V30 4898 C 452.399 1.32338 -1.42128 0
M  V30 4899 O 451.674 1.85867 -0.573023 0
M  V30 4900 C 451.957 0.0854985 -3.59998 0
M  V30 4901 C 451.81 -1.283 -4.31114 0
M  V30 4902 C 453.129 0.80412 -4.32691 0
M  V30 4903 H 450.248 -0.0082946 -0.736953 0
M  V30 4904 H 452.89 -0.706962 -1.76358 0
M  V30 4905 H 451.04 0.671609 -3.82651 0
M  V30 4906 H 452.712 -1.91151 -4.19832 0
M  V30 4907 H 450.955 -1.86049 -3.91878 0
M  V30 4908 H 451.626 -1.16287 -5.39612 0
M  V30 4909 H 454.102 0.306576 -4.14969 0
M  V30 4910 H 452.978 0.846011 -5.42341 0
M  V30 4911 H 453.239 1.85802 -4.01161 0
M  V30 4912 N 452.299 1.55045 -0.282633 0
M  V30 4913 C 453.715 1.59441 0.0712997 0
M  V30 4914 C 453.915 1.2998 1.53972 0
M  V30 4915 O 452.971 1.06431 2.28973 0
M  V30 4916 C 454.284 2.99097 -0.310104 0
M  V30 4917 C 455.832 3.1194 -0.257343 0
M  V30 4918 C 456.307 4.53875 -0.613297 0
M  V30 4919 N 457.798 4.5974 -0.565134 0
M  V30 4920 C 458.533 5.67603 -0.81326 0
M  V30 4921 N 458.029 6.83582 -1.1264 0
M  V30 4922 N 459.822 5.57187 -0.741553 0
M  V30 4923 H 451.973 1.72458 -1.23984 0
M  V30 4924 H 454.236 0.804549 -0.501403 0
M  V30 4925 H 453.942 3.25516 -1.33163 0
M  V30 4926 H 453.816 3.75616 0.345366 0
M  V30 4927 H 456.203 2.85281 0.754905 0
M  V30 4928 H 456.284 2.37618 -0.947178 0
M  V30 4929 H 455.928 4.81261 -1.62327 0
M  V30 4930 H 455.858 5.26508 0.09841 0
M  V30 4931 H 458.349 3.76427 -0.333294 0
M  V30 4932 H 458.662 7.6175 -1.30219 0
M  V30 4933 H 457.007 6.85179 -1.16425 0
M  V30 4934 H 460.198 4.65457 -0.496705 0
M  V30 4935 H 460.371 6.41171 -0.938306 0
M  V30 4936 N 453.777 0.010035 1.57597 0
M  V30 4937 C 455.024 -0.6727 1.91 0
M  V30 4938 C 455.352 -1.73219 0.884614 0
M  V30 4939 O 454.607 -1.95395 -0.109215 0
M  V30 4940 C 454.906 -1.34434 3.31153 0
M  V30 4941 C 454.572 -0.417083 4.48967 0
M  V30 4942 C 453.234 -0.161809 4.80928 0
M  V30 4943 C 455.586 0.220753 5.20732 0
M  V30 4944 C 452.914 0.739426 5.82022 0
M  V30 4945 C 455.266 1.10993 6.22787 0
M  V30 4946 C 453.93 1.37428 6.532 0
M  V30 4947 H 453.2 -0.246158 0.698918 0
M  V30 4948 H 455.847 0.0677145 1.9138 0
M  V30 4949 H 454.152 -2.15905 3.26944 0
M  V30 4950 H 455.849 -1.87883 3.54261 0
M  V30 4951 H 452.439 -0.626217 4.24001 0
M  V30 4952 H 456.623 0.0365643 4.96287 0
M  V30 4953 H 451.879 0.952139 6.03941 0
M  V30 4954 H 456.053 1.61046 6.77523 0
M  V30 4955 H 453.68 2.0743 7.31353 0
M  V30 4956 N 455.255 -1.55392 -0.262866 0
M  V30 4957 C 456.501 -1.76737 -0.99458 0
M  V30 4958 C 456.834 -0.572453 -1.85571 0
M  V30 4959 O 456.109 0.429732 -1.89693 0
M  V30 4960 C 456.392 -3.07824 -1.8686 0
M  V30 4961 C 456.245 -4.3769 -1.03672 0
M  V30 4962 C 457.564 -3.35021 -2.85393 0
M  V30 4963 H 454.683 -0.643005 -0.360157 0
M  V30 4964 H 457.325 -1.88126 -0.266216 0
M  V30 4965 H 455.475 -2.98245 -2.48962 0
M  V30 4966 H 457.147 -4.59238 -0.43563 0
M  V30 4967 H 455.39 -4.32461 -0.340513 0
M  V30 4968 H 456.061 -5.25759 -1.6817 0
M  V30 4969 H 458.537 -3.44458 -2.33426 0
M  V30 4970 H 457.413 -4.27989 -3.43681 0
M  V30 4971 H 457.674 -2.55153 -3.61039 0
M  V30 4972 N 456.733 0.527833 -1.48498 0
M  V30 4973 C 457.643 1.65907 -1.65867 0
M  V30 4974 C 458.659 1.6537 -0.541192 0
M  V30 4975 O 459.835 1.84282 -0.812534 0
M  V30 4976 C 456.9 3.02364 -1.69637 0
M  V30 4977 C 455.961 3.1374 -2.93028 0
M  V30 4978 C 455.194 4.43688 -2.96609 0
M  V30 4979 O 455.417 5.30913 -2.08538 0
M  V30 4980 O 454.351 4.59475 -3.88802 0
M  V30 4981 H 458.177 1.5419 -2.61647 0
M  V30 4982 H 455.762 0.701163 -1.31924 0
M  V30 4983 H 457.644 3.83515 -1.74625 0
M  V30 4984 H 456.319 3.14401 -0.770312 0
M  V30 4985 H 455.226 2.31877 -2.93571 0
M  V30 4986 H 456.559 3.06621 -3.85026 0
M  V30 4987 N 458.211 1.37122 0.776871 0
M  V30 4988 C 459.141 1.35164 1.90402 0
M  V30 4989 C 460.122 0.221069 1.68657 0
M  V30 4990 O 461.307 0.420642 1.8959 0
M  V30 4991 C 458.437 1.15274 3.27611 0
M  V30 4992 C 457.391 2.25289 3.63908 0
M  V30 4993 C 456.717 1.90527 4.99603 0
M  V30 4994 C 458.017 3.67446 3.71188 0
M  V30 4995 H 459.711 2.29482 1.92297 0
M  V30 4996 H 457.257 1.10465 0.923773 0
M  V30 4997 H 459.21 1.12536 4.06096 0
M  V30 4998 H 457.934 0.174102 3.26136 0
M  V30 4999 H 456.593 2.27174 2.87728 0
M  V30 5000 H 456.241 0.91206 4.94662 0
M  V30 5001 H 455.941 2.64193 5.24858 0
M  V30 5002 H 457.465 1.89367 5.80493 0
M  V30 5003 H 458.879 3.67719 4.39836 0
M  V30 5004 H 457.276 4.40123 4.07936 0
M  V30 5005 H 458.346 4.01443 2.71977 0
M  V30 5006 N 459.689 -1.00246 1.21608 0
M  V30 5007 C 460.619 -2.10921 1.00172 0
M  V30 5008 C 461.6 -1.69938 -0.0741587 0
M  V30 5009 O 462.785 -1.94009 0.0861753 0
M  V30 5010 C 459.915 -3.42618 0.568355 0
M  V30 5011 C 458.869 -3.97407 1.58909 0
M  V30 5012 C 458.195 -5.25038 1.01187 0
M  V30 5013 C 459.495 -4.2918 2.97661 0
M  V30 5014 H 461.189 -2.29112 1.92739 0
M  V30 5015 H 458.735 -1.10101 0.928102 0
M  V30 5016 H 460.688 -4.19444 0.405555 0
M  V30 5017 H 459.412 -3.24227 -0.392961 0
M  V30 5018 H 458.071 -3.22703 1.73949 0
M  V30 5019 H 457.719 -5.02982 0.0421965 0
M  V30 5020 H 457.419 -5.62661 1.6937 0
M  V30 5021 H 458.943 -6.04507 0.860448 0
M  V30 5022 H 460.357 -4.96839 2.86049 0
M  V30 5023 H 458.754 -4.77952 3.6288 0
M  V30 5024 H 459.824 -3.3735 3.48315 0
M  V30 5025 N 461.167 -1.02423 -1.1978 0
M  V30 5026 C 462.1 -0.545641 -2.21581 0
M  V30 5027 C 463.078 0.411024 -1.57319 0
M  V30 5028 O 464.262 0.329223 -1.85603 0
M  V30 5029 C 461.389 0.204973 -3.38079 0
M  V30 5030 C 460.435 -0.70241 -4.20676 0
M  V30 5031 S 461.268 -2.17595 -4.89298 0
M  V30 5032 C 462.424 -1.43572 -6.09211 0
M  V30 5033 H 462.657 -1.4082 -2.61834 0
M  V30 5034 H 460.19 -0.833771 -1.29952 0
M  V30 5035 H 462.148 0.631924 -4.05607 0
M  V30 5036 H 460.809 1.0432 -2.9627 0
M  V30 5037 H 460.002 -0.123193 -5.03849 0
M  V30 5038 H 459.604 -1.06747 -3.58442 0
M  V30 5039 H 461.896 -0.719806 -6.73665 0
M  V30 5040 H 462.839 -2.24388 -6.71607 0
M  V30 5041 H 463.247 -0.935252 -5.56699 0
M  V30 5042 N 462.645 1.35699 -0.801477 0
M  V30 5043 C 463.891 1.99643 -0.389135 0
M  V30 5044 C 464.246 1.62447 1.03095 0
M  V30 5045 O 463.539 0.875064 1.7045 0
M  V30 5046 C 463.733 3.53828 -0.504041 0
M  V30 5047 C 463.562 4.06 -1.93375 0
M  V30 5048 C 462.332 4.35592 -2.561 0
M  V30 5049 C 464.53 4.24905 -2.89759 0
M  V30 5050 N 462.512 4.73663 -3.90534 0
M  V30 5051 C 463.883 4.65914 -4.09052 0
M  V30 5052 C 465.938 4.07101 -2.86658 0
M  V30 5053 C 464.641 4.90984 -5.25669 0
M  V30 5054 C 466.667 4.33324 -4.02472 0
M  V30 5055 C 466.029 4.74601 -5.20512 0
M  V30 5056 H 462.128 0.758552 -0.19006 0
M  V30 5057 H 464.712 1.64493 -1.04164 0
M  V30 5058 H 462.883 3.88219 0.118437 0
M  V30 5059 H 464.615 4.04645 -0.0667794 0
M  V30 5060 H 461.37 4.25728 -2.07492 0
M  V30 5061 H 461.794 4.96965 -4.59734 0
M  V30 5062 H 466.436 3.74335 -1.96552 0
M  V30 5063 H 464.154 5.22626 -6.1635 0
M  V30 5064 H 467.74 4.21107 -4.01447 0
M  V30 5065 H 466.62 4.94497 -6.08639 0
M  V30 5066 N 464.123 0.554532 1.47522 0
M  V30 5067 C 465.539 0.214107 1.58157 0
M  V30 5068 C 465.739 -1.28331 1.55349 0
M  V30 5069 O 464.795 -2.06329 1.45549 0
M  V30 5070 C 466.108 0.838391 2.88776 0
M  V30 5071 C 467.656 0.809374 3.02354 0
M  V30 5072 C 468.131 1.41268 4.35669 0
M  V30 5073 N 469.622 1.37574 4.42298 0
M  V30 5074 C 470.357 1.8122 5.4401 0
M  V30 5075 N 469.853 2.3271 6.52547 0
M  V30 5076 N 471.646 1.72307 5.35039 0
M  V30 5077 H 463.797 1.52744 1.4759 0
M  V30 5078 H 466.06 0.636812 0.702264 0
M  V30 5079 H 465.766 1.89065 2.96559 0
M  V30 5080 H 465.64 0.329847 3.75755 0
M  V30 5081 H 468.027 -0.234187 2.94169 0
M  V30 5082 H 468.108 1.35565 2.16924 0
M  V30 5083 H 467.752 2.45529 4.4461 0
M  V30 5084 H 467.682 0.841871 5.19827 0
M  V30 5085 H 470.173 0.999081 3.64454 0
M  V30 5086 H 470.486 2.63944 7.26329 0
M  V30 5087 H 468.831 2.36719 6.53444 0
M  V30 5088 H 472.022 1.3186 4.49144 0
M  V30 5089 H 472.195 2.06641 6.14169 0
M  V30 5090 N 465.601 -1.54893 0.290851 0
M  V30 5091 C 466.878 -1.91991 -0.373989 0
M  V30 5092 C 467.258 -1.21694 -1.72493 0
M  V30 5093 O 466.606 -0.34917 -2.25816 0
M  V30 5094 C 466.816 -3.45419 -0.498703 0
M  V30 5095 C 468.164 -4.1748 -0.774298 0
M  V30 5096 O 469.188 -3.51398 -0.582908 0
M  V30 5097 O 468.047 -5.3445 -1.14129 0
M  V30 5098 H 465.141 -0.800593 -0.207315 0
M  V30 5099 H 467.687 -1.66297 0.338164 0
M  V30 5100 H 466.459 -3.88688 0.451392 0
M  V30 5101 H 466.082 -3.77117 -1.25972 0
M  V30 5102 N 467.08 -0.0183926 -1.57589 0
M  V30 5103 C 468.03 0.975944 -2.06057 0
M  V30 5104 C 469.014 1.29204 -0.958908 0
M  V30 5105 O 470.206 1.27995 -1.22255 0
M  V30 5106 C 467.335 2.26194 -2.58247 0
M  V30 5107 C 466.421 1.97467 -3.75323 0
M  V30 5108 N 466.812 1.38968 -4.86335 0
M  V30 5109 C 465.11 2.27515 -3.83605 0
M  V30 5110 C 465.811 1.27131 -5.67638 0
M  V30 5111 N 464.787 1.76319 -5.14211 0
M  V30 5112 H 468.589 0.518444 -2.89291 0
M  V30 5113 H 466.103 0.18688 -1.61321 0
M  V30 5114 H 468.1 2.98289 -2.91255 0
M  V30 5115 H 466.76 2.7258 -1.76438 0
M  V30 5116 H 467.771 1.06608 -5.06809 0
M  V30 5117 H 464.448 2.76649 -3.12684 0
M  V30 5118 H 465.838 0.819882 -6.66879 0
M  V30 5119 N 468.558 1.5553 0.254621 0
M  V30 5120 C 469.969 1.67518 0.824286 0
M  V30 5121 C 470.32 0.614429 1.86331 0
M  V30 5122 O 469.445 -0.240736 2.15057 0
M  V30 5123 C 470.04 3.03692 1.50189 0
M  V30 5124 C 468.599 3.17646 2.01935 0
M  V30 5125 C 467.746 2.63373 0.867746 0
M  V30 5126 H 470.697 1.58671 0.0305843 0
M  V30 5127 H 470.718 2.97706 2.36962 0
M  V30 5128 H 470.23 3.80874 0.745431 0
M  V30 5129 H 468.331 2.45273 2.80485 0
M  V30 5130 H 468.444 4.24455 2.22204 0
M  V30 5131 H 466.808 2.20999 1.26616 0
M  V30 5132 H 467.591 3.43074 0.124498 0
M  V30 5133 N 470.036 -0.519951 1.48776 0
M  V30 5134 C 470.946 -1.65025 1.66745 0
M  V30 5135 C 471.962 -1.6508 0.549954 0
M  V30 5136 O 473.138 -1.83848 0.822295 0
M  V30 5137 C 470.203 -3.0146 1.71238 0
M  V30 5138 C 469.264 -3.12182 2.94688 0
M  V30 5139 C 468.497 -4.42109 2.98958 0
M  V30 5140 O 468.72 -5.29799 2.1135 0
M  V30 5141 O 467.654 -4.57406 3.91233 0
M  V30 5142 H 471.48 -1.52801 2.62461 0
M  V30 5143 H 469.065 -0.694157 1.32294 0
M  V30 5144 H 470.947 -3.82584 1.76657 0
M  V30 5145 H 469.622 -3.13988 0.786975 0
M  V30 5146 H 468.529 -2.30316 2.94797 0
M  V30 5147 H 469.862 -3.04574 3.86646 0
M  V30 5148 N 471.514 -1.37532 -0.769588 0
M  V30 5149 C 472.744 -1.35861 -1.55645 0
M  V30 5150 C 473.152 0.0574398 -1.89113 0
M  V30 5151 O 472.495 1.03021 -1.52093 0
M  V30 5152 C 472.557 -2.13431 -2.89288 0
M  V30 5153 C 472.221 -3.62378 -2.78444 0
M  V30 5154 C 473.218 -4.56215 -2.49326 0
M  V30 5155 C 470.903 -4.05529 -2.96398 0
M  V30 5156 C 472.897 -5.91181 -2.38294 0
M  V30 5157 C 470.584 -5.40579 -2.84987 0
M  V30 5158 C 471.582 -6.33218 -2.55975 0
M  V30 5159 O 471.27 -7.65787 -2.44594 0
M  V30 5160 H 471.002 -0.467001 -0.48876 0
M  V30 5161 H 473.556 -1.81505 -0.961515 0
M  V30 5162 H 471.786 -1.62481 -3.50909 0
M  V30 5163 H 473.475 -2.04368 -3.50697 0
M  V30 5164 H 474.241 -4.24187 -2.35139 0
M  V30 5165 H 470.12 -3.33781 -3.1798 0
M  V30 5166 H 473.664 -6.63457 -2.15571 0
M  V30 5167 H 469.561 -5.72209 -2.98743 0
M  V30 5168 H 470.329 -7.76132 -2.59927 0
M  V30 5169 N 472.992 0.995999 -1.22138 0
M  V30 5170 C 474.403 1.54961 -1.04135 0
M  V30 5171 C 474.754 1.92159 0.396147 0
M  V30 5172 O 473.879 1.74435 1.28069 0
M  V30 5173 C 474.474 2.81581 -1.88408 0
M  V30 5174 C 473.033 3.33396 -1.74712 0
M  V30 5175 C 472.18 2.06509 -1.85066 0
M  V30 5176 H 475.131 0.817436 -1.36028 0
M  V30 5177 H 475.152 3.53822 -1.39966 0
M  V30 5178 H 474.664 2.54476 -2.93025 0
M  V30 5179 H 472.765 3.65416 -0.728159 0
M  V30 5180 H 472.878 4.04208 -2.57202 0
M  V30 5181 H 471.242 2.19925 -1.28472 0
M  V30 5182 H 472.025 1.81804 -2.91208 0
M  V30 5183 N 474.47 1.03057 1.19235 0
M  V30 5184 C 475.717 0.728019 1.88961 0
M  V30 5185 C 476.045 -0.743515 1.79728 0
M  V30 5186 O 475.3 -1.55729 1.1852 0
M  V30 5187 C 475.599 1.1268 3.39172 0
M  V30 5188 C 475.265 2.5969 3.68608 0
M  V30 5189 C 473.927 2.99854 3.76352 0
M  V30 5190 C 476.279 3.54793 3.81801 0
M  V30 5191 C 473.607 4.34031 3.94758 0
M  V30 5192 C 475.959 4.88675 4.0172 0
M  V30 5193 C 474.623 5.28526 4.07697 0
M  V30 5194 H 473.893 0.266401 0.691456 0
M  V30 5195 H 476.54 1.29373 1.41191 0
M  V30 5196 H 474.845 0.479722 3.88852 0
M  V30 5197 H 476.542 0.870203 3.91444 0
M  V30 5198 H 473.132 2.27575 3.63191 0
M  V30 5199 H 477.316 3.24914 3.7516 0
M  V30 5200 H 472.572 4.6444 3.97625 0
M  V30 5201 H 476.746 5.6228 4.1087 0
M  V30 5202 H 474.373 6.32506 4.21712 0
M  V30 5203 N 475.948 -1.35272 0.808662 0
M  V30 5204 C 476.898 -2.27181 0.193124 0
M  V30 5205 C 477.882 -1.47871 -0.634265 0
M  V30 5206 O 479.074 -1.70048 -0.491182 0
M  V30 5207 C 476.203 -3.36979 -0.655751 0
M  V30 5208 C 475.289 -4.23712 0.181481 0
M  V30 5209 N 475.68 -4.90225 1.24551 0
M  V30 5210 C 473.978 -4.45985 -0.0365493 0
M  V30 5211 C 474.679 -5.54537 1.75682 0
M  V30 5212 N 473.655 -5.33107 1.06294 0
M  V30 5213 H 477.457 -2.76101 1.00724 0
M  V30 5214 H 474.971 -1.48823 0.650029 0
M  V30 5215 H 476.968 -4.01774 -1.11279 0
M  V30 5216 H 475.628 -2.89611 -1.46819 0
M  V30 5217 H 476.639 -4.91641 1.62818 0
M  V30 5218 H 473.316 -4.09409 -0.817964 0
M  V30 5219 H 474.706 -6.17597 2.64621 0
M  V30 5220 N 477.426 -0.562348 -1.47226 0
M  V30 5221 C 478.703 0.0256985 -1.95583 0
M  V30 5222 C 479.083 1.48032 -1.50498 0
M  V30 5223 O 478.431 2.15973 -0.746181 0
M  V30 5224 C 478.641 -0.125129 -3.48776 0
M  V30 5225 C 479.989 0.0175728 -4.24596 0
M  V30 5226 O 481.013 -0.0529341 -3.56161 0
M  V30 5227 O 479.872 0.170145 -5.46235 0
M  V30 5228 H 476.966 0.0612565 -0.824728 0
M  V30 5229 H 479.512 -0.629233 -1.57603 0
M  V30 5230 H 478.284 -1.13715 -3.74412 0
M  V30 5231 H 477.907 0.567178 -3.93534 0
M  V30 5232 N 478.904 1.54736 -0.299062 0
M  V30 5233 C 479.814 2.27127 0.587413 0
M  V30 5234 C 480.83 1.30575 1.15005 0
M  V30 5235 O 482.006 1.63554 1.17525 0
M  V30 5236 C 479.071 2.99645 1.74395 0
M  V30 5237 C 478.132 4.11731 1.21559 0
M  V30 5238 C 477.365 4.80781 2.317 0
M  V30 5239 O 477.588 4.4918 3.51558 0
M  V30 5240 O 476.522 5.68226 1.98501 0
M  V30 5241 H 480.348 3.037 0.000250109 0
M  V30 5242 H 477.933 1.49256 -0.0655919 0
M  V30 5243 H 479.815 3.45138 2.4178 0
M  V30 5244 H 478.49 2.25969 2.31775 0
M  V30 5245 H 477.397 3.70641 0.507514 0
M  V30 5246 H 478.73 4.87379 0.687233 0
M  V30 5247 N 480.382 0.0267497 1.57577 0
M  V30 5248 C 481.612 -0.6617 1.95717 0
M  V30 5249 C 482.02 -1.66331 0.901706 0
M  V30 5250 O 481.363 -1.83273 -0.125241 0
M  V30 5251 C 481.425 -1.42649 3.29987 0
M  V30 5252 C 481.089 -0.583482 4.5326 0
M  V30 5253 C 482.086 0.140221 5.19711 0
M  V30 5254 C 479.771 -0.521581 4.99585 0
M  V30 5255 C 481.765 0.914523 6.30805 0
M  V30 5256 C 479.452 0.256428 6.10562 0
M  V30 5257 C 480.45 0.973189 6.76031 0
M  V30 5258 O 480.138 1.73845 7.84878 0
M  V30 5259 H 479.87 -0.187483 0.649481 0
M  V30 5260 H 482.424 0.0820847 2.05236 0
M  V30 5261 H 480.654 -2.21536 3.16952 0
M  V30 5262 H 482.343 -2.00282 3.53047 0
M  V30 5263 H 483.109 0.101716 4.84893 0
M  V30 5264 H 478.988 -1.06904 4.48433 0
M  V30 5265 H 482.532 1.4745 6.81839 0
M  V30 5266 H 478.429 0.296657 6.44818 0
M  V30 5267 H 479.197 1.65797 8.01532 0
M  V30 5268 O 481.899 -1.6109 -0.114939 0
M  V30 5269 H 482.59 -1.78767 -0.745784 0
M  V30 END ATOM
M  V30 BEGIN BOND
M  V30 END BOND
M  V30 END CTAB
M  END
$$$$
