drugbank_target|P46859 Thermoresistant gluconokinase (DB02076; DB03909)
 OpenBabel12092119543D

  0  0  0     0  0            999 V3000
M  V30 BEGIN CTAB
M  V30 COUNTS 2747 2773 0 0 0
M  V30 BEGIN ATOM
M  V30 1 H -0.908 1.98254 -0.117106 0
M  V30 2 N 0 1.576 0 0
M  V30 3 C 0.933 2.03868 1.02534 0
M  V30 4 C 1.911 0.928543 1.3348 0
M  V30 5 O 3.095 1.19667 1.45644 0
M  V30 6 C 0.222 2.43627 2.35294 0
M  V30 7 C -0.732 3.65373 2.2001 0
M  V30 8 S 0.101 5.13292 1.52614 0
M  V30 9 C 1.257 5.56322 2.86805 0
M  V30 10 H 1.49 2.90518 0.631377 0
M  V30 11 H -0.977 1.52953 0.210867 0
M  V30 12 H 0.981 2.67203 3.11629 0
M  V30 13 H -0.358 1.57376 2.7183 0
M  V30 14 H -1.165 3.90944 3.18086 0
M  V30 15 H -1.563 3.418 1.51819 0
M  V30 16 H 0.729 5.58782 3.83104 0
M  V30 17 H 1.672 6.56266 2.65933 0
M  V30 18 H 2.08 4.83886 2.90714 0
M  V30 19 N 1.4781 -0.272755 1.55222 0
M  V30 20 C 2.7031 -1.02683 1.80197 0
M  V30 21 C 3.1281 -1.79142 0.573551 0
M  V30 22 O 2.4861 -1.74917 -0.476849 0
M  V30 23 C 2.5341 -1.9609 3.02624 0
M  V30 24 O 1.6381 -3.04863 2.77727 0
M  V30 25 H 0.9791 -0.293557 0.595584 0
M  V30 26 H 3.5091 -0.30159 2.02365 0
M  V30 27 H 3.5191 -2.38039 3.31363 0
M  V30 28 H 2.1941 -1.39851 3.91682 0
M  V30 29 H 0.7711 -2.67228 2.60084 0
M  V30 30 N 2.9562 -1.48159 -0.537278 0
M  V30 31 C 4.1842 -1.59454 -1.31841 0
M  V30 32 C 4.5992 -0.252065 -1.8711 0
M  V30 33 O 3.9562 0.757621 -1.66031 0
M  V30 34 C 4.0072 -2.63546 -2.47439 0
M  V30 35 O 3.7282 -3.92583 -1.94449 0
M  V30 36 C 5.2292 -2.85212 -3.39366 0
M  V30 37 H 2.4492 -0.53785 -0.401196 0
M  V30 38 H 4.9932 -1.93932 -0.648891 0
M  V30 39 H 3.1482 -2.31946 -3.1029 0
M  V30 40 H 3.5622 -4.49629 -2.70063 0
M  V30 41 H 5.0362 -3.61863 -4.16844 0
M  V30 42 H 5.5132 -1.93765 -3.94147 0
M  V30 43 H 6.1192 -3.18086 -2.82314 0
M  V30 44 N 4.4343 0.785586 -1.36625 0
M  V30 45 C 5.6623 1.57448 -1.3423 0
M  V30 46 C 6.0773 1.88649 0.0755653 0
M  V30 47 O 5.4343 1.50414 1.03354 0
M  V30 48 C 5.4853 2.89316 -2.16745 0
M  V30 49 O 5.2063 2.59459 -3.53005 0
M  V30 50 C 6.7073 3.83606 -2.22174 0
M  V30 51 H 3.9273 0.488226 -0.4603 0
M  V30 52 H 6.4713 0.974733 -1.79775 0
M  V30 53 H 4.6263 3.4575 -1.74745 0
M  V30 54 H 5.0403 3.43804 -3.96105 0
M  V30 55 H 6.5143 4.73181 -2.8426 0
M  V30 56 H 6.9913 4.21734 -1.22627 0
M  V30 57 H 7.5973 3.33104 -2.64427 0
M  V30 58 N 5.9124 1.20967 1.01018 0
M  V30 59 C 6.8604 0.961223 2.1181 0
M  V30 60 C 7.8544 -0.0897034 1.69162 0
M  V30 61 O 9.0604 0.0612271 1.79896 0
M  V30 62 H 5.4354 0.29355 0.692338 0
M  V30 63 H 7.4064 1.90178 2.29946 0
M  V30 64 C 6.1554 0.536854 3.4353 0
M  V30 65 H 5.4784 1.33713 3.76777 0
M  V30 66 H 6.9184 0.402286 4.22087 0
M  V30 67 C 5.3774 -0.751574 3.2841 0
M  V30 68 O 5.9074 -1.80841 3.58691 0
M  V30 69 N 4.1134 -0.716079 2.81639 0
M  V30 70 H 3.6604 0.144236 2.57196 0
M  V30 71 H 3.6184 -1.57847 2.71904 0
M  V30 72 N 7.3905 -1.2043 1.01659 0
M  V30 73 C 8.3405 -2.21076 0.557623 0
M  V30 74 C 9.3245 -1.56176 -0.387029 0
M  V30 75 O 10.5165 -1.7575 -0.209996 0
M  V30 76 C 7.6455 -3.43146 -0.102707 0
M  V30 77 C 6.7315 -4.15213 0.863652 0
M  V30 78 N 7.1225 -4.63662 2.02117 0
M  V30 79 C 5.4205 -4.40716 0.684472 0
M  V30 80 C 6.1215 -5.18868 2.62966 0
M  V30 81 N 5.0975 -5.0893 1.91027 0
M  V30 82 H 8.8995 -2.56201 1.44008 0
M  V30 83 H 6.4135 -1.36366 0.881931 0
M  V30 84 H 8.4105 -4.14475 -0.449054 0
M  V30 85 H 7.0705 -3.09526 -0.981003 0
M  V30 86 H 8.0815 -4.58877 2.40109 0
M  V30 87 H 4.7585 -4.17245 -0.14577 0
M  V30 88 H 6.1485 -5.6673 3.60924 0
M  V30 89 N 8.8686 -0.792821 -1.36206 0
M  V30 90 C 10.1456 -0.290627 -1.93429 0
M  V30 91 C 10.5256 1.21773 -1.72437 0
M  V30 92 O 9.8736 2.0108 -1.08531 0
M  V30 93 C 10.0836 -0.686973 -3.42172 0
M  V30 94 C 11.4316 -0.668643 -4.19302 0
M  V30 95 O 12.4556 -0.627658 -3.50626 0
M  V30 96 O 11.3146 -0.714597 -5.41808 0
M  V30 97 H 8.4086 -0.0727927 -0.82379 0
M  V30 98 H 10.9546 -0.875593 -1.45367 0
M  V30 99 H 9.7266 -1.72711 -3.51122 0
M  V30 100 H 9.3496 -0.0760733 -3.97527 0
M  V30 101 N 10.3467 1.47872 -0.545128 0
M  V30 102 C 11.2967 2.26842 0.229456 0
M  V30 103 C 12.2807 1.33626 0.896267 0
M  V30 104 O 13.4727 1.58063 0.79657 0
M  V30 105 C 10.6017 3.19089 1.26638 0
M  V30 106 C 9.6877 4.19783 0.603598 0
M  V30 107 N 10.0787 5.0479 -0.319405 0
M  V30 108 C 8.3767 4.3765 0.858989 0
M  V30 109 C 9.0777 5.77433 -0.703241 0
M  V30 110 N 8.0537 5.43566 -0.0608309 0
M  V30 111 H 11.8557 2.89947 -0.480391 0
M  V30 112 H 9.3697 1.58263 -0.364209 0
M  V30 113 H 11.3667 3.74337 1.83515 0
M  V30 114 H 10.0267 2.5754 1.97745 0
M  V30 115 H 11.0377 5.13244 -0.692889 0
M  V30 116 H 7.7147 3.87281 1.55948 0
M  V30 117 H 9.1047 6.55824 -1.46098 0
M  V30 118 N 11.8248 0.280983 1.55075 0
M  V30 119 C 12.7748 -0.618585 2.19448 0
M  V30 120 C 13.7588 -1.11401 1.16098 0
M  V30 121 O 14.9508 -1.0581 1.41891 0
M  V30 122 C 12.0798 -1.79951 2.92357 0
M  V30 123 C 11.1658 -1.321 4.03002 0
M  V30 124 N 11.5568 -0.559044 5.02701 0
M  V30 125 C 9.8548 -1.60346 4.16179 0
M  V30 126 C 10.5558 -0.306722 5.80891 0
M  V30 127 N 9.5318 -0.880825 5.36416 0
M  V30 128 H 13.3338 -0.0286638 2.93886 0
M  V30 129 H 10.8478 0.0848104 1.62178 0
M  V30 130 H 12.8448 -2.45531 3.36927 0
M  V30 131 H 11.5048 -2.39333 2.19431 0
M  V30 132 H 12.5158 -0.205827 5.17491 0
M  V30 133 H 9.1928 -2.20621 3.54447 0
M  V30 134 H 10.5828 0.30391 6.71212 0
M  V30 135 N 13.3029 -1.57598 0.00835791 0
M  V30 136 C 14.5519 -1.90107 -0.673968 0
M  V30 137 C 14.8649 -0.884275 -1.7447 0
M  V30 138 O 16.0709 -1.09987 -2.48224 0
M  V30 139 C 14.5269 -3.37497 -1.24995 0
M  V30 140 C 14.1349 -4.47491 -0.2136 0
M  V30 141 C 15.8789 -3.79104 -1.90999 0
M  V30 142 C 13.7859 -5.85963 -0.80005 0
M  V30 143 H 12.7159 -0.709393 -0.255495 0
M  V30 144 H 15.3669 -1.83365 0.0702693 0
M  V30 145 H 13.7489 -3.39102 -2.04513 0
M  V30 146 H 14.9229 -4.57414 0.557596 0
M  V30 147 H 13.2379 -4.14956 0.346474 0
M  V30 148 H 15.8349 -4.79901 -2.35795 0
M  V30 149 H 16.1779 -3.1306 -2.74407 0
M  V30 150 H 16.7109 -3.79833 -1.18203 0
M  V30 151 H 13.4499 -6.555 -0.00456708 0
M  V30 152 H 12.9699 -5.79687 -1.54021 0
M  V30 153 H 14.6489 -6.33884 -1.29615 0
M  V30 154 N 14.781 0.264519 -1.55364 0
M  V30 155 C 16.011 1.01153 -1.80143 0
M  V30 156 C 16.419 1.80115 -0.579253 0
M  V30 157 O 15.762 1.77813 0.46132 0
M  V30 158 C 15.824 2.01098 -2.97993 0
M  V30 159 C 15.488 1.40995 -4.34706 0
M  V30 160 C 16.485 0.821316 -5.13372 0
M  V30 161 C 14.17 1.43461 -4.81378 0
M  V30 162 C 16.164 0.265339 -6.36847 0
M  V30 163 C 13.851 0.874771 -6.04807 0
M  V30 164 C 14.849 0.291146 -6.82379 0
M  V30 165 O 14.537 -0.260093 -8.03479 0
M  V30 166 H 14.269 0.304125 -0.603725 0
M  V30 167 H 16.823 0.298089 -2.03225 0
M  V30 168 H 15.053 2.76224 -2.70623 0
M  V30 169 H 16.742 2.61997 -3.1002 0
M  V30 170 H 17.508 0.794903 -4.78442 0
M  V30 171 H 13.387 1.87826 -4.21002 0
M  V30 172 H 16.931 -0.190837 -6.97339 0
M  V30 173 H 12.828 0.898452 -6.39217 0
M  V30 174 H 13.596 -0.150265 -8.18362 0
M  V30 175 N 16.2591 1.48442 0.529413 0
M  V30 176 C 17.5051 1.5672 1.28711 0
M  V30 177 C 17.8381 0.2406 1.92704 0
M  V30 178 O 17.1131 -0.753454 1.79313 0
M  V30 179 C 17.3961 2.70587 2.37603 0
M  V30 180 C 17.2491 4.12953 1.78297 0
M  V30 181 C 18.5681 2.80212 3.39366 0
M  V30 182 H 15.6871 0.570474 0.466613 0
M  V30 183 H 18.3291 1.80617 0.589706 0
M  V30 184 H 16.4791 2.50342 2.97088 0
M  V30 185 H 18.1511 4.44639 1.22858 0
M  V30 186 H 16.3941 4.19927 1.0883 0
M  V30 187 H 17.0651 4.88448 2.57144 0
M  V30 188 H 19.5411 2.98553 2.89836 0
M  V30 189 H 18.4171 3.61611 4.12951 0
M  V30 190 H 18.6781 1.88393 3.99951 0
M  V30 191 N 17.7372 -0.778329 1.37039 0
M  V30 192 C 18.6672 -1.90546 1.34962 0
M  V30 193 C 19.6482 -1.68681 0.219274 0
M  V30 194 O 20.8332 -1.89634 0.418624 0
M  V30 195 C 17.9632 -3.27734 1.14925 0
M  V30 196 C 16.9172 -3.64147 2.24902 0
M  V30 197 C 16.2432 -4.99806 1.89996 0
M  V30 198 C 17.5432 -3.71579 3.67051 0
M  V30 199 H 19.2372 -1.92541 2.29277 0
M  V30 200 H 16.7832 -0.924948 1.10366 0
M  V30 201 H 18.7362 -4.06215 1.12104 0
M  V30 202 H 17.4602 -3.26154 0.170631 0
M  V30 203 H 16.1192 -2.8797 2.26868 0
M  V30 204 H 15.7672 -4.94759 0.906796 0
M  V30 205 H 15.4672 -5.25139 2.63634 0
M  V30 206 H 16.9912 -5.80694 1.88749 0
M  V30 207 H 18.4052 -4.40227 3.67251 0
M  V30 208 H 16.8022 -4.08405 4.39688 0
M  V30 209 H 17.8722 -2.72404 4.01154 0
M  V30 210 N 19.2153 -1.21501 -1.00376 0
M  V30 211 C 20.1483 -0.918669 -2.08892 0
M  V30 212 C 21.1263 0.134277 -1.62045 0
M  V30 213 O 22.3103 0.00504255 -1.88499 0
M  V30 214 C 19.4373 -0.379645 -3.36566 0
M  V30 215 C 18.4833 -1.41559 -4.02323 0
M  V30 216 S 19.3163 -2.98521 -4.44574 0
M  V30 217 C 20.4723 -2.46228 -5.75433 0
M  V30 218 H 20.7053 -1.83761 -2.33707 0
M  V30 219 H 18.2383 -1.04489 -1.13673 0
M  V30 220 H 20.1963 -0.0752195 -4.10431 0
M  V30 221 H 18.8573 0.518008 -3.09799 0
M  V30 222 H 18.0503 -0.988076 -4.9422 0
M  V30 223 H 17.6523 -1.66815 -3.34737 0
M  V30 224 H 19.9443 -1.86791 -6.51241 0
M  V30 225 H 20.8873 -3.36572 -6.22997 0
M  V30 226 H 21.2953 -1.87894 -5.32312 0
M  V30 227 N 20.6934 1.19889 -1.02296 0
M  V30 228 C 21.9414 1.89046 -0.714558 0
M  V30 229 C 22.2624 1.79636 0.758681 0
M  V30 230 O 21.5324 1.20292 1.54618 0
M  V30 231 H 20.1124 0.699802 -0.261317 0
M  V30 232 H 22.7744 1.45574 -1.29592 0
M  V30 233 H 21.8704 2.95524 -1.0036 0
M  V30 234 N 22.1715 0.800033 1.35784 0
M  V30 235 C 23.4175 0.377901 1.99248 0
M  V30 236 C 23.7505 -1.05052 1.63333 0
M  V30 237 O 23.0255 -1.72768 0.893385 0
M  V30 238 C 23.3085 0.553922 3.55814 0
M  V30 239 C 23.1615 2.0268 4.01548 0
M  V30 240 C 24.4805 -0.0244802 4.40093 0
M  V30 241 H 21.5995 0.138782 0.723815 0
M  V30 242 H 24.2415 1.00835 1.61035 0
M  V30 243 H 22.3915 0.0172398 3.88496 0
M  V30 244 H 24.0635 2.62536 3.79305 0
M  V30 245 H 22.3065 2.5256 3.52698 0
M  V30 246 H 22.9775 2.10087 5.10458 0
M  V30 247 H 25.4535 0.433775 4.13833 0
M  V30 248 H 24.3295 0.128637 5.48749 0
M  V30 249 H 24.5905 -1.11758 4.27741 0
M  V30 250 N 23.6496 -1.47581 0.552962 0
M  V30 251 C 24.8746 -2.07378 0.0300593 0
M  V30 252 C 25.2996 -1.40355 -1.25229 0
M  V30 253 O 24.6576 -0.477099 -1.7491 0
M  V30 254 C 24.7056 -3.60274 -0.153231 0
M  V30 255 O 23.8096 -3.94041 -1.21678 0
M  V30 256 H 23.1506 -0.662158 0.0494182 0
M  V30 257 H 25.6806 -1.89662 0.767434 0
M  V30 258 H 25.6906 -4.0633 -0.368761 0
M  V30 259 H 24.3656 -4.08455 0.783397 0
M  V30 260 H 22.9426 -3.59735 -0.982079 0
M  V30 261 N 25.1277 -0.289203 -1.54924 0
M  V30 262 C 26.3757 0.322879 -1.99504 0
M  V30 263 C 26.6967 1.55313 -1.1791 0
M  V30 264 O 25.9667 1.94001 -0.272097 0
M  V30 265 H 24.5467 0.122291 -0.736922 0
M  V30 266 H 27.2087 -0.397802 -1.90797 0
M  V30 267 H 26.3047 0.603061 -3.06218 0
M  V30 268 N 26.6058 1.57591 -0.0167156 0
M  V30 269 C 27.8308 1.9598 0.67872 0
M  V30 270 C 28.2558 0.892546 1.65575 0
M  V30 271 O 27.6138 -0.147772 1.80697 0
M  V30 272 C 27.6618 3.33468 1.37227 0
M  V30 273 O 26.7658 3.28954 2.48722 0
M  V30 274 H 26.1068 0.639339 0.17928 0
M  V30 275 H 28.6368 2.04463 -0.0748802 0
M  V30 276 H 28.6468 3.69417 1.7319 0
M  V30 277 H 27.3218 4.10694 0.656007 0
M  V30 278 H 25.8988 3.04705 2.14963 0
M  V30 279 N 28.0839 -0.256276 1.55502 0
M  V30 280 C 29.3319 -0.983672 1.76545 0
M  V30 281 C 29.6529 -1.86206 0.578982 0
M  V30 282 O 28.9229 -1.91656 -0.405577 0
M  V30 283 H 27.5029 -0.366191 0.651086 0
M  V30 284 H 30.1649 -0.276479 1.92929 0
M  V30 285 H 29.2609 -1.61087 2.67315 0
M  V30 286 N 29.562 -1.4872 -0.521534 0
M  V30 287 C 30.509 -1.63871 -1.62527 0
M  V30 288 C 31.479 -0.480559 -1.58996 0
M  V30 289 O 32.664 -0.705085 -1.77294 0
M  V30 290 C 29.804 -1.69227 -3.00759 0
M  V30 291 C 28.917 -2.96207 -3.14461 0
M  V30 292 C 28.052 -2.92671 -4.43303 0
M  V30 293 C 27.091 -4.14318 -4.50563 0
M  V30 294 N 26.228 -4.0881 -5.70805 0
M  V30 295 H 31.068 -2.58123 -1.48918 0
M  V30 296 H 28.605 -1.28 -0.724878 0
M  V30 297 H 30.563 -1.70314 -3.80853 0
M  V30 298 H 29.193 -0.784586 -3.1312 0
M  V30 299 H 28.245 -3.04826 -2.27564 0
M  V30 300 H 29.557 -3.86192 -3.15686 0
M  V30 301 H 28.711 -2.92206 -5.31696 0
M  V30 302 H 27.45 -2.00429 -4.44612 0
M  V30 303 H 26.455 -4.15049 -3.60575 0
M  V30 304 H 27.68 -5.07729 -4.50986 0
M  V30 305 H 25.626 -3.19394 -5.72995 0
M  V30 306 H 25.543 -4.92509 -5.7356 0
M  V30 307 H 26.811 -4.12418 -6.61462 0
M  V30 308 N 31.0401 0.771051 -1.3745 0
M  V30 309 C 32.2651 1.56529 -1.36065 0
M  V30 310 C 32.6901 1.88029 0.0515859 0
M  V30 311 O 32.0481 1.49282 1.02882 0
M  V30 312 C 32.0961 2.85187 -2.20683 0
M  V30 313 O 31.2001 3.79593 -1.61193 0
M  V30 314 H 30.5411 0.47411 -0.464883 0
M  V30 315 H 33.0711 0.954269 -1.80983 0
M  V30 316 H 33.0811 3.34283 -2.33921 0
M  V30 317 H 31.7561 2.61588 -3.23334 0
M  V30 318 H 30.3331 3.38239 -1.56999 0
M  V30 319 N 32.5182 1.22032 0.997298 0
M  V30 320 C 33.4812 0.987909 2.06816 0
M  V30 321 C 34.4812 -0.0440084 1.6074 0
M  V30 322 O 35.6712 0.194053 1.73116 0
M  V30 323 C 32.8032 0.49132 3.37341 0
M  V30 324 H 33.9962 1.93803 2.28868 0
M  V30 325 H 31.5492 1.03838 1.16822 0
M  V30 326 H 32.2842 -0.463364 3.20973 0
M  V30 327 H 32.0692 1.23575 3.72118 0
M  V30 328 H 33.5592 0.348824 4.16141 0
M  V30 329 N 33.9963 -1.19345 1.0293 0
M  V30 330 C 35.2423 -1.89318 0.727083 0
M  V30 331 C 35.5753 -1.79446 -0.742483 0
M  V30 332 O 34.8503 -1.1871 -1.54072 0
M  V30 333 C 35.1333 -3.40238 1.17942 0
M  V30 334 C 34.9863 -3.58979 2.71024 0
M  V30 335 C 36.3053 -4.33479 0.760548 0
M  V30 336 H 33.4243 -0.687475 0.265606 0
M  V30 337 H 36.0663 -1.40477 1.2793 0
M  V30 338 H 34.2163 -3.81964 0.709608 0
M  V30 339 H 35.8883 -3.26421 3.25955 0
M  V30 340 H 34.1313 -3.02018 3.11396 0
M  V30 341 H 34.8023 -4.64823 2.9773 0
M  V30 342 H 37.2783 -3.99469 1.16464 0
M  V30 343 H 36.1543 -5.37664 1.10493 0
M  V30 344 H 36.4153 -4.40813 -0.337063 0
M  V30 345 N 35.4744 -0.807222 -1.35358 0
M  V30 346 C 36.4374 -0.223665 -2.28106 0
M  V30 347 C 37.4374 0.589354 -1.4961 0
M  V30 348 O 38.6274 0.407745 -1.69361 0
M  V30 349 C 35.7594 0.688149 -3.33882 0
M  V30 350 H 36.9524 -1.04169 -2.81227 0
M  V30 351 H 34.5054 -0.577921 -1.45223 0
M  V30 352 H 35.2404 1.52984 -2.85948 0
M  V30 353 H 35.0254 0.10687 -3.91954 0
M  V30 354 H 36.5154 1.09075 -4.03104 0
M  V30 355 N 36.9525 1.47285 -0.560781 0
M  V30 356 C 38.1775 2.07359 -0.0410566 0
M  V30 357 C 38.6025 1.41017 1.24483 0
M  V30 358 O 37.9605 0.486368 1.74654 0
M  V30 359 C 38.0085 3.6035 0.134123 0
M  V30 360 O 37.1125 3.94681 1.19587 0
M  V30 361 H 36.4535 0.661887 -0.0529291 0
M  V30 362 H 38.9835 1.89252 -0.777482 0
M  V30 363 H 38.9935 4.0652 0.347207 0
M  V30 364 H 37.6685 4.08034 -0.805047 0
M  V30 365 H 36.2455 3.60251 0.962987 0
M  V30 366 N 38.4306 0.297415 1.54768 0
M  V30 367 C 39.3406 -0.58983 2.27064 0
M  V30 368 C 40.3566 -1.15144 1.30453 0
M  V30 369 O 41.5326 -1.17699 1.63428 0
M  V30 370 C 38.5976 -1.74714 2.9946 0
M  V30 371 C 37.6586 -1.21997 4.11601 0
M  V30 372 C 36.8916 -2.32212 4.80535 0
M  V30 373 O 37.1146 -3.52036 4.48806 0
M  V30 374 O 36.0486 -1.99106 5.68014 0
M  V30 375 H 39.8746 -0.00348199 3.037 0
M  V30 376 H 37.4596 0.0640035 1.49263 0
M  V30 377 H 39.3416 -2.42147 3.44881 0
M  V30 378 H 38.0166 -2.32016 2.25722 0
M  V30 379 H 36.9236 -0.511458 3.70587 0
M  V30 380 H 38.2566 -0.692419 4.87305 0
M  V30 381 N 39.9087 -1.5758 0.0250728 0
M  V30 382 C 41.1547 -1.91917 -0.655413 0
M  V30 383 C 41.4877 -0.901433 -1.72011 0
M  V30 384 O 40.7627 0.0764069 -1.9435 0
M  V30 385 C 41.0457 -3.36751 -1.27558 0
M  V30 386 C 40.8987 -4.49258 -0.220719 0
M  V30 387 C 42.2177 -3.81469 -2.19475 0
M  V30 388 H 39.3367 -0.697925 -0.23679 0
M  V30 389 H 41.9787 -1.89825 0.0815036 0
M  V30 390 H 40.1287 -3.38664 -1.90365 0
M  V30 391 H 41.8007 -4.59478 0.409601 0
M  V30 392 H 40.0437 -4.31415 0.454264 0
M  V30 393 H 40.7147 -5.47618 -0.694175 0
M  V30 394 H 43.1907 -3.81266 -1.66659 0
M  V30 395 H 42.0667 -4.83512 -2.59822 0
M  V30 396 H 42.3277 -3.16744 -3.08424 0
M  V30 397 N 41.3868 0.248026 -1.55636 0
M  V30 398 C 42.3498 1.29044 -1.89421 0
M  V30 399 C 43.3498 1.41134 -0.770581 0
M  V30 400 O 44.5398 1.39854 -1.03858 0
M  V30 401 C 41.6718 2.66831 -2.12165 0
M  V30 402 H 42.8648 1.00305 -2.82629 0
M  V30 403 H 40.4178 0.487265 -1.48511 0
M  V30 404 H 41.1528 3.00711 -1.21422 0
M  V30 405 H 40.9378 2.59438 -2.93997 0
M  V30 406 H 42.4278 3.42103 -2.3949 0
M  V30 407 N 42.8649 1.48995 0.513639 0
M  V30 408 C 43.8149 1.61127 1.61314 0
M  V30 409 C 44.7989 0.467521 1.53958 0
M  V30 410 O 45.9909 0.719826 1.61702 0
M  V30 411 C 43.1199 1.66937 2.99978 0
M  V30 412 C 42.2059 2.86847 3.12377 0
M  V30 413 N 42.5969 4.11078 2.94701 0
M  V30 414 C 40.8949 2.84521 3.43459 0
M  V30 415 C 41.5959 4.91615 3.10949 0
M  V30 416 N 40.5719 4.24739 3.3926 0
M  V30 417 H 44.3739 2.54909 1.46282 0
M  V30 418 H 41.8879 1.45593 0.719483 0
M  V30 419 H 43.8849 1.73725 3.78979 0
M  V30 420 H 42.5449 0.742831 3.16089 0
M  V30 421 H 43.5559 4.41258 2.71131 0
M  V30 422 H 40.2329 2.01192 3.65825 0
M  V30 423 H 41.6229 6.00264 3.01882 0
M  V30 424 N 44.343 -0.763751 1.37857 0
M  V30 425 C 45.275 -1.88664 1.30148 0
M  V30 426 C 46.288 -1.61365 0.215685 0
M  V30 427 O 47.477 -1.72134 0.472459 0
M  V30 428 C 44.577 -3.24075 0.991396 0
M  V30 429 C 43.75 -3.78958 2.18426 0
M  V30 430 C 42.809 -4.92862 1.8432 0
M  V30 431 O 41.835 -5.08027 2.56704 0
M  V30 432 N 43.037 -5.75071 0.792081 0
M  V30 433 H 45.802 -1.95791 2.26905 0
M  V30 434 H 43.363 -0.943226 1.31586 0
M  V30 435 H 45.355 -3.97804 0.743935 0
M  V30 436 H 43.925 -3.12399 0.112122 0
M  V30 437 H 43.145 -2.96913 2.59299 0
M  V30 438 H 44.433 -4.12357 2.98058 0
M  V30 439 H 43.831 -5.65375 0.191595 0
M  V30 440 H 42.388 -6.48991 0.60449 0
M  V30 441 N 45.8211 -1.22559 -0.990812 0
M  V30 442 C 46.7511 -1.0218 -2.09956 0
M  V30 443 C 47.7321 0.0579394 -1.70001 0
M  V30 444 O 48.9171 -0.104684 -1.93918 0
M  V30 445 C 46.0471 -0.601023 -3.4206 0
M  V30 446 C 45.0011 -1.62694 -3.95872 0
M  V30 447 C 44.3271 -1.06193 -5.24049 0
M  V30 448 C 45.6271 -3.01743 -4.2632 0
M  V30 449 H 47.3211 -1.94916 -2.27262 0
M  V30 450 H 44.8671 -0.938566 -1.09211 0
M  V30 451 H 46.8201 -0.445561 -4.19038 0
M  V30 452 H 45.5441 0.362005 -3.24588 0
M  V30 453 H 44.2031 -1.77021 -3.21028 0
M  V30 454 H 43.8511 -0.0901903 -5.02919 0
M  V30 455 H 43.5511 -1.74732 -5.61019 0
M  V30 456 H 45.0751 -0.918092 -6.03658 0
M  V30 457 H 46.4891 -2.90777 -4.94087 0
M  V30 458 H 44.8861 -3.67425 -4.74467 0
M  V30 459 H 45.9561 -3.51518 -3.34011 0
M  V30 460 N 47.2992 1.18797 -1.03562 0
M  V30 461 C 48.2492 2.20161 -0.592724 0
M  V30 462 C 49.2332 1.56772 0.362133 0
M  V30 463 O 50.4252 1.76062 0.182009 0
M  V30 464 C 47.5542 3.43266 0.0481024 0
M  V30 465 C 46.6402 4.13786 -0.9296 0
M  V30 466 N 47.0312 4.60388 -2.09467 0
M  V30 467 C 45.3292 4.39572 -0.754499 0
M  V30 468 C 46.0302 5.14619 -2.71187 0
M  V30 469 N 45.0062 5.05826 -1.991 0
M  V30 470 H 48.8082 2.53877 -1.48066 0
M  V30 471 H 46.3222 1.34946 -0.903514 0
M  V30 472 H 48.3192 4.15136 0.383058 0
M  V30 473 H 46.9792 3.11048 0.931636 0
M  V30 474 H 47.9902 4.54999 -2.47379 0
M  V30 475 H 44.6672 4.17425 0.0793713 0
M  V30 476 H 46.0572 5.60917 -3.69895 0
M  V30 477 N 48.7773 0.814389 1.34928 0
M  V30 478 C 49.7403 0.235759 2.27984 0
M  V30 479 C 50.7403 -0.581412 1.49921 0
M  V30 480 O 51.9303 -0.398758 1.69575 0
M  V30 481 C 49.0623 -0.670433 3.34242 0
M  V30 482 H 50.2553 1.05659 2.80671 0
M  V30 483 H 47.8083 0.585614 1.44915 0
M  V30 484 H 48.5433 -1.51466 2.86755 0
M  V30 485 H 48.3283 -0.0860822 3.92005 0
M  V30 486 H 49.8183 -1.06935 4.03676 0
M  V30 487 N 50.2554 -1.46986 0.568584 0
M  V30 488 C 51.2184 -2.28624 -0.162366 0
M  V30 489 C 52.2184 -1.37596 -0.832103 0
M  V30 490 O 53.4084 -1.60115 -0.68622 0
M  V30 491 C 50.5404 -3.17596 -1.23878 0
M  V30 492 H 51.7334 -2.94722 0.554899 0
M  V30 493 H 49.2864 -1.52863 0.325976 0
M  V30 494 H 50.0214 -2.56214 -1.98808 0
M  V30 495 H 49.8064 -3.846 -0.763219 0
M  V30 496 H 51.2964 -3.79078 -1.75185 0
M  V30 497 N 51.7335 -0.305618 -1.54608 0
M  V30 498 C 52.9805 0.302298 -2.00231 0
M  V30 499 C 53.3085 1.5354 -1.19398 0
M  V30 500 O 52.5635 1.93973 -0.259423 0
M  V30 501 C 52.8625 0.698983 -3.50498 0
M  V30 502 C 52.5285 -0.432903 -4.48817 0
M  V30 503 C 51.1905 -0.743622 -4.75419 0
M  V30 504 C 53.5425 -1.19409 -5.07337 0
M  V30 505 C 50.8705 -1.81857 -5.57804 0
M  V30 506 C 53.2225 -2.25899 -5.90891 0
M  V30 507 C 51.8865 -2.57572 -6.15803 0
M  V30 508 H 51.1565 0.110619 -0.732697 0
M  V30 509 H 53.8035 -0.425674 -1.86709 0
M  V30 510 H 52.1085 1.50711 -3.61654 0
M  V30 511 H 53.8055 1.1806 -3.83227 0
M  V30 512 H 50.3955 -0.18063 -4.28219 0
M  V30 513 H 54.5795 -0.967295 -4.86782 0
M  V30 514 H 49.8355 -2.06864 -5.75341 0
M  V30 515 H 54.0095 -2.85335 -6.35261 0
M  V30 516 H 51.6365 -3.40998 -6.7943 0
M  V30 517 N 53.2116 1.57565 -0.0334293 0
M  V30 518 C 54.1416 2.13511 0.945265 0
M  V30 519 C 55.1226 1.05231 1.33643 0
M  V30 520 O 56.3076 1.33084 1.41429 0
M  V30 521 C 53.4376 2.6657 2.22616 0
M  V30 522 C 52.3916 3.79676 1.97561 0
M  V30 523 C 51.7176 4.1918 3.31952 0
M  V30 524 C 53.0176 5.0557 1.31135 0
M  V30 525 H 54.7116 2.95538 0.479325 0
M  V30 526 H 52.2576 1.42166 0.229115 0
M  V30 527 H 54.2106 3.04344 2.91466 0
M  V30 528 H 52.9346 1.8171 2.71384 0
M  V30 529 H 51.5936 3.42347 1.31127 0
M  V30 530 H 51.2416 3.31296 3.78487 0
M  V30 531 H 50.9416 4.95402 3.15992 0
M  V30 532 H 52.4656 4.59541 4.02063 0
M  V30 533 H 53.8796 5.40903 1.89992 0
M  V30 534 H 52.2766 5.86818 1.25559 0
M  V30 535 H 53.3466 4.84062 0.284894 0
M  V30 536 N 54.6897 -0.239769 1.55765 0
M  V30 537 C 55.9667 -0.990056 1.68693 0
M  V30 538 C 56.3467 -2.03107 0.5754 0
M  V30 539 O 55.6947 -2.24604 -0.42017 0
M  V30 540 C 55.9047 -1.61696 3.09282 0
M  V30 541 C 57.2527 -2.11613 3.6811 0
M  V30 542 O 58.2767 -1.71624 3.12127 0
M  V30 543 O 57.1357 -2.85057 4.66267 0
M  V30 544 H 54.2297 -0.461299 0.686391 0
M  V30 545 H 56.7757 -0.232991 1.68093 0
M  V30 546 H 55.5477 -0.864357 3.81634 0
M  V30 547 H 55.1707 -2.44005 3.13923 0
M  V30 548 N 56.1678 -1.49265 -0.50573 0
M  V30 549 C 57.4158 -1.582 -1.25766 0
M  V30 550 C 57.7368 -0.268482 -1.93143 0
M  V30 551 O 57.0068 0.711833 -1.8251 0
M  V30 552 H 55.5868 -0.582873 -0.467191 0
M  V30 553 H 58.2488 -1.85865 -0.586525 0
M  V30 554 H 57.3448 -2.37563 -2.02412 0
M  V30 555 N 57.6459 0.756429 -1.3826 0
M  V30 556 C 58.9229 1.50584 -1.24835 0
M  V30 557 C 59.3029 2.10556 0.151485 0
M  V30 558 O 58.6509 1.96825 1.1607 0
M  V30 559 C 58.8609 2.57448 -2.3563 0
M  V30 560 C 60.2089 3.24429 -2.73917 0
M  V30 561 O 61.2329 2.67751 -2.34921 0
M  V30 562 O 60.0919 4.26937 -3.41156 0
M  V30 563 H 57.1859 0.667664 -0.48801 0
M  V30 564 H 59.7319 0.792083 -1.5008 0
M  V30 565 H 58.5039 2.11362 -3.29305 0
M  V30 566 H 58.1269 3.36408 -2.11933 0
M  V30 567 N 59.124 1.23083 0.984299 0
M  V30 568 C 60.371 1.06057 1.72505 0
M  V30 569 C 60.699 -0.403105 1.90277 0
M  V30 570 O 59.954 -1.3149 1.44944 0
M  V30 571 C 60.253 1.72673 3.1292 0
M  V30 572 C 59.919 3.22586 3.15038 0
M  V30 573 C 58.581 3.63489 3.15324 0
M  V30 574 C 60.933 4.185 3.10657 0
M  V30 575 C 58.261 4.98772 3.08939 0
M  V30 576 C 60.613 5.53769 3.05814 0
M  V30 577 C 59.277 5.94041 3.04419 0
M  V30 578 H 58.547 0.388091 0.631242 0
M  V30 579 H 61.194 1.52963 1.15215 0
M  V30 580 H 59.499 1.18116 3.73572 0
M  V30 581 H 61.196 1.56982 3.68996 0
M  V30 582 H 57.786 2.90022 3.15571 0
M  V30 583 H 61.97 3.87911 3.09579 0
M  V30 584 H 57.226 5.29193 3.0621 0
M  V30 585 H 61.4 6.27808 3.0138 0
M  V30 586 H 59.027 6.98833 2.99227 0
M  V30 587 N 60.6021 -1.18246 1.0419 0
M  V30 588 C 61.5321 -2.24127 0.654914 0
M  V30 589 C 62.5131 -1.66617 -0.342451 0
M  V30 590 O 63.6981 -1.92924 -0.222277 0
M  V30 591 C 60.8281 -3.47295 0.0183757 0
M  V30 592 C 59.7821 -4.17563 0.939414 0
M  V30 593 C 59.1081 -5.34438 0.167286 0
M  V30 594 C 60.4081 -4.70917 2.25908 0
M  V30 595 H 62.1021 -2.56753 1.54007 0
M  V30 596 H 59.6481 -1.23414 0.74195 0
M  V30 597 H 61.6011 -4.20572 -0.264082 0
M  V30 598 H 60.3251 -3.13907 -0.901664 0
M  V30 599 H 58.9841 -3.46186 1.20628 0
M  V30 600 H 58.6321 -4.97298 -0.7552 0
M  V30 601 H 58.3321 -5.82388 0.780901 0
M  V30 602 H 59.8561 -6.10504 -0.108125 0
M  V30 603 H 61.2701 -5.35882 2.03724 0
M  V30 604 H 59.6671 -5.29406 2.82577 0
M  V30 605 H 60.7371 -3.88272 2.9047 0
M  V30 606 N 62.0802 -0.821533 -1.34494 0
M  V30 607 C 63.0302 -0.214793 -2.26986 0
M  V30 608 C 64.0142 0.620125 -1.4847 0
M  V30 609 O 65.2062 0.474933 -1.70509 0
M  V30 610 C 62.3352 0.623566 -3.37589 0
M  V30 611 C 61.4212 -0.221904 -4.23519 0
M  V30 612 N 61.8122 -1.29223 -4.89014 0
M  V30 613 C 60.1102 -0.00600922 -4.46 0
M  V30 614 C 60.8112 -1.80965 -5.52835 0
M  V30 615 N 59.7872 -1.11376 -5.32068 0
M  V30 616 H 63.5892 -1.03354 -2.75128 0
M  V30 617 H 61.1032 -0.6642 -1.48196 0
M  V30 618 H 63.1002 1.0744 -4.02818 0
M  V30 619 H 61.7602 1.44049 -2.90998 0
M  V30 620 H 62.7712 -1.67502 -4.90065 0
M  V30 621 H 59.4482 0.77886 -4.10171 0
M  V30 622 H 60.8382 -2.70502 -6.15043 0
M  V30 623 N 63.5583 1.46682 -0.576371 0
M  V30 624 C 64.9693 1.86112 -0.148091 0
M  V30 625 C 65.3203 1.48073 1.2872 0
M  V30 626 O 64.4453 0.892656 1.97131 0
M  V30 627 C 65.0403 3.37786 -0.261982 0
M  V30 628 C 63.5993 3.76235 0.111384 0
M  V30 629 C 62.7463 2.70713 -0.60083 0
M  V30 630 H 65.6973 1.37927 -0.78497 0
M  V30 631 H 65.7183 3.77007 0.514364 0
M  V30 632 H 65.2303 3.6544 -1.30671 0
M  V30 633 H 63.3313 3.54198 1.15649 0
M  V30 634 H 63.4443 4.78391 -0.26052 0
M  V30 635 H 61.8083 2.54666 -0.0417783 0
M  V30 636 H 62.5913 3.01208 -1.64708 0
M  V30 637 N 65.0364 0.313813 1.54444 0
M  V30 638 C 66.4524 -0.0391619 1.59552 0
M  V30 639 C 66.6524 -1.51322 1.33056 0
M  V30 640 O 65.7084 -2.26782 1.11022 0
M  V30 641 C 67.0214 0.370302 2.98411 0
M  V30 642 C 68.5694 0.320139 3.11358 0
M  V30 643 C 69.0444 0.704617 4.52547 0
M  V30 644 N 70.5354 0.657645 4.58508 0
M  V30 645 C 71.2704 0.927453 5.6585 0
M  V30 646 N 70.7664 1.26389 6.81174 0
M  V30 647 N 72.5594 0.853662 5.5558 0
M  V30 648 H 64.7104 1.27433 1.69925 0
M  V30 649 H 66.9734 0.517511 0.794284 0
M  V30 650 H 66.6794 1.39694 3.22767 0
M  V30 651 H 66.5534 -0.269619 3.76235 0
M  V30 652 H 68.9404 -0.697275 2.86744 0
M  V30 653 H 69.0214 0.99486 2.35661 0
M  V30 654 H 68.6654 1.7199 4.77893 0
M  V30 655 H 68.5954 0.00768843 5.26599 0
M  V30 656 H 71.0864 0.409067 3.75679 0
M  V30 657 H 71.3994 1.4554 7.58972 0
M  V30 658 H 69.7444 1.30206 6.82694 0
M  V30 659 H 72.9354 0.590383 4.64362 0
M  V30 660 H 73.1084 1.0673 6.3915 0
M  V30 661 N 66.5145 -1.57545 0.0417849 0
M  V30 662 C 67.9305 -1.56467 -0.314704 0
M  V30 663 C 68.1305 -1.04859 -1.72066 0
M  V30 664 O 67.1865 -0.700983 -2.42575 0
M  V30 665 C 68.4995 -3.00317 -0.15174 0
M  V30 666 C 70.0475 -3.12201 -0.223553 0
M  V30 667 C 70.5225 -4.57913 -0.0892295 0
M  V30 668 N 72.0135 -4.6297 -0.145808 0
M  V30 669 C 72.7485 -5.73362 -0.0658459 0
M  V30 670 N 72.2445 -6.92769 0.0659282 0
M  V30 671 N 74.0375 -5.6197 -0.12075 0
M  V30 672 H 66.1885 -1.89416 0.961014 0
M  V30 673 H 68.4515 -0.871862 0.372237 0
M  V30 674 H 68.1575 -3.42073 0.817254 0
M  V30 675 H 68.0315 -3.65892 -0.916692 0
M  V30 676 H 70.4185 -2.70349 -1.18301 0
M  V30 677 H 70.4995 -2.49323 0.571994 0
M  V30 678 H 70.1435 -5.00448 0.866867 0
M  V30 679 H 70.0735 -5.18786 -0.903802 0
M  V30 680 H 72.5645 -3.7709 -0.247286 0
M  V30 681 H 72.8775 -7.72707 0.119905 0
M  V30 682 H 71.2225 -6.94927 0.100885 0
M  V30 683 H 74.4135 -4.67572 -0.222187 0
M  V30 684 H 74.5865 -6.47977 -0.0549735 0
M  V30 685 N 67.9926 0.231505 -1.5589 0
M  V30 686 C 68.9406 1.30649 -1.92441 0
M  V30 687 C 69.9346 1.49037 -0.805254 0
M  V30 688 O 71.1406 1.50329 -0.990007 0
M  V30 689 H 67.5156 0.437812 -0.611412 0
M  V30 690 H 69.4866 0.970973 -2.82161 0
M  V30 691 C 68.2356 2.65179 -2.24889 0
M  V30 692 H 67.5586 2.51835 -3.10514 0
M  V30 693 H 68.9986 3.39234 -2.54355 0
M  V30 694 C 67.4576 3.19439 -1.07054 0
M  V30 695 O 67.9876 4.00371 -0.326499 0
M  V30 696 N 66.1936 2.77675 -0.85703 0
M  V30 697 H 65.7406 2.11969 -1.46379 0
M  V30 698 H 65.6986 3.14321 -0.0703223 0
M  V30 699 N 69.4707 1.49531 0.497807 0
M  V30 700 C 70.7197 1.58426 1.24837 0
M  V30 701 C 71.0327 0.277643 1.93619 0
M  V30 702 O 72.2387 0.24517 2.70391 0
M  V30 703 C 70.6947 2.79538 2.26686 0
M  V30 704 C 70.3027 4.16971 1.63828 0
M  V30 705 C 72.0467 2.97764 3.0255 0
M  V30 706 C 69.9537 5.29301 2.63807 0
M  V30 707 H 68.8837 0.58989 0.469623 0
M  V30 708 H 71.5347 1.75923 0.521857 0
M  V30 709 H 69.9167 2.55542 3.02514 0
M  V30 710 H 71.0907 4.51116 0.939711 0
M  V30 711 H 69.4057 4.04129 1.00342 0
M  V30 712 H 72.0027 3.78856 3.77323 0
M  V30 713 H 72.3457 2.08448 3.60354 0
M  V30 714 H 72.8787 3.21815 2.33838 0
M  V30 715 H 69.6177 6.20687 2.10779 0
M  V30 716 H 69.1377 4.99606 3.31894 0
M  V30 717 H 70.8167 5.58768 3.2617 0
M  V30 718 N 70.9488 -0.749086 1.3866 0
M  V30 719 C 71.8588 -1.89358 1.38494 0
M  V30 720 C 72.8748 -1.71708 0.281476 0
M  V30 721 O 74.0508 -1.94554 0.520643 0
M  V30 722 C 71.1158 -3.24782 1.21316 0
M  V30 723 C 70.1768 -3.54926 2.41508 0
M  V30 724 C 69.4098 -4.83888 2.2514 0
M  V30 725 O 69.6328 -5.56592 1.24746 0
M  V30 726 O 68.5668 -5.13612 3.13826 0
M  V30 727 H 72.3928 -1.92452 2.34938 0
M  V30 728 H 69.9778 -0.894981 1.19626 0
M  V30 729 H 71.8598 -4.05739 1.13814 0
M  V30 730 H 70.5348 -3.2249 0.279592 0
M  V30 731 H 69.4418 -2.74112 2.54585 0
M  V30 732 H 70.7748 -3.61983 3.3351 0
M  V30 733 N 72.4269 -1.23603 -0.977757 0
M  V30 734 C 73.3739 -1.01954 -2.07061 0
M  V30 735 C 74.3439 0.0638697 -1.65977 0
M  V30 736 O 75.5289 -0.0887624 -1.90593 0
M  V30 737 C 72.6689 -0.619658 -3.39491 0
M  V30 738 C 71.7819 -1.77547 -3.93829 0
M  V30 739 C 70.9169 -1.32212 -5.14484 0
M  V30 740 C 69.9559 -2.44852 -5.60994 0
M  V30 741 N 69.0929 -2.00456 -6.72876 0
M  V30 742 H 73.9329 -1.95495 -2.24913 0
M  V30 743 H 71.4699 -0.973861 -1.10247 0
M  V30 744 H 73.4279 -0.368898 -4.15566 0
M  V30 745 H 72.0579 0.278752 -3.21594 0
M  V30 746 H 71.1099 -2.14016 -3.14486 0
M  V30 747 H 72.4219 -2.62219 -4.24314 0
M  V30 748 H 71.5759 -1.02965 -5.97899 0
M  V30 749 H 70.3149 -0.445808 -4.85658 0
M  V30 750 H 69.3199 -2.74871 -4.76157 0
M  V30 751 H 70.5449 -3.33024 -5.91837 0
M  V30 752 H 68.4909 -1.15208 -6.45804 0
M  V30 753 H 68.4079 -2.78687 -7.02759 0
M  V30 754 H 69.6759 -1.7432 -7.59758 0
M  V30 755 N 73.905 1.17692 -1.04816 0
M  V30 756 C 74.838 2.20436 -0.590173 0
M  V30 757 C 75.816 1.58115 0.379244 0
M  V30 758 O 77 1.86228 0.291762 0
M  V30 759 C 74.127 3.38424 0.136817 0
M  V30 760 C 73.173 4.19176 -0.787023 0
M  V30 761 S 74.006 4.84815 -2.27409 0
M  V30 762 C 75.162 6.06195 -1.55817 0
M  V30 763 H 75.395 2.58944 -1.46067 0
M  V30 764 H 72.928 1.28246 -0.859784 0
M  V30 765 H 74.886 4.06798 0.550076 0
M  V30 766 H 73.547 2.98312 0.983299 0
M  V30 767 H 72.74 5.03499 -0.224681 0
M  V30 768 H 72.342 3.56219 -1.13947 0
M  V30 769 H 74.634 6.72078 -0.855387 0
M  V30 770 H 75.577 6.6695 -2.37873 0
M  V30 771 H 75.985 5.54701 -1.04722 0
M  V30 772 N 75.3831 0.828654 1.34056 0
M  V30 773 C 76.3461 0.259927 2.27721 0
M  V30 774 C 77.3461 -0.565478 1.50529 0
M  V30 775 O 78.5361 -0.38075 1.69988 0
M  V30 776 C 75.6681 -0.634944 3.34935 0
M  V30 777 H 76.8611 1.0863 2.79534 0
M  V30 778 H 74.4141 0.600951 1.44285 0
M  V30 779 H 75.1491 -1.48416 2.88346 0
M  V30 780 H 74.9341 -0.0444999 3.92075 0
M  V30 781 H 76.4241 -1.02648 4.04788 0
M  V30 782 N 76.8612 -1.46375 0.584142 0
M  V30 783 C 78.0862 -2.07268 0.0740405 0
M  V30 784 C 78.5112 -1.42979 -1.22223 0
M  V30 785 O 77.8692 -0.514092 -1.73859 0
M  V30 786 C 77.9172 -3.60518 -0.0767769 0
M  V30 787 O 77.0212 -3.96533 -1.13292 0
M  V30 788 H 76.3622 -0.660961 0.0634524 0
M  V30 789 H 78.8922 -1.87991 0.807492 0
M  V30 790 H 78.9022 -4.07021 -0.282489 0
M  V30 791 H 77.5772 -4.06702 0.86986 0
M  V30 792 H 76.1542 -3.61738 -0.905553 0
M  V30 793 N 78.3393 -0.321999 -1.54275 0
M  V30 794 C 79.5873 0.280489 -2.00144 0
M  V30 795 C 79.9083 1.52777 -1.21178 0
M  V30 796 O 79.1783 1.9338 -0.313187 0
M  V30 797 H 77.7583 0.106632 -0.73935 0
M  V30 798 H 80.4203 -0.438184 -1.8991 0
M  V30 799 H 79.5163 0.537972 -3.07428 0
M  V30 800 N 79.8174 1.5752 -0.0501392 0
M  V30 801 C 80.7274 2.14952 0.939827 0
M  V30 802 C 81.7434 1.10706 1.34239 0
M  V30 803 O 82.9194 1.42869 1.41952 0
M  V30 804 C 79.9844 2.68232 2.19665 0
M  V30 805 C 79.0454 3.87272 1.85253 0
M  V30 806 C 78.2784 4.38002 3.04943 0
M  V30 807 O 78.5014 3.87811 4.18281 0
M  V30 808 O 77.4354 5.29602 2.86017 0
M  V30 809 H 81.2614 2.9986 0.481392 0
M  V30 810 H 78.8464 1.4841 0.171699 0
M  V30 811 H 80.7284 3.02475 2.93406 0
M  V30 812 H 79.4034 1.86395 2.64648 0
M  V30 813 H 78.3104 3.5792 1.0883 0
M  V30 814 H 79.6434 4.70336 1.4507 0
M  V30 815 N 81.2955 -0.223234 1.56011 0
M  V30 816 C 82.7065 -0.790368 1.69145 0
M  V30 817 C 83.0575 -1.85055 0.651845 0
M  V30 818 O 82.1825 -2.15498 -0.197359 0
M  V30 819 C 82.7775 -1.4404 3.06656 0
M  V30 820 C 81.3365 -1.95494 3.2165 0
M  V30 821 C 80.4835 -0.814506 2.65068 0
M  V30 822 H 83.4345 0.00139011 1.587 0
M  V30 823 H 83.4555 -2.30916 3.0242 0
M  V30 824 H 82.9675 -0.668543 3.82298 0
M  V30 825 H 81.0685 -2.75487 2.50874 0
M  V30 826 H 81.1815 -2.13607 4.28846 0
M  V30 827 H 79.5455 -1.22137 2.23505 0
M  V30 828 H 80.3285 -0.0553515 3.43255 0
M  V30 829 N 82.7736 -1.49793 -0.48987 0
M  V30 830 C 83.7036 -1.70201 -1.59856 0
M  V30 831 C 84.6846 -0.55076 -1.60937 0
M  V30 832 O 85.8696 -0.787841 -1.77501 0
M  V30 833 C 82.9996 -1.77882 -2.98287 0
M  V30 834 C 81.9536 -2.92907 -3.12073 0
M  V30 835 C 81.2796 -2.85712 -4.51965 0
M  V30 836 C 82.5796 -4.3369 -2.91051 0
M  V30 837 H 84.2736 -2.63025 -1.43032 0
M  V30 838 H 81.8196 -1.26574 -0.686664 0
M  V30 839 H 83.7726 -1.90744 -3.75759 0
M  V30 840 H 82.4966 -0.816653 -3.16225 0
M  V30 841 H 81.1556 -2.79665 -2.37029 0
M  V30 842 H 80.8036 -1.8738 -4.66795 0
M  V30 843 H 80.5036 -3.62921 -4.62128 0
M  V30 844 H 82.0276 -3.00598 -5.31482 0
M  V30 845 H 83.4416 -4.47555 -3.58284 0
M  V30 846 H 81.8386 -5.12205 -3.12675 0
M  V30 847 H 82.9086 -4.47362 -1.87071 0
M  V30 848 N 84.2517 0.741722 -1.39055 0
M  V30 849 C 85.1997 1.87702 -1.3737 0
M  V30 850 C 86.1937 1.67427 -0.257812 0
M  V30 851 O 87.3997 1.7485 -0.427489 0
M  V30 852 H 83.7747 0.617757 -0.428812 0
M  V30 853 H 85.7457 1.86239 -2.33147 0
M  V30 854 C 84.4947 3.25315 -1.22741 0
M  V30 855 H 83.8177 3.41509 -2.07873 0
M  V30 856 H 85.2577 4.04964 -1.25618 0
M  V30 857 C 83.7167 3.36838 0.0647316 0
M  V30 858 O 84.2467 3.88073 1.03741 0
M  V30 859 N 82.4527 2.90329 0.125544 0
M  V30 860 H 81.9997 2.48823 -0.666682 0
M  V30 861 H 81.9577 2.98418 0.989639 0
M  V30 862 N 85.7298 1.2412 0.971189 0
M  V30 863 C 87.0068 0.986867 1.6888 0
M  V30 864 C 87.3868 -0.491857 2.0529 0
M  V30 865 O 86.7348 -1.46531 1.75331 0
M  V30 866 C 86.9448 1.9063 2.92338 0
M  V30 867 C 88.2928 2.17515 3.64654 0
M  V30 868 O 89.3168 1.88254 3.02388 0
M  V30 869 O 88.1758 2.6719 4.7673 0
M  V30 870 H 85.2698 0.372944 0.738134 0
M  V30 871 H 87.8158 1.35203 1.02559 0
M  V30 872 H 86.5878 2.90552 2.62097 0
M  V30 873 H 86.2108 1.54408 3.66393 0
M  V30 874 N 87.2079 -1.17134 1.05439 0
M  V30 875 C 88.4849 -1.83411 0.679699 0
M  V30 876 C 88.8649 -1.9368 -0.839726 0
M  V30 877 O 88.2129 -1.47325 -1.74664 0
M  V30 878 C 88.4229 -3.20918 1.37159 0
M  V30 879 C 89.7709 -3.96796 1.51123 0
M  V30 880 O 90.7949 -3.30406 1.3308 0
M  V30 881 O 89.6539 -5.15778 1.80651 0
M  V30 882 H 86.7479 -0.79154 0.239569 0
M  V30 883 H 89.2939 -1.24411 1.15413 0
M  V30 884 H 88.0659 -3.08428 2.40807 0
M  V30 885 H 87.6889 -3.87587 0.886674 0
M  V30 886 N 88.686 -0.835752 -1.33615 0
M  V30 887 C 89.963 -0.352017 -1.92406 0
M  V30 888 C 90.343 1.16225 -1.76224 0
M  V30 889 O 89.691 1.97526 -1.14873 0
M  V30 890 C 89.901 -0.795485 -3.39813 0
M  V30 891 C 91.249 -0.801703 -4.16963 0
M  V30 892 O 92.273 -0.738889 -3.48452 0
M  V30 893 O 91.132 -0.886607 -5.3926 0
M  V30 894 H 88.226 -0.0989641 -0.821057 0
M  V30 895 H 90.772 -0.921397 -1.42507 0
M  V30 896 H 89.544 -1.83795 -3.45449 0
M  V30 897 H 89.167 -0.202505 -3.97084 0
M  V30 898 N 90.1641 1.46063 -0.591896 0
M  V30 899 C 91.5801 1.57561 -0.254288 0
M  V30 900 C 91.7801 1.58565 1.24336 0
M  V30 901 O 90.8361 1.50753 2.02558 0
M  V30 902 C 92.1491 2.86549 -0.911611 0
M  V30 903 C 93.6971 3.00197 -0.886059 0
M  V30 904 C 94.1721 4.31933 -1.5231 0
M  V30 905 N 95.6631 4.38654 -1.48786 0
M  V30 906 C 96.3981 5.39222 -1.95006 0
M  V30 907 N 95.8941 6.46414 -2.49241 0
M  V30 908 N 97.6871 5.3048 -1.85868 0
M  V30 909 H 89.8381 1.43655 -1.56451 0
M  V30 910 H 92.1011 0.68583 -0.654478 0
M  V30 911 H 91.8071 2.91651 -1.96551 0
M  V30 912 H 91.6811 3.74794 -0.425368 0
M  V30 913 H 94.0681 2.9467 0.159246 0
M  V30 914 H 94.1491 2.13403 -1.41041 0
M  V30 915 H 93.7931 4.38217 -2.56765 0
M  V30 916 H 93.7231 5.17516 -0.973891 0
M  V30 917 H 96.2141 3.61793 -1.09151 0
M  V30 918 H 96.5271 7.19376 -2.82344 0
M  V30 919 H 94.8721 6.47208 -2.53272 0
M  V30 920 H 98.0631 4.45643 -1.43248 0
M  V30 921 H 98.2361 6.08711 -2.22204 0
M  V30 922 N 91.6422 0.330177 1.54103 0
M  V30 923 C 92.5892 -0.532762 2.24567 0
M  V30 924 C 93.5592 -1.10635 1.23892 0
M  V30 925 O 94.7442 -1.14546 1.5259 0
M  V30 926 C 91.8842 -1.6845 3.01195 0
M  V30 927 C 90.9972 -1.13951 4.167 0
M  V30 928 C 90.1322 -2.25746 4.80845 0
M  V30 929 C 89.1712 -1.6853 5.88442 0
M  V30 930 N 88.3082 -2.74014 6.46421 0
M  V30 931 H 93.1482 0.0746905 2.97906 0
M  V30 932 H 90.6852 0.048632 1.4702 0
M  V30 933 H 92.6432 -2.36234 3.43874 0
M  V30 934 H 91.2732 -2.26314 2.30178 0
M  V30 935 H 90.3252 -0.35301 3.78758 0
M  V30 936 H 91.6372 -0.680892 4.94131 0
M  V30 937 H 90.7912 -3.01422 5.26526 0
M  V30 938 H 89.5302 -2.74947 4.0281 0
M  V30 939 H 88.5352 -0.913543 5.42157 0
M  V30 940 H 89.7602 -1.20198 6.68378 0
M  V30 941 H 87.7062 -3.22494 5.71256 0
M  V30 942 H 87.6232 -2.32735 7.19285 0
M  V30 943 H 88.8912 -3.49499 6.96757 0
M  V30 944 N 93.1203 -1.57491 0.0584922 0
M  V30 945 C 94.5313 -1.80526 -0.476138 0
M  V30 946 C 94.8823 -0.971334 -1.70469 0
M  V30 947 O 94.0073 -0.190012 -2.15564 0
M  V30 948 C 94.6023 -3.27424 -0.870587 0
M  V30 949 C 93.1613 -3.51351 -1.35015 0
M  V30 950 C 92.3083 -2.75343 -0.32887 0
M  V30 951 H 95.2593 -1.56133 0.284312 0
M  V30 952 H 95.2803 -3.38745 -1.73299 0
M  V30 953 H 94.7923 -3.88093 0.0237627 0
M  V30 954 H 92.8933 -2.95971 -2.26345 0
M  V30 955 H 93.0063 -4.60059 -1.33726 0
M  V30 956 H 91.3703 -2.417 -0.803321 0
M  V30 957 H 92.1533 -3.38743 0.557521 0
M  V30 958 N 94.5984 0.214957 -1.56127 0
M  V30 959 C 95.8444 0.935325 -1.80619 0
M  V30 960 C 96.1994 1.81706 -0.632507 0
M  V30 961 O 95.4924 1.87931 0.373182 0
M  V30 962 C 95.6864 1.80314 -3.0858 0
M  V30 963 C 95.5154 1.00691 -4.38282 0
M  V30 964 C 94.2854 0.699211 -5.00439 0
M  V30 965 C 96.4834 0.369057 -5.12974 0
M  V30 966 N 94.4654 -0.117734 -6.13787 0
M  V30 967 C 95.8364 -0.310981 -6.1922 0
M  V30 968 C 97.8914 0.282759 -4.97096 0
M  V30 969 C 96.5944 -1.06907 -7.11311 0
M  V30 970 C 98.6204 -0.461881 -5.89594 0
M  V30 971 C 97.9824 -1.13044 -6.9527 0
M  V30 972 H 94.0814 0.322307 -0.71249 0
M  V30 973 H 96.6654 0.205649 -1.93611 0
M  V30 974 H 94.8364 2.50458 -2.96859 0
M  V30 975 H 96.5684 2.46148 -3.21237 0
M  V30 976 H 93.3234 1.01884 -4.62511 0
M  V30 977 H 93.7474 -0.515235 -6.75037 0
M  V30 978 H 98.3894 0.785292 -4.15443 0
M  V30 979 H 96.1074 -1.5831 -7.92442 0
M  V30 980 H 99.6934 -0.529746 -5.79383 0
M  V30 981 H 98.5734 -1.69742 -7.65609 0
M  V30 982 N 96.0765 1.50051 0.48192 0
M  V30 983 C 97.0065 1.71046 1.58951 0
M  V30 984 C 97.9875 0.559288 1.60642 0
M  V30 985 O 99.1725 0.797243 1.77081 0
M  V30 986 C 96.3025 1.79462 2.97339 0
M  V30 987 C 95.2565 2.94558 3.10515 0
M  V30 988 C 94.5825 2.88105 4.50444 0
M  V30 989 C 95.8825 4.35227 2.88747 0
M  V30 990 H 97.5765 2.6378 1.41635 0
M  V30 991 H 95.1225 1.26936 0.679942 0
M  V30 992 H 97.0755 1.92734 3.74742 0
M  V30 993 H 95.7995 0.833412 3.15788 0
M  V30 994 H 94.4585 2.80918 2.35543 0
M  V30 995 H 94.1065 1.89853 4.65795 0
M  V30 996 H 93.8065 3.65366 4.60197 0
M  V30 997 H 95.3305 3.03412 5.29881 0
M  V30 998 H 96.7445 4.49449 3.55905 0
M  V30 999 H 95.1415 5.13856 3.09955 0
M  V30 1000 H 96.2115 4.48347 1.84696 0
M  V30 1001 N 97.5546 -0.734337 1.39446 0
M  V30 1002 C 98.4866 -1.85861 1.34121 0
M  V30 1003 C 99.4996 -1.60871 0.249864 0
M  V30 1004 O 100.689 -1.71093 0.508865 0
M  V30 1005 C 97.7886 -3.21899 1.05991 0
M  V30 1006 C 96.9616 -3.74239 2.26415 0
M  V30 1007 C 96.0206 -4.88841 1.94733 0
M  V30 1008 O 95.0466 -5.02468 2.67422 0
M  V30 1009 N 96.2486 -5.73261 0.913884 0
M  V30 1010 H 99.0136 -1.90934 2.31007 0
M  V30 1011 H 96.5746 -0.915102 1.33557 0
M  V30 1012 H 98.5666 -3.96136 0.828147 0
M  V30 1013 H 97.1366 -3.12091 0.178361 0
M  V30 1014 H 96.3566 -2.91347 2.65539 0
M  V30 1015 H 97.6446 -4.05942 3.06738 0
M  V30 1016 H 97.0426 -5.64842 0.311476 0
M  V30 1017 H 95.5996 -6.47563 0.742015 0
M  V30 1018 N 99.0327 -1.24633 -0.964593 0
M  V30 1019 C 99.9957 -1.0424 -2.04124 0
M  V30 1020 C 100.996 0.00137563 -1.608 0
M  V30 1021 O 102.186 -0.239883 -1.7254 0
M  V30 1022 C 99.3177 -0.580588 -3.3592 0
M  V30 1023 H 100.511 -1.99803 -2.23649 0
M  V30 1024 H 98.0637 -1.06899 -1.14027 0
M  V30 1025 H 98.7987 0.3781 -3.22088 0
M  V30 1026 H 98.5837 -1.33398 -3.6871 0
M  V30 1027 H 100.074 -0.459034 -4.15069 0
M  V30 1028 N 100.511 1.16574 -1.06058 0
M  V30 1029 C 101.441 2.23057 -0.690488 0
M  V30 1030 C 102.422 1.67141 0.315901 0
M  V30 1031 O 103.607 1.93253 0.191556 0
M  V30 1032 C 100.737 3.47222 -0.073625 0
M  V30 1033 C 99.6908 4.16016 -1.00573 0
M  V30 1034 C 99.0168 5.34104 -0.252289 0
M  V30 1035 C 100.317 4.67264 -2.33371 0
M  V30 1036 H 102.011 2.54271 -1.58072 0
M  V30 1037 H 99.5568 1.22218 -0.76149 0
M  V30 1038 H 101.51 4.20939 0.19714 0
M  V30 1039 H 100.234 3.15302 0.85161 0
M  V30 1040 H 98.8928 3.44223 -1.2612 0
M  V30 1041 H 98.5408 4.98437 0.675988 0
M  V30 1042 H 98.2408 5.81072 -0.873455 0
M  V30 1043 H 99.7648 6.10599 0.0109857 0
M  V30 1044 H 101.179 5.32573 -2.12223 0
M  V30 1045 H 99.5758 5.24843 -2.90963 0
M  V30 1046 H 100.646 3.83602 -2.96611 0
M  V30 1047 N 101.989 0.842826 1.3317 0
M  V30 1048 C 102.937 0.267495 2.31057 0
M  V30 1049 C 103.931 -0.602682 1.58316 0
M  V30 1050 O 105.137 -0.491803 1.73151 0
M  V30 1051 H 101.512 0.0677813 0.748939 0
M  V30 1052 H 103.483 1.10754 2.77085 0
M  V30 1053 C 102.232 -0.539331 3.43492 0
M  V30 1054 H 101.555 0.12095 3.99617 0
M  V30 1055 H 102.995 -0.90767 4.14171 0
M  V30 1056 C 101.454 -1.71981 2.89697 0
M  V30 1057 O 101.984 -2.81862 2.86211 0
M  V30 1058 N 100.19 -1.54299 2.46252 0
M  V30 1059 H 99.7369 -0.649143 2.49287 0
M  V30 1060 H 99.6949 -2.33431 2.10612 0
M  V30 1061 N 103.467 -1.45747 0.599634 0
M  V30 1062 C 104.744 -1.95585 0.0240846 0
M  V30 1063 C 105.124 -1.54217 -1.44154 0
M  V30 1064 O 104.472 -0.800903 -2.14004 0
M  V30 1065 C 104.682 -3.48344 0.21385 0
M  V30 1066 C 106.03 -4.24504 0.0904902 0
M  V30 1067 O 107.054 -3.55911 0.143558 0
M  V30 1068 O 105.913 -5.46491 -0.0310766 0
M  V30 1069 H 103.007 -0.82602 -0.0402478 0
M  V30 1070 H 105.553 -1.55951 0.669139 0
M  V30 1071 H 104.325 -3.71397 1.23206 0
M  V30 1072 H 103.948 -3.9485 -0.466842 0
M  V30 1073 N 104.945 -0.338344 -1.53925 0
M  V30 1074 C 105.908 0.508299 -2.23493 0
M  V30 1075 C 106.908 1.03175 -1.23335 0
M  V30 1076 O 108.098 0.921826 -1.47811 0
M  V30 1077 C 105.23 1.70754 -2.95052 0
M  V30 1078 H 106.423 -0.100058 -2.99733 0
M  V30 1079 H 103.976 -0.0896198 -1.56043 0
M  V30 1080 H 104.711 2.35474 -2.22986 0
M  V30 1081 H 104.496 1.33946 -3.68512 0
M  V30 1082 H 105.986 2.30818 -3.48013 0
M  V30 1083 N 106.423 1.57458 -0.0668435 0
M  V30 1084 C 107.386 2.11323 0.887422 0
M  V30 1085 C 108.386 1.03618 1.22964 0
M  V30 1086 O 109.576 1.29626 1.16373 0
M  V30 1087 C 106.708 2.61048 2.19242 0
M  V30 1088 H 107.901 2.96942 0.420194 0
M  V30 1089 H 105.454 1.55239 0.181793 0
M  V30 1090 H 106.189 1.78868 2.70512 0
M  V30 1091 H 105.974 3.39769 1.95702 0
M  V30 1092 H 107.464 3.02814 2.87565 0
M  V30 1093 N 107.901 -0.206675 1.56239 0
M  V30 1094 C 109.148 -0.928842 1.79941 0
M  V30 1095 C 109.476 -1.83734 0.638131 0
M  V30 1096 O 108.731 -1.92039 -0.376746 0
M  V30 1097 C 109.03 -1.78675 3.09532 0
M  V30 1098 C 108.696 -1.03022 4.38973 0
M  V30 1099 C 107.358 -0.821302 4.74139 0
M  V30 1100 C 109.71 -0.497081 5.18824 0
M  V30 1101 C 107.038 -0.0675719 5.86661 0
M  V30 1102 C 109.39 0.24338 6.32132 0
M  V30 1103 C 108.054 0.463422 6.65889 0
M  V30 1104 H 107.324 -0.339887 0.658451 0
M  V30 1105 H 109.971 -0.195977 1.90495 0
M  V30 1106 H 108.276 -2.58794 2.94165 0
M  V30 1107 H 109.973 -2.34792 3.25075 0
M  V30 1108 H 106.563 -1.20306 4.11369 0
M  V30 1109 H 110.747 -0.645921 4.92079 0
M  V30 1110 H 106.003 0.112995 6.11296 0
M  V30 1111 H 110.177 0.66393 6.93228 0
M  V30 1112 H 107.804 1.04938 7.52922 0
M  V30 1113 N 109.379 -1.50304 -0.473955 0
M  V30 1114 C 110.342 -1.6841 -1.55469 0
M  V30 1115 C 111.342 -0.554905 -1.50922 0
M  V30 1116 O 112.532 -0.821882 -1.53593 0
M  V30 1117 C 109.664 -1.70667 -2.95102 0
M  V30 1118 H 110.857 -2.64828 -1.40733 0
M  V30 1119 H 108.41 -1.39742 -0.700132 0
M  V30 1120 H 109.145 -0.75932 -3.15285 0
M  V30 1121 H 108.93 -2.52698 -2.9981 0
M  V30 1122 H 110.42 -1.8664 -3.73571 0
M  V30 1123 N 110.857 0.726932 -1.39834 0
M  V30 1124 C 111.79 1.8501 -1.33592 0
M  V30 1125 C 112.768 1.61262 -0.208191 0
M  V30 1126 O 113.952 1.84422 -0.389981 0
M  V30 1127 C 111.079 3.21143 -1.07633 0
M  V30 1128 C 110.125 3.63737 -2.22705 0
M  V30 1129 S 110.958 3.72167 -3.85035 0
M  V30 1130 C 112.114 5.11077 -3.61318 0
M  V30 1131 H 112.347 1.90022 -2.28646 0
M  V30 1132 H 109.88 0.892595 -1.25985 0
M  V30 1133 H 111.838 3.99747 -0.933415 0
M  V30 1134 H 110.499 3.13776 -0.142526 0
M  V30 1135 H 109.692 4.62551 -2.00155 0
M  V30 1136 H 109.294 2.9236 -2.33242 0
M  V30 1137 H 111.586 5.97656 -3.19083 0
M  V30 1138 H 112.529 5.38658 -4.59623 0
M  V30 1139 H 112.937 4.81135 -2.95245 0
M  V30 1140 N 112.336 1.25143 0.95797 0
M  V30 1141 C 113.268 1.01023 2.05735 0
M  V30 1142 C 114.281 -0.0236902 1.62783 0
M  V30 1143 O 115.47 0.21448 1.77207 0
M  V30 1144 C 112.57 0.504595 3.35122 0
M  V30 1145 C 111.743 1.6039 4.06932 0
M  V30 1146 C 110.802 1.09922 5.14591 0
M  V30 1147 O 109.828 1.79293 5.40225 0
M  V30 1148 N 111.03 -0.0612545 5.80468 0
M  V30 1149 H 113.795 1.95683 2.26998 0
M  V30 1150 H 111.356 1.16303 1.12629 0
M  V30 1151 H 113.348 0.151516 4.04416 0
M  V30 1152 H 111.918 -0.347989 3.10657 0
M  V30 1153 H 111.138 2.12872 3.31782 0
M  V30 1154 H 112.426 2.34252 4.51667 0
M  V30 1155 H 111.824 -0.640985 5.62057 0
M  V30 1156 H 110.381 -0.355395 6.5083 0
M  V30 1157 N 113.814 -1.1601 1.06675 0
M  V30 1158 C 115.23 -1.38622 0.790948 0
M  V30 1159 C 115.43 -1.92109 -0.607965 0
M  V30 1160 O 114.486 -2.12239 -1.36787 0
M  V30 1161 C 115.799 -2.36347 1.85905 0
M  V30 1162 C 117.347 -2.50023 1.88301 0
M  V30 1163 C 117.822 -3.51033 2.94176 0
M  V30 1164 N 119.313 -3.58563 2.93235 0
M  V30 1165 C 120.048 -4.36521 3.71803 0
M  V30 1166 N 119.544 -5.17869 4.602 0
M  V30 1167 N 121.337 -4.31541 3.60178 0
M  V30 1168 H 113.488 -0.796294 1.96908 0
M  V30 1169 H 115.751 -0.412597 0.853503 0
M  V30 1170 H 115.457 -2.04147 2.86386 0
M  V30 1171 H 115.331 -3.36042 1.71334 0
M  V30 1172 H 117.718 -2.81524 0.884769 0
M  V30 1173 H 117.799 -1.5035 2.06951 0
M  V30 1174 H 117.443 -3.20268 3.94196 0
M  V30 1175 H 117.373 -4.50445 2.72776 0
M  V30 1176 H 119.864 -3.00496 2.29152 0
M  V30 1177 H 120.177 -5.74578 5.16797 0
M  V30 1178 H 118.522 -5.17199 4.64253 0
M  V30 1179 H 121.713 -3.67051 2.90502 0
M  V30 1180 H 121.886 -4.9205 4.21653 0
M  V30 1181 N 115.292 -0.849877 -1.32721 0
M  V30 1182 C 116.52 -0.464754 -2.01613 0
M  V30 1183 C 116.935 0.937191 -1.63897 0
M  V30 1184 O 116.292 1.61081 -0.857856 0
M  V30 1185 C 116.343 -0.588638 -3.56675 0
M  V30 1186 O 116.064 -1.93535 -3.93034 0
M  V30 1187 C 117.565 -0.2019 -4.4284 0
M  V30 1188 H 114.785 -0.183215 -0.645502 0
M  V30 1189 H 117.329 -1.1455 -1.69407 0
M  V30 1190 H 115.484 0.0443159 -3.87375 0
M  V30 1191 H 115.898 -1.92871 -4.87751 0
M  V30 1192 H 117.372 -0.339599 -5.50954 0
M  V30 1193 H 117.849 0.857224 -4.30753 0
M  V30 1194 H 118.455 -0.809733 -4.17521 0
M  V30 1195 N 116.77 1.45427 -0.607355 0
M  V30 1196 C 117.718 2.32269 0.12411 0
M  V30 1197 C 118.712 1.45955 0.859854 0
M  V30 1198 O 119.918 1.6244 0.775447 0
M  V30 1199 H 116.293 0.749691 0.0588839 0
M  V30 1200 H 118.264 2.91743 -0.626762 0
M  V30 1201 C 117.013 3.29567 1.1082 0
M  V30 1202 H 116.336 3.95978 0.551492 0
M  V30 1203 H 117.776 3.93061 1.58995 0
M  V30 1204 C 116.235 2.56722 2.18164 0
M  V30 1205 O 116.765 2.34842 3.25902 0
M  V30 1206 N 114.971 2.16861 1.93442 0
M  V30 1207 H 114.518 2.34855 1.05834 0
M  V30 1208 H 114.476 1.68444 2.65469 0
M  V30 1209 N 118.248 0.346503 1.53744 0
M  V30 1210 C 119.195 -0.508914 2.25119 0
M  V30 1211 C 120.165 -1.09315 1.25058 0
M  V30 1212 O 121.35 -1.12921 1.53797 0
M  V30 1213 C 118.49 -1.65246 3.02965 0
M  V30 1214 C 117.603 -1.09525 4.17886 0
M  V30 1215 C 116.738 -2.20634 4.83212 0
M  V30 1216 C 115.777 -1.62279 5.90196 0
M  V30 1217 N 114.914 -2.67143 6.49291 0
M  V30 1218 H 119.754 0.106283 2.9781 0
M  V30 1219 H 117.291 0.0642227 1.4696 0
M  V30 1220 H 119.249 -2.32574 3.4636 0
M  V30 1221 H 117.879 -2.2386 2.32565 0
M  V30 1222 H 116.931 -0.312818 3.79112 0
M  V30 1223 H 118.243 -0.628444 4.94825 0
M  V30 1224 H 117.397 -2.95821 5.29693 0
M  V30 1225 H 116.136 -2.70659 4.05703 0
M  V30 1226 H 115.141 -0.855989 5.43096 0
M  V30 1227 H 116.366 -1.13102 6.69615 0
M  V30 1228 H 114.312 -3.16417 5.74645 0
M  V30 1229 H 114.229 -2.25093 7.21713 0
M  V30 1230 H 115.497 -3.4209 7.00425 0
M  V30 1231 N 119.726 -1.57421 0.075193 0
M  V30 1232 C 120.972 -1.93905 -0.594025 0
M  V30 1233 C 121.305 -0.955701 -1.69056 0
M  V30 1234 O 120.58 0.0145373 -1.94495 0
M  V30 1235 C 120.863 -3.40638 -1.1678 0
M  V30 1236 C 120.716 -4.49733 -0.0776792 0
M  V30 1237 C 122.035 -3.88259 -2.07228 0
M  V30 1238 H 119.154 -0.705105 -0.214466 0
M  V30 1239 H 121.796 -1.8947 0.141854 0
M  V30 1240 H 119.946 -3.44549 -1.79494 0
M  V30 1241 H 121.618 -4.57942 0.555573 0
M  V30 1242 H 119.861 -4.29751 0.591286 0
M  V30 1243 H 120.532 -5.49549 -0.519603 0
M  V30 1244 H 123.008 -3.86376 -1.54445 0
M  V30 1245 H 121.884 -4.91533 -2.44308 0
M  V30 1246 H 122.145 -3.26396 -2.98191 0
M  V30 1247 N 121.204 0.198386 -1.56346 0
M  V30 1248 C 122.429 0.939682 -1.84891 0
M  V30 1249 C 122.854 1.76202 -0.658369 0
M  V30 1250 O 122.212 1.76993 0.392851 0
M  V30 1251 C 122.26 1.81428 -3.11635 0
M  V30 1252 O 121.364 2.91265 -2.91956 0
M  V30 1253 H 120.705 0.264807 -0.608912 0
M  V30 1254 H 123.235 0.204695 -2.03573 0
M  V30 1255 H 123.245 2.21958 -3.42343 0
M  V30 1256 H 121.92 1.21004 -3.97908 0
M  V30 1257 H 120.497 2.54514 -2.72538 0
M  V30 1258 N 122.682 1.50554 0.465978 0
M  V30 1259 C 123.612 1.72722 1.57128 0
M  V30 1260 C 124.593 0.576294 1.6004 0
M  V30 1261 O 125.778 0.81598 1.76225 0
M  V30 1262 C 122.908 1.82605 2.95419 0
M  V30 1263 C 121.862 2.97835 3.07373 0
M  V30 1264 C 121.188 2.92867 4.47363 0
M  V30 1265 C 122.488 4.38265 2.84114 0
M  V30 1266 H 124.182 2.65267 1.38829 0
M  V30 1267 H 121.728 1.2765 0.666441 0
M  V30 1268 H 123.681 1.96698 3.72677 0
M  V30 1269 H 122.405 0.866858 3.14886 0
M  V30 1270 H 121.064 2.83401 2.3255 0
M  V30 1271 H 120.712 1.94783 4.63755 0
M  V30 1272 H 120.412 3.70227 4.56296 0
M  V30 1273 H 121.936 3.09015 5.26633 0
M  V30 1274 H 123.35 4.53198 3.51118 0
M  V30 1275 H 121.747 5.17115 3.04487 0
M  V30 1276 H 122.817 4.50281 1.7993 0
M  V30 1277 N 124.16 -0.719506 1.40217 0
M  V30 1278 C 125.409 -1.47486 1.37589 0
M  V30 1279 C 125.722 -1.9559 -0.0201568 0
M  V30 1280 O 126.928 -2.70973 -0.169049 0
M  V30 1281 C 125.384 -2.66575 2.41796 0
M  V30 1282 C 124.992 -2.25358 3.87192 0
M  V30 1283 C 126.736 -3.4433 2.48269 0
M  V30 1284 C 124.643 -3.41262 4.83005 0
M  V30 1285 H 123.573 -0.553901 0.511576 0
M  V30 1286 H 126.224 -0.783427 1.65936 0
M  V30 1287 H 124.606 -3.3787 2.06543 0
M  V30 1288 H 125.78 -1.61509 4.31569 0
M  V30 1289 H 124.095 -1.60657 3.84159 0
M  V30 1290 H 126.692 -4.30569 3.17041 0
M  V30 1291 H 127.035 -3.87872 1.51198 0
M  V30 1292 H 127.568 -2.80076 2.82493 0
M  V30 1293 H 124.307 -3.02755 5.81394 0
M  V30 1294 H 123.827 -4.0404 4.43297 0
M  V30 1295 H 125.506 -4.07383 5.02641 0
M  V30 1296 N 125.638 -1.25649 -0.95132 0
M  V30 1297 C 126.884 -1.10757 -1.69884 0
M  V30 1298 C 127.217 0.350061 -1.91019 0
M  V30 1299 O 126.492 1.25783 -1.48354 0
M  V30 1300 C 126.775 -1.86606 -3.07978 0
M  V30 1301 C 126.628 -3.40217 -2.94232 0
M  V30 1302 C 127.947 -1.65182 -4.07925 0
M  V30 1303 H 125.066 -0.40374 -0.616574 0
M  V30 1304 H 127.708 -1.54521 -1.10558 0
M  V30 1305 H 125.858 -1.49409 -3.58621 0
M  V30 1306 H 127.53 -3.87108 -2.50889 0
M  V30 1307 H 125.773 -3.67759 -2.30078 0
M  V30 1308 H 126.444 -3.88505 -3.92133 0
M  V30 1309 H 128.92 -1.9757 -3.66204 0
M  V30 1310 H 127.796 -2.20683 -5.02583 0
M  V30 1311 H 128.057 -0.593933 -4.38092 0
M  V30 1312 N 127.117 1.15442 -1.07289 0
M  V30 1313 C 128.357 1.8788 -0.805012 0
M  V30 1314 C 128.721 1.80413 0.656907 0
M  V30 1315 O 129.922 2.47874 1.0398 0
M  V30 1316 C 128.193 3.3298 -1.29843 0
M  V30 1317 S 129.752 4.23158 -1.16114 0
M  V30 1318 H 126.57 0.64839 -0.291739 0
M  V30 1319 H 129.172 1.39285 -1.37186 0
M  V30 1320 H 127.876 3.35958 -2.35712 0
M  V30 1321 H 127.407 3.86629 -0.726767 0
M  V30 1322 H 129.422 4.96103 -0.0982778 0
M  V30 1323 N 128.595 0.856903 1.32268 0
M  V30 1324 C 129.82 0.474569 2.01897 0
M  V30 1325 C 130.245 -0.921766 1.63967 0
M  V30 1326 O 129.603 -1.60589 0.84148 0
M  V30 1327 C 129.651 0.623799 3.55164 0
M  V30 1328 O 128.755 -0.342459 4.10976 0
M  V30 1329 H 128.096 0.190422 0.63611 0
M  V30 1330 H 130.626 1.15672 1.68764 0
M  V30 1331 H 130.636 0.512169 4.04773 0
M  V30 1332 H 129.311 1.64202 3.82113 0
M  V30 1333 H 127.888 -0.18688 3.72431 0
M  V30 1334 N 130.073 -1.45103 0.615059 0
M  V30 1335 C 131.036 -2.29025 -0.0895485 0
M  V30 1336 C 132.036 -1.40174 -0.787906 0
M  V30 1337 O 133.226 -1.62217 -0.634933 0
M  V30 1338 C 130.358 -3.21376 -1.13711 0
M  V30 1339 H 131.551 -2.92807 0.648382 0
M  V30 1340 H 129.104 -1.51749 0.374444 0
M  V30 1341 H 129.839 -2.6241 -1.90556 0
M  V30 1342 H 129.624 -3.86834 -0.640475 0
M  V30 1343 H 131.114 -3.84459 -1.63036 0
M  V30 1344 N 131.551 -0.354651 -1.53558 0
M  V30 1345 C 132.481 0.489091 -2.2832 0
M  V30 1346 C 133.462 1.09324 -1.30316 0
M  V30 1347 O 134.647 1.11255 -1.59173 0
M  V30 1348 C 131.777 1.63456 -3.0643 0
M  V30 1349 C 130.731 1.1582 -4.12031 0
M  V30 1350 C 130.057 2.39305 -4.7816 0
M  V30 1351 C 131.357 0.250731 -5.21698 0
M  V30 1352 H 133.051 -0.134614 -2.99097 0
M  V30 1353 H 130.597 -0.0661826 -1.43848 0
M  V30 1354 H 132.55 2.23136 -3.57475 0
M  V30 1355 H 131.274 2.28533 -2.33325 0
M  V30 1356 H 129.933 0.584146 -3.61916 0
M  V30 1357 H 129.581 3.02814 -4.01637 0
M  V30 1358 H 129.281 2.08109 -5.49513 0
M  V30 1359 H 130.805 2.99691 -5.31994 0
M  V30 1360 H 132.219 0.754695 -5.68311 0
M  V30 1361 H 130.616 0.0301468 -6.00092 0
M  V30 1362 H 131.686 -0.710125 -4.79672 0
M  V30 1363 N 133.029 1.57378 -0.0835403 0
M  V30 1364 C 133.976 2.13384 0.879539 0
M  V30 1365 C 134.946 1.04936 1.28754 0
M  V30 1366 O 136.131 1.32662 1.37133 0
M  V30 1367 C 133.271 2.70932 2.13752 0
M  V30 1368 C 132.384 3.93575 1.7811 0
M  V30 1369 C 131.519 4.39326 2.98607 0
M  V30 1370 C 130.558 5.54587 2.59037 0
M  V30 1371 N 129.695 5.95243 3.72331 0
M  V30 1372 H 134.535 2.9537 0.395076 0
M  V30 1373 H 132.072 1.45953 0.183349 0
M  V30 1374 H 134.03 3.02411 2.87408 0
M  V30 1375 H 132.66 1.91693 2.59718 0
M  V30 1376 H 131.712 3.68483 0.94469 0
M  V30 1377 H 133.024 4.77258 1.45005 0
M  V30 1378 H 132.178 4.72528 3.80529 0
M  V30 1379 H 130.917 3.5452 3.34913 0
M  V30 1380 H 129.922 5.21024 1.75539 0
M  V30 1381 H 131.147 6.41133 2.23887 0
M  V30 1382 H 129.093 5.13385 4.08378 0
M  V30 1383 H 129.01 6.73694 3.43034 0
M  V30 1384 H 130.278 6.33072 4.54797 0
M  V30 1385 N 134.507 -0.190092 1.56449 0
M  V30 1386 C 135.454 -1.23557 1.94942 0
M  V30 1387 C 136.424 -1.44972 0.810696 0
M  V30 1388 O 137.609 -1.58023 1.06927 0
M  V30 1389 C 134.749 -2.57416 2.2985 0
M  V30 1390 C 133.862 -2.43537 3.5681 0
M  V30 1391 C 132.997 -3.70134 3.81017 0
M  V30 1392 C 132.036 -3.51109 5.01387 0
M  V30 1393 N 131.173 -4.6973 5.21822 0
M  V30 1394 H 136.013 -0.900304 2.84075 0
M  V30 1395 H 133.55 -0.43318 1.40577 0
M  V30 1396 H 135.508 -3.35409 2.48106 0
M  V30 1397 H 134.138 -2.88975 1.43852 0
M  V30 1398 H 133.19 -1.56816 3.46573 0
M  V30 1399 H 134.502 -2.25415 4.4496 0
M  V30 1400 H 133.656 -4.56566 3.9954 0
M  V30 1401 H 132.395 -3.91215 2.91207 0
M  V30 1402 H 131.4 -2.63063 4.82782 0
M  V30 1403 H 132.625 -3.31468 5.9271 0
M  V30 1404 H 130.571 -4.91065 4.34961 0
M  V30 1405 H 130.488 -4.54452 6.0416 0
M  V30 1406 H 131.756 -5.57499 5.44808 0
M  V30 1407 N 135.985 -1.50799 -0.457987 0
M  V30 1408 C 136.935 -1.67003 -1.55222 0
M  V30 1409 C 137.919 -0.52434 -1.52117 0
M  V30 1410 O 139.111 -0.779345 -1.58919 0
M  V30 1411 C 136.24 -1.77956 -2.93576 0
M  V30 1412 C 135.326 -2.98243 -3.01516 0
M  V30 1413 N 135.717 -4.21732 -2.79241 0
M  V30 1414 C 134.015 -2.97072 -3.32662 0
M  V30 1415 C 134.716 -5.02817 -2.92489 0
M  V30 1416 N 133.692 -4.37038 -3.23262 0
M  V30 1417 H 137.494 -2.60163 -1.36721 0
M  V30 1418 H 135.008 -1.48163 -0.664952 0
M  V30 1419 H 137.005 -1.87671 -3.72271 0
M  V30 1420 H 135.665 -0.859634 -3.13114 0
M  V30 1421 H 136.676 -4.51016 -2.54567 0
M  V30 1422 H 133.353 -2.14631 -3.58106 0
M  V30 1423 H 134.743 -6.11054 -2.79396 0
M  V30 1424 N 137.463 0.71206 -1.40597 0
M  V30 1425 C 138.693 1.49894 -1.42181 0
M  V30 1426 C 139.101 1.89189 -0.0208078 0
M  V30 1427 O 138.444 1.56223 0.966436 0
M  V30 1428 C 138.506 2.80215 -2.25211 0
M  V30 1429 C 138.17 2.63221 -3.73582 0
M  V30 1430 C 139.167 2.30249 -4.66135 0
M  V30 1431 C 136.852 2.79376 -4.17438 0
M  V30 1432 C 138.846 2.13645 -6.00529 0
M  V30 1433 C 136.533 2.6239 -5.51901 0
M  V30 1434 C 137.531 2.29573 -6.43262 0
M  V30 1435 O 137.219 2.12719 -7.75246 0
M  V30 1436 H 136.951 0.469031 -0.486812 0
M  V30 1437 H 139.505 0.88564 -1.85326 0
M  V30 1438 H 137.735 3.4389 -1.76852 0
M  V30 1439 H 139.424 3.41947 -2.18694 0
M  V30 1440 H 140.19 2.17398 -4.33547 0
M  V30 1441 H 136.069 3.03906 -3.46644 0
M  V30 1442 H 139.613 1.87953 -6.71803 0
M  V30 1443 H 135.51 2.74826 -5.84073 0
M  V30 1444 H 136.278 2.27611 -7.86216 0
M  V30 1445 N 138.941 1.26152 0.944643 0
M  V30 1446 C 140.357 1.03189 1.21754 0
M  V30 1447 C 140.557 -0.245112 2.00004 0
M  V30 1448 O 139.613 -0.955176 2.33736 0
M  V30 1449 C 140.926 2.26119 1.98219 0
M  V30 1450 C 142.474 2.30984 2.11224 0
M  V30 1451 C 142.949 3.53597 2.91089 0
M  V30 1452 N 144.44 3.54053 2.98664 0
M  V30 1453 C 145.175 4.45593 3.60881 0
M  V30 1454 N 144.671 5.47416 4.24626 0
M  V30 1455 N 146.464 4.33252 3.58119 0
M  V30 1456 H 138.615 2.08177 0.421437 0
M  V30 1457 H 140.878 0.914723 0.248969 0
M  V30 1458 H 140.584 3.18984 1.48128 0
M  V30 1459 H 140.458 2.3009 2.98895 0
M  V30 1460 H 142.845 1.38635 2.60508 0
M  V30 1461 H 142.926 2.31026 1.09821 0
M  V30 1462 H 142.57 4.46273 2.42493 0
M  V30 1463 H 142.5 3.50802 3.92741 0
M  V30 1464 H 144.991 2.80403 2.53343 0
M  V30 1465 H 145.304 6.13459 4.69987 0
M  V30 1466 H 143.649 5.51278 4.23223 0
M  V30 1467 H 146.84 3.52924 3.0751 0
M  V30 1468 H 147.013 5.04786 4.06319 0
M  V30 1469 N 140.419 -1.14872 1.07899 0
M  V30 1470 C 141.696 -1.81928 0.71845 0
M  V30 1471 C 142.076 -1.95417 -0.798455 0
M  V30 1472 O 141.424 -1.50997 -1.715 0
M  V30 1473 C 141.634 -3.17937 1.43935 0
M  V30 1474 C 142.982 -3.93501 1.59506 0
M  V30 1475 O 144.006 -3.27509 1.40058 0
M  V30 1476 O 142.865 -5.1183 1.91551 0
M  V30 1477 H 139.959 -0.78628 0.256305 0
M  V30 1478 H 142.505 -1.21934 1.18026 0
M  V30 1479 H 141.277 -3.0325 2.47295 0
M  V30 1480 H 140.9 -3.85619 0.968687 0
M  V30 1481 N 141.898 -0.863906 -1.31812 0
M  V30 1482 C 142.828 -0.330843 -2.31144 0
M  V30 1483 C 143.809 0.575005 -1.60087 0
M  V30 1484 O 144.994 0.493304 -1.8783 0
M  V30 1485 C 142.124 0.47374 -3.44054 0
M  V30 1486 C 141.078 -0.338481 -4.26659 0
M  V30 1487 C 140.404 0.591412 -5.31419 0
M  V30 1488 C 141.704 -1.56926 -4.98168 0
M  V30 1489 H 143.398 -1.16086 -2.75979 0
M  V30 1490 H 140.944 -0.559657 -1.32679 0
M  V30 1491 H 142.897 0.857143 -4.12591 0
M  V30 1492 H 141.621 1.33721 -2.9797 0
M  V30 1493 H 140.28 -0.703754 -3.59782 0
M  V30 1494 H 139.928 1.45199 -4.81587 0
M  V30 1495 H 139.628 0.0519022 -5.87577 0
M  V30 1496 H 141.152 0.97179 -6.02817 0
M  V30 1497 H 142.566 -1.25764 -5.59336 0
M  V30 1498 H 140.963 -2.04739 -5.64094 0
M  V30 1499 H 142.033 -2.32544 -4.25501 0
M  V30 1500 N 143.376 1.44774 -0.622745 0
M  V30 1501 C 144.306 2.33382 0.0741861 0
M  V30 1502 C 145.287 1.47719 0.843387 0
M  V30 1503 O 146.472 1.76458 0.810934 0
M  V30 1504 C 143.602 3.30663 1.06204 0
M  V30 1505 C 142.556 4.26079 0.405037 0
M  V30 1506 C 141.882 5.13165 1.5022 0
M  V30 1507 C 143.182 5.1781 -0.683414 0
M  V30 1508 H 144.876 2.91905 -0.665713 0
M  V30 1509 H 142.422 1.40363 -0.321587 0
M  V30 1510 H 144.375 3.9153 1.55827 0
M  V30 1511 H 143.099 2.70331 1.83272 0
M  V30 1512 H 141.758 3.66532 -0.0704683 0
M  V30 1513 H 141.406 4.49191 2.26355 0
M  V30 1514 H 141.106 5.77812 1.06803 0
M  V30 1515 H 142.63 5.76902 2.00041 0
M  V30 1516 H 144.044 5.72661 -0.270631 0
M  V30 1517 H 142.441 5.91015 -1.04023 0
M  V30 1518 H 143.511 4.59326 -1.55395 0
M  V30 1519 N 144.854 0.36279 1.53368 0
M  V30 1520 C 146.27 0.0116182 1.59596 0
M  V30 1521 C 146.47 -1.47012 1.37803 0
M  V30 1522 O 145.526 -2.23136 1.18181 0
M  V30 1523 C 146.839 0.465052 2.97082 0
M  V30 1524 C 148.387 0.419033 3.10182 0
M  V30 1525 C 148.862 0.848235 4.50077 0
M  V30 1526 N 150.353 0.803183 4.56183 0
M  V30 1527 C 151.088 1.107 5.62613 0
M  V30 1528 N 150.584 1.47996 6.76808 0
M  V30 1529 N 152.377 1.02998 5.52583 0
M  V30 1530 H 144.528 1.32775 1.65785 0
M  V30 1531 H 146.791 0.542518 0.777417 0
M  V30 1532 H 146.497 1.49892 3.18159 0
M  V30 1533 H 146.371 -0.149786 3.76902 0
M  V30 1534 H 148.758 -0.605696 2.88817 0
M  V30 1535 H 148.839 1.06933 2.32377 0
M  V30 1536 H 148.483 1.87107 4.7218 0
M  V30 1537 H 148.413 0.175218 5.26308 0
M  V30 1538 H 150.904 0.52838 3.74188 0
M  V30 1539 H 151.217 1.69613 7.53957 0
M  V30 1540 H 149.562 1.51859 6.78206 0
M  V30 1541 H 152.753 0.737817 4.62249 0
M  V30 1542 H 152.926 1.2701 6.35431 0
M  V30 1543 N 146.332 -1.57332 0.0918853 0
M  V30 1544 C 147.242 -2.17368 -0.882505 0
M  V30 1545 C 148.258 -1.14226 -1.31257 0
M  V30 1546 O 149.434 -1.46582 -1.38115 0
M  V30 1547 C 146.499 -2.73962 -2.12476 0
M  V30 1548 C 145.56 -3.92048 -1.7492 0
M  V30 1549 C 144.793 -4.45933 -2.93223 0
M  V30 1550 O 145.016 -3.98764 -4.07852 0
M  V30 1551 O 143.95 -5.36999 -2.71875 0
M  V30 1552 H 147.776 -3.01031 -0.40172 0
M  V30 1553 H 145.361 -1.48813 -0.132291 0
M  V30 1554 H 147.243 -3.10147 -2.85283 0
M  V30 1555 H 145.918 -1.93347 -2.59613 0
M  V30 1556 H 144.825 -3.6068 -0.993025 0
M  V30 1557 H 146.158 -4.74017 -1.32548 0
M  V30 1558 N 147.81 0.181792 -1.56548 0
M  V30 1559 C 149.058 0.89832 -1.81038 0
M  V30 1560 C 149.379 1.83232 -0.667164 0
M  V30 1561 O 148.649 1.93372 0.313673 0
M  V30 1562 H 147.229 0.33471 -0.667816 0
M  V30 1563 H 149.891 0.184116 -1.94028 0
M  V30 1564 H 148.987 1.4815 -2.74696 0
M  V30 1565 N 149.288 1.51039 0.449983 0
M  V30 1566 C 150.236 1.71995 1.5659 0
M  V30 1567 C 151.23 0.586029 1.5894 0
M  V30 1568 O 152.436 0.76709 1.62837 0
M  V30 1569 H 148.811 0.543233 0.520001 0
M  V30 1570 H 150.782 2.65562 1.36085 0
M  V30 1571 C 149.531 1.8506 2.9436 0
M  V30 1572 H 148.854 2.71712 2.93279 0
M  V30 1573 H 150.294 2.0374 3.71842 0
M  V30 1574 C 148.753 0.607277 3.31382 0
M  V30 1575 O 149.283 -0.243903 4.00959 0
M  V30 1576 N 147.489 0.455073 2.87015 0
M  V30 1577 H 147.036 1.14879 2.30566 0
M  V30 1578 H 146.994 -0.375611 3.12148 0
M  V30 1579 N 150.766 -0.704594 1.40972 0
M  V30 1580 C 152.177 -1.28418 1.3552 0
M  V30 1581 C 152.528 -1.96171 0.0339434 0
M  V30 1582 O 151.653 -1.98231 -0.867944 0
M  V30 1583 C 152.248 -2.33528 2.45459 0
M  V30 1584 C 150.807 -2.87085 2.43433 0
M  V30 1585 C 149.954 -1.61007 2.2577 0
M  V30 1586 H 152.905 -0.499963 1.50619 0
M  V30 1587 H 152.926 -3.14619 2.13998 0
M  V30 1588 H 152.438 -1.84187 3.41609 0
M  V30 1589 H 150.539 -3.40626 1.51013 0
M  V30 1590 H 150.652 -3.3813 3.39419 0
M  V30 1591 H 149.016 -1.86482 1.73483 0
M  V30 1592 H 149.799 -1.13675 3.23933 0
M  V30 1593 N 152.244 -1.26651 -0.937939 0
M  V30 1594 C 153.192 -1.08308 -2.05845 0
M  V30 1595 C 154.186 -0.0090757 -1.69398 0
M  V30 1596 O 155.392 -0.166007 -1.79233 0
M  V30 1597 H 151.767 -0.333416 -0.674046 0
M  V30 1598 H 153.738 -2.03261 -2.18467 0
M  V30 1599 C 152.487 -0.736229 -3.39816 0
M  V30 1600 H 151.81 -1.55453 -3.6834 0
M  V30 1601 H 153.25 -0.64769 -4.19024 0
M  V30 1602 C 151.709 0.558824 -3.32233 0
M  V30 1603 O 152.239 1.59621 -3.68624 0
M  V30 1604 N 150.445 0.550657 -2.85335 0
M  V30 1605 H 149.992 -0.293943 -2.55917 0
M  V30 1606 H 149.95 1.41726 -2.80644 0
M  V30 1607 N 153.722 1.14298 -1.08507 0
M  V30 1608 C 154.652 2.21542 -0.737646 0
M  V30 1609 C 155.633 1.67773 0.280377 0
M  V30 1610 O 156.818 1.93616 0.150521 0
M  V30 1611 C 153.948 3.46988 -0.147259 0
M  V30 1612 C 152.902 4.13789 -1.09374 0
M  V30 1613 C 152.228 5.33449 -0.365524 0
M  V30 1614 C 153.528 4.62208 -2.4323 0
M  V30 1615 H 155.222 2.5086 -1.6343 0
M  V30 1616 H 152.768 1.20576 -0.787243 0
M  V30 1617 H 154.721 4.21262 0.107808 0
M  V30 1618 H 153.445 3.17037 0.784538 0
M  V30 1619 H 152.104 3.4147 -1.33393 0
M  V30 1620 H 151.752 4.99759 0.57011 0
M  V30 1621 H 151.452 5.79088 -0.996512 0
M  V30 1622 H 152.976 6.10485 -0.118534 0
M  V30 1623 H 154.39 5.27952 -2.23472 0
M  V30 1624 H 152.787 5.18553 -3.02031 0
M  V30 1625 H 153.857 3.77224 -3.04681 0
M  V30 1626 N 155.201 0.870884 1.31352 0
M  V30 1627 C 156.426 0.495957 2.01383 0
M  V30 1628 C 156.851 -0.904324 1.64935 0
M  V30 1629 O 156.209 -1.59687 0.858466 0
M  V30 1630 C 156.257 0.661433 3.54482 0
M  V30 1631 O 155.361 -0.298851 4.11316 0
M  V30 1632 H 154.702 0.197158 0.634054 0
M  V30 1633 H 157.232 1.17455 1.67527 0
M  V30 1634 H 157.242 0.555072 4.04207 0
M  V30 1635 H 155.917 1.68246 3.8035 0
M  V30 1636 H 154.494 -0.147368 3.72609 0
M  V30 1637 N 156.679 -1.44442 0.630414 0
M  V30 1638 C 157.926 -2.02052 0.134617 0
M  V30 1639 C 158.254 -1.49576 -1.24327 0
M  V30 1640 O 157.509 -0.669806 -1.83881 0
M  V30 1641 C 157.808 -3.57332 0.0697835 0
M  V30 1642 C 157.474 -4.29058 1.38635 0
M  V30 1643 C 156.136 -4.4837 1.74694 0
M  V30 1644 C 158.488 -4.69872 2.25543 0
M  V30 1645 C 155.816 -5.05756 2.97369 0
M  V30 1646 C 158.168 -5.28616 3.47487 0
M  V30 1647 C 156.832 -5.46147 3.8377 0
M  V30 1648 H 156.102 -0.739361 0.0492598 0
M  V30 1649 H 158.749 -1.73217 0.816586 0
M  V30 1650 H 157.054 -3.85577 -0.695553 0
M  V30 1651 H 158.751 -3.99637 -0.330344 0
M  V30 1652 H 155.341 -4.14357 1.09574 0
M  V30 1653 H 159.525 -4.54666 1.98979 0
M  V30 1654 H 154.781 -5.17515 3.25558 0
M  V30 1655 H 158.955 -5.59192 4.15063 0
M  V30 1656 H 156.582 -5.9038 4.7891 0
M  V30 1657 N 158.157 -0.370918 -1.53173 0
M  V30 1658 C 159.406 0.218249 -2.00516 0
M  V30 1659 C 159.719 1.49429 -1.26215 0
M  V30 1660 O 160.925 2.16239 -1.64174 0
M  V30 1661 C 159.381 0.43948 -3.57207 0
M  V30 1662 C 158.989 -0.822244 -4.4039 0
M  V30 1663 C 160.733 0.986012 -4.1289 0
M  V30 1664 C 158.64 -0.570304 -5.88644 0
M  V30 1665 H 157.57 0.0853333 -0.749156 0
M  V30 1666 H 160.221 -0.490483 -1.76823 0
M  V30 1667 H 158.603 1.20961 -3.77074 0
M  V30 1668 H 159.777 -1.59557 -4.32294 0
M  V30 1669 H 158.092 -1.29238 -3.95836 0
M  V30 1670 H 160.689 1.18991 -5.21292 0
M  V30 1671 H 161.032 1.94972 -3.6782 0
M  V30 1672 H 161.565 0.27592 -3.96842 0
M  V30 1673 H 158.304 -1.50449 -6.38001 0
M  V30 1674 H 157.824 0.164427 -5.99575 0
M  V30 1675 H 159.503 -0.19784 -6.46697 0
M  V30 1676 N 159.635 1.57281 -0.100228 0
M  V30 1677 C 160.865 1.98591 0.569681 0
M  V30 1678 C 161.273 0.978315 1.61943 0
M  V30 1679 O 160.616 -0.0396108 1.83657 0
M  V30 1680 C 160.678 3.36282 1.271 0
M  V30 1681 C 160.342 4.55488 0.371409 0
M  V30 1682 C 161.339 5.18491 -0.382504 0
M  V30 1683 C 159.024 5.01474 0.287965 0
M  V30 1684 C 161.018 6.25852 -1.20779 0
M  V30 1685 C 158.705 6.08701 -0.540965 0
M  V30 1686 C 159.703 6.70755 -1.28749 0
M  V30 1687 O 159.391 7.75914 -2.10269 0
M  V30 1688 H 159.123 0.65752 0.156982 0
M  V30 1689 H 161.677 2.0463 -0.177734 0
M  V30 1690 H 159.907 3.26941 2.0651 0
M  V30 1691 H 161.596 3.62005 1.83595 0
M  V30 1692 H 162.362 4.83891 -0.3278 0
M  V30 1693 H 158.241 4.52932 0.858689 0
M  V30 1694 H 161.785 6.74218 -1.79096 0
M  V30 1695 H 157.682 6.42732 -0.597131 0
M  V30 1696 H 158.45 7.92925 -2.03007 0
M  V30 1697 N 161.113 -0.173488 1.56642 0
M  V30 1698 C 162.043 -1.2171 1.99271 0
M  V30 1699 C 163.024 -1.46289 0.867959 0
M  V30 1700 O 164.209 -1.5766 1.13388 0
M  V30 1701 C 161.339 -2.55651 2.35074 0
M  V30 1702 C 160.293 -2.45645 3.50489 0
M  V30 1703 C 159.619 -3.84056 3.72028 0
M  V30 1704 C 160.919 -1.96302 4.84007 0
M  V30 1705 H 162.613 -0.86275 2.867 0
M  V30 1706 H 160.159 -0.413571 1.37933 0
M  V30 1707 H 162.112 -3.2886 2.63494 0
M  V30 1708 H 160.836 -2.92869 1.44552 0
M  V30 1709 H 159.495 -1.7489 3.22194 0
M  V30 1710 H 159.143 -4.18664 2.788 0
M  V30 1711 H 158.843 -3.7823 4.49684 0
M  V30 1712 H 160.367 -4.58854 4.02846 0
M  V30 1713 H 161.781 -2.59284 5.11317 0
M  V30 1714 H 160.178 -2.01429 5.65284 0
M  V30 1715 H 161.248 -0.917226 4.76146 0
M  V30 1716 N 162.591 -1.51276 -0.441967 0
M  V30 1717 C 163.538 -1.72256 -1.53612 0
M  V30 1718 C 164.508 -0.564164 -1.56225 0
M  V30 1719 O 165.693 -0.798074 -1.73307 0
M  V30 1720 C 162.833 -1.84932 -2.91366 0
M  V30 1721 C 161.946 -3.12459 -2.98317 0
M  V30 1722 C 161.081 -3.15758 -4.27166 0
M  V30 1723 C 160.12 -4.37619 -4.27967 0
M  V30 1724 N 159.257 -4.38493 -5.48333 0
M  V30 1725 H 164.097 -2.65654 -1.35026 0
M  V30 1726 H 161.634 -1.31662 -0.656009 0
M  V30 1727 H 163.592 -1.90263 -3.7129 0
M  V30 1728 H 162.222 -0.949461 -3.08521 0
M  V30 1729 H 161.274 -3.1646 -2.11086 0
M  V30 1730 H 162.586 -4.02382 -2.94771 0
M  V30 1731 H 161.74 -3.19979 -5.15459 0
M  V30 1732 H 160.479 -2.23715 -4.33362 0
M  V30 1733 H 159.484 -4.33579 -3.38067 0
M  V30 1734 H 160.709 -5.30921 -4.23438 0
M  V30 1735 H 158.655 -3.49318 -5.55259 0
M  V30 1736 H 158.572 -5.22219 -5.46647 0
M  V30 1737 H 159.84 -4.469 -6.38671 0
M  V30 1738 N 164.069 0.697108 -1.41344 0
M  V30 1739 C 165.317 1.45426 -1.40341 0
M  V30 1740 C 165.638 1.94996 -0.0128787 0
M  V30 1741 O 164.908 1.71599 0.945027 0
M  V30 1742 H 163.488 0.539594 -0.516573 0
M  V30 1743 H 166.15 0.825201 -1.76569 0
M  V30 1744 H 165.246 2.31817 -2.08967 0
M  V30 1745 N 165.547 1.27147 0.931209 0
M  V30 1746 C 166.824 1.0401 1.65654 0
M  V30 1747 C 167.204 -0.426297 2.06751 0
M  V30 1748 O 166.552 -1.40879 1.79904 0
M  V30 1749 C 166.762 1.99834 2.86125 0
M  V30 1750 C 168.11 2.29007 3.57549 0
M  V30 1751 O 169.134 1.97779 2.96246 0
M  V30 1752 O 167.993 2.82222 4.67989 0
M  V30 1753 H 165.087 0.396239 0.725895 0
M  V30 1754 H 167.633 1.38397 0.982056 0
M  V30 1755 H 166.405 2.98744 2.52721 0
M  V30 1756 H 166.028 1.65987 3.61295 0
M  V30 1757 N 167.025 -1.13721 1.09112 0
M  V30 1758 C 168.272 -1.84924 0.825192 0
M  V30 1759 C 168.6 -1.83347 -0.649151 0
M  V30 1760 O 167.855 -1.26449 -1.49362 0
M  V30 1761 C 168.154 -3.32861 1.30146 0
M  V30 1762 C 167.82 -3.54621 2.78486 0
M  V30 1763 C 166.482 -3.60268 3.18999 0
M  V30 1764 C 168.834 -3.62855 3.74146 0
M  V30 1765 C 166.162 -3.71679 4.53951 0
M  V30 1766 C 168.514 -3.75793 5.08883 0
M  V30 1767 C 167.178 -3.79692 5.4899 0
M  V30 1768 H 166.448 -0.676684 0.301959 0
M  V30 1769 H 169.095 -1.3428 1.36533 0
M  V30 1770 H 167.4 -3.85835 0.681064 0
M  V30 1771 H 169.097 -3.86395 1.07236 0
M  V30 1772 H 165.687 -3.50879 2.46134 0
M  V30 1773 H 169.871 -3.57775 3.43963 0
M  V30 1774 H 165.127 -3.72963 4.84467 0
M  V30 1775 H 169.301 -3.81107 5.82864 0
M  V30 1776 H 166.928 -3.88287 6.53558 0
M  V30 1777 N 168.503 -0.877838 -1.30888 0
M  V30 1778 C 169.78 -0.413052 -1.91189 0
M  V30 1779 C 170.16 1.1056 -1.79832 0
M  V30 1780 O 169.508 1.93771 -1.21099 0
M  V30 1781 C 169.718 -0.903191 -3.3711 0
M  V30 1782 C 171.066 -0.93395 -4.14201 0
M  V30 1783 O 172.09 -0.849373 -3.45925 0
M  V30 1784 O 170.949 -1.05772 -5.36167 0
M  V30 1785 H 168.043 -0.125035 -0.817493 0
M  V30 1786 H 170.589 -0.966269 -1.39504 0
M  V30 1787 H 169.361 -1.94692 -3.39427 0
M  V30 1788 H 168.984 -0.328732 -3.96239 0
M  V30 1789 N 169.982 1.44106 -0.638065 0
M  V30 1790 C 171.228 2.02277 -0.145546 0
M  V30 1791 C 171.561 1.50125 1.23191 0
M  V30 1792 O 170.836 0.688133 1.8192 0
M  V30 1793 C 171.119 3.59829 -0.139791 0
M  V30 1794 C 170.972 4.22247 -1.55008 0
M  V30 1795 C 172.291 4.36873 0.531966 0
M  V30 1796 H 169.41 0.734992 -0.0543632 0
M  V30 1797 H 172.052 1.71592 -0.815863 0
M  V30 1798 H 170.202 3.86102 0.431007 0
M  V30 1799 H 171.874 4.07057 -2.1703 0
M  V30 1800 H 170.117 3.79476 -2.10191 0
M  V30 1801 H 170.788 5.31284 -1.49804 0
M  V30 1802 H 173.264 4.16074 0.0464781 0
M  V30 1803 H 172.14 5.4657 0.505206 0
M  V30 1804 H 172.401 4.11995 1.60352 0
M  V30 1805 N 171.46 0.379036 1.52974 0
M  V30 1806 C 172.709 -0.207612 2.00629 0
M  V30 1807 C 173.022 -1.48758 1.27006 0
M  V30 1808 O 174.228 -2.15365 1.65318 0
M  V30 1809 C 172.684 -0.42053 3.57435 0
M  V30 1810 C 172.292 0.845587 4.39948 0
M  V30 1811 C 174.036 -0.964102 4.13407 0
M  V30 1812 C 171.943 0.601513 5.88333 0
M  V30 1813 H 170.873 -0.0813591 0.749598 0
M  V30 1814 H 173.524 0.499853 1.76561 0
M  V30 1815 H 171.906 -1.18959 3.7771 0
M  V30 1816 H 173.08 1.61848 4.31442 0
M  V30 1817 H 171.395 1.31336 3.95145 0
M  V30 1818 H 173.992 -1.16225 5.21916 0
M  V30 1819 H 174.335 -1.93019 3.68849 0
M  V30 1820 H 174.868 -0.25487 3.96983 0
M  V30 1821 H 171.607 1.53831 6.37194 0
M  V30 1822 H 171.127 -0.132628 5.99653 0
M  V30 1823 H 172.806 0.232134 6.46583 0
M  V30 1824 N 172.938 -1.57226 0.108567 0
M  V30 1825 C 173.848 -2.18292 -0.859401 0
M  V30 1826 C 174.864 -1.15612 -1.30038 0
M  V30 1827 O 176.04 -1.48039 -1.36552 0
M  V30 1828 C 173.105 -2.762 -2.09558 0
M  V30 1829 C 172.166 -3.93881 -1.70752 0
M  V30 1830 C 171.399 -4.49018 -2.88477 0
M  V30 1831 O 171.622 -4.03068 -4.036 0
M  V30 1832 O 170.556 -5.39852 -2.66164 0
M  V30 1833 H 174.382 -3.01441 -0.369769 0
M  V30 1834 H 171.967 -1.48945 -0.1165 0
M  V30 1835 H 173.849 -3.13156 -2.81978 0
M  V30 1836 H 172.524 -1.96089 -2.57548 0
M  V30 1837 H 171.431 -3.61713 -0.954714 0
M  V30 1838 H 172.764 -4.75396 -1.27513 0
M  V30 1839 N 174.416 0.165178 -1.56732 0
M  V30 1840 C 175.641 0.900253 -1.86843 0
M  V30 1841 C 176.066 1.74766 -0.695596 0
M  V30 1842 O 175.424 1.77786 0.35522 0
M  V30 1843 C 175.472 1.74777 -3.15413 0
M  V30 1844 O 174.576 2.85007 -2.98068 0
M  V30 1845 H 173.917 0.251832 -0.614391 0
M  V30 1846 H 176.447 0.161468 -2.03962 0
M  V30 1847 H 176.457 2.14646 -3.46974 0
M  V30 1848 H 175.132 1.12537 -4.00385 0
M  V30 1849 H 173.709 2.48676 -2.77875 0
M  V30 1850 N 175.894 1.51508 0.433938 0
M  V30 1851 C 177.31 1.39759 0.770682 0
M  V30 1852 C 177.51 0.482594 1.95636 0
M  V30 1853 O 176.566 -0.0609691 2.52426 0
M  V30 1854 C 177.879 2.81851 1.04787 0
M  V30 1855 C 179.427 2.91025 1.1521 0
M  V30 1856 C 179.902 4.34032 1.46219 0
M  V30 1857 N 181.393 4.37154 1.53136 0
M  V30 1858 C 182.128 5.4484 1.78709 0
M  V30 1859 N 181.624 6.62682 2.02051 0
M  V30 1860 N 183.417 5.32324 1.80519 0
M  V30 1861 H 175.568 2.09548 -0.346892 0
M  V30 1862 H 177.831 0.943446 -0.0928074 0
M  V30 1863 H 177.537 3.50815 0.249304 0
M  V30 1864 H 177.411 3.21386 1.97461 0
M  V30 1865 H 179.798 2.22257 1.94128 0
M  V30 1866 H 179.879 2.54983 0.204281 0
M  V30 1867 H 179.523 5.03351 0.678274 0
M  V30 1868 H 179.453 4.6759 2.42212 0
M  V30 1869 H 181.944 3.52197 1.36987 0
M  V30 1870 H 182.257 7.40543 2.20943 0
M  V30 1871 H 180.602 6.65791 1.99366 0
M  V30 1872 H 183.793 4.39246 1.61805 0
M  V30 1873 H 183.966 6.16328 2.00111 0
M  V30 1874 N 177.372 -0.689602 1.41712 0
M  V30 1875 C 178.302 -1.81577 1.46806 0
M  V30 1876 C 179.283 -1.66945 0.326105 0
M  V30 1877 O 180.468 -1.86588 0.538377 0
M  V30 1878 C 177.598 -3.19762 1.35535 0
M  V30 1879 C 176.552 -3.49107 2.47605 0
M  V30 1880 C 175.878 -4.86711 2.21397 0
M  V30 1881 C 177.178 -3.47483 3.89939 0
M  V30 1882 H 178.872 -1.7757 2.41058 0
M  V30 1883 H 176.418 -0.852887 1.16025 0
M  V30 1884 H 178.371 -3.98263 1.3771 0
M  V30 1885 H 177.095 -3.24409 0.377708 0
M  V30 1886 H 175.754 -2.72959 2.44722 0
M  V30 1887 H 175.402 -4.8799 1.21961 0
M  V30 1888 H 175.102 -5.0731 2.96497 0
M  V30 1889 H 176.626 -5.67515 2.25297 0
M  V30 1890 H 178.04 -4.1598 3.94505 0
M  V30 1891 H 176.437 -3.79615 4.64771 0
M  V30 1892 H 177.507 -2.46341 4.17665 0
M  V30 1893 N 178.85 -1.27639 -0.924453 0
M  V30 1894 C 179.797 -1.10644 -2.0255 0
M  V30 1895 C 180.767 -0.00658438 -1.66099 0
M  V30 1896 O 181.952 -0.16952 -1.90045 0
M  V30 1897 C 179.092 -0.76309 -3.36557 0
M  V30 1898 C 178.205 -1.94091 -3.85944 0
M  V30 1899 C 177.34 -1.53914 -5.08413 0
M  V30 1900 C 176.379 -2.68425 -5.50104 0
M  V30 1901 N 175.516 -2.28815 -6.63768 0
M  V30 1902 H 180.356 -2.04858 -2.16419 0
M  V30 1903 H 177.893 -1.01974 -1.06017 0
M  V30 1904 H 179.851 -0.544822 -4.13627 0
M  V30 1905 H 178.481 0.142102 -3.22487 0
M  V30 1906 H 177.533 -2.27162 -3.05125 0
M  V30 1907 H 178.845 -2.7998 -4.12811 0
M  V30 1908 H 177.999 -1.28231 -5.92994 0
M  V30 1909 H 176.738 -0.651391 -4.8333 0
M  V30 1910 H 175.743 -2.94819 -4.64071 0
M  V30 1911 H 176.968 -3.57826 -5.7718 0
M  V30 1912 H 174.914 -1.42495 -6.40337 0
M  V30 1913 H 174.831 -3.08242 -6.90306 0
M  V30 1914 H 176.099 -2.06387 -7.51681 0
M  V30 1915 N 180.328 1.1314 -1.09713 0
M  V30 1916 C 181.291 2.16831 -0.742751 0
M  V30 1917 C 182.291 1.59159 0.229129 0
M  V30 1918 O 183.481 1.74199 0.00693237 0
M  V30 1919 C 180.613 3.40756 -0.0989168 0
M  V30 1920 H 181.806 2.49695 -1.66109 0
M  V30 1921 H 179.359 1.2802 -0.896699 0
M  V30 1922 H 180.094 3.13485 0.830514 0
M  V30 1923 H 179.879 3.83888 -0.798265 0
M  V30 1924 H 181.369 4.17386 0.133524 0
M  V30 1925 N 181.806 0.884767 1.30421 0
M  V30 1926 C 183.222 0.57874 1.48737 0
M  V30 1927 C 183.422 -0.883567 1.81095 0
M  V30 1928 O 182.478 -1.6648 1.89844 0
M  V30 1929 C 183.791 1.49171 2.61091 0
M  V30 1930 C 185.339 1.49532 2.74971 0
M  V30 1931 C 185.814 2.39421 3.90438 0
M  V30 1932 N 187.305 2.37383 3.97748 0
M  V30 1933 C 188.04 3.03647 4.86401 0
M  V30 1934 N 187.536 3.79136 5.79852 0
M  V30 1935 N 189.329 2.9288 4.79768 0
M  V30 1936 H 181.48 1.83075 1.0769 0
M  V30 1937 H 183.743 0.783637 0.533495 0
M  V30 1938 H 183.449 2.53291 2.44001 0
M  V30 1939 H 183.323 1.20113 3.57565 0
M  V30 1940 H 185.71 0.46163 2.91467 0
M  V30 1941 H 185.791 1.8262 1.79119 0
M  V30 1942 H 185.435 3.42874 3.74699 0
M  V30 1943 H 185.365 2.03649 4.85628 0
M  V30 1944 H 187.856 1.82525 3.30897 0
M  V30 1945 H 188.169 4.26789 6.4426 0
M  V30 1946 H 186.514 3.83243 5.79784 0
M  V30 1947 H 189.705 2.33433 4.05742 0
M  V30 1948 H 189.878 3.448 5.4865 0
M  V30 1949 N 183.284 -1.43765 0.645699 0
M  V30 1950 C 184.231 -2.30745 -0.0504648 0
M  V30 1951 C 185.201 -1.4432 -0.822241 0
M  V30 1952 O 186.386 -1.73202 -0.800358 0
M  V30 1953 C 183.526 -3.29802 -1.0161 0
M  V30 1954 C 182.639 -4.31326 -0.241219 0
M  V30 1955 C 181.774 -5.17469 -1.19998 0
M  V30 1956 C 180.813 -6.10691 -0.415094 0
M  V30 1957 N 179.95 -6.89483 -1.32506 0
M  V30 1958 H 184.79 -2.8973 0.697155 0
M  V30 1959 H 182.327 -1.42738 0.355563 0
M  V30 1960 H 184.285 -3.85734 -1.58949 0
M  V30 1961 H 182.915 -2.72483 -1.73069 0
M  V30 1962 H 181.967 -3.77749 0.448334 0
M  V30 1963 H 183.279 -4.9743 0.369437 0
M  V30 1964 H 182.433 -5.7799 -1.84424 0
M  V30 1965 H 181.172 -4.51473 -1.84455 0
M  V30 1966 H 180.177 -5.49265 0.242565 0
M  V30 1967 H 181.402 -6.78727 0.224966 0
M  V30 1968 H 179.348 -6.26142 -1.95657 0
M  V30 1969 H 179.265 -7.52081 -0.768783 0
M  V30 1970 H 180.533 -7.54516 -1.9577 0
M  V30 1971 N 184.763 -0.387143 -1.52771 0
M  V30 1972 C 186.011 0.195349 -2.01154 0
M  V30 1973 C 186.332 1.475 -1.27549 0
M  V30 1974 O 185.602 1.91878 -0.394924 0
M  V30 1975 H 184.182 0.075178 -0.743207 0
M  V30 1976 H 186.844 -0.518337 -1.87881 0
M  V30 1977 H 185.94 0.407096 -3.09434 0
M  V30 1978 N 186.241 1.57166 -0.116904 0
M  V30 1979 C 187.191 2.11756 0.845178 0
M  V30 1980 C 188.175 1.03783 1.22955 0
M  V30 1981 O 189.367 1.3002 1.20099 0
M  V30 1982 C 186.496 2.71886 2.09602 0
M  V30 1983 C 185.582 3.86937 1.7361 0
M  V30 1984 N 185.973 4.94073 1.08284 0
M  V30 1985 C 184.271 3.97082 2.03082 0
M  V30 1986 C 184.972 5.74477 0.913855 0
M  V30 1987 N 183.948 5.2423 1.43818 0
M  V30 1988 H 187.75 2.91967 0.336523 0
M  V30 1989 H 185.264 1.62174 0.0856332 0
M  V30 1990 H 187.261 3.09338 2.79492 0
M  V30 1991 H 185.921 1.93138 2.61013 0
M  V30 1992 H 186.932 5.12483 0.747067 0
M  V30 1993 H 183.609 3.29372 2.56554 0
M  V30 1994 H 184.999 6.70701 0.40125 0
M  V30 1995 N 187.719 -0.156864 1.56817 0
M  V30 1996 C 188.966 -0.871125 1.82805 0
M  V30 1997 C 189.294 -1.81611 0.696262 0
M  V30 1998 O 188.549 -1.93141 -0.315459 0
M  V30 1999 C 188.848 -1.68737 3.1506 0
M  V30 2000 C 188.514 -0.890045 4.42028 0
M  V30 2001 C 187.176 -0.670042 4.76512 0
M  V30 2002 C 189.528 -0.331769 5.20143 0
M  V30 2003 C 186.856 0.119104 5.86579 0
M  V30 2004 C 189.208 0.444365 6.31037 0
M  V30 2005 C 187.872 0.675035 6.64078 0
M  V30 2006 H 187.142 -0.318767 0.668931 0
M  V30 2007 H 189.789 -0.135274 1.91022 0
M  V30 2008 H 188.094 -2.49304 3.0225 0
M  V30 2009 H 189.791 -2.24331 3.3238 0
M  V30 2010 H 186.381 -1.07157 4.14988 0
M  V30 2011 H 190.565 -0.489043 4.93885 0
M  V30 2012 H 185.821 0.307417 6.10627 0
M  V30 2013 H 189.995 0.884139 6.90765 0
M  V30 2014 H 187.622 1.28839 7.49203 0
M  V30 2015 N 189.197 -1.51736 -0.425897 0
M  V30 2016 C 190.444 -1.6497 -1.17436 0
M  V30 2017 C 190.772 -0.371445 -1.9092 0
M  V30 2018 O 190.027 0.644963 -1.84767 0
M  V30 2019 C 190.326 -2.81103 -2.20717 0
M  V30 2020 C 189.992 -4.19954 -1.64162 0
M  V30 2021 C 188.654 -4.57725 -1.48462 0
M  V30 2022 C 191.006 -5.06552 -1.22696 0
M  V30 2023 C 188.334 -5.79789 -0.897873 0
M  V30 2024 C 190.686 -6.29205 -0.654464 0
M  V30 2025 C 189.35 -6.6574 -0.484456 0
M  V30 2026 H 188.62 -0.603668 -0.429727 0
M  V30 2027 H 191.267 -1.85798 -0.463829 0
M  V30 2028 H 189.572 -2.54542 -2.97852 0
M  V30 2029 H 191.269 -2.8854 -2.78471 0
M  V30 2030 H 187.859 -3.90181 -1.77361 0
M  V30 2031 H 192.043 -4.77968 -1.33642 0
M  V30 2032 H 187.299 -6.06733 -0.75402 0
M  V30 2033 H 191.473 -6.95643 -0.324694 0
M  V30 2034 H 189.1 -7.60195 -0.0276833 0
M  V30 2035 N 190.675 0.682077 -1.42076 0
M  V30 2036 C 191.622 1.79578 -1.44984 0
M  V30 2037 C 192.592 1.6332 -0.302614 0
M  V30 2038 O 193.777 1.83978 -0.505633 0
M  V30 2039 C 190.917 3.1756 -1.35091 0
M  V30 2040 C 190.03 3.45156 -2.59791 0
M  V30 2041 C 189.165 4.72826 -2.42093 0
M  V30 2042 C 188.204 4.93433 -3.62202 0
M  V30 2043 N 187.341 6.12338 -3.43491 0
M  V30 2044 H 192.181 1.76427 -2.40161 0
M  V30 2045 H 189.718 0.861376 -1.19242 0
M  V30 2046 H 191.676 3.97287 -1.27354 0
M  V30 2047 H 190.306 3.19854 -0.435133 0
M  V30 2048 H 189.358 2.59736 -2.77923 0
M  V30 2049 H 190.67 3.5628 -3.49094 0
M  V30 2050 H 189.824 5.60631 -2.319 0
M  V30 2051 H 188.563 4.63973 -1.50268 0
M  V30 2052 H 187.568 4.04073 -3.72834 0
M  V30 2053 H 188.793 5.04136 -4.54998 0
M  V30 2054 H 186.739 6.04672 -2.54377 0
M  V30 2055 H 186.656 6.2429 -4.26377 0
M  V30 2056 H 187.924 7.02841 -3.37097 0
M  V30 2057 N 192.153 1.28127 0.917671 0
M  V30 2058 C 193.381 1.17892 1.70026 0
M  V30 2059 C 193.796 -0.262958 1.8696 0
M  V30 2060 O 193.153 -1.17811 1.3938 0
M  V30 2061 C 193.204 1.86872 3.09453 0
M  V30 2062 O 192.925 3.25428 2.93306 0
M  V30 2063 C 194.426 1.8289 4.03815 0
M  V30 2064 H 191.646 0.40942 0.531617 0
M  V30 2065 H 194.19 1.69181 1.14883 0
M  V30 2066 H 192.345 1.39464 3.61426 0
M  V30 2067 H 192.759 3.59918 3.81523 0
M  V30 2068 H 194.233 2.35751 4.99125 0
M  V30 2069 H 194.71 0.800412 4.31845 0
M  V30 2070 H 195.316 2.29959 3.57769 0
M  V30 2071 N 193.631 -1.12557 1.10312 0
M  V30 2072 C 194.563 -2.17971 0.708625 0
M  V30 2073 C 195.576 -1.60806 -0.254027 0
M  V30 2074 O 196.765 -1.78458 -0.0386891 0
M  V30 2075 C 193.865 -3.38891 0.0248198 0
M  V30 2076 C 193.038 -4.25548 1.01132 0
M  V30 2077 C 192.097 -5.24972 0.35924 0
M  V30 2078 O 191.123 -5.60174 1.00965 0
M  V30 2079 N 192.325 -5.73747 -0.882847 0
M  V30 2080 H 195.09 -2.52427 1.61557 0
M  V30 2081 H 192.651 -1.27967 0.991771 0
M  V30 2082 H 194.643 -4.02485 -0.422852 0
M  V30 2083 H 193.213 -3.02596 -0.784514 0
M  V30 2084 H 192.433 -3.58589 1.6373 0
M  V30 2085 H 193.721 -4.80294 1.67914 0
M  V30 2086 H 193.119 -5.4731 -1.43065 0
M  V30 2087 H 191.676 -6.39234 -1.27369 0
M  V30 2088 N 195.109 -0.891671 -1.2995 0
M  V30 2089 C 196.042 -0.307994 -2.26112 0
M  V30 2090 C 197.02 0.575262 -1.52084 0
M  V30 2091 O 198.204 0.523864 -1.81074 0
M  V30 2092 C 195.331 0.561734 -3.34009 0
M  V30 2093 C 194.377 -0.253107 -4.25748 0
M  V30 2094 S 195.21 -1.64572 -5.09584 0
M  V30 2095 C 196.366 -0.782699 -6.20987 0
M  V30 2096 H 196.599 -1.12309 -2.75271 0
M  V30 2097 H 194.132 -0.691509 -1.38049 0
M  V30 2098 H 196.09 1.05777 -3.96638 0
M  V30 2099 H 194.751 1.35099 -2.83561 0
M  V30 2100 H 193.944 0.410908 -5.02322 0
M  V30 2101 H 193.546 -0.682004 -3.67729 0
M  V30 2102 H 195.838 -0.00257476 -6.775 0
M  V30 2103 H 196.781 -1.52026 -6.91588 0
M  V30 2104 H 197.189 -0.340638 -5.63471 0
M  V30 2105 N 196.587 1.43421 -0.653314 0
M  V30 2106 C 197.517 2.33487 0.0246656 0
M  V30 2107 C 198.498 1.49475 0.811863 0
M  V30 2108 O 199.683 1.78139 0.773322 0
M  V30 2109 C 196.813 3.32841 0.99166 0
M  V30 2110 C 195.767 4.26842 0.314568 0
M  V30 2111 C 195.093 5.16236 1.39302 0
M  V30 2112 C 196.393 5.16243 -0.793095 0
M  V30 2113 H 198.087 2.90427 -0.727481 0
M  V30 2114 H 195.633 1.39649 -0.351287 0
M  V30 2115 H 197.586 3.94747 1.47487 0
M  V30 2116 H 196.31 2.74158 1.77497 0
M  V30 2117 H 194.969 3.663 -0.148199 0
M  V30 2118 H 194.617 4.53891 2.16776 0
M  V30 2119 H 194.317 5.79948 0.945223 0
M  V30 2120 H 195.841 5.81015 1.87759 0
M  V30 2121 H 197.255 5.71958 -0.392039 0
M  V30 2122 H 195.652 5.88676 -1.16536 0
M  V30 2123 H 196.722 4.55927 -1.65103 0
M  V30 2124 N 198.065 0.39524 1.52563 0
M  V30 2125 C 199.311 -0.185318 2.01952 0
M  V30 2126 C 199.644 -1.45964 1.28095 0
M  V30 2127 O 198.919 -1.90689 0.38315 0
M  V30 2128 C 199.202 -0.447193 3.57312 0
M  V30 2129 C 199.055 0.842828 4.41833 0
M  V30 2130 C 200.374 -1.23529 4.22408 0
M  V30 2131 H 197.493 -0.0658788 0.73405 0
M  V30 2132 H 200.135 0.525975 1.82575 0
M  V30 2133 H 198.285 -1.05312 3.73954 0
M  V30 2134 H 199.957 1.4795 4.36931 0
M  V30 2135 H 198.2 1.45686 4.08605 0
M  V30 2136 H 198.871 0.614165 5.48573 0
M  V30 2137 H 201.347 -0.722445 4.0978 0
M  V30 2138 H 200.223 -1.38727 5.3108 0
M  V30 2139 H 200.484 -2.25213 3.80436 0
M  V30 2140 N 199.544 -1.57102 0.125237 0
M  V30 2141 C 200.772 -1.99761 -0.538797 0
M  V30 2142 C 201.187 -1.00503 -1.59827 0
M  V30 2143 O 200.544 0.00119474 -1.825 0
M  V30 2144 C 200.595 -3.42408 -1.15927 0
M  V30 2145 O 200.316 -4.37869 -0.142143 0
M  V30 2146 C 201.817 -4.00232 -1.90602 0
M  V30 2147 H 199.037 -0.655772 -0.14214 0
M  V30 2148 H 201.581 -2.03383 0.213413 0
M  V30 2149 H 199.736 -3.39706 -1.86223 0
M  V30 2150 H 200.15 -5.21128 -0.593775 0
M  V30 2151 H 201.624 -5.02105 -2.29335 0
M  V30 2152 H 202.101 -3.39721 -2.78363 0
M  V30 2153 H 202.707 -4.06499 -1.25055 0
M  V30 2154 N 201.022 0.148545 -1.56898 0
M  V30 2155 C 201.954 1.20852 -1.9475 0
M  V30 2156 C 202.967 1.39265 -0.843152 0
M  V30 2157 O 204.156 1.38864 -1.12156 0
M  V30 2158 C 201.256 2.57362 -2.20495 0
M  V30 2159 C 200.429 2.59947 -3.51776 0
M  V30 2160 C 199.488 3.77984 -3.6608 0
M  V30 2161 O 198.514 3.62929 -4.38487 0
M  V30 2162 N 199.716 4.95375 -3.02629 0
M  V30 2163 H 202.481 0.886804 -2.86279 0
M  V30 2164 H 200.042 0.338121 -1.5833 0
M  V30 2165 H 202.034 3.34833 -2.27307 0
M  V30 2166 H 200.604 2.81832 -1.35238 0
M  V30 2167 H 199.824 1.68403 -3.56419 0
M  V30 2168 H 201.112 2.58704 -4.38121 0
M  V30 2169 H 200.51 5.10509 -2.43715 0
M  V30 2170 H 199.067 5.70627 -3.15004 0
M  V30 2171 N 202.5 1.5196 0.417844 0
M  V30 2172 C 203.747 1.65591 1.16559 0
M  V30 2173 C 204.075 0.381565 1.90721 0
M  V30 2174 O 203.33 -0.635156 1.85106 0
M  V30 2175 C 203.629 2.82269 2.19223 0
M  V30 2176 C 203.295 4.20819 1.61933 0
M  V30 2177 C 201.957 4.58506 1.46033 0
M  V30 2178 C 204.309 5.07196 1.20008 0
M  V30 2179 C 201.637 5.80257 0.867113 0
M  V30 2180 C 203.989 6.29544 0.621086 0
M  V30 2181 C 202.653 6.65987 0.449144 0
M  V30 2182 H 201.923 0.605939 0.42652 0
M  V30 2183 H 204.57 1.86041 0.45397 0
M  V30 2184 H 202.875 2.56118 2.96498 0
M  V30 2185 H 204.572 2.90012 2.76936 0
M  V30 2186 H 201.162 3.91116 1.7529 0
M  V30 2187 H 205.346 4.7867 1.31105 0
M  V30 2188 H 200.602 6.07124 0.721833 0
M  V30 2189 H 204.776 6.95805 0.287798 0
M  V30 2190 H 202.403 7.60199 -0.012632 0
M  V30 2191 N 203.978 -0.674533 1.42435 0
M  V30 2192 C 204.888 -1.81751 1.48337 0
M  V30 2193 C 205.904 -1.69975 0.372099 0
M  V30 2194 O 207.08 -1.91521 0.62304 0
M  V30 2195 C 204.145 -3.17895 1.38361 0
M  V30 2196 C 203.206 -3.41625 2.59982 0
M  V30 2197 C 202.439 -4.71274 2.50473 0
M  V30 2198 O 202.662 -5.49197 1.54075 0
M  V30 2199 O 201.596 -4.96254 3.4061 0
M  V30 2200 H 205.422 -1.79728 2.44809 0
M  V30 2201 H 203.007 -0.830312 1.24202 0
M  V30 2202 H 204.889 -3.99136 1.35161 0
M  V30 2203 H 203.564 -3.20555 0.450144 0
M  V30 2204 H 202.471 -2.60231 2.68757 0
M  V30 2205 H 203.804 -3.43796 3.52229 0
M  V30 2206 N 205.456 -1.28612 -0.910864 0
M  V30 2207 C 206.684 -1.18792 -1.69399 0
M  V30 2208 C 207.099 0.253039 -1.87097 0
M  V30 2209 O 206.456 1.17071 -1.40003 0
M  V30 2210 C 206.507 -1.88511 -3.08457 0
M  V30 2211 O 206.228 -3.26979 -2.91576 0
M  V30 2212 C 207.729 -1.85029 -4.02839 0
M  V30 2213 H 204.949 -0.412233 -0.529438 0
M  V30 2214 H 207.493 -1.69788 -1.13984 0
M  V30 2215 H 205.648 -1.41379 -3.60681 0
M  V30 2216 H 206.062 -3.61936 -3.79608 0
M  V30 2217 H 207.536 -2.38395 -4.97867 0
M  V30 2218 H 208.013 -0.823303 -4.31414 0
M  V30 2219 H 208.619 -2.31853 -3.56545 0
M  V30 2220 N 206.934 1.1197 -1.10907 0
M  V30 2221 C 207.864 2.19928 -0.784473 0
M  V30 2222 C 208.845 1.6833 0.244726 0
M  V30 2223 O 210.03 1.93892 0.109418 0
M  V30 2224 C 207.16 3.46597 -0.220827 0
M  V30 2225 C 206.114 4.11376 -1.18127 0
M  V30 2226 C 205.44 5.32554 -0.478594 0
M  V30 2227 C 206.74 4.56945 -2.52979 0
M  V30 2228 H 208.434 2.47337 -1.68715 0
M  V30 2229 H 205.98 1.18879 -0.812642 0
M  V30 2230 H 207.933 4.21396 0.0184278 0
M  V30 2231 H 206.657 3.1863 0.717113 0
M  V30 2232 H 205.316 3.38564 -1.40606 0
M  V30 2233 H 204.964 5.00856 0.463976 0
M  V30 2234 H 204.664 5.76844 -1.11912 0
M  V30 2235 H 206.188 6.10096 -0.248 0
M  V30 2236 H 207.602 5.23093 -2.3462 0
M  V30 2237 H 205.999 5.1203 -3.12962 0
M  V30 2238 H 207.069 3.70676 -3.12614 0
M  V30 2239 N 208.412 0.89855 1.29475 0
M  V30 2240 C 209.344 0.332726 2.26772 0
M  V30 2241 C 210.357 -0.520323 1.54261 0
M  V30 2242 O 211.546 -0.337668 1.75277 0
M  V30 2243 C 208.646 -0.544334 3.345 0
M  V30 2244 C 207.819 0.282728 4.36485 0
M  V30 2245 C 206.878 -0.526982 5.23555 0
M  V30 2246 O 205.904 0.0551165 5.69173 0
M  V30 2247 N 207.106 -1.83331 5.5079 0
M  V30 2248 H 209.871 1.16897 2.75962 0
M  V30 2249 H 207.432 0.762919 1.42798 0
M  V30 2250 H 209.424 -1.09239 3.89678 0
M  V30 2251 H 207.994 -1.28127 2.85136 0
M  V30 2252 H 207.214 1.01221 3.80983 0
M  V30 2253 H 208.502 0.84918 5.01664 0
M  V30 2254 H 207.9 -2.32898 5.15534 0
M  V30 2255 H 206.457 -2.32852 6.08788 0
M  V30 2256 N 209.89 -1.43072 0.660911 0
M  V30 2257 C 210.8 -2.34585 -0.0264163 0
M  V30 2258 C 211.816 -1.54316 -0.803898 0
M  V30 2259 O 212.992 -1.86939 -0.749391 0
M  V30 2260 C 210.057 -3.32689 -0.975639 0
M  V30 2261 C 209.118 -4.2886 -0.194236 0
M  V30 2262 C 208.351 -5.22278 -1.09825 0
M  V30 2263 O 208.574 -5.20299 -2.33763 0
M  V30 2264 O 207.508 -5.99228 -0.566513 0
M  V30 2265 H 211.334 -2.94869 0.727034 0
M  V30 2266 H 208.919 -1.43342 0.42111 0
M  V30 2267 H 210.801 -3.92995 -1.52094 0
M  V30 2268 H 209.476 -2.74898 -1.70918 0
M  V30 2269 H 208.383 -3.72011 0.394835 0
M  V30 2270 H 209.716 -4.89655 0.499899 0
M  V30 2271 N 211.368 -0.403325 -1.52352 0
M  V30 2272 C 212.779 0.0675782 -1.86578 0
M  V30 2273 C 213.13 1.44941 -1.32236 0
M  V30 2274 O 212.255 2.06112 -0.659307 0
M  V30 2275 C 212.85 0.129404 -3.38553 0
M  V30 2276 C 211.409 0.544629 -3.72439 0
M  V30 2277 C 210.556 -0.284551 -2.75836 0
M  V30 2278 H 213.507 -0.620631 -1.46061 0
M  V30 2279 H 213.528 0.94581 -3.68558 0
M  V30 2280 H 213.04 -0.87645 -3.78074 0
M  V30 2281 H 211.141 1.55734 -3.38493 0
M  V30 2282 H 211.254 0.293046 -4.78203 0
M  V30 2283 H 209.618 0.252258 -2.53448 0
M  V30 2284 H 210.401 -1.28865 -3.18196 0
M  V30 2285 N 212.846 1.57033 -0.133567 0
M  V30 2286 C 214.094 1.953 0.519848 0
M  V30 2287 C 214.415 1.01866 1.66278 0
M  V30 2288 O 213.685 0.0776513 1.95746 0
M  V30 2289 H 212.265 0.721091 0.195032 0
M  V30 2290 H 214.927 1.93809 -0.205921 0
M  V30 2291 H 214.023 2.98695 0.904854 0
M  V30 2292 N 214.325 -0.140222 1.56975 0
M  V30 2293 C 215.288 -1.15689 1.97861 0
M  V30 2294 C 216.288 -1.3549 0.865974 0
M  V30 2295 O 217.478 -1.32367 1.13246 0
M  V30 2296 C 214.61 -2.51582 2.30042 0
M  V30 2297 H 215.803 -0.805971 2.88867 0
M  V30 2298 H 213.356 -0.383801 1.51515 0
M  V30 2299 H 214.091 -2.91632 1.41849 0
M  V30 2300 H 213.876 -2.38569 3.11171 0
M  V30 2301 H 215.366 -3.24792 2.62488 0
M  V30 2302 N 215.803 -1.52179 -0.40978 0
M  V30 2303 C 217.08 -1.56769 -1.16974 0
M  V30 2304 C 217.46 -0.348322 -2.08206 0
M  V30 2305 O 216.808 0.664862 -2.18613 0
M  V30 2306 C 217.018 -2.89603 -1.9476 0
M  V30 2307 C 218.366 -3.42579 -2.50849 0
M  V30 2308 O 219.39 -2.91338 -2.04941 0
M  V30 2309 O 218.249 -4.32054 -3.34652 0
M  V30 2310 H 215.343 -0.631439 -0.534054 0
M  V30 2311 H 217.889 -1.64507 -0.416613 0
M  V30 2312 H 216.661 -3.698 -1.27921 0
M  V30 2313 H 216.284 -2.85155 -2.77079 0
M  V30 2314 N 217.281 0.66697 -1.42791 0
M  V30 2315 C 218.191 1.80962 -1.49299 0
M  V30 2316 C 219.207 1.69775 -0.381108 0
M  V30 2317 O 220.383 1.91188 -0.633188 0
M  V30 2318 C 217.448 3.17156 -1.40045 0
M  V30 2319 C 216.509 3.40242 -2.6179 0
M  V30 2320 C 215.742 4.69939 -2.52969 0
M  V30 2321 O 215.965 5.48372 -1.56985 0
M  V30 2322 O 214.899 4.94441 -3.43237 0
M  V30 2323 H 218.725 1.78427 -2.45759 0
M  V30 2324 H 216.31 0.823713 -1.24641 0
M  V30 2325 H 218.192 3.98413 -1.37276 0
M  V30 2326 H 216.867 3.20312 -0.467138 0
M  V30 2327 H 215.774 2.58802 -2.70134 0
M  V30 2328 H 217.107 3.41923 -3.54047 0
M  V30 2329 N 218.759 1.29093 0.90403 0
M  V30 2330 C 219.987 1.19689 1.68766 0
M  V30 2331 C 220.402 -0.243113 1.87228 0
M  V30 2332 O 219.759 -1.16326 1.40621 0
M  V30 2333 C 219.81 1.90144 3.07453 0
M  V30 2334 O 219.531 3.2852 2.89838 0
M  V30 2335 C 221.032 1.87162 4.01852 0
M  V30 2336 H 218.252 0.415035 0.527244 0
M  V30 2337 H 220.796 1.7039 1.13082 0
M  V30 2338 H 218.951 1.43289 3.59926 0
M  V30 2339 H 219.365 3.63944 3.77684 0
M  V30 2340 H 220.839 2.41032 4.96596 0
M  V30 2341 H 221.316 0.84617 4.30972 0
M  V30 2342 H 221.922 2.33741 3.5531 0
M  V30 2343 N 220.237 -1.11381 1.11499 0
M  V30 2344 C 221.514 -1.7955 0.775965 0
M  V30 2345 C 221.894 -1.97859 -0.73588 0
M  V30 2346 O 221.242 -1.56376 -1.66609 0
M  V30 2347 C 221.452 -3.13196 1.53977 0
M  V30 2348 C 222.8 -3.88227 1.71944 0
M  V30 2349 O 223.824 -3.22887 1.50407 0
M  V30 2350 O 222.683 -5.05477 2.07738 0
M  V30 2351 H 219.777 -0.777728 0.28119 0
M  V30 2352 H 222.323 -1.18118 1.21845 0
M  V30 2353 H 221.095 -2.95229 2.56818 0
M  V30 2354 H 220.718 -3.82342 1.09088 0
M  V30 2355 N 221.715 -0.905404 -1.28997 0
M  V30 2356 C 222.961 -0.535039 -1.95615 0
M  V30 2357 C 223.294 0.917404 -1.71165 0
M  V30 2358 O 222.569 1.65123 -1.02785 0
M  V30 2359 C 222.852 -0.834918 -3.50287 0
M  V30 2360 C 222.705 -2.33948 -3.84172 0
M  V30 2361 C 224.024 -0.325318 -4.38896 0
M  V30 2362 H 221.143 -0.195861 -0.710498 0
M  V30 2363 H 223.785 -1.13313 -1.52513 0
M  V30 2364 H 221.935 -0.325904 -3.87131 0
M  V30 2365 H 223.607 -2.91847 -3.57243 0
M  V30 2366 H 221.85 -2.79789 -3.31513 0
M  V30 2367 H 222.521 -2.49987 -4.92149 0
M  V30 2368 H 224.997 -0.761256 -4.09077 0
M  V30 2369 H 223.873 -0.564295 -5.45992 0
M  V30 2370 H 224.134 0.774144 -4.35269 0
M  V30 2371 N 223.193 1.4272 -0.668489 0
M  V30 2372 C 224.123 2.335 -0.000100175 0
M  V30 2373 C 225.104 1.50328 0.795964 0
M  V30 2374 O 226.289 1.78949 0.754385 0
M  V30 2375 C 223.419 3.33874 0.956302 0
M  V30 2376 C 222.373 4.27152 0.269278 0
M  V30 2377 C 221.699 5.17684 1.33818 0
M  V30 2378 C 222.999 5.15373 -0.847805 0
M  V30 2379 H 224.693 2.89639 -0.758244 0
M  V30 2380 H 222.239 1.39269 -0.366079 0
M  V30 2381 H 224.192 3.9629 1.43292 0
M  V30 2382 H 222.916 2.76025 1.74579 0
M  V30 2383 H 221.575 3.66123 -0.187042 0
M  V30 2384 H 221.223 4.56165 2.1195 0
M  V30 2385 H 220.923 5.80918 0.883659 0
M  V30 2386 H 222.447 5.82974 1.81586 0
M  V30 2387 H 223.861 5.7151 -0.452681 0
M  V30 2388 H 222.258 5.87407 -1.22773 0
M  V30 2389 H 223.328 4.5415 -1.69929 0
M  V30 2390 N 224.671 0.411399 1.52136 0
M  V30 2391 C 225.917 -0.163888 2.02137 0
M  V30 2392 C 226.25 -1.44597 1.29636 0
M  V30 2393 O 225.525 -1.90272 0.403353 0
M  V30 2394 C 225.808 -0.40927 3.57767 0
M  V30 2395 C 225.661 0.889643 4.40914 0
M  V30 2396 C 226.98 -1.19042 4.23694 0
M  V30 2397 H 224.099 -0.0580896 0.734707 0
M  V30 2398 H 226.741 0.54531 1.82007 0
M  V30 2399 H 224.891 -1.0134 3.7505 0
M  V30 2400 H 226.563 1.52575 4.35337 0
M  V30 2401 H 224.806 1.50011 4.07037 0
M  V30 2402 H 225.477 0.672314 5.4789 0
M  V30 2403 H 227.953 -0.678942 4.10524 0
M  V30 2404 H 226.829 -1.33086 5.32522 0
M  V30 2405 H 227.09 -2.21166 3.82803 0
M  V30 2406 N 226.149 -1.5696 0.141893 0
M  V30 2407 C 227.395 -1.9625 -0.511248 0
M  V30 2408 C 227.728 -1.02654 -1.64851 0
M  V30 2409 O 227.003 -0.0679676 -1.94381 0
M  V30 2410 C 227.286 -3.45285 -1.02227 0
M  V30 2411 C 227.139 -4.49658 0.113138 0
M  V30 2412 C 228.458 -3.96698 -1.90574 0
M  V30 2413 H 225.577 -0.713567 -0.184367 0
M  V30 2414 H 228.219 -1.88698 0.222087 0
M  V30 2415 H 226.369 -3.51852 -1.64719 0
M  V30 2416 H 228.041 -4.55174 0.749302 0
M  V30 2417 H 226.284 -4.26857 0.773026 0
M  V30 2418 H 226.955 -5.51258 -0.286053 0
M  V30 2419 H 229.431 -3.92578 -1.37918 0
M  V30 2420 H 228.307 -5.01453 -2.2324 0
M  V30 2421 H 228.568 -3.3875 -2.84079 0
M  V30 2422 N 227.627 0.131896 -1.57047 0
M  V30 2423 C 228.904 0.871495 -1.75112 0
M  V30 2424 C 229.284 1.9866 -0.713949 0
M  V30 2425 O 228.632 2.26965 0.264447 0
M  V30 2426 C 228.842 1.40007 -3.19686 0
M  V30 2427 C 230.19 1.85752 -3.81813 0
M  V30 2428 O 231.214 1.49715 -3.23209 0
M  V30 2429 O 230.073 2.5226 -4.84796 0
M  V30 2430 H 227.167 0.412919 -0.716538 0
M  V30 2431 H 229.713 0.116641 -1.69299 0
M  V30 2432 H 228.485 0.599404 -3.86682 0
M  V30 2433 H 228.108 2.218 -3.29986 0
M  V30 2434 N 229.106 1.52395 0.401703 0
M  V30 2435 C 230.355 1.66044 1.14509 0
M  V30 2436 C 230.668 0.400216 1.91462 0
M  V30 2437 O 231.874 0.416632 2.68284 0
M  V30 2438 C 230.33 2.93388 2.0845 0
M  V30 2439 C 229.938 4.26545 1.36978 0
M  V30 2440 C 231.682 3.16402 2.83001 0
M  V30 2441 C 229.589 5.45007 2.29611 0
M  V30 2442 H 228.519 0.618562 0.431158 0
M  V30 2443 H 231.17 1.78886 0.40892 0
M  V30 2444 H 229.552 2.74263 2.8565 0
M  V30 2445 H 230.726 4.56179 0.650916 0
M  V30 2446 H 229.041 4.09692 0.74438 0
M  V30 2447 H 231.638 4.02085 3.52465 0
M  V30 2448 H 231.981 2.30943 3.46368 0
M  V30 2449 H 232.514 3.36034 2.12898 0
M  V30 2450 H 229.253 6.32835 1.70879 0
M  V30 2451 H 228.773 5.19702 2.9945 0
M  V30 2452 H 230.452 5.7838 2.89974 0
M  V30 2453 N 230.584 -0.659388 1.43143 0
M  V30 2454 C 231.861 -1.41627 1.34912 0
M  V30 2455 C 232.241 -2.11099 -0.00607785 0
M  V30 2456 O 231.589 -2.04353 -1.02236 0
M  V30 2457 C 231.799 -2.40604 2.52805 0
M  V30 2458 C 233.147 -3.04789 2.95616 0
M  V30 2459 O 234.171 -2.50932 2.52807 0
M  V30 2460 O 233.03 -4.02421 3.69756 0
M  V30 2461 H 230.124 -0.63246 0.532844 0
M  V30 2462 H 232.67 -0.686814 1.5518 0
M  V30 2463 H 231.442 -1.88174 3.43083 0
M  V30 2464 H 231.065 -3.21009 2.34604 0
M  V30 2465 N 232.062 -1.29571 -0.897171 0
M  V30 2466 C 232.994 -1.10724 -2.00681 0
M  V30 2467 C 234.007 -0.0540026 -1.6271 0
M  V30 2468 O 235.196 -0.298783 -1.75982 0
M  V30 2469 C 232.296 -0.663912 -3.32333 0
M  V30 2470 C 231.469 -1.79622 -3.98816 0
M  V30 2471 C 230.528 -1.34349 -5.0876 0
M  V30 2472 O 229.554 -2.04864 -5.31055 0
M  V30 2473 N 230.756 -0.215764 -5.80099 0
M  V30 2474 H 233.521 -2.06291 -2.17403 0
M  V30 2475 H 231.082 -1.21544 -1.06951 0
M  V30 2476 H 233.074 -0.344295 -4.03233 0
M  V30 2477 H 231.644 0.199375 -3.11964 0
M  V30 2478 H 230.864 -2.28459 -3.21248 0
M  V30 2479 H 232.152 -2.55535 -4.39976 0
M  V30 2480 H 231.55 0.372091 -5.64475 0
M  V30 2481 H 230.107 0.0444707 -6.51785 0
M  V30 2482 N 233.54 1.10788 -1.12088 0
M  V30 2483 C 234.951 1.64181 -0.88891 0
M  V30 2484 C 235.302 1.87508 0.577498 0
M  V30 2485 O 234.427 1.61434 1.44112 0
M  V30 2486 C 235.022 2.98257 -1.60712 0
M  V30 2487 C 233.581 3.4853 -1.42139 0
M  V30 2488 C 232.728 2.23208 -1.6454 0
M  V30 2489 H 235.679 0.943368 -1.27618 0
M  V30 2490 H 235.7 3.65552 -1.05604 0
M  V30 2491 H 235.212 2.81246 -2.67436 0
M  V30 2492 H 233.313 3.70692 -0.376552 0
M  V30 2493 H 233.426 4.26882 -2.17505 0
M  V30 2494 H 231.79 2.31169 -1.06925 0
M  V30 2495 H 232.573 2.08733 -2.72554 0
M  V30 2496 N 235.018 0.912232 1.28515 0
M  V30 2497 C 235.948 0.416403 2.29757 0
M  V30 2498 C 236.929 -0.515194 1.6211 0
M  V30 2499 O 238.114 -0.423253 1.89532 0
M  V30 2500 C 235.244 -0.34572 3.45575 0
M  V30 2501 C 234.198 0.496599 4.25109 0
M  V30 2502 C 233.524 -0.393771 5.33248 0
M  V30 2503 C 234.824 1.75307 4.92001 0
M  V30 2504 H 236.518 1.26249 2.7148 0
M  V30 2505 H 234.064 0.608515 1.30511 0
M  V30 2506 H 236.017 -0.703422 4.15488 0
M  V30 2507 H 234.741 -1.2257 3.02728 0
M  V30 2508 H 233.4 0.8368 3.56922 0
M  V30 2509 H 233.048 -1.27225 4.86644 0
M  V30 2510 H 232.748 0.166209 5.87365 0
M  V30 2511 H 234.272 -0.747389 6.06009 0
M  V30 2512 H 235.686 1.46437 5.54283 0
M  V30 2513 H 234.083 2.25534 5.56106 0
M  V30 2514 H 235.153 2.48176 4.16577 0
M  V30 2515 N 236.496 -1.42363 0.676048 0
M  V30 2516 C 237.406 -2.346 -0.00153389 0
M  V30 2517 C 238.422 -1.5516 -0.787485 0
M  V30 2518 O 239.598 -1.87723 -0.729521 0
M  V30 2519 C 236.663 -3.33705 -0.940298 0
M  V30 2520 C 235.724 -4.29042 -0.148739 0
M  V30 2521 C 234.957 -5.23413 -1.04279 0
M  V30 2522 O 235.18 -5.22749 -2.28232 0
M  V30 2523 O 234.114 -5.99795 -0.502925 0
M  V30 2524 H 237.94 -2.94082 0.758268 0
M  V30 2525 H 235.525 -1.42888 0.436289 0
M  V30 2526 H 237.407 -3.94586 -1.47917 0
M  V30 2527 H 236.082 -2.76695 -1.67993 0
M  V30 2528 H 234.989 -3.71571 0.43427 0
M  V30 2529 H 236.322 -4.89097 0.551805 0
M  V30 2530 N 237.974 -0.419461 -1.51915 0
M  V30 2531 C 239.222 0.152637 -2.01523 0
M  V30 2532 C 239.543 1.44762 -1.30649 0
M  V30 2533 O 238.813 1.90997 -0.435535 0
M  V30 2534 H 237.393 0.0593966 -0.744635 0
M  V30 2535 H 240.055 -0.558073 -1.86739 0
M  V30 2536 H 239.151 0.341369 -3.10227 0
M  V30 2537 N 239.452 1.56882 -0.150215 0
M  V30 2538 C 240.698 1.96518 0.500834 0
M  V30 2539 C 241.031 1.03527 1.64304 0
M  V30 2540 O 240.306 0.0782751 1.94342 0
M  V30 2541 C 240.589 3.45822 1.00395 0
M  V30 2542 C 240.442 4.49591 -0.136983 0
M  V30 2543 C 241.761 3.97704 1.88467 0
M  V30 2544 H 238.88 0.714535 0.18058 0
M  V30 2545 H 241.522 1.88577 -0.232091 0
M  V30 2546 H 239.672 3.5272 1.62851 0
M  V30 2547 H 241.344 4.5477 -0.77343 0
M  V30 2548 H 239.587 4.26441 -0.795652 0
M  V30 2549 H 240.258 5.51402 0.256815 0
M  V30 2550 H 242.734 3.93304 1.35834 0
M  V30 2551 H 241.61 5.0263 2.20578 0
M  V30 2552 H 241.871 3.40252 2.82279 0
M  V30 2553 N 240.93 -0.123565 1.57115 0
M  V30 2554 C 242.176 -0.833386 1.84885 0
M  V30 2555 C 242.509 -1.79742 0.735292 0
M  V30 2556 O 241.784 -1.92764 -0.25925 0
M  V30 2557 C 242.067 -1.5873 3.23228 0
M  V30 2558 C 241.92 -0.643183 4.45178 0
M  V30 2559 C 243.239 -2.54453 3.59085 0
M  V30 2560 H 240.358 -0.301518 0.6725 0
M  V30 2561 H 243 -0.097778 1.89748 0
M  V30 2562 H 241.15 -2.21438 3.19214 0
M  V30 2563 H 242.822 -0.0253015 4.61293 0
M  V30 2564 H 241.065 0.0456139 4.33776 0
M  V30 2565 H 241.736 -1.20724 5.38637 0
M  V30 2566 H 244.212 -2.01853 3.63861 0
M  V30 2567 H 243.088 -3.04238 4.5687 0
M  V30 2568 H 243.349 -3.36906 2.86264 0
M  V30 2569 N 242.408 -1.52605 -0.393616 0
M  V30 2570 C 243.371 -1.76415 -1.46323 0
M  V30 2571 C 244.371 -0.634126 -1.47768 0
M  V30 2572 O 245.561 -0.902142 -1.4902 0
M  V30 2573 C 242.693 -1.8607 -2.85641 0
M  V30 2574 H 243.886 -2.71916 -1.26498 0
M  V30 2575 H 241.439 -1.43257 -0.625073 0
M  V30 2576 H 242.174 -0.925378 -3.10817 0
M  V30 2577 H 241.959 -2.68235 -2.85993 0
M  V30 2578 H 243.449 -2.06179 -3.63153 0
M  V30 2579 N 243.887 0.651787 -1.4349 0
M  V30 2580 C 245.112 1.44434 -1.48841 0
M  V30 2581 C 245.537 1.8779 -0.107955 0
M  V30 2582 O 244.895 1.57464 0.898602 0
M  V30 2583 C 244.943 2.65458 -2.44059 0
M  V30 2584 O 244.047 3.64566 -1.92784 0
M  V30 2585 H 243.388 0.433005 -0.503391 0
M  V30 2586 H 245.918 0.797451 -1.88419 0
M  V30 2587 H 245.928 3.13255 -2.6141 0
M  V30 2588 H 244.603 2.33244 -3.4434 0
M  V30 2589 H 243.18 3.23716 -1.851 0
M  V30 2590 N 245.365 1.30045 0.890287 0
M  V30 2591 C 246.593 1.21472 1.67487 0
M  V30 2592 C 247.008 -0.223241 1.87476 0
M  V30 2593 O 246.365 -1.14828 1.41847 0
M  V30 2594 C 246.416 1.93394 3.05419 0
M  V30 2595 O 246.137 3.31576 2.86337 0
M  V30 2596 C 247.638 1.91414 3.99844 0
M  V30 2597 H 244.858 0.420604 0.522813 0
M  V30 2598 H 247.402 1.7158 1.11268 0
M  V30 2599 H 245.557 1.47099 3.58386 0
M  V30 2600 H 245.971 3.67929 3.73802 0
M  V30 2601 H 247.445 2.46285 4.94012 0
M  V30 2602 H 247.922 0.891833 4.3005 0
M  V30 2603 H 248.528 2.37496 3.52811 0
M  V30 2604 N 246.843 -1.10192 1.12674 0
M  V30 2605 C 248.092 -1.81573 0.8783 0
M  V30 2606 C 248.405 -1.86249 -0.597557 0
M  V30 2607 O 249.611 -2.5386 -0.962681 0
M  V30 2608 C 248.067 -3.26149 1.52167 0
M  V30 2609 C 247.675 -3.29763 3.03249 0
M  V30 2610 C 249.419 -4.0234 1.3536 0
M  V30 2611 C 247.326 -4.68815 3.60508 0
M  V30 2612 H 246.256 -0.680394 0.324931 0
M  V30 2613 H 248.907 -1.23902 1.35353 0
M  V30 2614 H 247.289 -3.83832 0.974104 0
M  V30 2615 H 248.463 -2.8189 3.6452 0
M  V30 2616 H 246.778 -2.67059 3.19481 0
M  V30 2617 H 249.375 -5.05058 1.75559 0
M  V30 2618 H 249.718 -4.15235 0.297554 0
M  V30 2619 H 250.251 -3.51079 1.87052 0
M  V30 2620 H 246.99 -4.61121 4.65884 0
M  V30 2621 H 246.51 -5.17045 3.04014 0
M  V30 2622 H 248.189 -5.37785 3.59717 0
M  V30 2623 N 248.321 -0.919034 -1.28029 0
M  V30 2624 C 249.231 -0.416756 -2.30869 0
M  V30 2625 C 250.247 0.498235 -1.66714 0
M  V30 2626 O 251.423 0.383144 -1.97722 0
M  V30 2627 C 248.488 0.330274 -3.45123 0
M  V30 2628 C 247.549 -0.618578 -4.2482 0
M  V30 2629 C 246.782 0.0928959 -5.33619 0
M  V30 2630 O 247.005 1.31375 -5.55065 0
M  V30 2631 O 245.939 -0.574499 -5.99152 0
M  V30 2632 H 249.765 -1.27043 -2.75851 0
M  V30 2633 H 247.35 -0.684052 -1.3282 0
M  V30 2634 H 249.232 0.751972 -4.14636 0
M  V30 2635 H 247.907 1.1597 -3.02213 0
M  V30 2636 H 246.814 -1.08978 -3.57875 0
M  V30 2637 H 248.147 -1.41497 -4.71423 0
M  V30 2638 N 249.799 1.42003 -0.683588 0
M  V30 2639 C 251.045 2.01712 -0.209825 0
M  V30 2640 C 251.378 1.53968 1.18353 0
M  V30 2641 O 250.653 0.745661 1.79639 0
M  V30 2642 C 250.936 3.59202 -0.254197 0
M  V30 2643 C 250.789 4.17102 -1.68363 0
M  V30 2644 C 252.108 4.38344 0.392709 0
M  V30 2645 H 249.227 0.732891 -0.0777189 0
M  V30 2646 H 251.869 1.68909 -0.87004 0
M  V30 2647 H 250.019 3.87278 0.307954 0
M  V30 2648 H 251.691 3.99946 -2.29871 0
M  V30 2649 H 249.934 3.72597 -2.22157 0
M  V30 2650 H 250.605 5.26249 -1.6663 0
M  V30 2651 H 253.081 4.16011 -0.0859162 0
M  V30 2652 H 251.957 5.47901 0.331063 0
M  V30 2653 H 252.218 4.16887 1.47164 0
M  V30 2654 N 251.277 0.427512 1.51691 0
M  V30 2655 C 252.526 -0.143679 2.01188 0
M  V30 2656 C 252.839 -1.44642 1.31674 0
M  V30 2657 O 254.045 -2.09997 1.72086 0
M  V30 2658 C 252.501 -0.306602 3.58592 0
M  V30 2659 C 252.109 0.985125 4.37035 0
M  V30 2660 C 253.853 -0.832091 4.16265 0
M  V30 2661 C 251.76 0.788382 5.86122 0
M  V30 2662 H 250.69 -0.0574701 0.751807 0
M  V30 2663 H 253.341 0.555772 1.74881 0
M  V30 2664 H 251.723 -1.06882 3.81303 0
M  V30 2665 H 252.897 1.75492 4.26074 0
M  V30 2666 H 251.212 1.4384 3.90767 0
M  V30 2667 H 253.809 -0.995617 5.25349 0
M  V30 2668 H 254.152 -1.81186 3.74803 0
M  V30 2669 H 254.685 -0.128444 3.97593 0
M  V30 2670 H 251.424 1.74025 6.31978 0
M  V30 2671 H 250.944 0.0582143 5.99772 0
M  V30 2672 H 252.623 0.437722 6.45518 0
M  V30 2673 N 252.755 -1.56801 0.158532 0
M  V30 2674 C 253.702 -2.17337 -0.776729 0
M  V30 2675 C 254.672 -1.1096 -1.23601 0
M  V30 2676 O 255.857 -1.39054 -1.30647 0
M  V30 2677 C 252.997 -2.80822 -2.00582 0
M  V30 2678 C 252.11 -4.01624 -1.59129 0
M  V30 2679 C 251.245 -4.53072 -2.77306 0
M  V30 2680 C 250.284 -5.66314 -2.32282 0
M  V30 2681 N 249.421 -6.12329 -3.43508 0
M  V30 2682 H 254.261 -2.96918 -0.253701 0
M  V30 2683 H 251.798 -1.46661 -0.113504 0
M  V30 2684 H 253.756 -3.15779 -2.72652 0
M  V30 2685 H 252.386 -2.03866 -2.50277 0
M  V30 2686 H 251.438 -3.72571 -0.767806 0
M  V30 2687 H 252.75 -4.83633 -1.2207 0
M  V30 2688 H 251.904 -4.90145 -3.57551 0
M  V30 2689 H 250.643 -3.70095 -3.17617 0
M  V30 2690 H 249.648 -5.28806 -1.5048 0
M  V30 2691 H 250.873 -6.51085 -1.93043 0
M  V30 2692 H 248.819 -5.32284 -3.83418 0
M  V30 2693 H 248.736 -6.89293 -3.105 0
M  V30 2694 H 250.004 -6.5405 -4.24075 0
M  V30 2695 N 254.233 0.115231 -1.57178 0
M  V30 2696 C 255.18 1.14115 -2.00615 0
M  V30 2697 C 256.15 1.40939 -0.878941 0
M  V30 2698 O 257.335 1.52741 -1.14345 0
M  V30 2699 C 254.475 2.46156 -2.4187 0
M  V30 2700 C 253.588 2.26236 -3.68024 0
M  V30 2701 C 252.723 3.51534 -3.98243 0
M  V30 2702 C 251.762 3.26787 -5.17568 0
M  V30 2703 N 250.899 4.44298 -5.43639 0
M  V30 2704 H 255.739 0.763743 -2.88047 0
M  V30 2705 H 253.276 0.365615 -1.42484 0
M  V30 2706 H 255.234 3.23189 -2.63827 0
M  V30 2707 H 253.864 2.81783 -1.57475 0
M  V30 2708 H 252.916 1.40102 -3.5366 0
M  V30 2709 H 254.228 2.03929 -4.55208 0
M  V30 2710 H 253.382 4.36984 -4.20868 0
M  V30 2711 H 252.121 3.76876 -3.09541 0
M  V30 2712 H 251.126 2.39729 -4.94783 0
M  V30 2713 H 252.351 3.02812 -6.0785 0
M  V30 2714 H 250.297 4.69754 -4.57895 0
M  V30 2715 H 250.214 4.25109 -6.25154 0
M  V30 2716 H 251.482 5.3087 -5.70786 0
M  V30 2717 N 255.711 1.52812 0.385517 0
M  V30 2718 C 256.959 1.67694 1.12797 0
M  V30 2719 C 257.28 0.421115 1.90399 0
M  V30 2720 O 256.55 -0.564551 1.87589 0
M  V30 2721 H 255.13 0.618155 0.419396 0
M  V30 2722 H 257.792 1.89938 0.436972 0
M  V30 2723 H 256.888 2.52896 1.82894 0
M  V30 2724 N 257.189 -0.644168 1.43834 0
M  V30 2725 C 258.136 -1.75671 1.49694 0
M  V30 2726 C 259.106 -1.6246 0.345809 0
M  V30 2727 O 260.291 -1.82573 0.554234 0
M  V30 2728 C 257.431 -3.13867 1.43463 0
M  V30 2729 C 256.544 -3.38147 2.6885 0
M  V30 2730 C 255.679 -4.66241 2.54544 0
M  V30 2731 C 254.718 -4.83657 3.75157 0
M  V30 2732 N 253.855 -6.03016 3.59605 0
M  V30 2733 H 258.695 -1.69998 2.44754 0
M  V30 2734 H 256.232 -0.829458 1.21484 0
M  V30 2735 H 258.19 -3.9377 1.37843 0
M  V30 2736 H 256.82 -3.18588 0.519783 0
M  V30 2737 H 255.872 -2.52276 2.84712 0
M  V30 2738 H 257.184 -3.46899 3.58417 0
M  V30 2739 H 256.338 -5.54285 2.46683 0
M  V30 2740 H 255.077 -4.59826 1.62516 0
M  V30 2741 H 254.082 -3.94046 3.83416 0
M  V30 2742 H 255.307 -4.91896 4.68204 0
M  V30 2743 H 253.253 -5.97715 2.7032 0
M  V30 2744 H 253.17 -6.12766 4.42779 0
M  V30 2745 H 254.438 -6.93657 3.55613 0
M  V30 2746 O 258.706 -1.41006 -0.787381 0
M  V30 2747 H 259.397 -1.30255 -1.43364 0
M  V30 END ATOM
M  V30 BEGIN BOND
M  V30 END BOND
M  V30 END CTAB
M  END
$$$$
