drugbank_target|P23763 Vesicle-associated membrane protein 1 (DB00042)
 OpenBabel12092120063D

  0  0  0     0  0            999 V3000
M  V30 BEGIN CTAB
M  V30 COUNTS 1820 1837 0 0 0
M  V30 BEGIN ATOM
M  V30 1 H -0.908 1.98254 -0.117106 0
M  V30 2 N 0 1.576 0 0
M  V30 3 C 0.933 2.03868 1.02534 0
M  V30 4 C 1.911 0.928543 1.3348 0
M  V30 5 O 3.095 1.19667 1.45644 0
M  V30 6 C 0.222 2.43627 2.35294 0
M  V30 7 C -0.732 3.65373 2.2001 0
M  V30 8 S 0.101 5.13292 1.52614 0
M  V30 9 C 1.257 5.56322 2.86805 0
M  V30 10 H 1.49 2.90518 0.631377 0
M  V30 11 H -0.977 1.52953 0.210867 0
M  V30 12 H 0.981 2.67203 3.11629 0
M  V30 13 H -0.358 1.57376 2.7183 0
M  V30 14 H -1.165 3.90944 3.18086 0
M  V30 15 H -1.563 3.418 1.51819 0
M  V30 16 H 0.729 5.58782 3.83104 0
M  V30 17 H 1.672 6.56266 2.65933 0
M  V30 18 H 2.08 4.83886 2.90714 0
M  V30 19 N 1.4781 -0.272755 1.55222 0
M  V30 20 C 2.7031 -1.02683 1.80197 0
M  V30 21 C 3.1281 -1.79142 0.573551 0
M  V30 22 O 2.4861 -1.74917 -0.476849 0
M  V30 23 C 2.5341 -1.9609 3.02624 0
M  V30 24 O 1.6381 -3.04863 2.77727 0
M  V30 25 H 0.9791 -0.293557 0.595584 0
M  V30 26 H 3.5091 -0.30159 2.02365 0
M  V30 27 H 3.5191 -2.38039 3.31363 0
M  V30 28 H 2.1941 -1.39851 3.91682 0
M  V30 29 H 0.7711 -2.67228 2.60084 0
M  V30 30 N 2.9562 -1.48159 -0.537278 0
M  V30 31 C 3.9192 -1.61665 -1.62472 0
M  V30 32 C 4.9192 -0.490395 -1.5314 0
M  V30 33 O 6.1092 -0.755998 -1.5694 0
M  V30 34 C 3.2412 -1.57997 -3.02076 0
M  V30 35 H 4.4342 -2.58621 -1.51839 0
M  V30 36 H 1.9872 -1.36647 -0.758771 0
M  V30 37 H 2.7222 -0.624913 -3.18222 0
M  V30 38 H 2.5072 -2.39755 -3.10258 0
M  V30 39 H 3.9972 -1.70627 -3.81151 0
M  V30 40 N 4.4343 0.785586 -1.36625 0
M  V30 41 C 5.8453 1.36101 -1.27803 0
M  V30 42 C 6.1963 1.96035 0.0804875 0
M  V30 43 O 5.3213 1.92834 0.982042 0
M  V30 44 C 5.9163 2.47442 -2.31426 0
M  V30 45 C 4.4753 3.00789 -2.26281 0
M  V30 46 C 3.6223 1.73896 -2.15999 0
M  V30 47 H 6.5733 0.586928 -1.47448 0
M  V30 48 H 6.5943 3.2656 -1.95291 0
M  V30 49 H 6.1063 2.03791 -3.30289 0
M  V30 50 H 4.2073 3.48851 -1.30896 0
M  V30 51 H 4.3203 3.57343 -3.19128 0
M  V30 52 H 2.6843 1.9628 -1.62316 0
M  V30 53 H 3.4673 1.32368 -3.16755 0
M  V30 54 N 5.9124 1.20967 1.01018 0
M  V30 55 C 6.8754 0.965918 2.07853 0
M  V30 56 C 7.8754 -0.0610545 1.60684 0
M  V30 57 O 9.0654 0.175681 1.73312 0
M  V30 58 C 6.1974 0.455513 3.37843 0
M  V30 59 H 7.3904 1.91365 2.3091 0
M  V30 60 H 4.9434 1.02594 1.17916 0
M  V30 61 H 5.6784 -0.497381 3.20463 0
M  V30 62 H 5.4634 1.19622 3.73407 0
M  V30 63 H 6.9534 0.304667 4.16487 0
M  V30 64 N 7.3905 -1.2043 1.01659 0
M  V30 65 C 8.3225 -2.22626 0.544988 0
M  V30 66 C 9.3355 -1.58479 -0.372609 0
M  V30 67 O 10.5245 -1.77679 -0.170958 0
M  V30 68 C 7.6245 -3.38141 -0.22663 0
M  V30 69 C 6.7975 -4.31877 0.692876 0
M  V30 70 C 5.8565 -5.26191 -0.0311616 0
M  V30 71 O 4.8825 -5.6612 0.591343 0
M  V30 72 N 6.0845 -5.65618 -1.30601 0
M  V30 73 H 8.8495 -2.63716 1.42388 0
M  V30 74 H 6.4105 -1.34971 0.894116 0
M  V30 75 H 8.4025 -3.98239 -0.72024 0
M  V30 76 H 6.9725 -2.95943 -1.00681 0
M  V30 77 H 6.1925 -3.69746 1.36679 0
M  V30 78 H 7.4805 -4.91426 1.31824 0
M  V30 79 H 6.8785 -5.3519 -1.83269 0
M  V30 80 H 5.4355 -6.28025 -1.74435 0
M  V30 81 N 8.8686 -0.792821 -1.36206 0
M  V30 82 C 10.2796 -0.429513 -1.81692 0
M  V30 83 C 10.6306 1.04695 -1.65932 0
M  V30 84 O 9.7556 1.81256 -1.18218 0
M  V30 85 C 10.3506 -0.772831 -3.29868 0
M  V30 86 C 8.9096 -0.462307 -3.7355 0
M  V30 87 C 8.0566 -1.00569 -2.5842 0
M  V30 88 H 11.0076 -0.985672 -1.24379 0
M  V30 89 H 11.0286 -0.0651928 -3.80444 0
M  V30 90 H 10.5406 -1.84747 -3.41307 0
M  V30 91 H 8.6416 0.604158 -3.67669 0
M  V30 92 H 8.7546 -0.985299 -4.68859 0
M  V30 93 H 7.1186 -0.428734 -2.51066 0
M  V30 94 H 7.9016 -2.08616 -2.72643 0
M  V30 95 N 10.3467 1.47872 -0.545128 0
M  V30 96 C 11.7577 1.86384 -0.108581 0
M  V30 97 C 12.1087 1.45309 1.31832 0
M  V30 98 O 11.2337 0.850641 1.9898 0
M  V30 99 C 11.8287 3.38265 -0.190274 0
M  V30 100 C 10.3877 3.75914 0.191164 0
M  V30 101 C 9.5347 2.71926 -0.543273 0
M  V30 102 H 12.4857 1.39561 -0.755537 0
M  V30 103 H 12.5067 3.75831 0.594217 0
M  V30 104 H 12.0187 3.6813 -1.2289 0
M  V30 105 H 10.1197 3.51665 1.23136 0
M  V30 106 H 10.2327 4.78836 -0.158987 0
M  V30 107 H 8.5967 2.54697 0.0122495 0
M  V30 108 H 9.3797 3.04634 -1.58282 0
M  V30 109 N 11.8248 0.280983 1.55075 0
M  V30 110 C 12.7878 -0.590896 2.21452 0
M  V30 111 C 13.7878 -1.07682 1.19421 0
M  V30 112 O 14.9778 -0.97605 1.44288 0
M  V30 113 C 12.1098 -1.81587 2.88511 0
M  V30 114 H 13.3028 -0.0112554 2.99898 0
M  V30 115 H 10.8558 0.0316438 1.56268 0
M  V30 116 H 11.5908 -2.43587 2.14093 0
M  V30 117 H 11.3758 -1.4753 3.63287 0
M  V30 118 H 12.8658 -2.43575 3.39206 0
M  V30 119 N 13.3029 -1.57598 0.00835791 0
M  V30 120 C 14.2129 -2.12385 -0.996487 0
M  V30 121 C 15.2289 -1.07108 -1.37127 0
M  V30 122 O 16.4049 -1.39055 -1.4569 0
M  V30 123 C 13.4699 -2.62314 -2.26699 0
M  V30 124 C 12.5309 -3.82225 -1.95456 0
M  V30 125 C 11.7639 -4.29763 -3.16449 0
M  V30 126 O 11.9869 -3.76584 -4.28416 0
M  V30 127 O 10.9209 -5.21832 -2.99958 0
M  V30 128 H 14.7469 -2.98479 -0.560725 0
M  V30 129 H 12.3319 -1.47903 -0.210987 0
M  V30 130 H 14.2139 -2.94589 -3.01322 0
M  V30 131 H 12.8889 -1.79313 -2.69497 0
M  V30 132 H 11.7959 -3.54909 -1.18282 0
M  V30 133 H 13.1289 -4.66324 -1.57489 0
M  V30 134 N 14.781 0.264519 -1.55364 0
M  V30 135 C 16.029 0.993021 -1.76021 0
M  V30 136 C 16.35 1.86511 -0.569099 0
M  V30 137 O 15.62 1.91438 0.415735 0
M  V30 138 H 14.2 0.369639 -0.649135 0
M  V30 139 H 16.862 0.286707 -1.9278 0
M  V30 140 H 15.958 1.62502 -2.66457 0
M  V30 141 N 16.2591 1.48442 0.529413 0
M  V30 142 C 17.4871 1.60151 1.30994 0
M  V30 143 C 17.9021 0.261985 1.86973 0
M  V30 144 O 17.2591 -0.748805 1.66431 0
M  V30 145 C 17.3101 2.64854 2.46038 0
M  V30 146 O 17.0311 3.93608 1.92365 0
M  V30 147 C 18.5321 2.87007 3.37849 0
M  V30 148 H 15.7521 0.539971 0.398338 0
M  V30 149 H 18.2961 1.94273 0.638597 0
M  V30 150 H 16.4511 2.33589 3.09055 0
M  V30 151 H 16.8651 4.51055 2.67675 0
M  V30 152 H 18.3391 3.64068 4.14919 0
M  V30 153 H 18.8161 1.95852 3.93114 0
M  V30 154 H 19.4221 3.19579 2.80623 0
M  V30 155 N 17.7372 -0.778329 1.37039 0
M  V30 156 C 18.6472 -1.92253 1.34446 0
M  V30 157 C 19.6632 -1.72267 0.244991 0
M  V30 158 O 20.8392 -1.95615 0.479258 0
M  V30 159 C 17.9042 -3.27282 1.144 0
M  V30 160 C 16.9652 -3.59969 2.33925 0
M  V30 161 C 16.1982 -4.88555 2.14825 0
M  V30 162 O 16.4212 -5.59113 1.12912 0
M  V30 163 O 15.3552 -5.20153 3.02861 0
M  V30 164 H 19.1812 -1.97392 2.30803 0
M  V30 165 H 16.7662 -0.920154 1.17701 0
M  V30 166 H 18.6482 -4.08062 1.05182 0
M  V30 167 H 17.3232 -3.23011 0.211124 0
M  V30 168 H 16.2302 -2.7945 2.48714 0
M  V30 169 H 17.5632 -3.68976 3.25757 0
M  V30 170 N 19.2153 -1.21501 -1.00376 0
M  V30 171 C 20.4633 -1.03095 -1.73827 0
M  V30 172 C 20.7843 0.436341 -1.90055 0
M  V30 173 O 20.0543 1.31466 -1.45236 0
M  V30 174 H 18.6343 -0.378487 -0.644016 0
M  V30 175 H 21.2963 -1.52831 -1.20949 0
M  V30 176 H 20.3923 -1.49991 -2.73695 0
M  V30 177 N 20.6934 1.19889 -1.02296 0
M  V30 178 C 21.9214 1.9339 -0.735399 0
M  V30 179 C 22.3364 1.75148 0.704887 0
M  V30 180 O 21.6934 1.06954 1.47875 0
M  V30 181 C 21.7444 3.45313 -1.06962 0
M  V30 182 O 21.4654 3.62964 -2.45334 0
M  V30 183 C 22.9664 4.35948 -0.804021 0
M  V30 184 H 20.1864 0.61448 -0.269546 0
M  V30 185 H 22.7304 1.522 -1.36585 0
M  V30 186 H 20.8854 3.84359 -0.484455 0
M  V30 187 H 21.2994 4.56886 -2.57595 0
M  V30 188 H 22.7734 5.41174 -1.0879 0
M  V30 189 H 23.2504 4.3842 0.261691 0
M  V30 190 H 23.8564 4.02574 -1.37164 0
M  V30 191 N 22.1715 0.800033 1.35784 0
M  V30 192 C 23.1345 0.211565 2.28221 0
M  V30 193 C 24.1345 -0.59728 1.49296 0
M  V30 194 O 25.3245 -0.416721 1.69142 0
M  V30 195 C 22.4565 -0.705846 3.33513 0
M  V30 196 H 23.6495 1.02677 2.81776 0
M  V30 197 H 21.2025 0.570211 1.45528 0
M  V30 198 H 21.9375 -1.54498 2.85133 0
M  V30 199 H 21.7225 -0.127655 3.91892 0
M  V30 200 H 23.2125 -1.11211 4.02519 0
M  V30 201 N 23.6496 -1.47581 0.552962 0
M  V30 202 C 25.0606 -1.86324 0.118463 0
M  V30 203 C 25.4116 -1.46006 -1.3106 0
M  V30 204 O 24.5366 -0.861182 -1.98526 0
M  V30 205 C 25.1316 -3.3816 0.20821 0
M  V30 206 C 23.6906 -3.7601 -0.171226 0
M  V30 207 C 22.8376 -2.71634 0.557686 0
M  V30 208 H 25.7886 -1.39159 0.762928 0
M  V30 209 H 25.8096 -3.76141 -0.574278 0
M  V30 210 H 25.3216 -3.67473 1.24841 0
M  V30 211 H 23.4226 -3.52313 -1.21269 0
M  V30 212 H 23.5356 -4.78745 0.184379 0
M  V30 213 H 21.8996 -2.547 0.00125792 0
M  V30 214 H 22.6826 -3.0379 1.59896 0
M  V30 215 N 25.1277 -0.289203 -1.54924 0
M  V30 216 C 26.3757 0.322879 -1.99504 0
M  V30 217 C 26.6967 1.55313 -1.1791 0
M  V30 218 O 25.9667 1.94001 -0.272097 0
M  V30 219 H 24.5467 0.122291 -0.736922 0
M  V30 220 H 27.2087 -0.397802 -1.90797 0
M  V30 221 H 26.3047 0.603061 -3.06218 0
M  V30 222 N 26.6058 1.57591 -0.0167156 0
M  V30 223 C 27.8538 1.90906 0.663285 0
M  V30 224 C 28.1748 0.892509 1.73376 0
M  V30 225 O 27.4448 -0.0677623 1.95783 0
M  V30 226 H 26.0248 0.704637 0.247983 0
M  V30 227 H 28.6868 1.94803 -0.0615909 0
M  V30 228 H 27.7828 2.9116 1.12393 0
M  V30 229 N 28.0839 -0.256276 1.55502 0
M  V30 230 C 29.3319 -0.983672 1.76545 0
M  V30 231 C 29.6529 -1.86206 0.578982 0
M  V30 232 O 28.9229 -1.91656 -0.405577 0
M  V30 233 H 27.5029 -0.366191 0.651086 0
M  V30 234 H 30.1649 -0.276479 1.92929 0
M  V30 235 H 29.2609 -1.61087 2.67315 0
M  V30 236 N 29.562 -1.4872 -0.521534 0
M  V30 237 C 30.973 -1.50607 -1.10337 0
M  V30 238 C 31.324 -0.280612 -1.94183 0
M  V30 239 O 30.449 0.611507 -2.0758 0
M  V30 240 C 31.044 -2.72903 -2.00772 0
M  V30 241 C 29.603 -2.77634 -2.54158 0
M  V30 242 C 28.75 -2.44241 -1.31307 0
M  V30 243 H 31.701 -1.55714 -0.306388 0
M  V30 244 H 31.722 -2.519 -2.85178 0
M  V30 245 H 31.234 -3.62077 -1.39721 0
M  V30 246 H 29.335 -1.92689 -3.18907 0
M  V30 247 H 29.448 -3.79283 -2.92714 0
M  V30 248 H 27.812 -1.95577 -1.63161 0
M  V30 249 H 28.595 -3.35666 -0.719943 0
M  V30 250 N 31.0401 0.771051 -1.3745 0
M  V30 251 C 32.4511 1.34737 -1.29239 0
M  V30 252 C 32.8021 1.96109 0.0596908 0
M  V30 253 O 31.9271 1.93865 0.961534 0
M  V30 254 C 32.5221 2.44973 -2.34037 0
M  V30 255 C 31.0811 2.98372 -2.29458 0
M  V30 256 C 30.2281 1.71595 -2.17831 0
M  V30 257 H 33.1791 0.571256 -1.48062 0
M  V30 258 H 33.2001 3.24471 -1.98744 0
M  V30 259 H 32.7121 2.00276 -3.32432 0
M  V30 260 H 30.8131 3.47443 -1.34589 0
M  V30 261 H 30.9261 3.53939 -3.229 0
M  V30 262 H 29.2901 1.94547 -1.64388 0
M  V30 263 H 30.0731 1.29001 -3.18141 0
M  V30 264 N 32.5182 1.22032 0.997298 0
M  V30 265 C 33.7662 1.04016 1.73278 0
M  V30 266 C 34.0872 -0.426255 1.90284 0
M  V30 267 O 33.3572 -1.30694 1.45931 0
M  V30 268 H 31.9372 0.381897 0.642 0
M  V30 269 H 34.5992 1.5347 1.20137 0
M  V30 270 H 33.6952 1.51441 2.72896 0
M  V30 271 N 33.9963 -1.19345 1.0293 0
M  V30 272 C 35.4073 -1.70725 0.755633 0
M  V30 273 C 35.7583 -1.82326 -0.724676 0
M  V30 274 O 34.8833 -1.49471 -1.56484 0
M  V30 275 C 35.4783 -3.10084 1.36503 0
M  V30 276 C 34.0373 -3.58723 1.13994 0
M  V30 277 C 33.1843 -2.35577 1.46283 0
M  V30 278 H 36.1353 -1.0418 1.19718 0
M  V30 279 H 36.1563 -3.72787 0.762217 0
M  V30 280 H 35.6683 -3.01609 2.44241 0
M  V30 281 H 33.7693 -3.72512 0.0807901 0
M  V30 282 H 33.8823 -4.42816 1.82894 0
M  V30 283 H 32.2463 -2.38935 0.88217 0
M  V30 284 H 33.0293 -2.29731 2.55105 0
M  V30 285 N 35.4744 -0.807222 -1.35358 0
M  V30 286 C 36.8854 -0.44876 -1.81226 0
M  V30 287 C 37.2364 1.02929 -1.67033 0
M  V30 288 O 36.3614 1.79991 -1.20133 0
M  V30 289 C 36.9564 -0.807774 -3.2903 0
M  V30 290 C 35.5154 -0.501901 -3.73039 0
M  V30 291 C 34.6624 -1.03304 -2.57339 0
M  V30 292 H 37.6134 -0.998808 -1.23327 0
M  V30 293 H 37.6344 -0.10554 -3.80354 0
M  V30 294 H 37.1464 -1.88357 -3.39328 0
M  V30 295 H 35.2474 0.565128 -3.68289 0
M  V30 296 H 35.3604 -1.03497 -4.67787 0
M  V30 297 H 33.7244 -0.455339 -2.50597 0
M  V30 298 H 34.5074 -2.11496 -2.70415 0
M  V30 299 N 36.9525 1.47285 -0.560781 0
M  V30 300 C 38.3635 1.86258 -0.128343 0
M  V30 301 C 38.7145 1.46699 1.30284 0
M  V30 302 O 37.8395 0.871698 1.98067 0
M  V30 303 C 38.4345 3.38044 -0.22614 0
M  V30 304 C 36.9935 3.76096 0.151283 0
M  V30 305 C 36.1405 2.71335 -0.572084 0
M  V30 306 H 39.0915 1.38752 -0.770297 0
M  V30 307 H 39.1125 3.76441 0.554322 0
M  V30 308 H 38.6245 3.66806 -1.26788 0
M  V30 309 H 36.7255 3.52951 1.19399 0
M  V30 310 H 36.8385 4.78641 -0.209765 0
M  V30 311 H 35.2025 2.54696 -0.0147653 0
M  V30 312 H 35.9855 3.02938 -1.61504 0
M  V30 313 N 38.4306 0.297415 1.54768 0
M  V30 314 C 39.3786 -0.596051 2.24833 0
M  V30 315 C 40.3726 -1.13992 1.25308 0
M  V30 316 O 41.5786 -1.09098 1.4317 0
M  V30 317 H 37.9536 -0.210814 0.721846 0
M  V30 318 H 39.9246 0.0174667 2.98395 0
M  V30 319 C 38.6736 -1.75818 2.99972 0
M  V30 320 H 37.9966 -1.3489 3.76357 0
M  V30 321 H 39.4366 -2.35949 3.52284 0
M  V30 322 C 37.8956 -2.66014 2.06732 0
M  V30 323 O 38.4256 -3.67009 1.63302 0
M  V30 324 N 36.6316 -2.33669 1.72763 0
M  V30 325 H 36.1786 -1.51586 2.08277 0
M  V30 326 H 36.1366 -2.94285 1.10652 0
M  V30 327 N 39.9087 -1.5758 0.0250728 0
M  V30 328 C 40.8417 -2.05473 -0.992777 0
M  V30 329 C 41.8197 -0.949661 -1.31986 0
M  V30 330 O 43.0037 -1.21969 -1.43722 0
M  V30 331 C 40.1307 -2.4734 -2.31389 0
M  V30 332 C 39.1767 -3.68827 -2.1417 0
M  V30 333 S 40.0097 -5.15655 -1.44429 0
M  V30 334 C 41.1657 -5.60814 -2.77918 0
M  V30 335 H 41.3987 -2.91486 -0.585078 0
M  V30 336 H 38.9317 -1.53269 -0.186507 0
M  V30 337 H 40.8897 -2.72127 -3.07339 0
M  V30 338 H 39.5507 -1.6168 -2.69292 0
M  V30 339 H 38.7437 -3.95955 -3.11826 0
M  V30 340 H 38.3457 -3.44172 -1.46362 0
M  V30 341 H 40.6377 -5.64806 -3.74166 0
M  V30 342 H 41.5807 -6.60414 -2.55459 0
M  V30 343 H 41.9887 -4.8845 -2.82979 0
M  V30 344 N 41.3868 0.248026 -1.55636 0
M  V30 345 C 42.6148 0.993808 -1.81469 0
M  V30 346 C 43.0298 1.78991 -0.60064 0
M  V30 347 O 42.3868 1.77345 0.430682 0
M  V30 348 C 42.4378 1.93258 -3.05506 0
M  V30 349 O 42.1588 1.16869 -4.22224 0
M  V30 350 C 43.6598 2.79444 -3.4413 0
M  V30 351 H 40.8798 0.292486 -0.603898 0
M  V30 352 H 43.4238 0.271253 -2.02693 0
M  V30 353 H 41.5788 2.60943 -2.86335 0
M  V30 354 H 41.9928 1.80359 -4.92515 0
M  V30 355 H 43.4668 3.41066 -4.34026 0
M  V30 356 H 43.9438 3.50499 -2.64665 0
M  V30 357 H 44.5498 2.17214 -3.65648 0
M  V30 358 N 42.8649 1.48995 0.513639 0
M  V30 359 C 44.0899 1.61792 1.29762 0
M  V30 360 C 44.5149 0.284475 1.85936 0
M  V30 361 O 43.8729 -0.746185 1.65232 0
M  V30 362 C 43.9209 2.67993 2.41272 0
M  V30 363 O 43.0249 2.26287 3.44772 0
M  V30 364 H 42.3659 0.541963 0.38363 0
M  V30 365 H 44.8959 1.95097 0.616307 0
M  V30 366 H 44.9059 2.89772 2.87221 0
M  V30 367 H 43.5809 3.64791 1.9975 0
M  V30 368 H 42.1579 2.14788 3.04829 0
M  V30 369 N 44.343 -0.763751 1.37857 0
M  V30 370 C 45.291 -1.89864 1.34367 0
M  V30 371 C 46.285 -1.67816 0.231143 0
M  V30 372 O 47.491 -1.75508 0.399617 0
M  V30 373 H 43.866 -0.624501 0.41893 0
M  V30 374 H 45.837 -1.89925 2.30155 0
M  V30 375 C 44.586 -3.27227 1.1755 0
M  V30 376 H 43.909 -3.44773 2.02414 0
M  V30 377 H 45.349 -4.06911 1.1916 0
M  V30 378 C 43.808 -3.36692 -0.118311 0
M  V30 379 O 44.338 -3.86374 -1.09902 0
M  V30 380 N 42.544 -2.90092 -0.171717 0
M  V30 381 H 42.091 -2.49853 0.627012 0
M  V30 382 H 42.049 -2.96806 -1.03699 0
M  V30 383 N 45.8211 -1.22559 -0.990812 0
M  V30 384 C 47.2371 -0.985996 -1.255 0
M  V30 385 C 47.4371 0.319173 -1.98956 0
M  V30 386 O 46.4931 1.04127 -2.3003 0
M  V30 387 C 47.8061 -2.18607 -2.06474 0
M  V30 388 C 49.3541 -2.22985 -2.19651 0
M  V30 389 C 49.8291 -3.4255 -3.04012 0
M  V30 390 N 51.3201 -3.42725 -3.11599 0
M  V30 391 C 52.0551 -4.31892 -3.7717 0
M  V30 392 N 51.5511 -5.31279 -4.44651 0
M  V30 393 N 53.3441 -4.19662 -3.73952 0
M  V30 394 H 45.4951 -2.06469 -0.49841 0
M  V30 395 H 47.7581 -0.904853 -0.282747 0
M  V30 396 H 47.4641 -3.13267 -1.59865 0
M  V30 397 H 47.3381 -2.18838 -3.07229 0
M  V30 398 H 49.7251 -1.28871 -2.65474 0
M  V30 399 H 49.8061 -2.26791 -1.18319 0
M  V30 400 H 49.4501 -4.36965 -2.58889 0
M  V30 401 H 49.3801 -3.35984 -4.0549 0
M  V30 402 H 51.8711 -2.70807 -2.63575 0
M  V30 403 H 52.1841 -5.95593 -4.92431 0
M  V30 404 H 50.5291 -5.3519 -4.43392 0
M  V30 405 H 53.7201 -3.41268 -3.20396 0
M  V30 406 H 53.8931 -4.89358 -4.24774 0
M  V30 407 N 47.2992 1.18797 -1.03562 0
M  V30 408 C 48.7152 1.40671 -0.753917 0
M  V30 409 C 48.9152 1.9043 0.658686 0
M  V30 410 O 47.9712 2.08538 1.42366 0
M  V30 411 C 49.2842 2.41192 -1.79574 0
M  V30 412 C 50.8322 2.54928 -1.81606 0
M  V30 413 C 51.3072 3.58709 -2.84766 0
M  V30 414 N 52.7982 3.66212 -2.83625 0
M  V30 415 C 53.5332 4.46225 -3.60098 0
M  V30 416 N 53.0292 5.29888 -4.46308 0
M  V30 417 N 54.8222 4.40939 -3.4861 0
M  V30 418 H 46.9732 0.848221 -1.94728 0
M  V30 419 H 49.2362 0.435081 -0.842264 0
M  V30 420 H 48.9422 2.11669 -2.80872 0
M  V30 421 H 48.8162 3.40467 -1.62365 0
M  V30 422 H 51.2032 2.83771 -0.809817 0
M  V30 423 H 51.2842 1.55784 -2.02891 0
M  V30 424 H 50.9282 3.30607 -3.85566 0
M  V30 425 H 50.8582 4.57519 -2.60737 0
M  V30 426 H 53.3492 3.06466 -2.21105 0
M  V30 427 H 53.6622 5.88078 -5.01382 0
M  V30 428 H 52.0072 5.29326 -4.50377 0
M  V30 429 H 55.1982 3.74624 -2.80668 0
M  V30 430 H 55.3712 5.03056 -4.08459 0
M  V30 431 N 48.7773 0.814389 1.34928 0
M  V30 432 C 49.7073 0.244827 2.32213 0
M  V30 433 C 50.6883 -0.634024 1.57842 0
M  V30 434 O 51.8733 -0.562676 1.8587 0
M  V30 435 C 49.0033 -0.601106 3.42058 0
M  V30 436 C 47.9573 0.179896 4.27622 0
M  V30 437 C 47.2833 -0.788237 5.28858 0
M  V30 438 C 48.5833 1.38329 5.03649 0
M  V30 439 H 50.2773 1.05763 2.80097 0
M  V30 440 H 47.8233 0.510029 1.34665 0
M  V30 441 H 49.7763 -1.00968 4.09125 0
M  V30 442 H 48.5003 -1.44688 2.92802 0
M  V30 443 H 47.1593 0.569739 3.62146 0
M  V30 444 H 46.8073 -1.62973 4.75866 0
M  V30 445 H 46.5073 -0.269942 5.8698 0
M  V30 446 H 48.0313 -1.19485 5.98795 0
M  V30 447 H 49.4453 1.04918 5.63618 0
M  V30 448 H 47.8423 1.83662 5.71304 0
M  V30 449 H 48.9123 2.16592 4.33839 0
M  V30 450 N 50.2554 -1.46986 0.568584 0
M  V30 451 C 51.1874 -2.28233 -0.210337 0
M  V30 452 C 52.2004 -1.37682 -0.868767 0
M  V30 453 O 53.3894 -1.62406 -0.740705 0
M  V30 454 C 50.4894 -3.12293 -1.3163 0
M  V30 455 C 49.6624 -4.30878 -0.7525 0
M  V30 456 C 48.7214 -4.96445 -1.74439 0
M  V30 457 O 47.7474 -5.54482 -1.286 0
M  V30 458 N 48.9494 -4.92171 -3.07812 0
M  V30 459 H 51.7144 -2.95723 0.486648 0
M  V30 460 H 49.2754 -1.56742 0.405409 0
M  V30 461 H 51.2674 -3.53022 -1.97883 0
M  V30 462 H 49.8374 -2.46971 -1.91636 0
M  V30 463 H 49.0574 -3.94104 0.0871128 0
M  V30 464 H 50.3454 -5.07558 -0.35536 0
M  V30 465 H 49.7434 -4.46239 -3.47688 0
M  V30 466 H 48.3004 -5.36884 -3.69592 0
M  V30 467 N 51.7335 -0.305618 -1.54608 0
M  V30 468 C 52.6655 0.602161 -2.21149 0
M  V30 469 C 53.6785 1.09394 -1.20569 0
M  V30 470 O 54.8675 1.0106 -1.47136 0
M  V30 471 C 51.9675 1.83692 -2.84799 0
M  V30 472 C 51.1405 1.48686 -4.11353 0
M  V30 473 C 50.1995 2.57725 -4.58764 0
M  V30 474 O 49.2255 2.22623 -5.23858 0
M  V30 475 N 50.4275 3.88346 -4.31471 0
M  V30 476 H 53.1925 0.0324966 -2.99682 0
M  V30 477 H 50.7535 -0.128021 -1.61393 0
M  V30 478 H 52.7455 2.55994 -3.13448 0
M  V30 479 H 51.3155 2.31486 -2.10078 0
M  V30 480 H 50.5355 0.596269 -3.89664 0
M  V30 481 H 51.8235 1.22842 -4.93748 0
M  V30 482 H 51.2215 4.19671 -3.79331 0
M  V30 483 H 49.7785 4.56932 -4.64818 0
M  V30 484 N 53.2116 1.57565 -0.0334293 0
M  V30 485 C 54.4396 1.9628 0.654347 0
M  V30 486 C 54.8546 0.910138 1.65414 0
M  V30 487 O 54.2116 -0.107595 1.82183 0
M  V30 488 C 54.2626 3.35067 1.35693 0
M  V30 489 O 53.9836 4.36296 0.397191 0
M  V30 490 C 55.4846 3.88439 2.13613 0
M  V30 491 H 52.7046 0.646369 0.180132 0
M  V30 492 H 55.2486 2.04282 -0.0944721 0
M  V30 493 H 53.4036 3.2827 2.05712 0
M  V30 494 H 53.8176 5.1678 0.896597 0
M  V30 495 H 55.2916 4.8788 2.58219 0
M  V30 496 H 55.7686 3.22914 2.97696 0
M  V30 497 H 56.3746 3.98516 1.48543 0
M  V30 498 N 54.6897 -0.239769 1.55765 0
M  V30 499 C 55.6217 -1.32001 1.87372 0
M  V30 500 C 56.6347 -1.43944 0.760522 0
M  V30 501 O 57.8237 -1.45167 1.0387 0
M  V30 502 C 54.9237 -2.69779 2.05115 0
M  V30 503 C 54.0967 -2.80014 3.36022 0
M  V30 504 C 53.1557 -3.98684 3.4342 0
M  V30 505 O 52.1817 -3.87877 4.16582 0
M  V30 506 N 53.3837 -5.12176 2.73232 0
M  V30 507 H 56.1487 -1.0522 2.80622 0
M  V30 508 H 53.7097 -0.429857 1.56089 0
M  V30 509 H 55.7017 -3.47517 2.07399 0
M  V30 510 H 54.2717 -2.89237 1.18577 0
M  V30 511 H 53.4917 -1.88896 3.45994 0
M  V30 512 H 54.7797 -2.83808 4.22292 0
M  V30 513 H 54.1777 -5.2385 2.13536 0
M  V30 514 H 52.7347 -5.88022 2.81199 0
M  V30 515 N 56.1678 -1.49265 -0.50573 0
M  V30 516 C 57.1308 -1.65075 -1.59006 0
M  V30 517 C 58.1308 -0.522768 -1.52065 0
M  V30 518 O 59.3208 -0.789117 -1.55302 0
M  V30 519 C 56.4528 -1.64369 -2.98656 0
M  V30 520 H 57.6458 -2.61784 -1.46319 0
M  V30 521 H 55.1988 -1.38226 -0.729616 0
M  V30 522 H 55.9338 -0.692272 -3.16825 0
M  V30 523 H 55.7188 -2.46282 -3.05103 0
M  V30 524 H 57.2088 -1.78674 -3.77446 0
M  V30 525 N 57.6459 0.756429 -1.3826 0
M  V30 526 C 58.5779 1.87971 -1.31147 0
M  V30 527 C 59.5909 1.61248 -0.224239 0
M  V30 528 O 60.7799 1.71881 -0.481581 0
M  V30 529 C 57.8799 3.23545 -1.00857 0
M  V30 530 C 57.0529 3.77794 -2.20432 0
M  V30 531 C 56.1119 4.91877 -1.86931 0
M  V30 532 O 55.1379 5.06659 -2.59395 0
M  V30 533 N 56.3399 5.74643 -0.822568 0
M  V30 534 H 59.1049 1.94585 -2.2794 0
M  V30 535 H 56.6659 0.936234 -1.32084 0
M  V30 536 H 58.6579 3.97403 -0.765021 0
M  V30 537 H 57.2279 3.12335 -0.128687 0
M  V30 538 H 56.4479 2.95534 -2.6087 0
M  V30 539 H 57.7359 4.10771 -3.00241 0
M  V30 540 H 57.1339 5.65266 -0.221575 0
M  V30 541 H 55.6909 6.48661 -0.638899 0
M  V30 542 N 59.124 1.23083 0.984299 0
M  V30 543 C 60.37 1.06214 1.72761 0
M  V30 544 C 60.703 -0.400584 1.90024 0
M  V30 545 O 59.978 -1.29672 1.44967 0
M  V30 546 C 60.261 1.78375 3.12817 0
M  V30 547 C 60.114 3.32296 3.03149 0
M  V30 548 C 61.433 1.54309 4.12161 0
M  V30 549 H 58.552 0.387251 0.627061 0
M  V30 550 H 61.194 1.51536 1.14616 0
M  V30 551 H 59.344 1.39848 3.62457 0
M  V30 552 H 61.016 3.8032 2.61064 0
M  V30 553 H 59.259 3.6153 2.39747 0
M  V30 554 H 59.93 3.77972 4.02295 0
M  V30 555 H 62.406 1.87791 3.71314 0
M  V30 556 H 61.282 2.07281 5.08258 0
M  V30 557 H 61.543 0.477572 4.39513 0
M  V30 558 N 60.6021 -1.18246 1.0419 0
M  V30 559 C 61.5121 -2.25574 0.644476 0
M  V30 560 C 62.5281 -1.70845 -0.329826 0
M  V30 561 O 63.7041 -2.00554 -0.184443 0
M  V30 562 C 60.7691 -3.46697 0.014877 0
M  V30 563 C 59.8301 -4.16554 1.03834 0
M  V30 564 C 59.0631 -5.31894 0.438692 0
M  V30 565 O 59.2861 -5.65385 -0.754752 0
M  V30 566 O 58.2201 -5.90459 1.168 0
M  V30 567 H 62.0461 -2.61836 1.53869 0
M  V30 568 H 59.6311 -1.25352 0.812854 0
M  V30 569 H 61.5131 -4.20062 -0.335538 0
M  V30 570 H 60.1881 -3.12255 -0.853138 0
M  V30 571 H 59.0951 -3.45251 1.44057 0
M  V30 572 H 60.4281 -4.54998 1.87716 0
M  V30 573 N 62.0802 -0.821533 -1.34494 0
M  V30 574 C 62.9902 -0.244355 -2.33324 0
M  V30 575 C 64.0062 0.620527 -1.62559 0
M  V30 576 O 65.1822 0.528754 -1.94335 0
M  V30 577 C 62.2472 0.585368 -3.41723 0
M  V30 578 C 61.3082 -0.301752 -4.28238 0
M  V30 579 C 60.5412 0.488466 -5.3146 0
M  V30 580 O 60.7642 1.72186 -5.4379 0
M  V30 581 O 59.6982 -0.12848 -6.01763 0
M  V30 582 H 63.5242 -1.06231 -2.84515 0
M  V30 583 H 61.1092 -0.583645 -1.37528 0
M  V30 584 H 62.9912 1.05747 -4.07916 0
M  V30 585 H 61.6662 1.38068 -2.92778 0
M  V30 586 H 60.5732 -0.821315 -3.64973 0
M  V30 587 H 61.9062 -1.06138 -4.8062 0
M  V30 588 N 63.5583 1.46682 -0.576371 0
M  V30 589 C 64.8043 2.02712 -0.0596221 0
M  V30 590 C 65.1373 1.44765 1.29448 0
M  V30 591 O 64.4123 0.610355 1.84675 0
M  V30 592 C 64.6953 3.60098 0.0129503 0
M  V30 593 C 64.5483 4.28441 -1.3696 0
M  V30 594 C 65.8673 4.34224 0.71678 0
M  V30 595 H 62.9863 0.736637 -0.0231407 0
M  V30 596 H 65.6283 1.74898 -0.742351 0
M  V30 597 H 63.7783 3.83926 0.594378 0
M  V30 598 H 65.4503 4.15896 -1.9957 0
M  V30 599 H 63.6933 3.8805 -1.93907 0
M  V30 600 H 64.3643 5.3716 -1.27135 0
M  V30 601 H 66.8403 4.15503 0.222908 0
M  V30 602 H 65.7163 5.43936 0.73657 0
M  V30 603 H 65.9773 4.04823 1.77682 0
M  V30 604 N 65.0364 0.313813 1.54444 0
M  V30 605 C 66.2824 -0.292108 2.00685 0
M  V30 606 C 66.6154 -1.52548 1.20177 0
M  V30 607 O 65.8904 -1.92452 0.281531 0
M  V30 608 C 66.1734 -0.635968 3.5444 0
M  V30 609 C 66.0264 0.607437 4.4568 0
M  V30 610 C 67.3454 -1.45747 4.15266 0
M  V30 611 H 64.4644 -0.104697 0.729526 0
M  V30 612 H 67.1064 0.428457 1.85106 0
M  V30 613 H 65.2564 -1.24986 3.67846 0
M  V30 614 H 66.9284 1.24581 4.44159 0
M  V30 615 H 65.1714 1.23822 4.15753 0
M  V30 616 H 65.8424 0.322515 5.51057 0
M  V30 617 H 68.3184 -0.938645 4.05375 0
M  V30 618 H 67.1944 -1.66683 5.2298 0
M  V30 619 H 67.4554 -2.45063 3.67963 0
M  V30 620 N 66.5145 -1.57545 0.0417849 0
M  V30 621 C 67.7915 -1.83642 -0.673433 0
M  V30 622 C 68.1715 -0.928298 -1.89594 0
M  V30 623 O 67.5195 0.0129955 -2.28496 0
M  V30 624 C 67.7295 -3.33155 -1.03964 0
M  V30 625 C 69.0775 -3.99941 -1.42592 0
M  V30 626 O 70.1015 -3.37725 -1.13226 0
M  V30 627 O 68.9605 -5.09619 -1.9736 0
M  V30 628 H 66.0545 -0.757638 -0.331533 0
M  V30 629 H 68.6005 -1.69554 0.070433 0
M  V30 630 H 67.3725 -3.9093 -0.170098 0
M  V30 631 H 66.9955 -3.52396 -1.84126 0
M  V30 632 N 67.9926 0.231505 -1.5589 0
M  V30 633 C 69.2416 0.955346 -1.7764 0
M  V30 634 C 69.5546 1.85893 -0.608546 0
M  V30 635 O 70.7606 2.62067 -0.70943 0
M  V30 636 C 69.2166 1.74886 -3.14552 0
M  V30 637 C 68.8246 0.891915 -4.39032 0
M  V30 638 C 70.5686 2.46452 -3.45633 0
M  V30 639 C 68.4756 1.68221 -5.66971 0
M  V30 640 H 67.4056 0.360446 -0.662265 0
M  V30 641 H 70.0566 0.209516 -1.823 0
M  V30 642 H 68.4386 2.53723 -3.04041 0
M  V30 643 H 69.6126 0.144793 -4.60572 0
M  V30 644 H 67.9276 0.288863 -4.15397 0
M  V30 645 H 70.5246 3.06061 -4.38441 0
M  V30 646 H 70.8676 3.18841 -2.67668 0
M  V30 647 H 71.4006 1.74613 -3.57428 0
M  V30 648 H 68.1396 1.00178 -6.478 0
M  V30 649 H 67.6596 2.4042 -5.49507 0
M  V30 650 H 69.3386 2.24544 -6.06786 0
M  V30 651 N 69.4707 1.49531 0.497807 0
M  V30 652 C 70.7197 1.58426 1.24837 0
M  V30 653 C 71.0327 0.277643 1.93619 0
M  V30 654 O 72.2387 0.24517 2.70391 0
M  V30 655 C 70.6947 2.79538 2.26686 0
M  V30 656 C 70.3027 4.16971 1.63828 0
M  V30 657 C 72.0467 2.97764 3.0255 0
M  V30 658 C 69.9537 5.29301 2.63807 0
M  V30 659 H 68.8837 0.58989 0.469623 0
M  V30 660 H 71.5347 1.75923 0.521857 0
M  V30 661 H 69.9167 2.55542 3.02514 0
M  V30 662 H 71.0907 4.51116 0.939711 0
M  V30 663 H 69.4057 4.04129 1.00342 0
M  V30 664 H 72.0027 3.78856 3.77323 0
M  V30 665 H 72.3457 2.08448 3.60354 0
M  V30 666 H 72.8787 3.21815 2.33838 0
M  V30 667 H 69.6177 6.20687 2.10779 0
M  V30 668 H 69.1377 4.99606 3.31894 0
M  V30 669 H 70.8167 5.58768 3.2617 0
M  V30 670 N 70.9488 -0.749086 1.3866 0
M  V30 671 C 72.3648 -1.05276 1.19955 0
M  V30 672 C 72.5648 -2.01435 0.05134 0
M  V30 673 O 71.6208 -2.45232 -0.60147 0
M  V30 674 C 72.9338 -1.62853 2.52783 0
M  V30 675 C 74.4818 -1.75002 2.59506 0
M  V30 676 C 74.9568 -2.35991 3.92521 0
M  V30 677 N 76.4478 -2.43416 3.94085 0
M  V30 678 C 77.1828 -2.91511 4.9377 0
M  V30 679 N 76.6788 -3.39608 6.03853 0
M  V30 680 N 78.4718 -2.90592 4.81157 0
M  V30 681 H 70.6228 -0.111066 2.12109 0
M  V30 682 H 72.8858 -0.111901 0.941373 0
M  V30 683 H 72.5918 -0.99664 3.37283 0
M  V30 684 H 72.4658 -2.61854 2.715 0
M  V30 685 H 74.8528 -2.37317 1.75398 0
M  V30 686 H 74.9338 -0.74693 2.44652 0
M  V30 687 H 74.5778 -1.74308 4.77053 0
M  V30 688 H 74.5078 -3.3695 4.04688 0
M  V30 689 H 76.9988 -2.09405 3.14576 0
M  V30 690 H 77.3118 -3.74775 6.75843 0
M  V30 691 H 75.6568 -3.37653 6.07466 0
M  V30 692 H 78.8478 -2.52332 3.94267 0
M  V30 693 H 79.0208 -3.27762 5.58996 0
M  V30 694 N 72.4269 -1.23603 -0.977757 0
M  V30 695 C 73.6729 -1.07129 -1.72195 0
M  V30 696 C 74.0059 0.390501 -1.90233 0
M  V30 697 O 73.2809 1.28902 -1.45653 0
M  V30 698 C 73.5639 -1.80031 -3.11867 0
M  V30 699 C 73.4169 -3.33899 -3.01383 0
M  V30 700 C 74.7359 -1.56492 -4.11337 0
M  V30 701 H 71.8549 -0.390571 -0.624999 0
M  V30 702 H 74.4969 -1.52142 -1.13811 0
M  V30 703 H 72.6469 -1.41768 -3.6171 0
M  V30 704 H 74.3189 -3.81699 -2.59043 0
M  V30 705 H 72.5619 -3.62796 -2.37827 0
M  V30 706 H 73.2329 -3.801 -4.00285 0
M  V30 707 H 75.7089 -1.89757 -3.70313 0
M  V30 708 H 74.5849 -2.09973 -5.07151 0
M  V30 709 H 74.8459 -0.500874 -4.39254 0
M  V30 710 N 73.905 1.17692 -1.04816 0
M  V30 711 C 74.853 2.23632 -0.63966 0
M  V30 712 C 75.847 1.6601 0.337219 0
M  V30 713 O 77.053 1.78844 0.203693 0
M  V30 714 H 73.428 0.727949 -0.188665 0
M  V30 715 H 75.399 2.55387 -1.54337 0
M  V30 716 C 74.148 3.4769 -0.0264051 0
M  V30 717 H 73.471 3.92331 -0.769164 0
M  V30 718 H 74.911 4.23418 0.222098 0
M  V30 719 C 73.37 3.13807 1.22584 0
M  V30 720 O 73.9 3.28236 2.31569 0
M  V30 721 N 72.106 2.68065 1.12202 0
M  V30 722 H 71.653 2.56525 0.235133 0
M  V30 723 H 71.611 2.45767 1.96076 0
M  V30 724 N 75.3831 0.828654 1.34056 0
M  V30 725 C 76.6291 0.42008 1.98402 0
M  V30 726 C 76.9621 -1.01564 1.65525 0
M  V30 727 O 76.2371 -1.70834 0.929831 0
M  V30 728 C 76.5201 0.62927 3.54559 0
M  V30 729 C 76.3731 2.11152 3.97159 0
M  V30 730 C 77.6921 0.0688756 4.40046 0
M  V30 731 H 74.8111 0.154104 0.720709 0
M  V30 732 H 77.4531 1.04228 1.5886 0
M  V30 733 H 75.6031 0.0996418 3.88372 0
M  V30 734 H 77.2751 2.70522 3.73651 0
M  V30 735 H 75.5181 2.59985 3.47261 0
M  V30 736 H 76.1891 2.20868 5.05887 0
M  V30 737 H 78.6651 0.521458 4.1282 0
M  V30 738 H 77.5411 0.245006 5.48353 0
M  V30 739 H 77.8021 -1.0266 4.30015 0
M  V30 740 N 76.8612 -1.46375 0.584142 0
M  V30 741 C 78.1382 -1.956 0.0033388 0
M  V30 742 C 78.5182 -1.52679 -1.45782 0
M  V30 743 O 77.8662 -0.77816 -2.14842 0
M  V30 744 C 78.0762 -3.48551 0.176891 0
M  V30 745 C 79.4242 -4.24576 0.0454609 0
M  V30 746 O 80.4482 -3.56043 0.105801 0
M  V30 747 O 79.3072 -5.46427 -0.0890376 0
M  V30 748 H 76.4012 -0.825547 -0.0490066 0
M  V30 749 H 78.9472 -1.56652 0.65256 0
M  V30 750 H 77.7192 -3.72683 1.1926 0
M  V30 751 H 77.3422 -3.94332 -0.508695 0
M  V30 752 N 78.3393 -0.321999 -1.54275 0
M  V30 753 C 79.2863 0.544664 -2.24281 0
M  V30 754 C 80.2563 1.1129 -1.23303 0
M  V30 755 O 81.4413 1.15354 -1.51981 0
M  V30 756 C 78.5813 1.70045 -3.00298 0
M  V30 757 C 77.6943 1.16159 -4.1609 0
M  V30 758 C 76.8293 2.28293 -4.79641 0
M  V30 759 C 75.8683 1.71648 -5.8754 0
M  V30 760 N 75.0053 2.77438 -6.44959 0
M  V30 761 H 79.8453 -0.0588907 -2.97942 0
M  V30 762 H 77.3823 -0.0408345 -1.47043 0
M  V30 763 H 79.3403 2.38054 -3.42616 0
M  V30 764 H 77.9703 2.27531 -2.28975 0
M  V30 765 H 77.0223 0.373092 -3.78566 0
M  V30 766 H 78.3343 0.707087 -4.93763 0
M  V30 767 H 77.4883 3.0421 -5.2492 0
M  V30 768 H 76.2273 2.77079 -4.01346 0
M  V30 769 H 75.2323 0.942282 -5.41665 0
M  V30 770 H 76.4573 1.23741 -6.67731 0
M  V30 771 H 74.4033 3.25519 -5.69538 0
M  V30 772 H 74.3203 2.36547 -7.1804 0
M  V30 773 H 75.5883 3.53189 -6.94894 0
M  V30 774 N 79.8174 1.5752 -0.0501392 0
M  V30 775 C 81.0634 1.92936 0.624798 0
M  V30 776 C 81.3964 0.928685 1.70555 0
M  V30 777 O 80.6714 -0.0454779 1.94447 0
M  V30 778 C 80.9544 3.38737 1.22185 0
M  V30 779 C 80.8074 4.49552 0.149218 0
M  V30 780 C 82.1264 3.84913 2.13378 0
M  V30 781 H 79.2454 0.701604 0.225657 0
M  V30 782 H 81.8874 1.89671 -0.111693 0
M  V30 783 H 80.0374 3.4165 1.84953 0
M  V30 784 H 81.7094 4.58768 -0.482648 0
M  V30 785 H 79.9524 4.30638 -0.522841 0
M  V30 786 H 80.6234 5.48653 0.606966 0
M  V30 787 H 83.0994 3.8387 1.60572 0
M  V30 788 H 81.9754 4.87584 2.52097 0
M  V30 789 H 82.2364 3.21611 3.03346 0
M  V30 790 N 81.2955 -0.223234 1.56011 0
M  V30 791 C 82.2255 -1.27988 1.95298 0
M  V30 792 C 83.2065 -1.48976 0.820979 0
M  V30 793 O 84.3915 -1.61188 1.08315 0
M  V30 794 C 81.5215 -2.63 2.26822 0
M  V30 795 C 80.4755 -2.56671 3.42497 0
M  V30 796 C 79.8015 -3.95697 3.59622 0
M  V30 797 C 81.1015 -2.11601 4.77517 0
M  V30 798 H 82.7955 -0.953525 2.8381 0
M  V30 799 H 80.3415 -0.457244 1.36548 0
M  V30 800 H 82.2945 -3.37077 2.52898 0
M  V30 801 H 81.0185 -2.9732 1.35161 0
M  V30 802 H 79.6775 -1.85051 3.16467 0
M  V30 803 H 79.3255 -4.27322 2.6534 0
M  V30 804 H 79.0255 -3.92345 4.37424 0
M  V30 805 H 80.5495 -4.71438 3.88044 0
M  V30 806 H 81.9635 -2.7542 5.02809 0
M  V30 807 H 80.3605 -2.19311 5.5859 0
M  V30 808 H 81.4305 -1.06824 4.72987 0
M  V30 809 N 82.7736 -1.49793 -0.48987 0
M  V30 810 C 83.6836 -1.70036 -1.61632 0
M  V30 811 C 84.6996 -0.583102 -1.63939 0
M  V30 812 O 85.8756 -0.859169 -1.82154 0
M  V30 813 C 82.9406 -1.77277 -2.97949 0
M  V30 814 C 82.0016 -3.00918 -3.06181 0
M  V30 815 C 81.2346 -3.07804 -4.35996 0
M  V30 816 O 81.4576 -2.21982 -5.25433 0
M  V30 817 O 80.3916 -4.00369 -4.49431 0
M  V30 818 H 84.2176 -2.65486 -1.47482 0
M  V30 819 H 81.8026 -1.33666 -0.667362 0
M  V30 820 H 83.6846 -1.84329 -3.78947 0
M  V30 821 H 82.3596 -0.850076 -3.12339 0
M  V30 822 H 81.2666 -2.99377 -2.2433 0
M  V30 823 H 82.5996 -3.92704 -2.96723 0
M  V30 824 N 84.2517 0.741722 -1.39055 0
M  V30 825 C 85.6677 1.04638 -1.20512 0
M  V30 826 C 85.8677 2.01405 -0.0620218 0
M  V30 827 O 84.9237 2.45547 0.588457 0
M  V30 828 C 86.2367 1.6151 -2.53643 0
M  V30 829 C 87.7847 1.73623 -2.6043 0
M  V30 830 C 88.2597 2.33906 -3.93767 0
M  V30 831 N 89.7507 2.41323 -3.9537 0
M  V30 832 C 90.4857 2.88888 -4.95309 0
M  V30 833 N 89.9817 3.36401 -6.05645 0
M  V30 834 N 91.7747 2.88037 -4.82692 0
M  V30 835 H 83.9257 0.0998155 -2.12165 0
M  V30 836 H 86.1887 0.106907 -0.941953 0
M  V30 837 H 85.8947 0.978739 -3.37807 0
M  V30 838 H 85.7687 2.60411 -2.72885 0
M  V30 839 H 88.1557 2.36384 -1.76655 0
M  V30 840 H 88.2367 0.733945 -2.45045 0
M  V30 841 H 87.8807 1.71776 -4.7797 0
M  V30 842 H 87.8107 3.34799 -4.06469 0
M  V30 843 H 90.3017 2.07734 -3.15682 0
M  V30 844 H 90.6147 3.71186 -6.77821 0
M  V30 845 H 88.9597 3.34427 -6.09248 0
M  V30 846 H 92.1507 2.50237 -3.95599 0
M  V30 847 H 92.3237 3.24792 -5.60726 0
M  V30 848 N 85.7298 1.2412 0.971189 0
M  V30 849 C 87.0068 0.986867 1.6888 0
M  V30 850 C 87.3868 -0.491857 2.0529 0
M  V30 851 O 86.7348 -1.46531 1.75331 0
M  V30 852 C 86.9448 1.9063 2.92338 0
M  V30 853 C 88.2928 2.17515 3.64654 0
M  V30 854 O 89.3168 1.88254 3.02388 0
M  V30 855 O 88.1758 2.6719 4.7673 0
M  V30 856 H 85.2698 0.372944 0.738134 0
M  V30 857 H 87.8158 1.35203 1.02559 0
M  V30 858 H 86.5878 2.90552 2.62097 0
M  V30 859 H 86.2108 1.54408 3.66393 0
M  V30 860 N 87.2079 -1.17134 1.05439 0
M  V30 861 C 88.1399 -2.2078 0.615539 0
M  V30 862 C 89.1529 -1.59584 -0.322001 0
M  V30 863 O 90.3419 -1.78133 -0.114344 0
M  V30 864 C 87.4419 -3.38691 -0.118938 0
M  V30 865 C 86.6149 -4.29454 0.829924 0
M  V30 866 C 85.6739 -5.26024 0.136258 0
M  V30 867 O 84.6999 -5.63952 0.77115 0
M  V30 868 N 85.9019 -5.69487 -1.1254 0
M  V30 869 H 88.6669 -2.59052 1.50705 0
M  V30 870 H 86.2279 -1.32058 0.936603 0
M  V30 871 H 88.2199 -4.00329 -0.593179 0
M  V30 872 H 86.7899 -2.98996 -0.91215 0
M  V30 873 H 86.0099 -3.65211 1.48373 0
M  V30 874 H 87.2979 -4.86984 1.47392 0
M  V30 875 H 86.6959 -5.4075 -1.6615 0
M  V30 876 H 85.2529 -6.33257 -1.54366 0
M  V30 877 N 88.686 -0.835752 -1.33615 0
M  V30 878 C 89.633 -0.26473 -2.29277 0
M  V30 879 C 90.603 0.617712 -1.54187 0
M  V30 880 O 91.788 0.556641 -1.825 0
M  V30 881 C 88.928 0.556777 -3.40579 0
M  V30 882 C 88.041 -0.349339 -4.30585 0
M  V30 883 C 87.176 0.482969 -5.29 0
M  V30 884 C 86.215 -0.421732 -6.10645 0
M  V30 885 N 85.352 0.372262 -7.01112 0
M  V30 886 H 90.192 -1.08582 -2.77514 0
M  V30 887 H 87.729 -0.546927 -1.36554 0
M  V30 888 H 89.687 1.04852 -4.03809 0
M  V30 889 H 88.317 1.34286 -2.93542 0
M  V30 890 H 87.369 -0.959372 -3.68104 0
M  V30 891 H 88.681 -1.04445 -4.87742 0
M  V30 892 H 87.835 1.03866 -5.97743 0
M  V30 893 H 86.574 1.21153 -4.72412 0
M  V30 894 H 85.579 -0.989464 -5.40823 0
M  V30 895 H 86.804 -1.14861 -6.69316 0
M  V30 896 H 84.75 1.08426 -6.46977 0
M  V30 897 H 84.667 -0.264198 -7.55538 0
M  V30 898 H 85.935 0.910293 -7.74167 0
M  V30 899 N 90.1641 1.46063 -0.591896 0
M  V30 900 C 91.0941 2.33172 0.123673 0
M  V30 901 C 92.0751 1.45897 0.87453 0
M  V30 902 O 93.2601 1.74698 0.848181 0
M  V30 903 C 90.3901 3.28336 1.13194 0
M  V30 904 C 89.3441 4.25124 0.495324 0
M  V30 905 C 88.6701 5.09863 1.61071 0
M  V30 906 C 89.9701 5.19143 -0.573425 0
M  V30 907 H 91.6641 2.93252 -0.603646 0
M  V30 908 H 89.2101 1.41014 -0.291741 0
M  V30 909 H 91.1631 3.88137 1.64097 0
M  V30 910 H 89.8871 2.66383 1.88965 0
M  V30 911 H 88.5461 3.66599 0.00729452 0
M  V30 912 H 88.1941 4.44288 2.35832 0
M  V30 913 H 87.8941 5.75417 1.19035 0
M  V30 914 H 89.4181 5.72529 2.12233 0
M  V30 915 H 90.8321 5.73106 -0.1491 0
M  V30 916 H 89.2291 5.93089 -0.914636 0
M  V30 917 H 90.2991 4.62519 -1.45617 0
M  V30 918 N 91.6422 0.330177 1.54103 0
M  V30 919 C 92.8672 -0.274893 2.0557 0
M  V30 920 C 93.2922 -1.44487 1.20437 0
M  V30 921 O 92.6502 -1.80021 0.214991 0
M  V30 922 C 92.6982 -0.68079 3.54115 0
M  V30 923 O 91.8022 -1.7824 3.71893 0
M  V30 924 H 91.1432 -0.0483849 0.662235 0
M  V30 925 H 93.6732 0.480508 1.98878 0
M  V30 926 H 93.6832 -0.961635 3.96505 0
M  V30 927 H 92.3582 0.174903 4.15532 0
M  V30 928 H 90.9352 -1.49985 3.41407 0
M  V30 929 N 93.1203 -1.57491 0.0584922 0
M  V30 930 C 94.0303 -2.15448 -0.928414 0
M  V30 931 C 95.0463 -1.11416 -1.3365 0
M  V30 932 O 96.2223 -1.4362 -1.41193 0
M  V30 933 C 93.2873 -2.69393 -2.18239 0
M  V30 934 C 92.3483 -3.88249 -1.83196 0
M  V30 935 C 91.5813 -4.39613 -3.02616 0
M  V30 936 O 91.8043 -3.90023 -4.16219 0
M  V30 937 O 90.7383 -5.31111 -2.83204 0
M  V30 938 H 94.5643 -3.00112 -0.465483 0
M  V30 939 H 92.1493 -1.48499 -0.163826 0
M  V30 940 H 94.0313 -3.04026 -2.91798 0
M  V30 941 H 92.7063 -1.87796 -2.63656 0
M  V30 942 H 91.6133 -3.58492 -1.06931 0
M  V30 943 H 92.9463 -4.71098 -1.42573 0
M  V30 944 N 94.5984 0.214957 -1.56127 0
M  V30 945 C 95.5284 1.2695 -1.95974 0
M  V30 946 C 96.5094 1.48539 -0.828868 0
M  V30 947 O 97.6944 1.60611 -1.09168 0
M  V30 948 C 94.8244 2.61794 -2.28214 0
M  V30 949 C 93.7784 2.54851 -3.43853 0
M  V30 950 C 93.1044 3.93785 -3.61715 0
M  V30 951 C 94.4044 2.09065 -4.78632 0
M  V30 952 H 96.0984 0.93846 -2.84312 0
M  V30 953 H 93.6444 0.449996 -1.36788 0
M  V30 954 H 95.5974 3.35731 -2.54682 0
M  V30 955 H 94.3214 2.96599 -1.36736 0
M  V30 956 H 92.9804 1.8337 -3.17444 0
M  V30 957 H 92.6284 4.25908 -2.67602 0
M  V30 958 H 92.3284 3.90019 -4.39498 0
M  V30 959 H 93.8524 4.69374 -3.90539 0
M  V30 960 H 95.2664 2.7275 -5.04262 0
M  V30 961 H 93.6634 2.16346 -5.59745 0
M  V30 962 H 94.7334 1.04315 -4.73547 0
M  V30 963 N 96.0765 1.50051 0.48192 0
M  V30 964 C 97.3535 1.51009 1.2432 0
M  V30 965 C 97.7335 0.248587 2.09631 0
M  V30 966 O 97.0815 -0.768409 2.15192 0
M  V30 967 C 97.2915 2.79981 2.08355 0
M  V30 968 C 98.6395 3.3022 2.66908 0
M  V30 969 O 99.6635 2.81228 2.18607 0
M  V30 970 O 98.5225 4.15595 3.54884 0
M  V30 971 H 95.6165 0.605239 0.563573 0
M  V30 972 H 98.1625 1.62332 0.494627 0
M  V30 973 H 96.9345 3.63275 1.45419 0
M  V30 974 H 96.5575 2.7161 2.90368 0
M  V30 975 N 97.5546 -0.734337 1.39446 0
M  V30 976 C 98.8316 -1.48579 1.27215 0
M  V30 977 C 99.2116 -2.1077 -0.117968 0
M  V30 978 O 98.5596 -1.98646 -1.12924 0
M  V30 979 C 98.7696 -2.53667 2.39696 0
M  V30 980 C 100.118 -3.20031 2.79044 0
M  V30 981 O 101.142 -2.6398 2.39151 0
M  V30 982 O 100.001 -4.21455 3.47905 0
M  V30 983 H 97.0946 -0.659816 0.49857 0
M  V30 984 H 99.6406 -0.768106 1.51322 0
M  V30 985 H 98.4126 -2.06096 3.32626 0
M  V30 986 H 98.0356 -3.32994 2.17258 0
M  V30 987 N 99.0327 -1.24633 -0.964593 0
M  V30 988 C 100.449 -1.01239 -1.2338 0
M  V30 989 C 100.649 0.2769 -1.99588 0
M  V30 990 O 99.7047 0.992241 -2.32187 0
M  V30 991 C 101.018 -2.22937 -2.01791 0
M  V30 992 C 102.566 -2.27594 -2.14872 0
M  V30 993 C 103.041 -3.48921 -2.96678 0
M  V30 994 N 104.532 -3.49257 -3.04259 0
M  V30 995 C 105.267 -4.39795 -3.67924 0
M  V30 996 N 104.763 -5.40591 -4.33281 0
M  V30 997 N 106.556 -4.275 -3.64966 0
M  V30 998 H 98.7067 -2.0748 -0.454502 0
M  V30 999 H 100.97 -0.910647 -0.26349 0
M  V30 1000 H 100.676 -3.16587 -1.53184 0
M  V30 1001 H 100.55 -2.25306 -3.02518 0
M  V30 1002 H 102.937 -1.34473 -2.6268 0
M  V30 1003 H 103.018 -2.2925 -1.13482 0
M  V30 1004 H 102.662 -4.42359 -2.49562 0
M  V30 1005 H 102.592 -3.4451 -3.98272 0
M  V30 1006 H 105.083 -2.76337 -2.57771 0
M  V30 1007 H 105.396 -6.05904 -4.79687 0
M  V30 1008 H 103.741 -5.44475 -4.3194 0
M  V30 1009 H 106.932 -3.47987 -3.13086 0
M  V30 1010 H 107.105 -4.98258 -4.14298 0
M  V30 1011 N 100.511 1.16574 -1.06058 0
M  V30 1012 C 101.474 2.19085 -0.673392 0
M  V30 1013 C 102.474 1.5835 0.279648 0
M  V30 1014 O 103.664 1.74088 0.0623488 0
M  V30 1015 C 100.796 3.40899 0.00954234 0
M  V30 1016 H 101.989 2.54853 -1.58081 0
M  V30 1017 H 99.5418 1.30808 -0.855516 0
M  V30 1018 H 100.277 3.10684 0.929826 0
M  V30 1019 H 100.062 3.86233 -0.67573 0
M  V30 1020 H 101.552 4.1675 0.266245 0
M  V30 1021 N 101.989 0.842826 1.3317 0
M  V30 1022 C 103.266 0.362216 1.92217 0
M  V30 1023 C 103.646 -1.15289 1.76838 0
M  V30 1024 O 102.994 -1.96914 1.15919 0
M  V30 1025 C 103.204 0.813495 3.39387 0
M  V30 1026 C 104.552 0.823804 4.16532 0
M  V30 1027 O 105.576 0.757358 3.48055 0
M  V30 1028 O 104.435 0.915193 5.38782 0
M  V30 1029 H 101.529 0.103317 0.820521 0
M  V30 1030 H 104.075 0.928942 1.42017 0
M  V30 1031 H 102.847 1.85624 3.4447 0
M  V30 1032 H 102.47 0.223561 3.96971 0
M  V30 1033 N 103.467 -1.45747 0.599634 0
M  V30 1034 C 104.43 -2.28917 -0.113835 0
M  V30 1035 C 105.43 -1.3933 -0.802729 0
M  V30 1036 O 106.62 -1.61534 -0.652103 0
M  V30 1037 C 103.752 -3.20152 -1.17114 0
M  V30 1038 H 104.945 -2.93478 0.617289 0
M  V30 1039 H 102.498 -1.52137 0.358327 0
M  V30 1040 H 103.233 -2.60374 -1.93329 0
M  V30 1041 H 103.018 -3.86133 -0.681468 0
M  V30 1042 H 104.508 -3.82708 -1.67105 0
M  V30 1043 N 104.945 -0.338344 -1.53925 0
M  V30 1044 C 105.875 0.51328 -2.27789 0
M  V30 1045 C 106.856 1.107 -1.29149 0
M  V30 1046 O 108.041 1.12937 -1.57984 0
M  V30 1047 C 105.171 1.66697 -3.04679 0
M  V30 1048 C 104.125 1.20183 -4.1078 0
M  V30 1049 C 103.451 2.44363 -4.75595 0
M  V30 1050 C 104.751 0.30605 -5.21403 0
M  V30 1051 H 106.445 -0.102883 -2.99223 0
M  V30 1052 H 103.991 -0.0509219 -1.4391 0
M  V30 1053 H 105.944 2.26915 -3.55088 0
M  V30 1054 H 104.668 2.30995 -2.30887 0
M  V30 1055 H 103.327 0.622499 -3.61276 0
M  V30 1056 H 102.975 3.07057 -3.98403 0
M  V30 1057 H 102.675 2.13925 -5.47275 0
M  V30 1058 H 104.199 3.05317 -5.28786 0
M  V30 1059 H 105.613 0.814929 -5.67478 0
M  V30 1060 H 104.01 0.0937929 -6.00027 0
M  V30 1061 H 105.08 -0.65921 -4.80398 0
M  V30 1062 N 106.423 1.57458 -0.0668435 0
M  V30 1063 C 107.355 2.09413 0.931601 0
M  V30 1064 C 108.368 1.02522 1.26464 0
M  V30 1065 O 109.557 1.30049 1.22269 0
M  V30 1066 C 106.657 2.53537 2.24882 0
M  V30 1067 C 105.83 3.83944 2.09537 0
M  V30 1068 C 104.889 4.14214 3.2452 0
M  V30 1069 O 103.915 4.83891 2.9973 0
M  V30 1070 N 105.117 3.67367 4.49469 0
M  V30 1071 H 107.882 2.95699 0.488048 0
M  V30 1072 H 105.443 1.61462 0.119009 0
M  V30 1073 H 107.435 2.70853 3.00701 0
M  V30 1074 H 106.005 1.72415 2.60753 0
M  V30 1075 H 105.225 3.76057 1.18215 0
M  V30 1076 H 106.513 4.69312 1.96529 0
M  V30 1077 H 105.911 3.11068 4.72497 0
M  V30 1078 H 104.468 3.89891 5.2233 0
M  V30 1079 N 107.901 -0.206675 1.56239 0
M  V30 1080 C 108.864 -1.23976 1.92776 0
M  V30 1081 C 109.864 -1.39041 0.807729 0
M  V30 1082 O 111.054 -1.37051 1.0753 0
M  V30 1083 C 108.186 -2.61112 2.19165 0
M  V30 1084 H 109.379 -0.927764 2.85189 0
M  V30 1085 H 106.932 -0.447718 1.4975 0
M  V30 1086 H 107.667 -2.97386 1.29352 0
M  V30 1087 H 107.452 -2.51552 3.00772 0
M  V30 1088 H 108.942 -3.35633 2.48476 0
M  V30 1089 N 109.379 -1.50304 -0.473955 0
M  V30 1090 C 110.627 -1.60832 -1.22382 0
M  V30 1091 C 110.948 -0.30939 -1.9253 0
M  V30 1092 O 110.218 0.67296 -1.83978 0
M  V30 1093 H 108.798 -0.592652 -0.454723 0
M  V30 1094 H 111.46 -1.87068 -0.546968 0
M  V30 1095 H 110.556 -2.41803 -1.97327 0
M  V30 1096 N 110.857 0.726932 -1.39834 0
M  V30 1097 C 111.82 1.82269 -1.38962 0
M  V30 1098 C 112.82 1.58248 -0.285334 0
M  V30 1099 O 114.01 1.65499 -0.54366 0
M  V30 1100 C 111.142 3.20186 -1.17019 0
M  V30 1101 H 112.335 1.84443 -2.36476 0
M  V30 1102 H 109.888 0.931416 -1.25516 0
M  V30 1103 H 110.623 3.23669 -0.202204 0
M  V30 1104 H 110.408 3.3902 -1.96998 0
M  V30 1105 H 111.898 4.00235 -1.1917 0
M  V30 1106 N 112.336 1.25143 0.95797 0
M  V30 1107 C 113.561 1.12521 1.74223 0
M  V30 1108 C 113.986 -0.317402 1.85403 0
M  V30 1109 O 113.344 -1.2299 1.33204 0
M  V30 1110 C 113.392 1.78062 3.1357 0
M  V30 1111 O 112.496 1.058 3.98598 0
M  V30 1112 H 111.837 0.39304 0.535178 0
M  V30 1113 H 114.367 1.65641 1.201 0
M  V30 1114 H 114.377 1.84213 3.64046 0
M  V30 1115 H 113.052 2.83021 3.04749 0
M  V30 1116 H 111.629 1.07506 3.57067 0
M  V30 1117 N 113.814 -1.1601 1.06675 0
M  V30 1118 C 114.746 -2.20115 0.638921 0
M  V30 1119 C 115.759 -1.59916 -0.305057 0
M  V30 1120 O 116.948 -1.78245 -0.0954446 0
M  V30 1121 C 114.048 -3.38798 -0.0830083 0
M  V30 1122 C 113.221 -4.2855 0.875426 0
M  V30 1123 C 112.28 -5.25849 0.192042 0
M  V30 1124 O 111.306 -5.63102 0.830921 0
M  V30 1125 N 112.508 -5.70648 -1.06493 0
M  V30 1126 H 115.273 -2.57439 1.53444 0
M  V30 1127 H 112.834 -1.31057 0.950557 0
M  V30 1128 H 114.826 -4.00936 -0.550685 0
M  V30 1129 H 113.396 -2.99947 -0.880386 0
M  V30 1130 H 112.616 -3.63617 1.52238 0
M  V30 1131 H 113.904 -4.85393 1.52548 0
M  V30 1132 H 113.302 -5.42482 -1.60405 0
M  V30 1133 H 111.859 -6.34859 -1.47641 0
M  V30 1134 N 115.292 -0.849877 -1.32721 0
M  V30 1135 C 116.539 -0.450923 -1.97416 0
M  V30 1136 C 116.867 0.992376 -1.67279 0
M  V30 1137 O 116.122 1.71048 -0.950845 0
M  V30 1138 C 116.421 -0.631272 -3.51781 0
M  V30 1139 C 116.087 -2.04432 -4.01894 0
M  V30 1140 C 114.749 -2.4308 -4.1529 0
M  V30 1141 C 117.101 -2.96679 -4.28522 0
M  V30 1142 C 114.429 -3.73257 -4.52654 0
M  V30 1143 C 116.781 -4.26349 -4.67343 0
M  V30 1144 C 115.445 -4.64939 -4.78945 0
M  V30 1145 H 114.715 -0.165004 -0.722395 0
M  V30 1146 H 117.362 -1.07901 -1.58207 0
M  V30 1147 H 115.667 0.0800767 -3.91718 0
M  V30 1148 H 117.364 -0.302709 -3.99856 0
M  V30 1149 H 113.954 -1.73419 -3.91949 0
M  V30 1150 H 118.138 -2.68054 -4.17685 0
M  V30 1151 H 113.394 -4.02946 -4.59831 0
M  V30 1152 H 117.568 -4.97895 -4.86902 0
M  V30 1153 H 115.195 -5.65855 -5.07654 0
M  V30 1154 N 116.77 1.45427 -0.607355 0
M  V30 1155 C 117.68 2.34325 0.113463 0
M  V30 1156 C 118.696 1.51226 0.860617 0
M  V30 1157 O 119.872 1.84029 0.818255 0
M  V30 1158 C 116.937 3.28839 1.09844 0
M  V30 1159 C 115.998 4.27844 0.353271 0
M  V30 1160 C 115.231 5.17842 1.29133 0
M  V30 1161 O 115.454 5.11264 2.52913 0
M  V30 1162 O 114.388 5.96713 0.788523 0
M  V30 1163 H 118.214 2.97364 -0.617094 0
M  V30 1164 H 115.799 1.44807 -0.367619 0
M  V30 1165 H 117.681 3.8708 1.66575 0
M  V30 1166 H 116.356 2.68365 1.81003 0
M  V30 1167 H 115.263 3.7322 -0.256494 0
M  V30 1168 H 116.596 4.91173 -0.317822 0
M  V30 1169 N 118.248 0.346503 1.53744 0
M  V30 1170 C 119.473 -0.253074 2.0585 0
M  V30 1171 C 119.898 -1.43202 1.21962 0
M  V30 1172 O 119.256 -1.79783 0.234073 0
M  V30 1173 C 119.304 -0.643193 3.54817 0
M  V30 1174 O 118.408 -1.74286 3.73762 0
M  V30 1175 H 117.749 -0.0413583 0.662711 0
M  V30 1176 H 120.279 0.501574 1.98357 0
M  V30 1177 H 120.289 -0.919526 3.97503 0
M  V30 1178 H 118.964 0.218966 4.15323 0
M  V30 1179 H 117.541 -1.46356 3.42979 0
M  V30 1180 N 119.726 -1.57421 0.075193 0
M  V30 1181 C 120.951 -1.98364 -0.605515 0
M  V30 1182 C 121.376 -0.953383 -1.62149 0
M  V30 1183 O 120.734 0.0806053 -1.81121 0
M  V30 1184 C 120.782 -3.38332 -1.24756 0
M  V30 1185 O 119.886 -3.37959 -2.36342 0
M  V30 1186 H 119.227 -0.645553 -0.155428 0
M  V30 1187 H 121.757 -2.04044 0.150714 0
M  V30 1188 H 121.767 -3.75591 -1.5936 0
M  V30 1189 H 120.442 -4.12846 -0.503129 0
M  V30 1190 H 119.019 -3.12474 -2.03506 0
M  V30 1191 N 121.204 0.198386 -1.56346 0
M  V30 1192 C 122.167 1.22952 -1.93431 0
M  V30 1193 C 123.167 1.38611 -0.815092 0
M  V30 1194 O 124.357 1.36479 -1.08255 0
M  V30 1195 C 121.489 2.59946 -2.20546 0
M  V30 1196 H 122.682 0.912626 -2.85677 0
M  V30 1197 H 120.235 0.43977 -1.49986 0
M  V30 1198 H 120.97 2.96696 -1.30927 0
M  V30 1199 H 120.755 2.49953 -3.02102 0
M  V30 1200 H 122.245 3.3431 -2.50253 0
M  V30 1201 N 122.682 1.50554 0.465978 0
M  V30 1202 C 123.645 1.69233 1.54574 0
M  V30 1203 C 124.645 0.562901 1.50626 0
M  V30 1204 O 125.835 0.830016 1.53155 0
M  V30 1205 C 122.967 1.7223 2.94193 0
M  V30 1206 H 124.16 2.65571 1.39327 0
M  V30 1207 H 121.713 1.40111 0.692711 0
M  V30 1208 H 122.448 0.77603 3.14878 0
M  V30 1209 H 122.233 2.54285 2.98466 0
M  V30 1210 H 123.723 1.88618 3.72576 0
M  V30 1211 N 124.16 -0.719506 1.40217 0
M  V30 1212 C 125.107 -1.83359 1.40172 0
M  V30 1213 C 126.077 -1.64065 0.259206 0
M  V30 1214 O 127.262 -1.85254 0.456677 0
M  V30 1215 C 124.402 -3.2103 1.26624 0
M  V30 1216 C 123.515 -3.51923 2.50548 0
M  V30 1217 C 122.65 -4.79079 2.29471 0
M  V30 1218 C 121.689 -5.02863 3.48992 0
M  V30 1219 N 120.826 -6.2123 3.27135 0
M  V30 1220 H 125.666 -1.82733 2.35399 0
M  V30 1221 H 123.203 -0.892688 1.16917 0
M  V30 1222 H 125.161 -4.00524 1.16776 0
M  V30 1223 H 123.791 -3.20895 0.350176 0
M  V30 1224 H 122.843 -2.67014 2.70939 0
M  V30 1225 H 124.155 -3.6541 3.39525 0
M  V30 1226 H 123.309 -5.66582 2.16955 0
M  V30 1227 H 122.048 -4.67794 1.37913 0
M  V30 1228 H 121.053 -4.13816 3.6199 0
M  V30 1229 H 122.278 -5.16023 4.41472 0
M  V30 1230 H 120.224 -6.11204 2.38256 0
M  V30 1231 H 120.141 -6.35375 4.09675 0
M  V30 1232 H 121.409 -7.11532 3.18344 0
M  V30 1233 N 125.638 -1.25649 -0.95132 0
M  V30 1234 C 126.568 -1.08808 -2.06599 0
M  V30 1235 C 127.549 0.00382547 -1.701 0
M  V30 1236 O 128.734 -0.166325 -1.93486 0
M  V30 1237 C 125.864 -0.709542 -3.39975 0
M  V30 1238 C 124.818 -1.75206 -3.90496 0
M  V30 1239 C 124.144 -1.22811 -5.20405 0
M  V30 1240 C 125.444 -3.15153 -4.16504 0
M  V30 1241 H 127.138 -2.02048 -2.20946 0
M  V30 1242 H 124.684 -0.972835 -1.06169 0
M  V30 1243 H 126.637 -0.578649 -4.17408 0
M  V30 1244 H 125.361 0.258556 -3.25575 0
M  V30 1245 H 124.02 -1.87145 -3.15234 0
M  V30 1246 H 123.668 -0.250145 -5.02378 0
M  V30 1247 H 123.368 -1.92492 -5.55176 0
M  V30 1248 H 124.892 -1.10968 -6.00432 0
M  V30 1249 H 126.306 -3.06349 -4.84586 0
M  V30 1250 H 124.703 -3.82333 -4.62538 0
M  V30 1251 H 125.773 -3.61966 -3.22658 0
M  V30 1252 N 127.117 1.15442 -1.07289 0
M  V30 1253 C 128.064 2.20161 -0.692653 0
M  V30 1254 C 129.034 1.63073 0.31564 0
M  V30 1255 O 130.219 1.89725 0.202235 0
M  V30 1256 C 127.359 3.44967 -0.0959509 0
M  V30 1257 C 126.472 4.16256 -1.15564 0
M  V30 1258 C 125.607 5.28609 -0.524011 0
M  V30 1259 C 124.646 5.91715 -1.56653 0
M  V30 1260 N 123.783 6.9554 -0.957531 0
M  V30 1261 H 128.623 2.52037 -1.59002 0
M  V30 1262 H 126.16 1.2378 -0.794798 0
M  V30 1263 H 128.118 4.16341 0.267628 0
M  V30 1264 H 126.748 3.1361 0.764772 0
M  V30 1265 H 125.8 3.43385 -1.6368 0
M  V30 1266 H 127.112 4.59268 -1.94613 0
M  V30 1267 H 126.266 6.06604 -0.108032 0
M  V30 1268 H 125.005 4.86787 0.29825 0
M  V30 1269 H 124.01 5.12433 -1.9923 0
M  V30 1270 H 125.235 6.35614 -2.39107 0
M  V30 1271 H 123.181 6.55814 -0.156162 0
M  V30 1272 H 123.098 7.36977 -1.68526 0
M  V30 1273 H 124.366 7.77435 -0.567032 0
M  V30 1274 N 128.595 0.856903 1.32268 0
M  V30 1275 C 130.011 0.547061 1.49931 0
M  V30 1276 C 130.211 -0.921781 1.7918 0
M  V30 1277 O 129.267 -1.70469 1.8627 0
M  V30 1278 C 130.58 1.43599 2.64196 0
M  V30 1279 C 132.128 1.43665 2.78081 0
M  V30 1280 C 132.603 2.31085 3.95428 0
M  V30 1281 N 134.094 2.28893 4.02694 0
M  V30 1282 C 134.829 2.93262 4.92732 0
M  V30 1283 N 134.325 3.66751 5.87763 0
M  V30 1284 N 136.118 2.82638 4.85873 0
M  V30 1285 H 128.269 1.8075 1.11549 0
M  V30 1286 H 130.532 0.772144 0.549997 0
M  V30 1287 H 130.238 2.48058 2.49319 0
M  V30 1288 H 130.112 1.12502 3.60032 0
M  V30 1289 H 132.499 0.399701 2.92381 0
M  V30 1290 H 132.58 1.7878 1.82952 0
M  V30 1291 H 132.224 3.34849 3.81888 0
M  V30 1292 H 132.154 1.93302 4.89839 0
M  V30 1293 H 134.645 1.75466 3.34694 0
M  V30 1294 H 134.958 4.13027 6.53168 0
M  V30 1295 H 133.303 3.70859 5.87783 0
M  V30 1296 H 136.494 2.24774 4.10602 0
M  V30 1297 H 136.667 3.33084 5.55841 0
M  V30 1298 N 130.073 -1.45103 0.615059 0
M  V30 1299 C 131.02 -2.30586 -0.0993978 0
M  V30 1300 C 131.99 -1.42544 -0.852669 0
M  V30 1301 O 133.175 -1.71465 -0.836917 0
M  V30 1302 C 130.315 -3.27572 -1.08583 0
M  V30 1303 C 129.428 -4.30717 -0.332656 0
M  V30 1304 C 128.563 -5.14807 -1.30947 0
M  V30 1305 C 127.602 -6.09673 -0.544538 0
M  V30 1306 N 126.739 -6.86517 -1.47101 0
M  V30 1307 H 131.579 -2.91144 0.635542 0
M  V30 1308 H 129.116 -1.4346 0.325206 0
M  V30 1309 H 131.074 -3.82276 -1.67095 0
M  V30 1310 H 129.704 -2.68751 -1.78809 0
M  V30 1311 H 128.756 -3.78615 0.368107 0
M  V30 1312 H 130.068 -4.98102 0.263842 0
M  V30 1313 H 129.222 -5.73948 -1.96643 0
M  V30 1314 H 127.961 -4.47458 -1.9399 0
M  V30 1315 H 126.966 -5.49656 0.126003 0
M  V30 1316 H 128.191 -6.79052 0.080947 0
M  V30 1317 H 126.137 -6.21851 -2.08895 0
M  V30 1318 H 126.054 -7.50281 -0.928137 0
M  V30 1319 H 127.322 -7.50194 -2.11731 0
M  V30 1320 N 131.551 -0.354651 -1.53558 0
M  V30 1321 C 132.781 0.239167 -2.05211 0
M  V30 1322 C 133.189 1.43879 -1.22863 0
M  V30 1323 O 132.532 1.81857 -0.259565 0
M  V30 1324 C 132.594 0.707251 -3.52474 0
M  V30 1325 C 132.258 -0.374212 -4.55465 0
M  V30 1326 C 133.255 -1.22054 -5.0537 0
M  V30 1327 C 130.94 -0.531323 -4.99482 0
M  V30 1328 C 132.934 -2.20942 -5.97882 0
M  V30 1329 C 130.621 -1.52358 -5.91802 0
M  V30 1330 C 131.619 -2.36108 -6.40892 0
M  V30 1331 O 131.307 -3.33643 -7.31394 0
M  V30 1332 H 131.039 0.0479716 -0.674296 0
M  V30 1333 H 133.593 -0.508121 -1.99016 0
M  V30 1334 H 131.823 1.50596 -3.56171 0
M  V30 1335 H 133.512 1.22285 -3.87042 0
M  V30 1336 H 134.278 -1.1103 -4.7212 0
M  V30 1337 H 130.157 0.110738 -4.60867 0
M  V30 1338 H 133.701 -2.86348 -6.36121 0
M  V30 1339 H 129.598 -1.63434 -6.24467 0
M  V30 1340 H 130.366 -3.29244 -7.4936 0
M  V30 1341 N 133.029 1.57378 -0.0835403 0
M  V30 1342 C 134.275 1.95025 0.577664 0
M  V30 1343 C 134.63 0.964049 1.66505 0
M  V30 1344 O 133.923 -0.0118235 1.91596 0
M  V30 1345 C 134.117 3.37063 1.1884 0
M  V30 1346 C 133.946 4.49409 0.16171 0
M  V30 1347 C 132.716 5.04642 -0.257756 0
M  V30 1348 C 134.914 5.10722 -0.605634 0
M  V30 1349 N 132.896 6.00537 -1.27393 0
M  V30 1350 C 134.267 6.02225 -1.47395 0
M  V30 1351 C 136.322 4.93501 -0.660418 0
M  V30 1352 C 135.025 6.78355 -2.39221 0
M  V30 1353 C 137.051 5.70283 -1.56623 0
M  V30 1354 C 136.413 6.61444 -2.4222 0
M  V30 1355 H 132.512 0.760512 0.182058 0
M  V30 1356 H 135.096 1.94013 -0.163419 0
M  V30 1357 H 133.267 3.3879 1.89936 0
M  V30 1358 H 134.999 3.61917 1.81103 0
M  V30 1359 H 131.754 4.73428 0.127702 0
M  V30 1360 H 132.178 6.53184 -1.77987 0
M  V30 1361 H 136.82 4.22798 -0.0128221 0
M  V30 1362 H 134.538 7.48327 -3.05011 0
M  V30 1363 H 138.124 5.58976 -1.61361 0
M  V30 1364 H 137.004 7.1982 -3.11174 0
M  V30 1365 N 134.507 -0.190092 1.56449 0
M  V30 1366 C 135.753 -0.906472 1.82084 0
M  V30 1367 C 136.108 -1.80677 0.661335 0
M  V30 1368 O 135.401 -1.88501 -0.343237 0
M  V30 1369 C 135.595 -1.75382 3.1141 0
M  V30 1370 C 135.424 -0.937053 4.39829 0
M  V30 1371 C 134.194 -0.619507 5.01488 0
M  V30 1372 C 136.392 -0.2874 5.13496 0
M  V30 1373 N 134.374 0.215367 6.13522 0
M  V30 1374 C 135.745 0.409454 6.18646 0
M  V30 1375 C 137.8 -0.203639 4.97483 0
M  V30 1376 C 136.503 1.1821 7.0952 0
M  V30 1377 C 138.529 0.555622 5.88784 0
M  V30 1378 C 137.891 1.24091 6.93384 0
M  V30 1379 H 133.99 -0.310931 0.717528 0
M  V30 1380 H 136.574 -0.174821 1.93914 0
M  V30 1381 H 134.745 -2.45703 3.00806 0
M  V30 1382 H 136.477 -2.41006 3.25112 0
M  V30 1383 H 133.232 -0.945126 4.64074 0
M  V30 1384 H 133.656 0.622562 6.74131 0
M  V30 1385 H 138.298 -0.719099 4.1664 0
M  V30 1386 H 136.016 1.70897 7.89823 0
M  V30 1387 H 139.602 0.621854 5.78467 0
M  V30 1388 H 138.482 1.81901 7.62812 0
M  V30 1389 N 135.985 -1.50799 -0.457987 0
M  V30 1390 C 136.932 -1.70617 -1.5543 0
M  V30 1391 C 137.902 -0.547562 -1.56815 0
M  V30 1392 O 139.087 -0.779647 -1.74144 0
M  V30 1393 C 136.227 -1.81831 -2.93311 0
M  V30 1394 C 135.34 -3.09278 -3.01615 0
M  V30 1395 C 134.475 -3.11209 -4.30491 0
M  V30 1396 C 133.514 -4.33055 -4.32585 0
M  V30 1397 N 132.651 -4.32652 -5.52952 0
M  V30 1398 H 137.491 -2.64207 -1.37836 0
M  V30 1399 H 135.028 -1.30959 -0.669937 0
M  V30 1400 H 136.986 -1.86314 -3.73287 0
M  V30 1401 H 135.616 -0.916685 -3.0951 0
M  V30 1402 H 134.668 -3.14203 -2.1443 0
M  V30 1403 H 135.98 -3.99233 -2.99022 0
M  V30 1404 H 135.134 -3.14494 -5.18824 0
M  V30 1405 H 133.873 -2.19106 -4.35711 0
M  V30 1406 H 132.878 -4.29969 -3.42647 0
M  V30 1407 H 134.103 -5.264 -4.29046 0
M  V30 1408 H 132.049 -3.43409 -5.58933 0
M  V30 1409 H 131.966 -5.16392 -5.52155 0
M  V30 1410 H 133.234 -4.40101 -6.43375 0
M  V30 1411 N 137.463 0.71206 -1.40597 0
M  V30 1412 C 138.411 1.84746 -1.41321 0
M  V30 1413 C 139.405 1.66842 -0.293268 0
M  V30 1414 O 140.611 1.73904 -0.464481 0
M  V30 1415 H 136.986 0.608522 -0.441819 0
M  V30 1416 H 138.957 1.81252 -2.37045 0
M  V30 1417 C 137.706 3.22638 -1.29614 0
M  V30 1418 H 137.029 3.37023 -2.15071 0
M  V30 1419 H 138.469 4.02209 -1.3418 0
M  V30 1420 C 136.928 3.36899 -0.00673121 0
M  V30 1421 O 137.458 3.90186 0.954859 0
M  V30 1422 N 135.664 2.9053 0.0639327 0
M  V30 1423 H 135.211 2.47353 -0.719311 0
M  V30 1424 H 135.169 3.0045 0.926118 0
M  V30 1425 N 138.941 1.26152 0.944643 0
M  V30 1426 C 140.181 1.12708 1.70517 0
M  V30 1427 C 140.545 -0.324727 1.89234 0
M  V30 1428 O 141.746 -0.581211 2.62441 0
M  V30 1429 C 140.017 1.8713 3.04495 0
M  V30 1430 S 141.576 1.89698 3.95677 0
M  V30 1431 H 138.394 0.402665 0.585988 0
M  V30 1432 H 140.996 1.59821 1.12594 0
M  V30 1433 H 139.7 2.91833 2.88551 0
M  V30 1434 H 139.231 1.40444 3.67477 0
M  V30 1435 H 141.246 0.981198 4.86402 0
M  V30 1436 N 140.419 -1.14872 1.07899 0
M  V30 1437 C 141.366 -2.19791 0.704319 0
M  V30 1438 C 142.336 -1.63238 -0.306987 0
M  V30 1439 O 143.521 -1.8983 -0.192171 0
M  V30 1440 C 140.661 -3.44911 0.114244 0
M  V30 1441 C 139.774 -4.15637 1.1777 0
M  V30 1442 C 138.909 -5.28324 0.552037 0
M  V30 1443 C 137.948 -5.90875 1.59789 0
M  V30 1444 N 137.085 -6.95022 0.994404 0
M  V30 1445 H 141.925 -2.5119 1.60336 0
M  V30 1446 H 139.462 -1.23356 0.801352 0
M  V30 1447 H 141.42 -4.16477 -0.245544 0
M  V30 1448 H 140.05 -3.14011 -0.74813 0
M  V30 1449 H 139.102 -3.42512 1.65499 0
M  V30 1450 H 140.414 -4.5823 1.97046 0
M  V30 1451 H 139.568 -6.06538 0.1402 0
M  V30 1452 H 138.307 -4.86939 -0.272431 0
M  V30 1453 H 137.312 -5.11369 2.01945 0
M  V30 1454 H 138.537 -6.34337 2.42474 0
M  V30 1455 H 136.483 -6.55722 0.190939 0
M  V30 1456 H 136.4 -7.36073 1.72432 0
M  V30 1457 H 137.668 -7.77123 0.608253 0
M  V30 1458 N 141.898 -0.863906 -1.31812 0
M  V30 1459 C 142.831 -0.259963 -2.26714 0
M  V30 1460 C 143.809 0.607392 -1.50829 0
M  V30 1461 O 144.993 0.562155 -1.79922 0
M  V30 1462 C 142.12 0.632456 -3.32743 0
M  V30 1463 C 141.166 -0.162743 -4.26189 0
M  V30 1464 S 141.999 -1.53726 -5.12961 0
M  V30 1465 C 143.155 -0.650803 -6.22507 0
M  V30 1466 H 143.388 -1.06445 -2.77591 0
M  V30 1467 H 140.921 -0.662071 -1.39485 0
M  V30 1468 H 142.879 1.14167 -3.94305 0
M  V30 1469 H 141.54 1.41083 -2.80632 0
M  V30 1470 H 140.733 0.517366 -5.01338 0
M  V30 1471 H 140.335 -0.60385 -3.69093 0
M  V30 1472 H 142.627 0.141134 -6.77353 0
M  V30 1473 H 143.57 -1.37322 -6.94657 0
M  V30 1474 H 143.978 -0.221041 -5.64067 0
M  V30 1475 N 143.376 1.44774 -0.622745 0
M  V30 1476 C 144.309 2.27792 0.136329 0
M  V30 1477 C 145.287 1.38041 0.859264 0
M  V30 1478 O 146.471 1.67478 0.86506 0
M  V30 1479 C 143.598 3.16776 1.19878 0
M  V30 1480 C 142.644 4.22575 0.57731 0
M  V30 1481 S 143.477 5.31825 -0.626294 0
M  V30 1482 C 144.633 6.24377 0.436378 0
M  V30 1483 H 144.866 2.91824 -0.567967 0
M  V30 1484 H 142.399 1.48838 -0.410677 0
M  V30 1485 H 144.357 3.68596 1.80686 0
M  V30 1486 H 143.018 2.5198 1.87523 0
M  V30 1487 H 142.211 4.84818 1.37721 0
M  V30 1488 H 141.813 3.73974 0.0440439 0
M  V30 1489 H 144.105 6.64689 1.31128 0
M  V30 1490 H 145.048 7.07941 -0.150271 0
M  V30 1491 H 145.456 5.59381 0.758513 0
M  V30 1492 N 144.854 0.36279 1.53368 0
M  V30 1493 C 146.103 -0.22888 2.00397 0
M  V30 1494 C 146.416 -1.50096 1.25421 0
M  V30 1495 O 147.622 -2.17106 1.63025 0
M  V30 1496 C 146.078 -0.458417 3.56969 0
M  V30 1497 C 145.686 0.798877 4.4082 0
M  V30 1498 C 147.43 -1.00789 4.12361 0
M  V30 1499 C 145.337 0.539078 5.88938 0
M  V30 1500 H 144.267 -0.089305 0.748693 0
M  V30 1501 H 146.918 0.481099 1.77081 0
M  V30 1502 H 145.3 -1.22959 3.76427 0
M  V30 1503 H 146.474 1.57262 4.33134 0
M  V30 1504 H 144.789 1.27137 3.96516 0
M  V30 1505 H 147.386 -1.21754 5.20653 0
M  V30 1506 H 147.729 -1.9692 3.66781 0
M  V30 1507 H 148.262 -0.296961 3.9669 0
M  V30 1508 H 145.001 1.47064 6.3879 0
M  V30 1509 H 144.521 -0.196222 5.99479 0
M  V30 1510 H 146.2 0.163542 6.46793 0
M  V30 1511 N 146.332 -1.57332 0.0918853 0
M  V30 1512 C 147.265 -2.09499 -0.904735 0
M  V30 1513 C 148.243 -1.00479 -1.27839 0
M  V30 1514 O 149.427 -1.27954 -1.38419 0
M  V30 1515 C 146.554 -2.56931 -2.2069 0
M  V30 1516 C 145.6 -3.77579 -1.98334 0
M  V30 1517 S 146.433 -5.21317 -1.22428 0
M  V30 1518 C 147.589 -5.72097 -2.53882 0
M  V30 1519 H 147.822 -2.93705 -0.460922 0
M  V30 1520 H 145.355 -1.53923 -0.121332 0
M  V30 1521 H 147.313 -2.84917 -2.95521 0
M  V30 1522 H 145.974 -1.72956 -2.62192 0
M  V30 1523 H 145.167 -4.08824 -2.94752 0
M  V30 1524 H 144.769 -3.5007 -1.31633 0
M  V30 1525 H 147.061 -5.80168 -3.49874 0
M  V30 1526 H 148.004 -6.70654 -2.27219 0
M  V30 1527 H 148.412 -5.00012 -2.62007 0
M  V30 1528 N 147.81 0.181792 -1.56548 0
M  V30 1529 C 148.74 1.22765 -1.98623 0
M  V30 1530 C 149.721 1.46747 -0.860189 0
M  V30 1531 O 150.906 1.58259 -1.12551 0
M  V30 1532 C 148.036 2.56894 -2.33715 0
M  V30 1533 C 146.99 2.475 -3.49182 0
M  V30 1534 C 146.316 3.86023 -3.69986 0
M  V30 1535 C 147.616 1.98866 -4.82959 0
M  V30 1536 H 149.31 0.877942 -2.86239 0
M  V30 1537 H 146.856 0.42088 -1.37712 0
M  V30 1538 H 148.809 3.30253 -2.61746 0
M  V30 1539 H 147.533 2.93632 -1.42997 0
M  V30 1540 H 146.192 1.76596 -3.21262 0
M  V30 1541 H 145.84 4.20136 -2.76576 0
M  V30 1542 H 145.54 3.80609 -4.47672 0
M  V30 1543 H 147.064 4.60984 -4.00407 0
M  V30 1544 H 148.478 2.61992 -5.09934 0
M  V30 1545 H 146.875 2.04424 -5.64208 0
M  V30 1546 H 147.945 0.942465 -4.75653 0
M  V30 1547 N 149.288 1.51039 0.449983 0
M  V30 1548 C 150.536 1.62759 1.19808 0
M  V30 1549 C 150.857 0.339981 1.92013 0
M  V30 1550 O 150.127 -0.643606 1.85026 0
M  V30 1551 H 148.707 0.599811 0.445237 0
M  V30 1552 H 151.369 1.87914 0.517138 0
M  V30 1553 H 150.465 2.44911 1.93455 0
M  V30 1554 N 150.766 -0.704594 1.40972 0
M  V30 1555 C 151.729 -1.80035 1.41845 0
M  V30 1556 C 152.729 -1.57774 0.310474 0
M  V30 1557 O 153.919 -1.64613 0.56992 0
M  V30 1558 C 151.051 -3.18284 1.22098 0
M  V30 1559 H 152.244 -1.80658 2.3938 0
M  V30 1560 H 149.797 -0.911329 1.26982 0
M  V30 1561 H 150.532 -3.23306 0.253672 0
M  V30 1562 H 150.317 -3.35843 2.02366 0
M  V30 1563 H 151.807 -3.98289 1.25522 0
M  V30 1564 N 152.244 -1.26651 -0.937939 0
M  V30 1565 C 153.493 -1.11775 -1.67897 0
M  V30 1566 C 153.806 0.33794 -1.92659 0
M  V30 1567 O 155.012 0.607434 -2.64618 0
M  V30 1568 C 153.468 -1.9523 -3.02346 0
M  V30 1569 C 153.076 -3.45393 -2.8532 0
M  V30 1570 C 154.82 -1.88972 -3.80118 0
M  V30 1571 C 152.727 -4.21083 -4.15263 0
M  V30 1572 H 151.657 -0.414696 -0.629717 0
M  V30 1573 H 154.308 -1.50988 -1.04283 0
M  V30 1574 H 152.69 -1.48853 -3.66959 0
M  V30 1575 H 153.864 -3.99561 -2.29537 0
M  V30 1576 H 152.179 -3.52921 -2.20988 0
M  V30 1577 H 154.776 -2.42805 -4.76392 0
M  V30 1578 H 155.119 -0.86113 -4.07296 0
M  V30 1579 H 155.652 -2.33189 -3.22285 0
M  V30 1580 H 152.391 -5.24425 -3.93267 0
M  V30 1581 H 151.911 -3.71695 -4.70747 0
M  V30 1582 H 153.59 -4.29706 -4.83696 0
M  V30 1583 N 153.722 1.14298 -1.08507 0
M  V30 1584 C 154.962 1.87016 -0.824894 0
M  V30 1585 C 155.326 1.81099 0.637735 0
M  V30 1586 O 156.527 2.48963 1.01345 0
M  V30 1587 C 154.798 3.31584 -1.33368 0
M  V30 1588 S 156.357 4.21903 -1.20596 0
M  V30 1589 H 153.175 0.645259 -0.2986 0
M  V30 1590 H 155.777 1.37822 -1.38656 0
M  V30 1591 H 154.481 3.33439 -2.39262 0
M  V30 1592 H 154.012 3.85836 -0.767734 0
M  V30 1593 H 156.027 4.95971 -0.150891 0
M  V30 1594 N 155.201 0.870884 1.31352 0
M  V30 1595 C 156.164 0.332243 2.26779 0
M  V30 1596 C 157.164 -0.517302 1.52252 0
M  V30 1597 O 158.354 -0.326477 1.71113 0
M  V30 1598 C 155.486 -0.528066 3.36785 0
M  V30 1599 H 156.679 1.17469 2.75937 0
M  V30 1600 H 154.232 0.64655 1.423 0
M  V30 1601 H 154.967 -1.39167 2.92922 0
M  V30 1602 H 154.752 0.0802582 3.92018 0
M  V30 1603 H 156.242 -0.897179 4.07849 0
M  V30 1604 N 156.679 -1.44442 0.630414 0
M  V30 1605 C 157.928 -2.01267 0.132073 0
M  V30 1606 C 158.241 -1.50172 -1.25331 0
M  V30 1607 O 159.447 -1.9912 -1.84562 0
M  V30 1608 C 157.903 -3.59422 0.185362 0
M  V30 1609 C 157.511 -4.19514 1.57201 0
M  V30 1610 C 159.255 -4.23724 -0.256553 0
M  V30 1611 C 157.162 -5.69891 1.58045 0
M  V30 1612 H 156.092 -0.752619 0.0456092 0
M  V30 1613 H 158.743 -1.65666 0.789106 0
M  V30 1614 H 157.125 -3.92318 -0.538759 0
M  V30 1615 H 158.299 -3.98156 2.31966 0
M  V30 1616 H 156.614 -3.67496 1.95795 0
M  V30 1617 H 159.211 -5.34019 -0.269767 0
M  V30 1618 H 159.554 -3.96013 -1.28372 0
M  V30 1619 H 160.087 -3.95629 0.41505 0
M  V30 1620 H 156.826 -6.02336 2.58597 0
M  V30 1621 H 156.346 -5.93373 0.875725 0
M  V30 1622 H 158.025 -6.33515 1.31408 0
M  V30 1623 N 158.157 -0.370918 -1.53173 0
M  V30 1624 C 159.406 0.218249 -2.00516 0
M  V30 1625 C 159.719 1.49429 -1.26215 0
M  V30 1626 O 160.925 2.16239 -1.64174 0
M  V30 1627 C 159.381 0.43948 -3.57207 0
M  V30 1628 C 158.989 -0.822244 -4.4039 0
M  V30 1629 C 160.733 0.986012 -4.1289 0
M  V30 1630 C 158.64 -0.570304 -5.88644 0
M  V30 1631 H 157.57 0.0853333 -0.749156 0
M  V30 1632 H 160.221 -0.490483 -1.76823 0
M  V30 1633 H 158.603 1.20961 -3.77074 0
M  V30 1634 H 159.777 -1.59557 -4.32294 0
M  V30 1635 H 158.092 -1.29238 -3.95836 0
M  V30 1636 H 160.689 1.18991 -5.21292 0
M  V30 1637 H 161.032 1.94972 -3.6782 0
M  V30 1638 H 161.565 0.27592 -3.96842 0
M  V30 1639 H 158.304 -1.50449 -6.38001 0
M  V30 1640 H 157.824 0.164427 -5.99575 0
M  V30 1641 H 159.503 -0.19784 -6.46697 0
M  V30 1642 N 159.635 1.57281 -0.100228 0
M  V30 1643 C 160.881 1.94826 0.563101 0
M  V30 1644 C 161.214 0.982475 1.67514 0
M  V30 1645 O 160.489 0.0164069 1.94493 0
M  V30 1646 C 160.772 3.42453 1.11346 0
M  V30 1647 C 160.625 4.498 0.00612081 0
M  V30 1648 C 161.944 3.91506 2.01024 0
M  V30 1649 H 159.063 0.708428 0.203221 0
M  V30 1650 H 161.705 1.8922 -0.171979 0
M  V30 1651 H 159.855 3.47361 1.7399 0
M  V30 1652 H 161.527 4.57 -0.628357 0
M  V30 1653 H 159.77 4.28756 -0.659581 0
M  V30 1654 H 160.441 5.50306 0.432109 0
M  V30 1655 H 162.917 3.88784 1.48278 0
M  V30 1656 H 161.793 4.95358 2.36457 0
M  V30 1657 H 162.054 3.31099 2.92961 0
M  V30 1658 N 161.113 -0.173488 1.56642 0
M  V30 1659 C 162.359 -0.891784 1.8214 0
M  V30 1660 C 162.692 -1.8199 0.677736 0
M  V30 1661 O 161.967 -1.91842 -0.320446 0
M  V30 1662 C 162.25 -1.68933 3.18015 0
M  V30 1663 C 162.103 -0.784487 4.42906 0
M  V30 1664 C 163.422 -2.65748 3.50808 0
M  V30 1665 H 160.541 -0.322761 0.662567 0
M  V30 1666 H 163.183 -0.158095 1.89341 0
M  V30 1667 H 161.333 -2.31482 3.12007 0
M  V30 1668 H 163.005 -0.172046 4.60979 0
M  V30 1669 H 161.248 -0.0924117 4.33702 0
M  V30 1670 H 161.919 -1.37799 5.34524 0
M  V30 1671 H 164.395 -2.13327 3.57255 0
M  V30 1672 H 163.271 -3.18619 4.4696 0
M  V30 1673 H 163.532 -3.45842 2.75401 0
M  V30 1674 N 162.591 -1.51276 -0.441967 0
M  V30 1675 C 163.837 -1.63958 -1.19355 0
M  V30 1676 C 164.17 -0.352543 -1.90973 0
M  V30 1677 O 163.445 0.647627 -1.83401 0
M  V30 1678 C 163.728 -2.83979 -2.21422 0
M  V30 1679 C 163.581 -4.22646 -1.53918 0
M  V30 1680 C 164.9 -2.99521 -3.22451 0
M  V30 1681 H 162.019 -0.596709 -0.432559 0
M  V30 1682 H 164.661 -1.83748 -0.483398 0
M  V30 1683 H 162.811 -2.67237 -2.81987 0
M  V30 1684 H 164.483 -4.51045 -0.967256 0
M  V30 1685 H 162.726 -4.25558 -0.841615 0
M  V30 1686 H 163.397 -5.02609 -2.28229 0
M  V30 1687 H 165.873 -3.14944 -2.71937 0
M  V30 1688 H 164.749 -3.85072 -3.91166 0
M  V30 1689 H 165.01 -2.11391 -3.88287 0
M  V30 1690 N 164.069 0.697108 -1.41344 0
M  V30 1691 C 165.318 1.45279 -1.39918 0
M  V30 1692 C 165.631 1.95597 -0.0109624 0
M  V30 1693 O 166.837 2.71208 0.125919 0
M  V30 1694 C 165.293 2.62695 -2.46007 0
M  V30 1695 C 164.901 2.19169 -3.90729 0
M  V30 1696 C 166.645 3.40336 -2.53715 0
M  V30 1697 C 164.552 3.33535 -4.88373 0
M  V30 1698 H 163.482 0.545692 -0.520323 0
M  V30 1699 H 166.133 0.756929 -1.67161 0
M  V30 1700 H 164.515 3.34541 -2.11892 0
M  V30 1701 H 165.689 1.54623 -4.34083 0
M  V30 1702 H 164.004 1.54525 -3.86666 0
M  V30 1703 H 166.601 4.2547 -3.2385 0
M  V30 1704 H 166.944 3.85418 -1.5735 0
M  V30 1705 H 167.477 2.75546 -2.86913 0
M  V30 1706 H 164.216 2.93468 -5.86137 0
M  V30 1707 H 163.736 3.96936 -4.49668 0
M  V30 1708 H 165.415 3.99335 -5.09059 0
M  V30 1709 N 165.547 1.27147 0.931209 0
M  V30 1710 C 166.793 1.13446 1.68101 0
M  V30 1711 C 167.126 -0.319628 1.91552 0
M  V30 1712 O 166.401 -1.23407 1.50336 0
M  V30 1713 C 166.684 1.91482 3.0497 0
M  V30 1714 C 166.537 3.44855 2.88782 0
M  V30 1715 C 167.856 1.71651 4.05246 0
M  V30 1716 H 164.975 0.413498 0.610072 0
M  V30 1717 H 167.617 1.56261 1.08086 0
M  V30 1718 H 165.767 1.55095 3.56199 0
M  V30 1719 H 167.439 3.9105 2.44698 0
M  V30 1720 H 165.682 3.71373 2.24198 0
M  V30 1721 H 166.353 3.94694 3.85902 0
M  V30 1722 H 168.829 2.0337 3.63015 0
M  V30 1723 H 167.705 2.28651 4.99009 0
M  V30 1724 H 167.966 0.663555 4.37092 0
M  V30 1725 N 167.025 -1.13721 1.09112 0
M  V30 1726 C 168.274 -1.84275 0.82009 0
M  V30 1727 C 168.587 -1.84253 -0.656509 0
M  V30 1728 O 169.793 -2.50668 -1.04296 0
M  V30 1729 C 168.249 -3.30825 1.41714 0
M  V30 1730 C 167.857 -3.39244 2.92605 0
M  V30 1731 C 169.601 -4.06443 1.22492 0
M  V30 1732 C 167.508 -4.80047 3.45411 0
M  V30 1733 H 166.438 -0.690387 0.30312 0
M  V30 1734 H 169.089 -1.28146 1.31343 0
M  V30 1735 H 167.471 -3.86737 0.851498 0
M  V30 1736 H 168.645 -2.93344 3.55367 0
M  V30 1737 H 166.96 -2.77088 3.10823 0
M  V30 1738 H 169.557 -5.10387 1.59402 0
M  V30 1739 H 169.9 -4.15972 0.165299 0
M  V30 1740 H 170.433 -3.56852 1.75788 0
M  V30 1741 H 167.172 -4.75709 4.50978 0
M  V30 1742 H 166.692 -5.26455 2.87411 0
M  V30 1743 H 168.371 -5.48957 3.42425 0
M  V30 1744 N 168.503 -0.877838 -1.30888 0
M  V30 1745 C 169.733 -0.506678 -2.00291 0
M  V30 1746 C 170.141 0.907449 -1.66018 0
M  V30 1747 O 169.484 1.60719 -0.88967 0
M  V30 1748 C 169.546 -0.59323 -3.54572 0
M  V30 1749 C 169.21 -1.97038 -4.12341 0
M  V30 1750 C 170.207 -2.93889 -4.28865 0
M  V30 1751 C 167.892 -2.27383 -4.47886 0
M  V30 1752 C 169.886 -4.19224 -4.80136 0
M  V30 1753 C 167.573 -3.52965 -4.98857 0
M  V30 1754 C 168.571 -4.48701 -5.14934 0
M  V30 1755 O 168.259 -5.72056 -5.64808 0
M  V30 1756 H 167.991 -0.1951 -0.647234 0
M  V30 1757 H 170.545 -1.18301 -1.6791 0
M  V30 1758 H 168.775 0.140057 -3.86446 0
M  V30 1759 H 170.464 -0.234372 -4.05223 0
M  V30 1760 H 171.23 -2.71756 -4.01714 0
M  V30 1761 H 167.109 -1.53639 -4.34645 0
M  V30 1762 H 170.653 -4.93956 -4.92599 0
M  V30 1763 H 166.55 -3.74939 -5.25443 0
M  V30 1764 H 167.318 -5.74337 -5.83163 0
M  V30 1765 N 169.982 1.44106 -0.638065 0
M  V30 1766 C 171.229 2.01978 -0.14533 0
M  V30 1767 C 171.557 1.50234 1.23532 0
M  V30 1768 O 170.812 0.679548 1.83523 0
M  V30 1769 C 171.111 3.5729 -0.0887327 0
M  V30 1770 C 170.777 4.28317 -1.40909 0
M  V30 1771 C 169.439 4.47437 -1.77069 0
M  V30 1772 C 171.791 4.6867 -2.28031 0
M  V30 1773 C 169.119 5.04171 -3.00047 0
M  V30 1774 C 171.471 5.26766 -3.50286 0
M  V30 1775 C 170.135 5.44104 -3.86661 0
M  V30 1776 H 169.405 0.739089 -0.0531801 0
M  V30 1777 H 172.052 1.72781 -0.825761 0
M  V30 1778 H 170.357 3.8594 0.675095 0
M  V30 1779 H 172.054 3.99807 0.309145 0
M  V30 1780 H 168.644 4.1377 -1.1177 0
M  V30 1781 H 172.828 4.53604 -2.01388 0
M  V30 1782 H 168.084 5.15782 -3.28298 0
M  V30 1783 H 172.258 5.56983 -4.18023 0
M  V30 1784 H 169.885 5.87832 -4.82034 0
M  V30 1785 N 171.46 0.379036 1.52974 0
M  V30 1786 C 172.707 -0.206421 2.01445 0
M  V30 1787 C 173.035 -1.47668 1.26587 0
M  V30 1788 O 172.29 -1.92514 0.351675 0
M  V30 1789 C 172.589 -0.53096 3.53434 0
M  V30 1790 C 172.255 0.646546 4.46241 0
M  V30 1791 C 170.917 0.969604 4.7133 0
M  V30 1792 C 173.269 1.43479 5.01062 0
M  V30 1793 C 170.597 2.08263 5.48492 0
M  V30 1794 C 172.949 2.53834 5.7944 0
M  V30 1795 C 171.613 2.86659 6.02812 0
M  V30 1796 H 170.883 -0.0755349 0.73714 0
M  V30 1797 H 173.53 0.514271 1.84465 0
M  V30 1798 H 171.835 -1.33285 3.68432 0
M  V30 1799 H 173.532 -0.996417 3.88423 0
M  V30 1800 H 170.122 0.384734 4.2687 0
M  V30 1801 H 174.306 1.19844 4.81613 0
M  V30 1802 H 169.562 2.34078 5.64816 0
M  V30 1803 H 173.736 3.15319 6.20924 0
M  V30 1804 H 171.363 3.73026 6.62387 0
M  V30 1805 N 172.938 -1.57226 0.108567 0
M  V30 1806 C 174.166 -1.99179 -0.559954 0
M  V30 1807 C 174.581 -0.988022 -1.60884 0
M  V30 1808 O 173.938 0.0205512 -1.82488 0
M  V30 1809 C 173.989 -3.41159 -1.19552 0
M  V30 1810 O 173.71 -4.37694 -0.188577 0
M  V30 1811 C 175.211 -3.98188 -1.94837 0
M  V30 1812 H 172.431 -0.654228 -0.149088 0
M  V30 1813 H 174.975 -2.03598 0.19183 0
M  V30 1814 H 173.13 -3.37711 -1.89815 0
M  V30 1815 H 173.544 -5.20469 -0.649014 0
M  V30 1816 H 175.018 -4.99644 -2.34648 0
M  V30 1817 H 175.495 -3.3675 -2.81951 0
M  V30 1818 H 176.101 -4.0515 -1.2936 0
M  V30 1819 O 174.455 0.0311049 -1.6147 0
M  V30 1820 H 175.146 0.651916 -1.824 0
M  V30 END ATOM
M  V30 BEGIN BOND
M  V30 END BOND
M  V30 END CTAB
M  END
$$$$
