drugbank_target|P15259 Phosphoglycerate mutase 2 (DB01681; DB04510)
 OpenBabel12092120533D

  0  0  0     0  0            999 V3000
M  V30 BEGIN CTAB
M  V30 COUNTS 4062 4108 0 0 0
M  V30 BEGIN ATOM
M  V30 1 H -0.908 1.98254 -0.117106 0
M  V30 2 N 0 1.576 0 0
M  V30 3 C 0.933 2.03868 1.02534 0
M  V30 4 C 1.911 0.928543 1.3348 0
M  V30 5 O 3.095 1.19667 1.45644 0
M  V30 6 C 0.222 2.43627 2.35294 0
M  V30 7 C -0.732 3.65373 2.2001 0
M  V30 8 S 0.101 5.13292 1.52614 0
M  V30 9 C 1.257 5.56322 2.86805 0
M  V30 10 H 1.49 2.90518 0.631377 0
M  V30 11 H -0.977 1.52953 0.210867 0
M  V30 12 H 0.981 2.67203 3.11629 0
M  V30 13 H -0.358 1.57376 2.7183 0
M  V30 14 H -1.165 3.90944 3.18086 0
M  V30 15 H -1.563 3.418 1.51819 0
M  V30 16 H 0.729 5.58782 3.83104 0
M  V30 17 H 1.672 6.56266 2.65933 0
M  V30 18 H 2.08 4.83886 2.90714 0
M  V30 19 N 1.4781 -0.272755 1.55222 0
M  V30 20 C 2.4411 -1.32041 1.87344 0
M  V30 21 C 3.4411 -1.42342 0.74803 0
M  V30 22 O 4.6311 -1.41488 1.0162 0
M  V30 23 C 1.7631 -2.70173 2.07893 0
M  V30 24 H 2.9561 -1.04789 2.80997 0
M  V30 25 H 0.5091 -0.51083 1.47717 0
M  V30 26 H 1.2441 -3.02605 1.16622 0
M  V30 27 H 1.0291 -2.64082 2.89833 0
M  V30 28 H 2.5191 -3.45869 2.34017 0
M  V30 29 N 2.9562 -1.48159 -0.537278 0
M  V30 30 C 4.1842 -1.59454 -1.31841 0
M  V30 31 C 4.5992 -0.252065 -1.8711 0
M  V30 32 O 3.9562 0.757621 -1.66031 0
M  V30 33 C 4.0072 -2.63546 -2.47439 0
M  V30 34 O 3.7282 -3.92583 -1.94449 0
M  V30 35 C 5.2292 -2.85212 -3.39366 0
M  V30 36 H 2.4492 -0.53785 -0.401196 0
M  V30 37 H 4.9932 -1.93932 -0.648891 0
M  V30 38 H 3.1482 -2.31946 -3.1029 0
M  V30 39 H 3.5622 -4.49629 -2.70063 0
M  V30 40 H 5.0362 -3.61863 -4.16844 0
M  V30 41 H 5.5132 -1.93765 -3.94147 0
M  V30 42 H 6.1192 -3.18086 -2.82314 0
M  V30 43 N 4.4343 0.785586 -1.36625 0
M  V30 44 C 5.3843 1.88822 -1.27789 0
M  V30 45 C 6.3683 1.60014 -0.168579 0
M  V30 46 O 7.5603 1.72381 -0.401737 0
M  V30 47 C 4.6893 3.26092 -1.07327 0
M  V30 48 C 3.7753 3.60897 -2.22743 0
M  V30 49 N 4.1663 3.66982 -3.48077 0
M  V30 50 C 2.4643 3.90981 -2.14593 0
M  V30 51 C 3.1653 3.98137 -4.24101 0
M  V30 52 N 2.1413 4.13319 -3.53084 0
M  V30 53 H 5.9433 1.91759 -2.22723 0
M  V30 54 H 3.4573 0.981311 -1.29399 0
M  V30 55 H 5.4543 4.04954 -0.990842 0
M  V30 56 H 4.1143 3.24428 -0.132977 0
M  V30 57 H 5.1253 3.49531 -3.82163 0
M  V30 58 H 1.8023 3.9722 -1.2854 0
M  V30 59 H 3.1923 4.09737 -5.32509 0
M  V30 60 N 5.9124 1.20967 1.01018 0
M  V30 61 C 7.3284 0.965905 1.27053 0
M  V30 62 C 7.5284 -0.350785 1.98423 0
M  V30 63 O 6.5844 -1.07773 2.28344 0
M  V30 64 C 7.8974 2.15294 2.09926 0
M  V30 65 C 9.4454 2.19463 2.23171 0
M  V30 66 C 9.9204 3.3767 3.09424 0
M  V30 67 N 11.4114 3.37724 3.17012 0
M  V30 68 C 12.1464 4.25837 3.83993 0
M  V30 69 N 11.6424 5.24138 4.53047 0
M  V30 70 N 13.4354 4.1366 3.80581 0
M  V30 71 H 5.5864 2.0565 0.531194 0
M  V30 72 H 7.8494 0.90024 0.297106 0
M  V30 73 H 7.5554 3.10684 1.64828 0
M  V30 74 H 7.4294 2.13923 3.10672 0
M  V30 75 H 9.8164 1.24632 2.6749 0
M  V30 76 H 9.8974 2.2488 1.21912 0
M  V30 77 H 9.5414 4.32791 2.65808 0
M  V30 78 H 9.4714 3.29491 4.10784 0
M  V30 79 H 11.9624 2.6658 2.6785 0
M  V30 80 H 12.2754 5.87684 5.01844 0
M  V30 81 H 10.6204 5.28068 4.5185 0
M  V30 82 H 13.8114 3.36127 3.25785 0
M  V30 83 H 13.9844 4.82538 4.32505 0
M  V30 84 N 7.3905 -1.2043 1.01659 0
M  V30 85 C 8.3205 -2.25466 0.607226 0
M  V30 86 C 9.3015 -1.65853 -0.377716 0
M  V30 87 O 10.4865 -1.92409 -0.263149 0
M  V30 88 C 7.6165 -3.47256 -0.0552949 0
M  V30 89 C 6.5705 -4.19462 0.850632 0
M  V30 90 C 5.8965 -5.34673 0.0538859 0
M  V30 91 C 7.1965 -4.75603 2.15868 0
M  V30 92 H 8.8905 -2.59962 1.48526 0
M  V30 93 H 6.4365 -1.2496 0.715605 0
M  V30 94 H 8.3895 -4.19917 -0.353233 0
M  V30 95 H 7.1135 -3.11924 -0.968045 0
M  V30 96 H 5.7725 -3.48667 1.13257 0
M  V30 97 H 5.4205 -4.95585 -0.860514 0
M  V30 98 H 5.1205 -5.83913 0.657192 0
M  V30 99 H 6.6445 -6.10138 -0.237598 0
M  V30 100 H 8.0585 -5.40083 1.92311 0
M  V30 101 H 6.4555 -5.3528 2.71284 0
M  V30 102 H 7.5255 -3.94346 2.82169 0
M  V30 103 N 8.8686 -0.792821 -1.36206 0
M  V30 104 C 10.1146 -0.36733 -1.99446 0
M  V30 105 C 10.4476 1.05917 -1.62774 0
M  V30 106 O 9.7226 1.7324 -0.88421 0
M  V30 107 C 10.0056 -0.535044 -3.56103 0
M  V30 108 C 9.8586 -2.00548 -4.02617 0
M  V30 109 C 11.1776 0.0478191 -4.40074 0
M  V30 110 H 8.2966 -0.134941 -0.724541 0
M  V30 111 H 10.9386 -0.999794 -1.61568 0
M  V30 112 H 9.0886 0.00336329 -3.885 0
M  V30 113 H 10.7606 -2.60521 -3.80692 0
M  V30 114 H 9.0036 -2.50686 -3.54032 0
M  V30 115 H 9.6746 -2.07377 -5.11565 0
M  V30 116 H 12.1506 -0.411822 -4.14057 0
M  V30 117 H 11.0266 -0.0995336 -5.4881 0
M  V30 118 H 11.2876 1.14025 -4.27142 0
M  V30 119 N 10.3467 1.47872 -0.545128 0
M  V30 120 C 11.2797 2.2675 0.256885 0
M  V30 121 C 12.2577 1.33293 0.931228 0
M  V30 122 O 13.4417 1.62657 0.95262 0
M  V30 123 C 10.5687 3.09976 1.36501 0
M  V30 124 C 9.6147 4.1892 0.800496 0
M  V30 125 S 10.4477 5.34397 -0.343505 0
M  V30 126 C 11.6037 6.21186 0.766733 0
M  V30 127 H 11.8367 2.94425 -0.412479 0
M  V30 128 H 9.3697 1.50806 -0.331204 0
M  V30 129 H 11.3277 3.585 1.9997 0
M  V30 130 H 9.9887 2.41686 2.00616 0
M  V30 131 H 9.1817 4.76836 1.63227 0
M  V30 132 H 8.7837 3.73215 0.242217 0
M  V30 133 H 11.0757 6.56804 1.66178 0
M  V30 134 H 12.0187 7.07742 0.225204 0
M  V30 135 H 12.4267 5.54574 1.05396 0
M  V30 136 N 11.8248 0.280983 1.55075 0
M  V30 137 C 13.0708 -0.33461 2.00021 0
M  V30 138 C 13.4038 -1.55063 1.16915 0
M  V30 139 O 12.6788 -1.93006 0.240646 0
M  V30 140 C 12.9618 -0.711007 3.53011 0
M  V30 141 C 12.8148 0.512766 4.46868 0
M  V30 142 C 14.1338 -1.54522 4.12081 0
M  V30 143 H 11.2528 -0.120147 0.727141 0
M  V30 144 H 13.8948 0.389097 1.85973 0
M  V30 145 H 12.0448 -1.32761 3.65112 0
M  V30 146 H 13.7168 1.15131 4.46702 0
M  V30 147 H 11.9598 1.14975 4.18286 0
M  V30 148 H 12.6308 0.205556 5.51617 0
M  V30 149 H 15.1068 -1.02442 4.03293 0
M  V30 150 H 13.9828 -1.77739 5.19327 0
M  V30 151 H 14.2438 -2.52813 3.62682 0
M  V30 152 N 13.3029 -1.57598 0.00835791 0
M  V30 153 C 14.7189 -1.55764 -0.347822 0
M  V30 154 C 14.9189 -1.01186 -1.74252 0
M  V30 155 O 13.9749 -0.649371 -2.44007 0
M  V30 156 C 15.2879 -2.99927 -0.215407 0
M  V30 157 C 16.8359 -3.11656 -0.289725 0
M  V30 158 C 17.3109 -4.57621 -0.18634 0
M  V30 159 N 18.8019 -4.62557 -0.243978 0
M  V30 160 C 19.5369 -5.73094 -0.18745 0
M  V30 161 N 19.0329 -6.92753 -0.0810331 0
M  V30 162 N 20.8259 -5.61588 -0.239925 0
M  V30 163 H 12.9769 -1.91411 0.92062 0
M  V30 164 H 15.2399 -0.879562 0.353659 0
M  V30 165 H 14.9459 -3.43729 0.744512 0
M  V30 166 H 14.8199 -3.63865 -0.994097 0
M  V30 167 H 17.2069 -2.67779 -1.24009 0
M  V30 168 H 17.2879 -2.5048 0.51898 0
M  V30 169 H 16.9319 -5.02174 0.760519 0
M  V30 170 H 16.8619 -5.16752 -1.01364 0
M  V30 171 H 19.3529 -3.76481 -0.327217 0
M  V30 172 H 19.6659 -7.72787 -0.0440241 0
M  V30 173 H 18.0109 -6.94984 -0.0465419 0
M  V30 174 H 21.2019 -4.66996 -0.321317 0
M  V30 175 H 21.3749 -6.47714 -0.192407 0
M  V30 176 N 14.781 0.264519 -1.55364 0
M  V30 177 C 15.731 1.32966 -1.85214 0
M  V30 178 C 16.715 1.44306 -0.711653 0
M  V30 179 O 17.907 1.47844 -0.973192 0
M  V30 180 C 15.036 2.68839 -2.13495 0
M  V30 181 C 14.122 2.61575 -3.33825 0
M  V30 182 N 14.513 2.23933 -4.53528 0
M  V30 183 C 12.811 2.92621 -3.36584 0
M  V30 184 C 13.512 2.26868 -5.35636 0
M  V30 185 N 12.488 2.65677 -4.74254 0
M  V30 186 H 16.29 1.02884 -2.75304 0
M  V30 187 H 13.804 0.473157 -1.55354 0
M  V30 188 H 15.801 3.45685 -2.33039 0
M  V30 189 H 14.461 2.99802 -1.24694 0
M  V30 190 H 15.472 1.95769 -4.79474 0
M  V30 191 H 12.149 3.2824 -2.58002 0
M  V30 192 H 13.539 2.00254 -6.41364 0
M  V30 193 N 16.2591 1.48442 0.529413 0
M  V30 194 C 17.5071 1.56179 1.28267 0
M  V30 195 C 17.8281 0.237721 1.93546 0
M  V30 196 O 17.0981 -0.740779 1.81354 0
M  V30 197 H 15.6781 0.575367 0.476405 0
M  V30 198 H 18.3401 1.84909 0.61602 0
M  V30 199 H 17.4361 2.34312 2.06165 0
M  V30 200 N 17.7372 -0.778329 1.37039 0
M  V30 201 C 18.6472 -1.92253 1.34446 0
M  V30 202 C 19.6632 -1.72267 0.244991 0
M  V30 203 O 20.8392 -1.95615 0.479258 0
M  V30 204 C 17.9042 -3.27282 1.144 0
M  V30 205 C 16.9652 -3.59969 2.33925 0
M  V30 206 C 16.1982 -4.88555 2.14825 0
M  V30 207 O 16.4212 -5.59113 1.12912 0
M  V30 208 O 15.3552 -5.20153 3.02861 0
M  V30 209 H 19.1812 -1.97392 2.30803 0
M  V30 210 H 16.7662 -0.920154 1.17701 0
M  V30 211 H 18.6482 -4.08062 1.05182 0
M  V30 212 H 17.3232 -3.23011 0.211124 0
M  V30 213 H 16.2302 -2.7945 2.48714 0
M  V30 214 H 17.5632 -3.68976 3.25757 0
M  V30 215 N 19.2153 -1.21501 -1.00376 0
M  V30 216 C 20.4403 -1.05977 -1.78279 0
M  V30 217 C 20.8653 0.385994 -1.84097 0
M  V30 218 O 20.2233 1.27849 -1.28547 0
M  V30 219 C 20.2713 -1.66302 -3.19963 0
M  V30 220 O 19.3753 -0.909333 -4.0225 0
M  V30 221 H 18.7163 -0.372906 -0.549397 0
M  V30 222 H 21.2463 -1.6107 -1.26165 0
M  V30 223 H 21.2563 -1.70574 -3.70632 0
M  V30 224 H 19.9313 -2.71515 -3.15043 0
M  V30 225 H 18.5083 -0.941795 -3.60811 0
M  V30 226 N 20.6934 1.19889 -1.02296 0
M  V30 227 C 21.9214 1.9339 -0.735399 0
M  V30 228 C 22.3364 1.75148 0.704887 0
M  V30 229 O 21.6934 1.06954 1.47875 0
M  V30 230 C 21.7444 3.45313 -1.06962 0
M  V30 231 O 21.4654 3.62964 -2.45334 0
M  V30 232 C 22.9664 4.35948 -0.804021 0
M  V30 233 H 20.1864 0.61448 -0.269546 0
M  V30 234 H 22.7304 1.522 -1.36585 0
M  V30 235 H 20.8854 3.84359 -0.484455 0
M  V30 236 H 21.2994 4.56886 -2.57595 0
M  V30 237 H 22.7734 5.41174 -1.0879 0
M  V30 238 H 23.2504 4.3842 0.261691 0
M  V30 239 H 23.8564 4.02574 -1.37164 0
M  V30 240 N 22.1715 0.800033 1.35784 0
M  V30 241 C 23.4175 0.38701 1.99684 0
M  V30 242 C 23.7725 -1.03268 1.62338 0
M  V30 243 O 23.0655 -1.70543 0.87325 0
M  V30 244 C 23.2595 0.500276 3.53881 0
M  V30 245 C 23.0885 1.92942 4.06206 0
M  V30 246 C 21.8585 2.55637 4.35865 0
M  V30 247 C 24.0565 2.89307 4.25213 0
M  V30 248 N 22.0385 3.9003 4.74078 0
M  V30 249 C 23.4095 4.08556 4.66349 0
M  V30 250 C 25.4645 2.86225 4.07406 0
M  V30 251 C 24.1675 5.25146 4.91543 0
M  V30 252 C 26.1935 4.02011 4.33752 0
M  V30 253 C 25.5555 5.20007 4.75155 0
M  V30 254 H 21.6545 0.189252 0.758754 0
M  V30 255 H 24.2385 1.03988 1.64604 0
M  V30 256 H 22.4095 -0.122568 3.88207 0
M  V30 257 H 24.1415 0.0624733 4.04652 0
M  V30 258 H 20.8965 2.07039 4.25948 0
M  V30 259 H 21.3205 4.59205 4.97454 0
M  V30 260 H 25.9625 1.96154 3.74544 0
M  V30 261 H 23.6805 6.15794 5.23281 0
M  V30 262 H 27.2665 4.00999 4.21534 0
M  V30 263 H 26.1465 6.08113 4.95145 0
M  V30 264 N 23.6496 -1.47581 0.552962 0
M  V30 265 C 24.5976 -2.31648 -0.21023 0
M  V30 266 C 25.5916 -1.42663 -0.913432 0
M  V30 267 O 26.7976 -1.5945 -0.835201 0
M  V30 268 H 23.1726 -0.746989 -0.0866676 0
M  V30 269 H 25.1436 -2.93869 0.518051 0
M  V30 270 C 23.8926 -3.25226 -1.22976 0
M  V30 271 H 23.2156 -3.93658 -0.698077 0
M  V30 272 H 24.6556 -3.86889 -1.73473 0
M  V30 273 C 23.1146 -2.48448 -2.27542 0
M  V30 274 O 23.6446 -2.22585 -3.34393 0
M  V30 275 N 21.8506 -2.09532 -2.01357 0
M  V30 276 H 21.3976 -2.30765 -1.14478 0
M  V30 277 H 21.3556 -1.58476 -2.71538 0
M  V30 278 N 25.1277 -0.289203 -1.54924 0
M  V30 279 C 26.0597 0.625583 -2.20497 0
M  V30 280 C 27.0727 1.10667 -1.19402 0
M  V30 281 O 28.2617 1.02615 -1.46056 0
M  V30 282 C 25.3617 1.86702 -2.82835 0
M  V30 283 C 24.5347 1.5304 -4.09753 0
M  V30 284 C 23.5937 2.62576 -4.56005 0
M  V30 285 O 22.6197 2.28167 -5.21468 0
M  V30 286 N 23.8217 3.92901 -4.27328 0
M  V30 287 H 26.5867 0.0642801 -2.99631 0
M  V30 288 H 24.1477 -0.110896 -1.6152 0
M  V30 289 H 26.1397 2.59304 -3.10715 0
M  V30 290 H 24.7097 2.33702 -2.07611 0
M  V30 291 H 23.9297 0.637564 -3.8901 0
M  V30 292 H 25.2177 1.28072 -4.92418 0
M  V30 293 H 24.6157 4.23671 -3.74859 0
M  V30 294 H 23.1727 4.61837 -4.59946 0
M  V30 295 N 26.6058 1.57591 -0.0167156 0
M  V30 296 C 27.5158 2.1291 0.98521 0
M  V30 297 C 28.5318 1.07834 1.36557 0
M  V30 298 O 29.7078 1.39826 1.44951 0
M  V30 299 C 26.7728 2.63512 2.25305 0
M  V30 300 C 25.8338 3.83256 1.93426 0
M  V30 301 C 25.0668 4.31435 3.14165 0
M  V30 302 O 25.2898 3.78851 4.26413 0
M  V30 303 O 24.2238 5.23416 2.97186 0
M  V30 304 H 28.0498 2.98772 0.544888 0
M  V30 305 H 25.6348 1.48012 0.203141 0
M  V30 306 H 27.5168 2.96183 2.99756 0
M  V30 307 H 26.1918 1.8074 2.68542 0
M  V30 308 H 25.0988 3.55531 1.16398 0
M  V30 309 H 26.4318 4.67153 1.55013 0
M  V30 310 N 28.0839 -0.256276 1.55502 0
M  V30 311 C 29.0319 -1.33694 1.90338 0
M  V30 312 C 30.0259 -1.50299 0.781441 0
M  V30 313 O 31.2319 -1.51885 0.965966 0
M  V30 314 H 27.6069 -0.447483 0.60437 0
M  V30 315 H 29.5779 -1.01574 2.8058 0
M  V30 316 C 28.3269 -2.68724 2.20642 0
M  V30 317 H 27.6499 -2.56743 3.06469 0
M  V30 318 H 29.0899 -3.43237 2.48926 0
M  V30 319 C 27.5489 -3.21101 1.01959 0
M  V30 320 O 28.0789 -4.0084 0.262762 0
M  V30 321 N 26.2849 -2.79003 0.812746 0
M  V30 322 H 25.8319 -2.14271 1.42989 0
M  V30 323 H 25.7899 -3.14393 0.0203076 0
M  V30 324 N 29.562 -1.4872 -0.521534 0
M  V30 325 C 30.978 -1.35028 -0.850855 0
M  V30 326 C 31.178 -0.367712 -1.98116 0
M  V30 327 O 30.234 0.208037 -2.51642 0
M  V30 328 C 31.547 -2.75263 -1.21041 0
M  V30 329 C 33.095 -2.83813 -1.31981 0
M  V30 330 C 33.57 -4.24769 -1.71276 0
M  V30 331 N 35.061 -4.27482 -1.78363 0
M  V30 332 C 35.796 -5.33494 -2.1017 0
M  V30 333 N 35.292 -6.49775 -2.40343 0
M  V30 334 N 37.085 -5.20894 -2.11248 0
M  V30 335 H 29.236 -2.11214 0.22413 0
M  V30 336 H 31.499 -0.947252 0.0376439 0
M  V30 337 H 31.205 -3.48765 -0.453415 0
M  V30 338 H 31.079 -3.09327 -2.15863 0
M  V30 339 H 33.466 -2.10561 -2.06756 0
M  V30 340 H 33.547 -2.53358 -0.352596 0
M  V30 341 H 33.191 -4.9854 -0.970588 0
M  V30 342 H 33.121 -4.52673 -2.69062 0
M  V30 343 H 35.612 -3.43611 -1.57288 0
M  V30 344 H 35.925 -7.26402 -2.63743 0
M  V30 345 H 34.27 -6.53035 -2.37844 0
M  V30 346 H 37.461 -4.29065 -1.87139 0
M  V30 347 H 37.634 -6.03612 -2.35704 0
M  V30 348 N 31.0401 0.771051 -1.3745 0
M  V30 349 C 32.2871 1.52963 -1.32697 0
M  V30 350 C 32.6151 1.94299 0.0883274 0
M  V30 351 O 31.8701 1.64397 1.0617 0
M  V30 352 C 32.1691 2.80676 -2.2126 0
M  V30 353 C 31.8351 2.58389 -3.69521 0
M  V30 354 C 30.4971 2.52019 -4.09927 0
M  V30 355 C 32.8491 2.38469 -4.63446 0
M  V30 356 C 30.1771 2.23721 -5.42371 0
M  V30 357 C 32.5291 2.11694 -5.96128 0
M  V30 358 C 31.1931 2.03769 -6.35637 0
M  V30 359 H 30.4631 0.559732 -0.485573 0
M  V30 360 H 33.1101 0.888083 -1.69662 0
M  V30 361 H 31.4151 3.49392 -1.77291 0
M  V30 362 H 33.1121 3.38557 -2.14895 0
M  V30 363 H 29.7021 2.6421 -3.37478 0
M  V30 364 H 33.8861 2.4238 -4.33089 0
M  V30 365 H 29.1421 2.16081 -5.71943 0
M  V30 366 H 33.3161 1.9528 -6.6846 0
M  V30 367 H 30.9431 1.81606 -7.38189 0
M  V30 368 N 32.5182 1.22032 0.997298 0
M  V30 369 C 33.7582 1.05375 1.75144 0
M  V30 370 C 34.1222 -0.404696 1.87686 0
M  V30 371 O 35.3232 -0.691998 2.5974 0
M  V30 372 C 33.5942 1.74046 3.12158 0
M  V30 373 S 35.1532 1.72745 4.03366 0
M  V30 374 H 31.9712 0.377449 0.602539 0
M  V30 375 H 34.5732 1.54902 1.19272 0
M  V30 376 H 33.2772 2.79332 3.00669 0
M  V30 377 H 32.8082 1.24731 3.73103 0
M  V30 378 H 34.8232 0.774015 4.90126 0
M  V30 379 N 33.9963 -1.19345 1.0293 0
M  V30 380 C 35.2443 -1.88665 0.724574 0
M  V30 381 C 35.5653 -1.80036 -0.749144 0
M  V30 382 O 34.8353 -1.2111 -1.53978 0
M  V30 383 H 33.4153 -0.698406 0.265025 0
M  V30 384 H 36.0773 -1.44885 1.30362 0
M  V30 385 H 35.1733 -2.94987 1.01926 0
M  V30 386 N 35.4744 -0.807222 -1.35358 0
M  V30 387 C 36.7204 -0.397594 -1.99476 0
M  V30 388 C 37.0754 1.02405 -1.62883 0
M  V30 389 O 36.3684 1.70077 -0.882282 0
M  V30 390 C 36.5624 -0.519036 -3.53611 0
M  V30 391 C 36.3914 -1.95094 -4.05177 0
M  V30 392 C 35.1614 -2.57945 -4.34503 0
M  V30 393 C 37.3594 -2.91558 -4.23673 0
M  V30 394 N 35.3414 -3.92539 -4.72003 0
M  V30 395 C 36.7124 -4.11024 -4.64176 0
M  V30 396 C 38.7674 -2.88381 -4.05883 0
M  V30 397 C 37.4704 -5.27745 -4.88751 0
M  V30 398 C 39.4964 -4.04306 -4.31614 0
M  V30 399 C 38.8584 -5.22519 -4.72391 0
M  V30 400 H 34.9574 -0.193274 -0.75774 0
M  V30 401 H 37.5414 -1.0486 -1.6405 0
M  V30 402 H 35.7124 0.101979 -3.88266 0
M  V30 403 H 37.4444 -0.0839321 -4.04613 0
M  V30 404 H 34.1994 -2.09295 -4.24844 0
M  V30 405 H 34.6234 -4.61836 -4.95011 0
M  V30 406 H 39.2654 -1.98137 -3.73499 0
M  V30 407 H 36.9834 -6.1856 -5.20008 0
M  V30 408 H 40.5694 -4.03229 -4.19402 0
M  V30 409 H 39.4494 -6.1073 -4.91913 0
M  V30 410 N 36.9525 1.47285 -0.560781 0
M  V30 411 C 38.1995 2.02464 -0.038062 0
M  V30 412 C 38.5275 1.43474 1.31322 0
M  V30 413 O 37.7825 0.581311 1.86867 0
M  V30 414 C 38.0815 3.57258 0.100784 0
M  V30 415 C 37.7475 4.35184 -1.18007 0
M  V30 416 C 36.4095 4.56194 -1.53103 0
M  V30 417 C 38.7615 4.80098 -2.02867 0
M  V30 418 C 36.0895 5.19367 -2.729 0
M  V30 419 C 38.4415 5.44593 -3.21871 0
M  V30 420 C 37.1055 5.63835 -3.57276 0
M  V30 421 H 36.3755 0.740869 -0.0139279 0
M  V30 422 H 39.0225 1.76916 -0.733012 0
M  V30 423 H 37.3275 3.81819 0.878724 0
M  V30 424 H 39.0245 3.97606 0.520639 0
M  V30 425 H 35.6145 4.19113 -0.8968 0
M  V30 426 H 39.7985 4.63642 -1.7706 0
M  V30 427 H 35.0545 5.32459 -3.00496 0
M  V30 428 H 39.2285 5.78358 -3.87911 0
M  V30 429 H 36.8555 6.12557 -4.50197 0
M  V30 430 N 38.4306 0.297415 1.54768 0
M  V30 431 C 39.7076 -0.365847 1.92148 0
M  V30 432 C 40.0876 -1.71975 1.22424 0
M  V30 433 O 39.4356 -2.25666 0.358739 0
M  V30 434 C 39.6456 -0.484056 3.45627 0
M  V30 435 C 40.9936 -0.756594 4.17805 0
M  V30 436 O 42.0176 -0.568007 3.51642 0
M  V30 437 O 40.8766 -1.11863 5.34929 0
M  V30 438 H 37.9706 -0.203919 0.801465 0
M  V30 439 H 40.5166 0.34521 1.66152 0
M  V30 440 H 39.2886 0.467865 3.88493 0
M  V30 441 H 38.9116 -1.24372 3.77647 0
M  V30 442 N 39.9087 -1.5758 0.0250728 0
M  V30 443 C 40.8717 -2.08896 -0.943139 0
M  V30 444 C 41.8717 -1.00321 -1.25668 0
M  V30 445 O 43.0617 -1.26495 -1.19769 0
M  V30 446 C 40.1937 -2.55143 -2.26086 0
M  V30 447 H 41.3867 -2.95723 -0.498775 0
M  V30 448 H 38.9397 -1.54703 -0.222888 0
M  V30 449 H 39.6747 -1.71633 -2.75159 0
M  V30 450 H 39.4597 -3.34461 -2.04641 0
M  V30 451 H 40.9497 -2.95083 -2.95492 0
M  V30 452 N 41.3868 0.248026 -1.55636 0
M  V30 453 C 42.2968 1.32859 -1.93354 0
M  V30 454 C 43.3128 1.52719 -0.833838 0
M  V30 455 O 44.4888 1.66363 -1.13513 0
M  V30 456 C 41.5538 2.66337 -2.21958 0
M  V30 457 C 40.6148 2.55008 -3.45354 0
M  V30 458 C 39.8478 3.82121 -3.72584 0
M  V30 459 O 40.0708 4.83951 -3.01907 0
M  V30 460 O 39.0048 3.80822 -4.6611 0
M  V30 461 H 42.8308 1.03862 -2.85388 0
M  V30 462 H 40.4158 0.448686 -1.42503 0
M  V30 463 H 42.2978 3.45216 -2.4167 0
M  V30 464 H 40.9728 2.95068 -1.33103 0
M  V30 465 H 39.8798 1.7442 -3.30951 0
M  V30 466 H 41.2128 2.31222 -4.34508 0
M  V30 467 N 42.8649 1.48995 0.513639 0
M  V30 468 C 43.7949 1.67636 1.62544 0
M  V30 469 C 44.7759 0.525087 1.61793 0
M  V30 470 O 45.9609 0.759502 1.78732 0
M  V30 471 C 43.0909 1.73114 3.01079 0
M  V30 472 C 42.0449 2.87905 3.16693 0
M  V30 473 C 41.3709 2.78486 4.56453 0
M  V30 474 C 42.6709 4.29005 2.97913 0
M  V30 475 H 44.3649 2.60716 1.47198 0
M  V30 476 H 41.9109 1.25465 0.706714 0
M  V30 477 H 43.8639 1.84742 3.78746 0
M  V30 478 H 42.5879 0.766241 3.17484 0
M  V30 479 H 41.2469 2.75859 2.41448 0
M  V30 480 H 40.8949 1.7993 4.69717 0
M  V30 481 H 40.5949 3.55523 4.67843 0
M  V30 482 H 42.1189 2.92104 5.36197 0
M  V30 483 H 43.5329 4.41798 3.65359 0
M  V30 484 H 41.9299 5.07166 3.20785 0
M  V30 485 H 42.9999 4.44329 1.94165 0
M  V30 486 N 44.343 -0.763751 1.37857 0
M  V30 487 C 45.568 -1.55805 1.36893 0
M  V30 488 C 45.993 -1.88054 -0.0416135 0
M  V30 489 O 45.351 -1.49825 -1.02089 0
M  V30 490 C 45.399 -2.84012 2.22192 0
M  V30 491 O 44.503 -3.78732 1.63204 0
M  V30 492 H 43.844 -0.471638 0.46739 0
M  V30 493 H 46.374 -0.944657 1.81487 0
M  V30 494 H 46.384 -3.33037 2.35691 0
M  V30 495 H 45.059 -2.59869 3.24716 0
M  V30 496 H 43.636 -3.37402 1.58791 0
M  V30 497 N 45.8211 -1.22559 -0.990812 0
M  V30 498 C 46.7311 -1.01394 -2.11557 0
M  V30 499 C 47.7471 0.0383962 -1.73958 0
M  V30 500 O 48.9231 -0.154787 -2.00804 0
M  V30 501 C 45.9881 -0.596569 -3.41529 0
M  V30 502 C 45.0491 -1.72276 -3.93217 0
M  V30 503 C 44.2821 -1.32521 -5.16985 0
M  V30 504 O 44.5051 -0.204909 -5.70032 0
M  V30 505 O 43.4391 -2.14247 -5.62478 0
M  V30 506 H 47.2651 -1.95633 -2.32296 0
M  V30 507 H 44.8501 -1.01172 -1.0993 0
M  V30 508 H 46.7321 -0.374263 -4.19735 0
M  V30 509 H 45.4071 0.316939 -3.22145 0
M  V30 510 H 44.3141 -1.99961 -3.16174 0
M  V30 511 H 45.6471 -2.61421 -4.17037 0
M  V30 512 N 47.2992 1.18797 -1.03562 0
M  V30 513 C 48.2462 2.22253 -0.622259 0
M  V30 514 C 49.2162 1.61987 0.36736 0
M  V30 515 O 50.4012 1.88986 0.262492 0
M  V30 516 C 47.5412 3.45097 0.0138462 0
M  V30 517 C 46.6542 4.19722 -1.02263 0
M  V30 518 C 45.7892 5.30009 -0.355573 0
M  V30 519 C 44.8282 5.96399 -1.37749 0
M  V30 520 N 43.9652 6.98234 -0.735766 0
M  V30 521 H 48.8052 2.56968 -1.50903 0
M  V30 522 H 46.3422 1.26245 -0.755017 0
M  V30 523 H 48.3002 4.15279 0.399948 0
M  V30 524 H 46.9302 3.11018 0.864158 0
M  V30 525 H 45.9822 3.48418 -1.52673 0
M  V30 526 H 47.2942 4.65227 -1.79903 0
M  V30 527 H 46.4482 6.0664 0.0850095 0
M  V30 528 H 45.1872 4.85592 0.452967 0
M  V30 529 H 44.1922 5.18512 -1.82826 0
M  V30 530 H 45.4172 6.42899 -2.18764 0
M  V30 531 H 43.3632 6.55979 0.0525597 0
M  V30 532 H 43.2802 7.41965 -1.44995 0
M  V30 533 H 44.5482 7.78845 -0.31941 0
M  V30 534 N 48.7773 0.814389 1.34928 0
M  V30 535 C 50.0253 0.397636 1.9815 0
M  V30 536 C 50.3463 -1.04069 1.64908 0
M  V30 537 O 49.6163 -1.72121 0.93548 0
M  V30 538 H 48.1963 0.144043 0.732981 0
M  V30 539 H 50.8583 1.04195 1.6471 0
M  V30 540 H 49.9543 0.509688 3.0791 0
M  V30 541 N 50.2554 -1.46986 0.568584 0
M  V30 542 C 51.4834 -2.0683 0.0539956 0
M  V30 543 C 51.8984 -1.41953 -1.24478 0
M  V30 544 O 51.2554 -0.519933 -1.74937 0
M  V30 545 C 51.3064 -3.61254 -0.133362 0
M  V30 546 O 51.0274 -4.237 1.11399 0
M  V30 547 C 52.5284 -4.37992 -0.683927 0
M  V30 548 H 49.7484 -0.669058 0.0510141 0
M  V30 549 H 52.2924 -1.88824 0.785234 0
M  V30 550 H 50.4474 -3.78735 -0.81477 0
M  V30 551 H 50.8614 -5.16388 0.91888 0
M  V30 552 H 52.3354 -5.46684 -0.764263 0
M  V30 553 H 52.8124 -4.05058 -1.69778 0
M  V30 554 H 53.4184 -4.25283 -0.0378494 0
M  V30 555 N 51.7335 -0.305618 -1.54608 0
M  V30 556 C 52.6435 0.57778 -2.27374 0
M  V30 557 C 53.6595 1.14451 -1.31061 0
M  V30 558 O 54.8355 1.16831 -1.6405 0
M  V30 559 C 51.9005 1.73123 -3.00382 0
M  V30 560 C 50.9615 1.19812 -4.12242 0
M  V30 561 C 50.1945 2.2966 -4.81759 0
M  V30 562 O 50.4175 3.49651 -4.50666 0
M  V30 563 O 49.3515 1.96091 -5.69062 0
M  V30 564 H 53.1775 -0.012624 -3.03697 0
M  V30 565 H 50.7625 -0.0719184 -1.49227 0
M  V30 566 H 52.6445 2.40315 -3.4616 0
M  V30 567 H 51.3195 2.30815 -2.26949 0
M  V30 568 H 50.2265 0.491798 -3.70853 0
M  V30 569 H 51.5595 0.666566 -4.87666 0
M  V30 570 N 53.2116 1.57565 -0.0334293 0
M  V30 571 C 54.1216 2.13943 0.962572 0
M  V30 572 C 55.1376 1.09276 1.35406 0
M  V30 573 O 56.3136 1.41355 1.4346 0
M  V30 574 C 53.3786 2.65887 2.22497 0
M  V30 575 C 52.4396 3.85286 1.8935 0
M  V30 576 C 51.6726 4.34743 3.09571 0
M  V30 577 O 51.8956 3.83352 4.22371 0
M  V30 578 O 50.8296 5.26538 2.91618 0
M  V30 579 H 54.6556 2.99333 0.513169 0
M  V30 580 H 52.2406 1.4822 0.18743 0
M  V30 581 H 54.1226 2.99346 2.96598 0
M  V30 582 H 52.7976 1.83578 2.6661 0
M  V30 583 H 51.7046 3.56746 1.1262 0
M  V30 584 H 53.0376 4.68771 1.5005 0
M  V30 585 N 54.6897 -0.239769 1.55765 0
M  V30 586 C 55.6527 -1.28038 1.90103 0
M  V30 587 C 56.6527 -1.40723 0.778055 0
M  V30 588 O 57.8427 -1.39301 1.04599 0
M  V30 589 C 54.9747 -2.65702 2.13577 0
M  V30 590 H 56.1677 -0.988048 2.83157 0
M  V30 591 H 53.7207 -0.479382 1.48767 0
M  V30 592 H 54.4557 -3.00063 1.23015 0
M  V30 593 H 54.2407 -2.57875 2.95369 0
M  V30 594 H 55.7307 -3.40828 2.41301 0
M  V30 595 N 56.1678 -1.49265 -0.50573 0
M  V30 596 C 57.1148 -1.65585 -1.6078 0
M  V30 597 C 58.0848 -0.497396 -1.58478 0
M  V30 598 O 59.2698 -0.72385 -1.76536 0
M  V30 599 C 56.4098 -1.72408 -2.98948 0
M  V30 600 C 55.5228 -2.99525 -3.11301 0
M  V30 601 C 54.6578 -2.97356 -4.40174 0
M  V30 602 C 53.6968 -4.19074 -4.46143 0
M  V30 603 N 52.8338 -4.14841 -5.66437 0
M  V30 604 H 57.6738 -2.59688 -1.46172 0
M  V30 605 H 55.2108 -1.28761 -0.711261 0
M  V30 606 H 57.1688 -1.74344 -3.79025 0
M  V30 607 H 55.7988 -0.817753 -3.1227 0
M  V30 608 H 54.8508 -3.07222 -2.24318 0
M  V30 609 H 56.1628 -3.89518 -3.11572 0
M  V30 610 H 55.3168 -2.97829 -5.28567 0
M  V30 611 H 54.0558 -2.05133 -4.42461 0
M  V30 612 H 53.0608 -4.1885 -3.56153 0
M  V30 613 H 54.2858 -5.12483 -4.45575 0
M  V30 614 H 52.2318 -3.25453 -5.69575 0
M  V30 615 H 52.1488 -4.98564 -5.68304 0
M  V30 616 H 53.4168 -4.1941 -6.57051 0
M  V30 617 N 57.6459 0.756429 -1.3826 0
M  V30 618 C 59.0619 1.0591 -1.19395 0
M  V30 619 C 59.2619 2.01459 -0.0406567 0
M  V30 620 O 58.3179 2.44909 0.614467 0
M  V30 621 C 59.6309 1.64191 -2.51916 0
M  V30 622 C 61.1789 1.76376 -2.58574 0
M  V30 623 C 61.6539 2.38069 -3.91264 0
M  V30 624 N 63.1449 2.45503 -3.92788 0
M  V30 625 C 63.8799 2.94126 -4.92217 0
M  V30 626 N 63.3759 3.42805 -6.02043 0
M  V30 627 N 65.1689 2.9314 -4.7961 0
M  V30 628 H 57.3199 0.122313 -2.12048 0
M  V30 629 H 59.5829 0.116892 -0.940766 0
M  V30 630 H 59.2889 1.01451 -3.3675 0
M  V30 631 H 59.1629 2.6329 -2.70108 0
M  V30 632 H 61.5499 2.38244 -1.74137 0
M  V30 633 H 61.6309 0.759894 -2.44252 0
M  V30 634 H 61.2749 1.76835 -4.76121 0
M  V30 635 H 61.2049 3.39091 -4.02895 0
M  V30 636 H 63.6959 2.1107 -3.13461 0
M  V30 637 H 64.0089 3.78354 -6.73846 0
M  V30 638 H 62.3539 3.4087 -6.05667 0
M  V30 639 H 65.5449 2.54419 -3.92923 0
M  V30 640 H 65.7179 3.30721 -5.5725 0
M  V30 641 N 59.124 1.23083 0.984299 0
M  V30 642 C 60.372 1.05848 1.72165 0
M  V30 643 C 60.693 -0.406049 1.90726 0
M  V30 644 O 59.963 -1.29139 1.47309 0
M  V30 645 H 58.543 0.388685 0.637913 0
M  V30 646 H 61.205 1.54736 1.18503 0
M  V30 647 H 60.301 1.54327 2.71274 0
M  V30 648 N 60.6021 -1.18246 1.0419 0
M  V30 649 C 61.5651 -2.20128 0.638452 0
M  V30 650 C 62.5651 -1.57885 -0.304805 0
M  V30 651 O 63.7551 -1.73967 -0.0900369 0
M  V30 652 C 60.8871 -3.4084 -0.0637751 0
M  V30 653 H 62.0801 -2.57336 1.54007 0
M  V30 654 H 59.6331 -1.32152 0.834598 0
M  V30 655 H 60.3681 -3.09166 -0.979136 0
M  V30 656 H 60.1531 -3.8726 0.614198 0
M  V30 657 H 61.6431 -4.16274 -0.332512 0
M  V30 658 N 62.0802 -0.821533 -1.34494 0
M  V30 659 C 63.0272 -0.240397 -2.29545 0
M  V30 660 C 63.9972 0.634031 -1.53523 0
M  V30 661 O 65.1822 0.575966 -1.81899 0
M  V30 662 C 62.3222 0.592869 -3.39969 0
M  V30 663 C 61.4352 -0.30365 -4.30932 0
M  V30 664 C 60.5702 0.539049 -5.28458 0
M  V30 665 C 59.6092 -0.356942 -6.11058 0
M  V30 666 N 58.7462 0.446603 -7.00678 0
M  V30 667 H 63.5862 -1.05632 -2.7865 0
M  V30 668 H 61.1232 -0.532413 -1.37127 0
M  V30 669 H 63.0812 1.09129 -4.02675 0
M  V30 670 H 61.7112 1.37392 -2.92102 0
M  V30 671 H 60.7632 -0.920276 -3.691 0
M  V30 672 H 62.0752 -0.992661 -4.88823 0
M  V30 673 H 61.2292 1.102 -5.96608 0
M  V30 674 H 59.9682 1.26157 -4.71101 0
M  V30 675 H 58.9732 -0.932047 -5.41842 0
M  V30 676 H 60.1982 -1.07755 -6.70497 0
M  V30 677 H 58.1442 1.15282 -6.45791 0
M  V30 678 H 58.0612 -0.184048 -7.55776 0
M  V30 679 H 59.3292 0.992352 -7.73158 0
M  V30 680 N 63.5583 1.46682 -0.576371 0
M  V30 681 C 64.5213 2.28707 0.150239 0
M  V30 682 C 65.5213 1.38035 0.824794 0
M  V30 683 O 66.7113 1.60476 0.677719 0
M  V30 684 C 63.8433 3.18248 1.22192 0
M  V30 685 H 65.0363 2.94423 -0.570521 0
M  V30 686 H 62.5893 1.52688 -0.334078 0
M  V30 687 H 63.3243 2.57265 1.97447 0
M  V30 688 H 63.1093 3.85 0.742812 0
M  V30 689 H 64.5993 3.80001 1.73172 0
M  V30 690 N 65.0364 0.313813 1.54444 0
M  V30 691 C 66.2854 -0.292519 1.99568 0
M  V30 692 C 66.5984 -1.54011 1.20582 0
M  V30 693 O 67.8044 -2.22183 1.56035 0
M  V30 694 C 66.2604 -0.571752 3.55329 0
M  V30 695 C 65.8684 0.658229 4.43138 0
M  V30 696 C 67.6124 -1.13857 4.08946 0
M  V30 697 C 65.5194 0.351439 5.90355 0
M  V30 698 H 64.4494 -0.113079 0.745472 0
M  V30 699 H 67.1004 0.424518 1.78522 0
M  V30 700 H 65.4824 -1.34872 3.72325 0
M  V30 701 H 66.6564 1.43403 4.37918 0
M  V30 702 H 64.9714 1.14458 4.0036 0
M  V30 703 H 67.5684 -1.38257 5.16516 0
M  V30 704 H 67.9114 -2.08489 3.6033 0
M  V30 705 H 68.4444 -0.423015 3.95544 0
M  V30 706 H 65.1834 1.26667 6.43145 0
M  V30 707 H 64.7034 -0.386842 5.98551 0
M  V30 708 H 66.3824 -0.0423134 6.46986 0
M  V30 709 N 66.5145 -1.57545 0.0417849 0
M  V30 710 C 67.4615 -2.10977 -0.935805 0
M  V30 711 C 68.4315 -1.01486 -1.31491 0
M  V30 712 O 69.6165 -1.2898 -1.40602 0
M  V30 713 C 66.7565 -2.65169 -2.2086 0
M  V30 714 C 65.8695 -3.88714 -1.88482 0
M  V30 715 C 65.0045 -4.31254 -3.1015 0
M  V30 716 C 64.0435 -5.47524 -2.7365 0
M  V30 717 N 63.1805 -5.85162 -3.87982 0
M  V30 718 H 68.0205 -2.94218 -0.473249 0
M  V30 719 H 65.5575 -1.45415 -0.221981 0
M  V30 720 H 67.5155 -2.94685 -2.95325 0
M  V30 721 H 66.1455 -1.8474 -2.64709 0
M  V30 722 H 65.1975 -3.65849 -1.04205 0
M  V30 723 H 66.5095 -4.73245 -1.57608 0
M  V30 724 H 65.6635 -4.62273 -3.92923 0
M  V30 725 H 64.4025 -3.45516 -3.44195 0
M  V30 726 H 63.4075 -5.16187 -1.89291 0
M  V30 727 H 64.6325 -6.34971 -2.40807 0
M  V30 728 H 62.5785 -5.02377 -4.21846 0
M  V30 729 H 62.4955 -6.64362 -3.60775 0
M  V30 730 H 63.7635 -6.20791 -4.71422 0
M  V30 731 N 67.9926 0.231505 -1.5589 0
M  V30 732 C 69.2696 0.981096 -1.69215 0
M  V30 733 C 69.6496 2.02799 -0.586164 0
M  V30 734 O 68.9976 2.24823 0.408253 0
M  V30 735 C 69.2076 1.60054 -3.10135 0
M  V30 736 C 70.5556 2.09658 -3.69227 0
M  V30 737 O 71.5796 1.69967 -3.13033 0
M  V30 738 O 70.4386 2.8258 -4.67772 0
M  V30 739 H 67.5326 0.457653 -0.688827 0
M  V30 740 H 70.0786 0.224073 -1.68214 0
M  V30 741 H 68.8506 0.844105 -3.82087 0
M  V30 742 H 68.4736 2.42336 -3.15212 0
M  V30 743 N 69.4707 1.49531 0.497807 0
M  V30 744 C 70.4337 1.65916 1.58128 0
M  V30 745 C 71.4337 0.530825 1.51786 0
M  V30 746 O 72.6237 0.797342 1.54881 0
M  V30 747 C 69.7557 1.65951 2.9778 0
M  V30 748 H 70.9487 2.62556 1.44929 0
M  V30 749 H 68.5017 1.38611 0.722275 0
M  V30 750 H 69.2367 0.709065 3.16453 0
M  V30 751 H 69.0217 2.47897 3.03792 0
M  V30 752 H 70.5117 1.80673 3.76493 0
M  V30 753 N 70.9488 -0.749086 1.3866 0
M  V30 754 C 71.8958 -1.86291 1.36251 0
M  V30 755 C 72.8658 -1.64578 0.224347 0
M  V30 756 O 74.0508 -1.86181 0.417279 0
M  V30 757 C 71.1908 -3.23644 1.19786 0
M  V30 758 C 70.3038 -3.57158 2.43027 0
M  V30 759 C 69.4388 -4.83838 2.19258 0
M  V30 760 C 68.4778 -5.10152 3.38247 0
M  V30 761 N 67.6148 -6.28029 3.13884 0
M  V30 762 H 72.4548 -1.87685 2.3147 0
M  V30 763 H 69.9918 -0.917287 1.14997 0
M  V30 764 H 71.9498 -4.0291 1.08254 0
M  V30 765 H 70.5798 -3.21566 0.282031 0
M  V30 766 H 69.6318 -2.72701 2.65214 0
M  V30 767 H 70.9438 -3.7253 3.31697 0
M  V30 768 H 70.0978 -5.71057 2.04888 0
M  V30 769 H 68.8368 -4.70614 1.2796 0
M  V30 770 H 67.8418 -4.21401 3.53131 0
M  V30 771 H 69.0668 -5.25271 4.30427 0
M  V30 772 H 67.0128 -6.1612 2.25238 0
M  V30 773 H 66.9298 -6.43922 3.96106 0
M  V30 774 H 68.1978 -7.18124 3.03179 0
M  V30 775 N 72.4269 -1.23603 -0.977757 0
M  V30 776 C 73.3599 -0.962772 -2.06896 0
M  V30 777 C 74.3379 0.0998743 -1.62293 0
M  V30 778 O 75.5219 -0.0349421 -1.88468 0
M  V30 779 C 72.6489 -0.45095 -3.35685 0
M  V30 780 C 71.6949 -1.50061 -3.99229 0
M  V30 781 S 72.5279 -3.07884 -4.38142 0
M  V30 782 C 73.6839 -2.58378 -5.7008 0
M  V30 783 H 73.9169 -1.88677 -2.29757 0
M  V30 784 H 71.4499 -1.06876 -1.11431 0
M  V30 785 H 73.4079 -0.162261 -4.10179 0
M  V30 786 H 72.0689 0.452179 -3.10828 0
M  V30 787 H 71.2619 -1.09269 -4.92013 0
M  V30 788 H 70.8639 -1.73878 -3.31123 0
M  V30 789 H 73.1559 -2.00563 -6.47133 0
M  V30 790 H 74.0989 -3.49711 -6.15717 0
M  V30 791 H 74.5069 -1.99143 -5.28207 0
M  V30 792 N 73.905 1.17692 -1.04816 0
M  V30 793 C 74.815 2.25229 -0.65643 0
M  V30 794 C 75.831 1.71018 0.320761 0
M  V30 795 O 77.007 2.00649 0.173805 0
M  V30 796 C 74.072 3.46684 -0.0332629 0
M  V30 797 C 73.133 4.15997 -1.06042 0
M  V30 798 C 72.366 5.31654 -0.466893 0
M  V30 799 O 72.589 5.65777 0.724758 0
M  V30 800 O 71.523 5.89831 -1.1993 0
M  V30 801 H 75.349 2.61016 -1.55255 0
M  V30 802 H 72.934 1.24919 -0.81949 0
M  V30 803 H 74.816 4.20234 0.313256 0
M  V30 804 H 73.491 3.12703 0.836566 0
M  V30 805 H 72.398 3.44482 -1.45886 0
M  V30 806 H 73.731 4.53996 -1.90127 0
M  V30 807 N 75.3831 0.828654 1.34056 0
M  V30 808 C 76.6301 0.419458 1.98108 0
M  V30 809 C 76.9581 -1.01886 1.65679 0
M  V30 810 O 76.2131 -1.72539 0.923512 0
M  V30 811 C 76.5121 0.575226 3.52741 0
M  V30 812 C 76.1781 1.98012 4.05095 0
M  V30 813 C 74.8401 2.36442 4.19104 0
M  V30 814 C 77.1921 2.89824 4.33188 0
M  V30 815 C 74.5201 3.66009 4.58535 0
M  V30 816 C 76.8721 4.1886 4.74066 0
M  V30 817 C 75.5361 4.5726 4.86281 0
M  V30 818 H 74.8061 0.153491 0.724929 0
M  V30 819 H 77.4531 1.05371 1.59904 0
M  V30 820 H 75.7581 -0.142385 3.91541 0
M  V30 821 H 77.4551 0.239057 4.00287 0
M  V30 822 H 74.0451 1.67162 3.94658 0
M  V30 823 H 78.2291 2.61375 4.21897 0
M  V30 824 H 73.4851 3.95579 4.66184 0
M  V30 825 H 77.6591 4.90086 4.94761 0
M  V30 826 H 75.2861 5.57707 5.16592 0
M  V30 827 N 76.8612 -1.46375 0.584142 0
M  V30 828 C 78.1382 -1.956 0.0033388 0
M  V30 829 C 78.5182 -1.52679 -1.45782 0
M  V30 830 O 77.8662 -0.77816 -2.14842 0
M  V30 831 C 78.0762 -3.48551 0.176891 0
M  V30 832 C 79.4242 -4.24576 0.0454609 0
M  V30 833 O 80.4482 -3.56043 0.105801 0
M  V30 834 O 79.3072 -5.46427 -0.0890376 0
M  V30 835 H 76.4012 -0.825547 -0.0490066 0
M  V30 836 H 78.9472 -1.56652 0.65256 0
M  V30 837 H 77.7192 -3.72683 1.1926 0
M  V30 838 H 77.3422 -3.94332 -0.508695 0
M  V30 839 N 78.3393 -0.321999 -1.54275 0
M  V30 840 C 79.5883 0.281931 -1.9972 0
M  V30 841 C 79.9013 1.53369 -1.21397 0
M  V30 842 O 81.1073 2.21352 -1.57211 0
M  V30 843 C 79.5633 0.5529 -3.55628 0
M  V30 844 C 79.1713 -0.681721 -4.42783 0
M  V30 845 C 80.9153 1.11687 -4.09544 0
M  V30 846 C 78.8223 -0.382742 -5.9016 0
M  V30 847 H 77.7523 0.109124 -0.746062 0
M  V30 848 H 80.4033 -0.43398 -1.78294 0
M  V30 849 H 78.7853 1.32896 -3.73035 0
M  V30 850 H 79.9593 -1.45723 -4.37151 0
M  V30 851 H 78.2743 -1.1658 -3.99748 0
M  V30 852 H 80.8713 1.35515 -5.17242 0
M  V30 853 H 81.2143 2.06575 -3.61431 0
M  V30 854 H 81.7473 0.402032 -3.95763 0
M  V30 855 H 78.4863 -1.30076 -6.42464 0
M  V30 856 H 78.0063 0.355094 -5.98748 0
M  V30 857 H 79.6853 0.00800157 -6.47 0
M  V30 858 N 79.8174 1.5752 -0.0501392 0
M  V30 859 C 81.0574 1.94521 0.627783 0
M  V30 860 C 81.4214 0.928265 1.68069 0
M  V30 861 O 82.6224 1.18517 2.41261 0
M  V30 862 C 80.8934 3.36319 1.20932 0
M  V30 863 S 82.4524 3.95272 1.90539 0
M  V30 864 H 79.2704 0.680456 0.206158 0
M  V30 865 H 81.8724 1.95139 -0.118829 0
M  V30 866 H 80.5764 4.08132 0.430865 0
M  V30 867 H 80.1074 3.39193 1.99277 0
M  V30 868 H 82.1224 3.80415 3.18589 0
M  V30 869 N 81.2955 -0.223234 1.56011 0
M  V30 870 C 82.5255 -0.963413 1.82762 0
M  V30 871 C 82.9335 -1.78516 0.626804 0
M  V30 872 O 82.2765 -1.78974 -0.414014 0
M  V30 873 C 82.3385 -1.93126 3.0322 0
M  V30 874 C 82.0025 -1.2942 4.38291 0
M  V30 875 C 82.9995 -0.684916 5.15369 0
M  V30 876 C 80.6845 -1.30647 4.85012 0
M  V30 877 C 82.6785 -0.0963971 6.37327 0
M  V30 878 C 80.3655 -0.71411 6.06913 0
M  V30 879 C 81.3635 -0.110123 6.82911 0
M  V30 880 O 81.0515 0.47303 8.02507 0
M  V30 881 H 80.7835 -0.288011 0.611576 0
M  V30 882 H 83.3375 -0.244103 2.03944 0
M  V30 883 H 81.5675 -2.68952 2.77852 0
M  V30 884 H 83.2565 -2.53685 3.16857 0
M  V30 885 H 84.0225 -0.667774 4.80381 0
M  V30 886 H 79.9015 -1.76598 4.25833 0
M  V30 887 H 83.4455 0.375657 6.96588 0
M  V30 888 H 79.3425 -0.728659 6.41374 0
M  V30 889 H 80.1105 0.367186 8.17676 0
M  V30 890 N 82.7736 -1.49793 -0.48987 0
M  V30 891 C 84.0016 -1.63568 -1.26701 0
M  V30 892 C 84.4166 -0.311465 -1.86213 0
M  V30 893 O 83.7736 0.704416 -1.68357 0
M  V30 894 C 83.8246 -2.71284 -2.38929 0
M  V30 895 O 83.5456 -3.9857 -1.81861 0
M  V30 896 C 85.0466 -2.95864 -3.3012 0
M  V30 897 H 82.2666 -0.550342 -0.383881 0
M  V30 898 H 84.8106 -1.95898 -0.586864 0
M  V30 899 H 82.9656 -2.417 -3.02753 0
M  V30 900 H 83.3796 -4.57993 -2.55622 0
M  V30 901 H 84.8536 -3.74941 -4.05121 0
M  V30 902 H 85.3306 -2.06206 -3.87783 0
M  V30 903 H 85.9366 -3.26907 -2.72051 0
M  V30 904 N 84.2517 0.741722 -1.39055 0
M  V30 905 C 85.4767 1.53607 -1.39354 0
M  V30 906 C 85.9017 1.88096 0.0116905 0
M  V30 907 O 85.2597 1.5143 0.996924 0
M  V30 908 C 85.3077 2.80441 -2.26682 0
M  V30 909 O 84.4117 3.76088 -1.69208 0
M  V30 910 H 83.7527 0.464142 -0.474835 0
M  V30 911 H 86.2827 0.915665 -1.82967 0
M  V30 912 H 86.2927 3.29246 -2.40959 0
M  V30 913 H 84.9677 2.5467 -3.2881 0
M  V30 914 H 83.5447 3.34833 -1.64138 0
M  V30 915 N 85.7298 1.2412 0.971189 0
M  V30 916 C 86.9758 1.08041 1.71625 0
M  V30 917 C 87.3088 -0.380407 1.90438 0
M  V30 918 O 86.5838 -1.28127 1.46334 0
M  V30 919 C 86.8668 1.81682 3.10908 0
M  V30 920 C 86.7198 3.35493 2.99608 0
M  V30 921 C 88.0388 1.58671 4.10501 0
M  V30 922 H 85.1578 0.39388 0.622919 0
M  V30 923 H 87.7998 1.52743 1.13003 0
M  V30 924 H 85.9498 1.43684 3.60953 0
M  V30 925 H 87.6218 3.83068 2.57015 0
M  V30 926 H 85.8648 3.64052 2.35899 0
M  V30 927 H 86.5358 3.82217 3.98264 0
M  V30 928 H 89.0118 1.91719 3.69301 0
M  V30 929 H 87.8878 2.1266 5.06031 0
M  V30 930 H 88.1488 0.524161 4.38982 0
M  V30 931 N 87.2079 -1.17134 1.05439 0
M  V30 932 C 88.1379 -2.2342 0.678649 0
M  V30 933 C 89.1189 -1.66971 -0.32476 0
M  V30 934 O 90.3039 -1.93149 -0.201802 0
M  V30 935 C 87.4339 -3.47256 0.0552099 0
M  V30 936 C 86.3879 -4.16543 0.98365 0
M  V30 937 C 85.7139 -5.34231 0.223961 0
M  V30 938 C 87.0139 -4.68495 2.3089 0
M  V30 939 H 88.7079 -2.55105 1.56722 0
M  V30 940 H 86.2539 -1.2262 0.754998 0
M  V30 941 H 88.2069 -4.20828 -0.21946 0
M  V30 942 H 86.9309 -3.14846 -0.868319 0
M  V30 943 H 85.5899 -3.44887 1.24293 0
M  V30 944 H 85.2379 -4.98071 -0.702412 0
M  V30 945 H 84.9379 -5.81527 0.842627 0
M  V30 946 H 86.4619 -6.10585 -0.0433671 0
M  V30 947 H 87.8759 -5.33691 2.09396 0
M  V30 948 H 86.2729 -5.26379 2.88176 0
M  V30 949 H 87.3429 -3.85169 2.94572 0
M  V30 950 N 88.686 -0.835752 -1.33615 0
M  V30 951 C 89.633 -0.26473 -2.29277 0
M  V30 952 C 90.603 0.617712 -1.54187 0
M  V30 953 O 91.788 0.556641 -1.825 0
M  V30 954 C 88.928 0.556777 -3.40579 0
M  V30 955 C 88.041 -0.349339 -4.30585 0
M  V30 956 C 87.176 0.482969 -5.29 0
M  V30 957 C 86.215 -0.421732 -6.10645 0
M  V30 958 N 85.352 0.372262 -7.01112 0
M  V30 959 H 90.192 -1.08582 -2.77514 0
M  V30 960 H 87.729 -0.546927 -1.36554 0
M  V30 961 H 89.687 1.04852 -4.03809 0
M  V30 962 H 88.317 1.34286 -2.93542 0
M  V30 963 H 87.369 -0.959372 -3.68104 0
M  V30 964 H 88.681 -1.04445 -4.87742 0
M  V30 965 H 87.835 1.03866 -5.97743 0
M  V30 966 H 86.574 1.21153 -4.72412 0
M  V30 967 H 85.579 -0.989464 -5.40823 0
M  V30 968 H 86.804 -1.14861 -6.69316 0
M  V30 969 H 84.75 1.08426 -6.46977 0
M  V30 970 H 84.667 -0.264198 -7.55538 0
M  V30 971 H 85.935 0.910293 -7.74167 0
M  V30 972 N 90.1641 1.46063 -0.591896 0
M  V30 973 C 91.5801 1.57561 -0.254288 0
M  V30 974 C 91.7801 1.58565 1.24336 0
M  V30 975 O 90.8361 1.50753 2.02558 0
M  V30 976 C 92.1491 2.86549 -0.911611 0
M  V30 977 C 93.6971 3.00197 -0.886059 0
M  V30 978 C 94.1721 4.31933 -1.5231 0
M  V30 979 N 95.6631 4.38654 -1.48786 0
M  V30 980 C 96.3981 5.39222 -1.95006 0
M  V30 981 N 95.8941 6.46414 -2.49241 0
M  V30 982 N 97.6871 5.3048 -1.85868 0
M  V30 983 H 89.8381 1.43655 -1.56451 0
M  V30 984 H 92.1011 0.68583 -0.654478 0
M  V30 985 H 91.8071 2.91651 -1.96551 0
M  V30 986 H 91.6811 3.74794 -0.425368 0
M  V30 987 H 94.0681 2.9467 0.159246 0
M  V30 988 H 94.1491 2.13403 -1.41041 0
M  V30 989 H 93.7931 4.38217 -2.56765 0
M  V30 990 H 93.7231 5.17516 -0.973891 0
M  V30 991 H 96.2141 3.61793 -1.09151 0
M  V30 992 H 96.5271 7.19376 -2.82344 0
M  V30 993 H 94.8721 6.47208 -2.53272 0
M  V30 994 H 98.0631 4.45643 -1.43248 0
M  V30 995 H 98.2361 6.08711 -2.22204 0
M  V30 996 N 91.6422 0.330177 1.54103 0
M  V30 997 C 92.6052 -0.520144 2.2322 0
M  V30 998 C 93.6052 -1.03828 1.22786 0
M  V30 999 O 94.7952 -0.929652 1.4732 0
M  V30 1000 C 91.9272 -1.72317 2.94142 0
M  V30 1001 H 93.1202 0.0841605 2.99782 0
M  V30 1002 H 90.6732 0.0813433 1.56088 0
M  V30 1003 H 91.4082 -2.36653 2.21734 0
M  V30 1004 H 91.1932 -1.35898 3.67796 0
M  V30 1005 H 92.6832 -2.3266 3.46784 0
M  V30 1006 N 93.1203 -1.57491 0.0584922 0
M  V30 1007 C 94.3693 -1.92155 -0.613146 0
M  V30 1008 C 94.6823 -0.939334 -1.71569 0
M  V30 1009 O 95.8883 -1.17829 -2.44599 0
M  V30 1010 C 94.3443 -3.41303 -1.14195 0
M  V30 1011 C 93.9523 -4.47944 -0.0711265 0
M  V30 1012 C 95.6963 -3.84988 -1.78841 0
M  V30 1013 C 93.6033 -5.88212 -0.613225 0
M  V30 1014 H 92.5333 -0.717162 -0.232796 0
M  V30 1015 H 95.1843 -1.83049 0.12857 0
M  V30 1016 H 93.5663 -3.45437 -1.93621 0
M  V30 1017 H 94.7403 -4.55408 0.702836 0
M  V30 1018 H 93.0553 -4.13644 0.478313 0
M  V30 1019 H 95.6523 -4.87159 -2.20408 0
M  V30 1020 H 95.9953 -3.21632 -2.64308 0
M  V30 1021 H 96.5283 -3.83401 -1.06059 0
M  V30 1022 H 93.2673 -6.55183 0.203978 0
M  V30 1023 H 92.7873 -5.84294 -1.35501 0
M  V30 1024 H 94.4663 -6.37687 -1.09383 0
M  V30 1025 N 94.5984 0.214957 -1.56127 0
M  V30 1026 C 96.0144 0.564948 -1.49267 0
M  V30 1027 C 96.2144 1.86827 -0.754838 0
M  V30 1028 O 95.2704 2.50745 -0.297198 0
M  V30 1029 C 96.5834 0.638071 -2.93852 0
M  V30 1030 C 98.1314 0.728253 -3.0441 0
M  V30 1031 C 98.6064 0.832663 -4.50367 0
M  V30 1032 N 100.097 0.896712 -4.54437 0
M  V30 1033 C 100.832 0.997324 -5.6466 0
M  V30 1034 N 100.328 1.06147 -6.8462 0
M  V30 1035 N 102.121 1.03297 -5.52527 0
M  V30 1036 H 94.2724 -0.640211 -2.02522 0
M  V30 1037 H 96.5354 -0.225507 -0.920788 0
M  V30 1038 H 96.2414 -0.250126 -3.50809 0
M  V30 1039 H 96.1154 1.49947 -3.46115 0
M  V30 1040 H 98.5024 1.60689 -2.47514 0
M  V30 1041 H 98.5834 -0.158952 -2.55306 0
M  V30 1042 H 98.2274 -0.0415417 -5.07883 0
M  V30 1043 H 98.1574 1.73538 -4.97184 0
M  V30 1044 H 100.648 0.857188 -3.6805 0
M  V30 1045 H 100.961 1.1382 -7.64372 0
M  V30 1046 H 99.3064 1.03049 -6.87318 0
M  V30 1047 H 102.497 0.979558 -4.57736 0
M  V30 1048 H 102.67 1.10793 -6.38458 0
M  V30 1049 N 96.0765 1.50051 0.48192 0
M  V30 1050 C 97.3045 1.64237 1.25832 0
M  V30 1051 C 97.7195 0.321336 1.86045 0
M  V30 1052 O 97.0765 -0.695478 1.68729 0
M  V30 1053 C 97.1275 2.72548 2.37487 0
M  V30 1054 O 96.8485 3.99529 1.79745 0
M  V30 1055 C 98.3495 2.9761 3.28547 0
M  V30 1056 H 95.5695 0.55237 0.380957 0
M  V30 1057 H 98.1135 1.96207 0.576467 0
M  V30 1058 H 96.2685 2.43303 3.01467 0
M  V30 1059 H 96.6825 4.59342 2.5319 0
M  V30 1060 H 98.1565 3.77084 4.03127 0
M  V30 1061 H 98.6335 2.0826 3.86684 0
M  V30 1062 H 99.2395 3.28345 2.70314 0
M  V30 1063 N 97.5546 -0.734337 1.39446 0
M  V30 1064 C 98.4846 -1.86155 1.40955 0
M  V30 1065 C 99.4656 -1.67898 0.272827 0
M  V30 1066 O 100.651 -1.88207 0.478743 0
M  V30 1067 C 97.7806 -3.23912 1.25294 0
M  V30 1068 C 96.7346 -3.56808 2.36373 0
M  V30 1069 C 96.0606 -4.93508 2.058 0
M  V30 1070 C 97.3606 -3.59713 3.78687 0
M  V30 1071 H 99.0546 -1.8515 2.35287 0
M  V30 1072 H 96.6006 -0.889367 1.13253 0
M  V30 1073 H 98.5536 -4.02443 1.2497 0
M  V30 1074 H 97.2776 -3.25446 0.274308 0
M  V30 1075 H 95.9366 -2.80606 2.35914 0
M  V30 1076 H 95.5846 -4.91623 1.06374 0
M  V30 1077 H 95.2846 -5.16486 2.80208 0
M  V30 1078 H 96.8086 -5.74396 2.07128 0
M  V30 1079 H 98.2226 -4.2832 3.81071 0
M  V30 1080 H 96.6196 -3.94209 4.52459 0
M  V30 1081 H 97.6896 -2.59504 4.09617 0
M  V30 1082 N 99.0327 -1.24633 -0.964593 0
M  V30 1083 C 100.279 -1.09957 -1.71117 0
M  V30 1084 C 100.634 0.357422 -1.89051 0
M  V30 1085 O 99.9267 1.26029 -1.44317 0
M  V30 1086 C 100.121 -1.7763 -3.10133 0
M  V30 1087 C 99.9497 -3.29759 -3.05759 0
M  V30 1088 C 98.7197 -3.98981 -3.10068 0
M  V30 1089 C 100.918 -4.26305 -2.87695 0
M  V30 1090 N 98.8997 -5.37966 -2.95747 0
M  V30 1091 C 100.271 -5.52308 -2.81702 0
M  V30 1092 C 102.326 -4.16842 -2.72299 0
M  V30 1093 C 101.029 -6.69931 -2.61887 0
M  V30 1094 C 103.055 -5.34147 -2.53853 0
M  V30 1095 C 102.417 -6.59084 -2.48572 0
M  V30 1096 H 98.5157 -0.457003 -0.634564 0
M  V30 1097 H 101.1 -1.57592 -1.14337 0
M  V30 1098 H 99.2707 -1.32504 -3.65099 0
M  V30 1099 H 101.003 -1.55786 -3.73514 0
M  V30 1100 H 97.7577 -3.50169 -3.18871 0
M  V30 1101 H 98.1817 -6.10877 -2.91818 0
M  V30 1102 H 102.824 -3.21007 -2.75163 0
M  V30 1103 H 100.542 -7.65886 -2.57767 0
M  V30 1104 H 104.128 -5.28678 -2.4288 0
M  V30 1105 H 103.008 -7.48324 -2.34481 0
M  V30 1106 N 100.511 1.16574 -1.06058 0
M  V30 1107 C 101.474 2.19085 -0.673392 0
M  V30 1108 C 102.474 1.5835 0.279648 0
M  V30 1109 O 103.664 1.74088 0.0623488 0
M  V30 1110 C 100.796 3.40899 0.00954234 0
M  V30 1111 H 101.989 2.54853 -1.58081 0
M  V30 1112 H 99.5418 1.30808 -0.855516 0
M  V30 1113 H 100.277 3.10684 0.929826 0
M  V30 1114 H 100.062 3.86233 -0.67573 0
M  V30 1115 H 101.552 4.1675 0.266245 0
M  V30 1116 N 101.989 0.842826 1.3317 0
M  V30 1117 C 103.238 0.436738 1.96915 0
M  V30 1118 C 103.551 -1.01025 1.67491 0
M  V30 1119 O 104.757 -1.5212 2.24881 0
M  V30 1120 C 103.213 0.730021 3.52418 0
M  V30 1121 C 102.821 2.19195 3.90714 0
M  V30 1122 C 104.565 0.391076 4.22695 0
M  V30 1123 C 102.472 2.42907 5.39212 0
M  V30 1124 H 101.402 0.15958 0.736919 0
M  V30 1125 H 104.053 1.03196 1.51733 0
M  V30 1126 H 102.435 0.0643755 3.95948 0
M  V30 1127 H 103.609 2.8984 3.58231 0
M  V30 1128 H 101.924 2.49425 3.33431 0
M  V30 1129 H 104.521 0.545817 5.31907 0
M  V30 1130 H 104.864 -0.666294 4.10933 0
M  V30 1131 H 105.397 1.01212 3.84709 0
M  V30 1132 H 102.136 3.47224 5.55982 0
M  V30 1133 H 101.656 1.76827 5.73142 0
M  V30 1134 H 103.335 2.2626 6.06148 0
M  V30 1135 N 103.467 -1.45747 0.599634 0
M  V30 1136 C 104.397 -2.33235 -0.111306 0
M  V30 1137 C 105.378 -1.46359 -0.866781 0
M  V30 1138 O 106.563 -1.75146 -0.838904 0
M  V30 1139 C 103.693 -3.28932 -1.11451 0
M  V30 1140 C 102.647 -4.25381 -0.472772 0
M  V30 1141 C 101.973 -5.1071 -1.58365 0
M  V30 1142 C 103.273 -5.18831 0.600948 0
M  V30 1143 H 104.967 -2.92927 0.61919 0
M  V30 1144 H 102.513 -1.40857 0.299215 0
M  V30 1145 H 104.466 -3.89002 -1.62036 0
M  V30 1146 H 103.19 -2.67381 -1.8755 0
M  V30 1147 H 101.849 -3.66598 0.0121472 0
M  V30 1148 H 101.497 -4.45533 -2.33473 0
M  V30 1149 H 101.197 -5.7604 -1.15982 0
M  V30 1150 H 102.721 -5.73647 -2.09194 0
M  V30 1151 H 104.135 -5.73019 0.179491 0
M  V30 1152 H 102.532 -5.92595 0.946076 0
M  V30 1153 H 103.602 -4.6174 1.48068 0
M  V30 1154 N 104.945 -0.338344 -1.53925 0
M  V30 1155 C 106.222 0.314774 -1.93051 0
M  V30 1156 C 106.602 1.68669 -1.26941 0
M  V30 1157 O 105.95 2.24636 -0.418445 0
M  V30 1158 C 106.16 0.392249 -3.46789 0
M  V30 1159 C 107.508 0.645554 -4.19664 0
M  V30 1160 O 108.532 0.474575 -3.53024 0
M  V30 1161 O 107.391 0.976408 -5.37707 0
M  V30 1162 H 104.485 0.182598 -0.80659 0
M  V30 1163 H 107.031 -0.389141 -1.65178 0
M  V30 1164 H 105.803 -0.570702 -3.87116 0
M  V30 1165 H 105.426 1.14316 -3.80812 0
M  V30 1166 N 106.423 1.57458 -0.0668435 0
M  V30 1167 C 107.671 1.92919 0.602214 0
M  V30 1168 C 107.992 0.947215 1.70449 0
M  V30 1169 O 107.262 -0.00544117 1.95899 0
M  V30 1170 H 105.842 0.71217 0.22544 0
M  V30 1171 H 108.504 1.94508 -0.123535 0
M  V30 1172 H 107.6 2.94589 1.03073 0
M  V30 1173 N 107.901 -0.206675 1.56239 0
M  V30 1174 C 109.129 -0.945345 1.8404 0
M  V30 1175 C 109.544 -1.77336 0.647885 0
M  V30 1176 O 108.901 -1.78425 -0.383511 0
M  V30 1177 C 108.952 -1.8509 3.10522 0
M  V30 1178 O 108.673 -1.05634 4.25174 0
M  V30 1179 C 110.174 -2.70222 3.51418 0
M  V30 1180 H 107.394 -0.276372 0.61144 0
M  V30 1181 H 109.938 -0.217417 2.03341 0
M  V30 1182 H 108.093 -2.53259 2.93153 0
M  V30 1183 H 108.507 -1.67238 4.97124 0
M  V30 1184 H 109.981 -3.29438 4.42916 0
M  V30 1185 H 110.458 -3.43358 2.73864 0
M  V30 1186 H 111.064 -2.07443 3.71278 0
M  V30 1187 N 109.379 -1.50304 -0.473955 0
M  V30 1188 C 110.656 -1.51667 -1.23518 0
M  V30 1189 C 111.036 -0.259701 -2.09496 0
M  V30 1190 O 110.384 0.756986 -2.15597 0
M  V30 1191 C 110.594 -2.81082 -2.06868 0
M  V30 1192 C 111.942 -3.31631 -2.65153 0
M  V30 1193 O 112.966 -2.82384 -2.17113 0
M  V30 1194 O 111.825 -4.17471 -3.52675 0
M  V30 1195 H 108.919 -0.60822 -0.560355 0
M  V30 1196 H 111.465 -1.62592 -0.486011 0
M  V30 1197 H 110.237 -3.64041 -1.4349 0
M  V30 1198 H 109.86 -2.73146 -2.88924 0
M  V30 1199 N 110.857 0.726932 -1.39834 0
M  V30 1200 C 111.789 1.85147 -1.35104 0
M  V30 1201 C 112.802 1.60736 -0.258392 0
M  V30 1202 O 113.991 1.70821 -0.517931 0
M  V30 1203 C 111.091 3.21332 -1.07697 0
M  V30 1204 C 110.264 3.73033 -2.28396 0
M  V30 1205 C 109.323 4.87802 -1.97322 0
M  V30 1206 O 108.349 5.01043 -2.70083 0
M  V30 1207 N 109.551 5.72768 -0.944273 0
M  V30 1208 H 112.316 1.89706 -2.32017 0
M  V30 1209 H 109.877 0.908006 -1.3404 0
M  V30 1210 H 111.869 3.95691 -0.849144 0
M  V30 1211 H 110.439 3.11992 -0.194909 0
M  V30 1212 H 109.659 2.89934 -2.6708 0
M  V30 1213 H 110.947 4.0431 -3.08887 0
M  V30 1214 H 110.345 5.64669 -0.341427 0
M  V30 1215 H 108.902 6.4716 -0.776346 0
M  V30 1216 N 112.336 1.25143 0.95797 0
M  V30 1217 C 113.269 0.995565 2.05338 0
M  V30 1218 C 114.247 -0.0740423 1.62431 0
M  V30 1219 O 115.431 0.0649212 1.88388 0
M  V30 1220 C 112.558 0.504298 3.34925 0
M  V30 1221 C 111.604 1.56393 3.96792 0
M  V30 1222 S 112.437 3.14815 4.33188 0
M  V30 1223 C 113.593 2.67415 5.65898 0
M  V30 1224 H 113.826 1.92309 2.26726 0
M  V30 1225 H 111.359 1.08635 1.09716 0
M  V30 1226 H 113.317 0.227497 4.09869 0
M  V30 1227 H 111.978 -0.402671 3.11508 0
M  V30 1228 H 111.171 1.17082 4.90212 0
M  V30 1229 H 110.773 1.79124 3.28315 0
M  V30 1230 H 113.065 2.10833 6.4386 0
M  V30 1231 H 114.008 3.59463 6.10076 0
M  V30 1232 H 114.416 2.07521 5.24972 0
M  V30 1233 N 113.814 -1.1601 1.06675 0
M  V30 1234 C 115.06 -1.87145 0.796766 0
M  V30 1235 C 115.415 -1.8037 -0.669658 0
M  V30 1236 O 114.708 -1.21116 -1.48463 0
M  V30 1237 C 114.902 -3.35547 1.23057 0
M  V30 1238 C 114.731 -3.56769 2.73762 0
M  V30 1239 C 113.501 -3.72635 3.41279 0
M  V30 1240 C 115.699 -3.55166 3.7197 0
M  V30 1241 N 113.681 -3.81845 4.80695 0
M  V30 1242 C 115.052 -3.70406 4.97191 0
M  V30 1243 C 117.107 -3.384 3.65226 0
M  V30 1244 C 115.81 -3.70615 6.16471 0
M  V30 1245 C 117.836 -3.39904 4.83962 0
M  V30 1246 C 117.198 -3.55667 6.08013 0
M  V30 1247 H 113.297 -0.702267 0.344014 0
M  V30 1248 H 115.881 -1.39165 1.36166 0
M  V30 1249 H 114.052 -3.82159 0.693456 0
M  V30 1250 H 115.784 -3.94363 0.908844 0
M  V30 1251 H 112.539 -3.73121 2.91681 0
M  V30 1252 H 112.963 -3.90209 5.53232 0
M  V30 1253 H 117.605 -3.25138 2.70269 0
M  V30 1254 H 115.323 -3.82658 7.11757 0
M  V30 1255 H 118.909 -3.28169 4.80413 0
M  V30 1256 H 117.789 -3.56755 6.98352 0
M  V30 1257 N 115.292 -0.849877 -1.32721 0
M  V30 1258 C 116.222 -0.306308 -2.31482 0
M  V30 1259 C 117.203 0.591952 -1.59468 0
M  V30 1260 O 118.388 0.513199 -1.87296 0
M  V30 1261 C 115.518 0.510204 -3.43532 0
M  V30 1262 C 114.472 -0.293209 -4.26994 0
M  V30 1263 C 113.798 0.647743 -5.30762 0
M  V30 1264 C 115.098 -1.51634 -4.99804 0
M  V30 1265 H 116.792 -1.13153 -2.77195 0
M  V30 1266 H 114.338 -0.545553 -1.33266 0
M  V30 1267 H 116.291 0.900856 -4.11658 0
M  V30 1268 H 115.015 1.36874 -2.96535 0
M  V30 1269 H 113.674 -0.665555 -3.60508 0
M  V30 1270 H 113.322 1.50299 -4.8002 0
M  V30 1271 H 113.022 0.11422 -5.87489 0
M  V30 1272 H 114.546 1.03567 -6.01753 0
M  V30 1273 H 115.96 -1.19824 -5.60638 0
M  V30 1274 H 114.357 -1.98745 -5.66234 0
M  V30 1275 H 115.427 -2.28018 -4.27943 0
M  V30 1276 N 116.77 1.45427 -0.607355 0
M  V30 1277 C 118.181 1.85756 -0.187535 0
M  V30 1278 C 118.532 1.5077 1.25551 0
M  V30 1279 O 117.657 0.93427 1.95193 0
M  V30 1280 C 118.252 3.37154 -0.333572 0
M  V30 1281 C 116.811 3.76387 0.0315542 0
M  V30 1282 C 115.958 2.69377 -0.658117 0
M  V30 1283 H 118.909 1.36231 -0.81405 0
M  V30 1284 H 118.93 3.78014 0.43428 0
M  V30 1285 H 118.442 3.62586 -1.38393 0
M  V30 1286 H 116.543 3.56571 1.0811 0
M  V30 1287 H 116.656 4.77731 -0.361935 0
M  V30 1288 H 115.02 2.5452 -0.0957873 0
M  V30 1289 H 115.803 2.97646 -1.7106 0
M  V30 1290 N 118.248 0.346503 1.53744 0
M  V30 1291 C 119.494 -0.249473 2.0126 0
M  V30 1292 C 119.827 -1.49965 1.23386 0
M  V30 1293 O 119.102 -1.91811 0.32229 0
M  V30 1294 C 119.385 -0.560643 3.55709 0
M  V30 1295 C 119.238 0.701836 4.44291 0
M  V30 1296 C 120.557 -1.36905 4.18264 0
M  V30 1297 H 117.676 -0.0891987 0.731582 0
M  V30 1298 H 120.318 0.467624 1.84156 0
M  V30 1299 H 118.468 -1.17156 3.70414 0
M  V30 1300 H 120.14 1.33974 4.41417 0
M  V30 1301 H 118.383 1.32612 4.13033 0
M  V30 1302 H 119.054 0.43933 5.50249 0
M  V30 1303 H 121.53 -0.852448 4.07275 0
M  V30 1304 H 120.406 -1.55553 5.26398 0
M  V30 1305 H 120.667 -2.37203 3.73078 0
M  V30 1306 N 119.726 -1.57421 0.075193 0
M  V30 1307 C 120.972 -1.93905 -0.594025 0
M  V30 1308 C 121.305 -0.955701 -1.69056 0
M  V30 1309 O 120.58 0.0145373 -1.94495 0
M  V30 1310 C 120.863 -3.40638 -1.1678 0
M  V30 1311 C 120.716 -4.49733 -0.0776792 0
M  V30 1312 C 122.035 -3.88259 -2.07228 0
M  V30 1313 H 119.154 -0.705105 -0.214466 0
M  V30 1314 H 121.796 -1.8947 0.141854 0
M  V30 1315 H 119.946 -3.44549 -1.79494 0
M  V30 1316 H 121.618 -4.57942 0.555573 0
M  V30 1317 H 119.861 -4.29751 0.591286 0
M  V30 1318 H 120.532 -5.49549 -0.519603 0
M  V30 1319 H 123.008 -3.86376 -1.54445 0
M  V30 1320 H 121.884 -4.91533 -2.44308 0
M  V30 1321 H 122.145 -3.26396 -2.98191 0
M  V30 1322 N 121.204 0.198386 -1.56346 0
M  V30 1323 C 122.62 0.549085 -1.49857 0
M  V30 1324 C 122.82 1.86016 -0.774611 0
M  V30 1325 O 121.876 2.50416 -0.323776 0
M  V30 1326 C 123.189 0.606868 -2.94512 0
M  V30 1327 C 124.737 0.695925 -3.05165 0
M  V30 1328 C 125.212 0.784848 -4.51225 0
M  V30 1329 N 126.703 0.848463 -4.55363 0
M  V30 1330 C 127.438 0.937378 -5.65686 0
M  V30 1331 N 126.934 0.9888 -6.85707 0
M  V30 1332 N 128.727 0.974312 -5.53592 0
M  V30 1333 H 120.878 -0.661655 -2.01831 0
M  V30 1334 H 123.141 -0.235261 -0.918344 0
M  V30 1335 H 122.847 -0.28732 -3.50524 0
M  V30 1336 H 122.721 1.46268 -3.47686 0
M  V30 1337 H 125.108 1.58055 -2.49204 0
M  V30 1338 H 125.189 -0.186022 -2.55123 0
M  V30 1339 H 124.833 -0.0954072 -5.0781 0
M  V30 1340 H 124.763 1.68255 -4.98997 0
M  V30 1341 H 127.254 0.818103 -3.68938 0
M  V30 1342 H 127.567 1.05707 -7.65536 0
M  V30 1343 H 125.912 0.957534 -6.88372 0
M  V30 1344 H 129.103 0.930954 -4.58749 0
M  V30 1345 H 129.276 1.04015 -6.39597 0
M  V30 1346 N 122.682 1.50554 0.465978 0
M  V30 1347 C 123.91 1.65563 1.24083 0
M  V30 1348 C 124.325 0.341051 1.85694 0
M  V30 1349 O 123.682 -0.677543 1.69457 0
M  V30 1350 C 123.733 2.75051 2.34583 0
M  V30 1351 O 123.454 4.01413 1.75497 0
M  V30 1352 C 124.955 3.01078 3.25372 0
M  V30 1353 H 122.175 0.55638 0.375077 0
M  V30 1354 H 124.719 1.96807 0.555624 0
M  V30 1355 H 122.874 2.46486 2.9887 0
M  V30 1356 H 123.288 4.62002 2.48303 0
M  V30 1357 H 124.762 3.81339 3.99105 0
M  V30 1358 H 125.239 2.12349 3.84453 0
M  V30 1359 H 125.845 3.31194 2.66816 0
M  V30 1360 N 124.16 -0.719506 1.40217 0
M  V30 1361 C 125.406 -1.48034 1.39491 0
M  V30 1362 C 125.761 -1.92399 -0.00443536 0
M  V30 1363 O 125.054 -1.64993 -0.974061 0
M  V30 1364 C 125.248 -2.72271 2.31524 0
M  V30 1365 C 125.077 -2.40055 3.80268 0
M  V30 1366 C 123.847 -2.31588 4.49105 0
M  V30 1367 C 126.045 -2.04581 4.71859 0
M  V30 1368 N 124.027 -1.92006 5.83101 0
M  V30 1369 C 125.398 -1.75568 5.94623 0
M  V30 1370 C 127.453 -1.91183 4.59732 0
M  V30 1371 C 126.156 -1.34505 7.06612 0
M  V30 1372 C 128.182 -1.51524 5.71659 0
M  V30 1373 C 127.544 -1.23406 6.93506 0
M  V30 1374 H 123.643 -0.539927 0.565688 0
M  V30 1375 H 126.227 -0.834764 1.75897 0
M  V30 1376 H 124.398 -3.34584 1.97251 0
M  V30 1377 H 126.13 -3.38584 2.21682 0
M  V30 1378 H 122.885 -2.49199 4.02737 0
M  V30 1379 H 123.309 -1.74764 6.54054 0
M  V30 1380 H 127.951 -2.11584 3.66049 0
M  V30 1381 H 125.669 -1.12846 8.00182 0
M  V30 1382 H 129.255 -1.41741 5.6427 0
M  V30 1383 H 128.135 -0.931788 7.78645 0
M  V30 1384 N 125.638 -1.25649 -0.95132 0
M  V30 1385 C 127.054 -1.02542 -1.223 0
M  V30 1386 C 127.254 0.255715 -1.99871 0
M  V30 1387 O 126.31 0.967558 -2.33226 0
M  V30 1388 C 127.623 -2.25065 -1.99415 0
M  V30 1389 C 129.171 -2.29861 -2.12446 0
M  V30 1390 C 129.646 -3.52048 -2.92961 0
M  V30 1391 N 131.137 -3.52465 -3.00538 0
M  V30 1392 C 131.872 -4.43672 -3.63239 0
M  V30 1393 N 131.368 -5.45157 -4.27523 0
M  V30 1394 N 133.161 -4.31346 -3.60412 0
M  V30 1395 H 125.312 -2.07951 -0.432471 0
M  V30 1396 H 127.575 -0.91339 -0.253816 0
M  V30 1397 H 127.281 -3.18194 -1.49817 0
M  V30 1398 H 127.155 -2.28502 -3.00111 0
M  V30 1399 H 129.542 -1.37252 -2.61239 0
M  V30 1400 H 129.623 -2.3044 -1.11044 0
M  V30 1401 H 129.267 -4.44981 -2.44856 0
M  V30 1402 H 129.197 -3.48715 -3.94596 0
M  V30 1403 H 131.688 -2.79056 -2.54826 0
M  V30 1404 H 132.001 -6.10958 -4.73234 0
M  V30 1405 H 130.346 -5.49025 -4.26141 0
M  V30 1406 H 133.537 -3.51288 -3.09377 0
M  V30 1407 H 133.71 -5.02624 -4.0899 0
M  V30 1408 N 127.117 1.15442 -1.07289 0
M  V30 1409 C 128.047 2.22312 -0.714107 0
M  V30 1410 C 129.028 1.67467 0.298155 0
M  V30 1411 O 130.213 1.93445 0.171048 0
M  V30 1412 C 127.343 3.47124 -0.110448 0
M  V30 1413 C 126.297 4.14926 -1.04979 0
M  V30 1414 C 125.623 5.33807 -0.308924 0
M  V30 1415 C 126.923 4.64762 -2.38314 0
M  V30 1416 H 128.617 2.5258 -1.6076 0
M  V30 1417 H 126.163 1.21404 -0.77441 0
M  V30 1418 H 128.116 4.21124 0.152482 0
M  V30 1419 H 126.84 3.16187 0.81812 0
M  V30 1420 H 125.499 3.42866 -1.29764 0
M  V30 1421 H 125.147 4.99126 0.623084 0
M  V30 1422 H 124.847 5.80113 -0.935036 0
M  V30 1423 H 126.371 6.10576 -0.0537771 0
M  V30 1424 H 127.785 5.30292 -2.1786 0
M  V30 1425 H 126.182 5.21728 -2.96514 0
M  V30 1426 H 127.252 3.80434 -3.00663 0
M  V30 1427 N 128.595 0.856903 1.32268 0
M  V30 1428 C 129.543 0.291987 2.3076 0
M  V30 1429 C 130.537 -0.585857 1.58947 0
M  V30 1430 O 131.743 -0.47341 1.73663 0
M  V30 1431 H 128.118 0.075721 0.748178 0
M  V30 1432 H 130.089 1.13687 2.75895 0
M  V30 1433 C 128.838 -0.502869 3.44044 0
M  V30 1434 H 128.161 0.163328 3.99466 0
M  V30 1435 H 129.601 -0.863691 4.1511 0
M  V30 1436 C 128.06 -1.68898 2.91505 0
M  V30 1437 O 128.59 -2.78811 2.89184 0
M  V30 1438 N 126.796 -1.51679 2.47875 0
M  V30 1439 H 126.343 -0.622666 2.49961 0
M  V30 1440 H 126.301 -2.31184 2.13076 0
M  V30 1441 N 130.073 -1.45103 0.615059 0
M  V30 1442 C 130.983 -2.34382 -0.101034 0
M  V30 1443 C 131.999 -1.51681 -0.852585 0
M  V30 1444 O 133.175 -1.8446 -0.808484 0
M  V30 1445 C 130.24 -3.29417 -1.08099 0
M  V30 1446 C 129.301 -4.28025 -0.330577 0
M  V30 1447 C 128.534 -5.1852 -1.26385 0
M  V30 1448 O 128.757 -5.12598 -2.50198 0
M  V30 1449 O 127.691 -5.97122 -0.756866 0
M  V30 1450 H 131.517 -2.97033 0.632855 0
M  V30 1451 H 129.102 -1.4461 0.375293 0
M  V30 1452 H 130.984 -3.87958 -1.6452 0
M  V30 1453 H 129.659 -2.69321 -1.79577 0
M  V30 1454 H 128.566 -3.73078 0.276283 0
M  V30 1455 H 129.899 -4.90997 0.343866 0
M  V30 1456 N 131.551 -0.354651 -1.53558 0
M  V30 1457 C 132.967 -0.00315426 -1.596 0
M  V30 1458 C 133.167 1.47741 -1.37021 0
M  V30 1459 O 132.223 2.23759 -1.16996 0
M  V30 1460 C 133.536 -0.44929 -2.97325 0
M  V30 1461 C 135.084 -0.402578 -3.104 0
M  V30 1462 C 135.559 -0.824355 -4.5052 0
M  V30 1463 N 137.05 -0.778979 -4.56603 0
M  V30 1464 C 137.785 -1.07715 -5.63192 0
M  V30 1465 N 137.281 -1.44405 -6.77583 0
M  V30 1466 N 139.074 -1.00066 -5.53121 0
M  V30 1467 H 131.225 -1.31893 -1.66487 0
M  V30 1468 H 133.488 -0.538388 -0.780284 0
M  V30 1469 H 133.194 -1.48202 -3.1895 0
M  V30 1470 H 133.068 0.169772 -3.76818 0
M  V30 1471 H 135.455 0.621004 -2.88492 0
M  V30 1472 H 135.536 -1.05699 -2.32941 0
M  V30 1473 H 135.18 -1.846 -4.73165 0
M  V30 1474 H 135.11 -0.147304 -5.26394 0
M  V30 1475 H 137.601 -0.508528 -3.74463 0
M  V30 1476 H 137.914 -1.65612 -7.54846 0
M  V30 1477 H 136.259 -1.4826 -6.79002 0
M  V30 1478 H 139.45 -0.713293 -4.62633 0
M  V30 1479 H 139.623 -1.23638 -6.36096 0
M  V30 1480 N 133.029 1.57378 -0.0835403 0
M  V30 1481 C 133.979 2.09916 0.889905 0
M  V30 1482 C 134.963 1.01151 1.25129 0
M  V30 1483 O 136.155 1.27443 1.2283 0
M  V30 1484 C 133.284 2.67379 2.15322 0
M  V30 1485 C 132.37 3.83167 1.81779 0
M  V30 1486 N 132.761 4.91665 1.18739 0
M  V30 1487 C 131.059 3.92685 2.11459 0
M  V30 1488 C 131.76 5.72409 1.0355 0
M  V30 1489 N 130.736 5.21062 1.54906 0
M  V30 1490 H 134.538 2.91188 0.398378 0
M  V30 1491 H 132.052 1.61956 0.120013 0
M  V30 1492 H 134.049 3.0334 2.8599 0
M  V30 1493 H 132.709 1.87558 2.65051 0
M  V30 1494 H 133.72 5.10784 0.855604 0
M  V30 1495 H 130.397 3.23856 2.63483 0
M  V30 1496 H 131.787 6.69699 0.543425 0
M  V30 1497 N 134.507 -0.190092 1.56449 0
M  V30 1498 C 135.737 -0.92443 1.84764 0
M  V30 1499 C 136.145 -1.77146 0.664529 0
M  V30 1500 O 135.488 -1.79812 -0.375957 0
M  V30 1501 C 135.55 -1.86651 3.07248 0
M  V30 1502 C 135.214 -1.20094 4.40938 0
M  V30 1503 C 136.211 -0.575445 5.16706 0
M  V30 1504 C 133.896 -1.2033 4.87674 0
M  V30 1505 C 135.89 0.0388111 6.37388 0
M  V30 1506 C 133.577 -0.585214 6.08291 0
M  V30 1507 C 134.575 0.0347578 6.82991 0
M  V30 1508 O 134.263 0.643147 8.01323 0
M  V30 1509 H 133.995 -0.274974 0.617548 0
M  V30 1510 H 136.549 -0.200788 2.04416 0
M  V30 1511 H 134.779 -2.62998 2.83494 0
M  V30 1512 H 136.468 -2.46907 3.22167 0
M  V30 1513 H 137.234 -0.565728 4.81689 0
M  V30 1514 H 133.113 -1.67526 4.29484 0
M  V30 1515 H 136.657 0.523329 6.95634 0
M  V30 1516 H 132.554 -0.592451 6.42775 0
M  V30 1517 H 133.322 0.540545 8.16713 0
M  V30 1518 N 135.985 -1.50799 -0.457987 0
M  V30 1519 C 137.233 -1.62121 -1.2067 0
M  V30 1520 C 137.554 -0.329793 -1.92191 0
M  V30 1521 O 136.824 0.653409 -1.84682 0
M  V30 1522 H 135.404 -0.597441 -0.448411 0
M  V30 1523 H 138.066 -1.87637 -0.527096 0
M  V30 1524 H 137.162 -2.43882 -1.94751 0
M  V30 1525 N 137.463 0.71206 -1.40597 0
M  V30 1526 C 138.711 1.46907 -1.38791 0
M  V30 1527 C 139.032 1.94998 0.00780391 0
M  V30 1528 O 138.302 1.70587 0.963174 0
M  V30 1529 H 136.882 0.545043 -0.51082 0
M  V30 1530 H 139.544 0.843882 -1.75683 0
M  V30 1531 H 138.64 2.34021 -2.06496 0
M  V30 1532 N 138.941 1.26152 0.944643 0
M  V30 1533 C 139.871 1.09902 2.06019 0
M  V30 1534 C 140.852 0.00519538 1.70099 0
M  V30 1535 O 142.037 0.176583 1.93396 0
M  V30 1536 C 139.167 0.727562 3.39594 0
M  V30 1537 C 138.121 1.77274 3.89561 0
M  V30 1538 C 137.447 1.25569 5.19747 0
M  V30 1539 C 138.747 3.17357 4.14827 0
M  V30 1540 H 140.441 2.03217 2.19871 0
M  V30 1541 H 137.987 0.978452 1.05652 0
M  V30 1542 H 139.94 0.600777 4.17095 0
M  V30 1543 H 138.664 -0.241287 3.25707 0
M  V30 1544 H 137.323 1.88814 3.14237 0
M  V30 1545 H 136.971 0.276783 5.02238 0
M  V30 1546 H 136.671 1.95433 5.54148 0
M  V30 1547 H 138.195 1.1415 5.99835 0
M  V30 1548 H 139.609 3.08914 4.82954 0
M  V30 1549 H 138.006 3.84781 4.60504 0
M  V30 1550 H 139.076 3.63673 3.20734 0
M  V30 1551 N 140.419 -1.14872 1.07899 0
M  V30 1552 C 141.647 -1.89661 0.82683 0
M  V30 1553 C 142.062 -1.78312 -0.620519 0
M  V30 1554 O 141.419 -1.13888 -1.42604 0
M  V30 1555 C 141.47 -3.39817 1.23316 0
M  V30 1556 O 141.191 -3.50845 2.62372 0
M  V30 1557 C 142.692 -4.31615 1.0111 0
M  V30 1558 H 139.912 -0.60092 0.298557 0
M  V30 1559 H 142.456 -1.4551 1.43691 0
M  V30 1560 H 140.611 -3.8161 0.667286 0
M  V30 1561 H 141.025 -4.44076 2.79101 0
M  V30 1562 H 142.499 -5.35367 1.34486 0
M  V30 1563 H 142.976 -4.39169 -0.0522168 0
M  V30 1564 H 143.582 -3.95572 1.56215 0
M  V30 1565 N 141.898 -0.863906 -1.31812 0
M  V30 1566 C 143.146 -0.470904 -1.96537 0
M  V30 1567 C 143.467 0.978771 -1.68657 0
M  V30 1568 O 142.737 1.6853 -0.998717 0
M  V30 1569 H 141.317 -0.171148 -0.72713 0
M  V30 1570 H 143.979 -1.10236 -1.60729 0
M  V30 1571 H 143.075 -0.623616 -3.05806 0
M  V30 1572 N 143.376 1.44774 -0.622745 0
M  V30 1573 C 144.306 2.33382 0.0741861 0
M  V30 1574 C 145.287 1.47719 0.843387 0
M  V30 1575 O 146.472 1.76458 0.810934 0
M  V30 1576 C 143.602 3.30663 1.06204 0
M  V30 1577 C 142.556 4.26079 0.405037 0
M  V30 1578 C 141.882 5.13165 1.5022 0
M  V30 1579 C 143.182 5.1781 -0.683414 0
M  V30 1580 H 144.876 2.91905 -0.665713 0
M  V30 1581 H 142.422 1.40363 -0.321587 0
M  V30 1582 H 144.375 3.9153 1.55827 0
M  V30 1583 H 143.099 2.70331 1.83272 0
M  V30 1584 H 141.758 3.66532 -0.0704683 0
M  V30 1585 H 141.406 4.49191 2.26355 0
M  V30 1586 H 141.106 5.77812 1.06803 0
M  V30 1587 H 142.63 5.76902 2.00041 0
M  V30 1588 H 144.044 5.72661 -0.270631 0
M  V30 1589 H 142.441 5.91015 -1.04023 0
M  V30 1590 H 143.511 4.59326 -1.55395 0
M  V30 1591 N 144.854 0.36279 1.53368 0
M  V30 1592 C 145.802 -0.500155 2.27159 0
M  V30 1593 C 146.796 -1.08575 1.3003 0
M  V30 1594 O 148.002 -1.02927 1.47668 0
M  V30 1595 H 144.377 -0.180009 0.730138 0
M  V30 1596 H 146.348 0.14401 2.98052 0
M  V30 1597 C 145.097 -1.62937 3.07159 0
M  V30 1598 H 144.42 -1.18806 3.8174 0
M  V30 1599 H 145.86 -2.20795 3.61975 0
M  V30 1600 C 144.319 -2.57007 2.17829 0
M  V30 1601 O 144.849 -3.59752 1.78721 0
M  V30 1602 N 143.055 -2.26131 1.82518 0
M  V30 1603 H 142.602 -1.42616 2.14519 0
M  V30 1604 H 142.56 -2.89327 1.23034 0
M  V30 1605 N 146.332 -1.57332 0.0918853 0
M  V30 1606 C 147.279 -2.13847 -0.868211 0
M  V30 1607 C 148.249 -1.05618 -1.28196 0
M  V30 1608 O 149.434 -1.33387 -1.36427 0
M  V30 1609 C 146.574 -2.72062 -2.12312 0
M  V30 1610 C 145.687 -3.94514 -1.7602 0
M  V30 1611 C 144.822 -4.40903 -2.96273 0
M  V30 1612 C 143.861 -5.55953 -2.56092 0
M  V30 1613 N 142.998 -5.97209 -3.69169 0
M  V30 1614 H 147.838 -2.95575 -0.379406 0
M  V30 1615 H 145.375 -1.46048 -0.175606 0
M  V30 1616 H 147.333 -3.03931 -2.858 0
M  V30 1617 H 145.963 -1.93068 -2.58698 0
M  V30 1618 H 145.015 -3.68979 -0.925135 0
M  V30 1619 H 146.327 -4.7802 -1.42472 0
M  V30 1620 H 145.481 -4.74539 -3.78018 0
M  V30 1621 H 144.22 -3.56291 -3.33029 0
M  V30 1622 H 143.225 -5.21948 -1.72773 0
M  V30 1623 H 144.45 -6.42311 -2.20484 0
M  V30 1624 H 142.396 -5.15543 -4.05649 0
M  V30 1625 H 142.313 -6.75504 -3.39456 0
M  V30 1626 H 143.581 -6.35475 -4.51434 0
M  V30 1627 N 147.81 0.181792 -1.56548 0
M  V30 1628 C 148.773 1.20894 -1.94724 0
M  V30 1629 C 149.773 1.37738 -0.829747 0
M  V30 1630 O 150.963 1.35323 -1.09697 0
M  V30 1631 C 148.095 2.57593 -2.23291 0
M  V30 1632 H 149.288 0.882275 -2.86629 0
M  V30 1633 H 146.841 0.423838 -1.50444 0
M  V30 1634 H 147.576 2.95291 -1.34067 0
M  V30 1635 H 147.361 2.46735 -3.04736 0
M  V30 1636 H 148.851 3.31637 -2.53785 0
M  V30 1637 N 149.288 1.51039 0.449983 0
M  V30 1638 C 150.198 1.74261 1.57067 0
M  V30 1639 C 151.214 0.626363 1.62335 0
M  V30 1640 O 152.39 0.907162 1.79812 0
M  V30 1641 C 149.455 1.85114 2.93144 0
M  V30 1642 C 148.516 3.0893 2.98095 0
M  V30 1643 C 147.749 3.19256 4.27681 0
M  V30 1644 O 147.972 2.35835 5.19363 0
M  V30 1645 O 146.906 4.12144 4.38658 0
M  V30 1646 H 150.732 2.69303 1.40391 0
M  V30 1647 H 148.317 1.35389 0.631688 0
M  V30 1648 H 150.199 1.94311 3.73926 0
M  V30 1649 H 148.874 0.932588 3.09975 0
M  V30 1650 H 147.781 3.0522 2.16314 0
M  V30 1651 H 149.114 4.00433 2.86206 0
M  V30 1652 N 150.766 -0.704594 1.40972 0
M  V30 1653 C 151.994 -1.49354 1.43182 0
M  V30 1654 C 152.409 -1.88768 0.0345508 0
M  V30 1655 O 151.766 -1.56184 -0.944081 0
M  V30 1656 C 151.817 -2.76187 2.33244 0
M  V30 1657 O 151.538 -2.38436 3.67532 0
M  V30 1658 C 153.039 -3.7 2.44162 0
M  V30 1659 H 150.259 -0.460559 0.487982 0
M  V30 1660 H 152.803 -0.868261 1.85153 0
M  V30 1661 H 150.958 -3.34974 1.94606 0
M  V30 1662 H 151.372 -3.20126 4.15475 0
M  V30 1663 H 152.846 -4.55803 3.11364 0
M  V30 1664 H 153.323 -4.13867 1.47006 0
M  V30 1665 H 153.929 -3.17121 2.83398 0
M  V30 1666 N 152.244 -1.26651 -0.937939 0
M  V30 1667 C 153.207 -1.08546 -2.01867 0
M  V30 1668 C 154.207 -0.0327327 -1.60767 0
M  V30 1669 O 155.397 -0.276427 -1.71993 0
M  V30 1670 C 152.529 -0.651711 -3.34613 0
M  V30 1671 H 153.722 -2.04502 -2.1936 0
M  V30 1672 H 151.275 -1.09294 -1.11734 0
M  V30 1673 H 152.01 0.309696 -3.22818 0
M  V30 1674 H 151.795 -1.41189 -3.65798 0
M  V30 1675 H 153.285 -0.546973 -4.14002 0
M  V30 1676 N 153.722 1.14298 -1.08507 0
M  V30 1677 C 154.685 2.17607 -0.719711 0
M  V30 1678 C 155.685 1.58907 0.245997 0
M  V30 1679 O 156.875 1.74181 0.0254081 0
M  V30 1680 C 154.007 3.40842 -0.0627695 0
M  V30 1681 H 155.2 2.51443 -1.63452 0
M  V30 1682 H 152.753 1.28963 -0.88307 0
M  V30 1683 H 153.488 3.12587 0.863716 0
M  V30 1684 H 153.273 3.84713 -0.757504 0
M  V30 1685 H 154.763 4.17221 0.177786 0
M  V30 1686 N 155.201 0.870884 1.31352 0
M  V30 1687 C 156.148 0.325425 2.28494 0
M  V30 1688 C 157.118 -0.576615 1.5577 0
M  V30 1689 O 158.303 -0.508059 1.83911 0
M  V30 1690 C 155.443 -0.466283 3.41935 0
M  V30 1691 C 154.556 0.463378 4.29508 0
M  V30 1692 C 153.691 -0.342544 5.30094 0
M  V30 1693 C 152.73 0.583486 6.09313 0
M  V30 1694 N 151.867 -0.186244 7.01853 0
M  V30 1695 H 156.707 1.15901 2.74538 0
M  V30 1696 H 154.244 0.58294 1.35056 0
M  V30 1697 H 156.202 -0.941085 4.06447 0
M  V30 1698 H 154.832 -1.26456 2.97 0
M  V30 1699 H 153.884 1.05663 3.65431 0
M  V30 1700 H 155.196 1.1734 4.84802 0
M  V30 1701 H 154.35 -0.879816 6.00287 0
M  V30 1702 H 153.089 -1.08585 4.75458 0
M  V30 1703 H 152.094 1.13251 5.3801 0
M  V30 1704 H 153.319 1.32566 6.66035 0
M  V30 1705 H 151.265 -0.912348 6.49625 0
M  V30 1706 H 151.182 0.464422 7.54572 0
M  V30 1707 H 152.45 -0.704716 7.76308 0
M  V30 1708 N 156.679 -1.44442 0.630414 0
M  V30 1709 C 157.629 -2.27794 -0.0968103 0
M  V30 1710 C 158.613 -1.38624 -0.816834 0
M  V30 1711 O 159.805 -1.62438 -0.70306 0
M  V30 1712 C 156.934 -3.25929 -1.07819 0
M  V30 1713 C 156.02 -4.22588 -0.357826 0
M  V30 1714 N 156.411 -5.0207 0.613169 0
M  V30 1715 C 154.709 -4.41914 -0.602365 0
M  V30 1716 C 155.41 -5.72351 1.03871 0
M  V30 1717 N 154.386 -5.42287 0.377642 0
M  V30 1718 H 158.188 -2.86653 0.648621 0
M  V30 1719 H 155.702 -1.55871 0.455862 0
M  V30 1720 H 157.699 -3.84399 -1.61378 0
M  V30 1721 H 156.359 -2.68631 -1.82393 0
M  V30 1722 H 157.37 -5.08331 0.990947 0
M  V30 1723 H 154.047 -3.95714 -1.33103 0
M  V30 1724 H 155.437 -6.4619 1.84086 0
M  V30 1725 N 158.157 -0.370918 -1.53173 0
M  V30 1726 C 159.405 0.216673 -2.00935 0
M  V30 1727 C 159.726 1.48845 -1.25977 0
M  V30 1728 O 158.996 1.92286 -0.374551 0
M  V30 1729 H 157.576 0.0830565 -0.742368 0
M  V30 1730 H 160.238 -0.49838 -1.8842 0
M  V30 1731 H 159.334 0.439893 -3.08984 0
M  V30 1732 N 159.635 1.57281 -0.100228 0
M  V30 1733 C 160.545 2.17833 0.870965 0
M  V30 1734 C 161.561 1.14921 1.30649 0
M  V30 1735 O 162.737 1.47313 1.37335 0
M  V30 1736 C 159.802 2.75085 2.1102 0
M  V30 1737 C 158.863 3.9297 1.72838 0
M  V30 1738 C 158.096 4.47482 2.90854 0
M  V30 1739 O 158.319 4.00922 4.05731 0
M  V30 1740 O 157.253 5.38433 2.69023 0
M  V30 1741 H 161.079 3.0124 0.38575 0
M  V30 1742 H 158.664 1.48881 0.124397 0
M  V30 1743 H 160.546 3.11656 2.83634 0
M  V30 1744 H 159.221 1.94721 2.58584 0
M  V30 1745 H 158.128 3.61201 0.973883 0
M  V30 1746 H 159.461 4.74713 1.30033 0
M  V30 1747 N 161.113 -0.173488 1.56642 0
M  V30 1748 C 162.023 -1.23482 1.99473 0
M  V30 1749 C 163.039 -1.48567 0.905752 0
M  V30 1750 O 164.215 -1.60758 1.21321 0
M  V30 1751 C 161.28 -2.55444 2.34413 0
M  V30 1752 C 160.341 -2.38241 3.57127 0
M  V30 1753 C 159.574 -3.63909 3.90392 0
M  V30 1754 O 159.797 -4.68996 3.24653 0
M  V30 1755 O 158.731 -3.58149 4.83749 0
M  V30 1756 H 162.557 -0.901279 2.90018 0
M  V30 1757 H 160.142 -0.380185 1.44482 0
M  V30 1758 H 162.024 -3.33292 2.57865 0
M  V30 1759 H 160.699 -2.88382 1.4703 0
M  V30 1760 H 159.606 -1.58431 3.38896 0
M  V30 1761 H 160.939 -2.10228 4.45045 0
M  V30 1762 N 162.591 -1.51276 -0.441967 0
M  V30 1763 C 163.523 -1.68444 -1.55433 0
M  V30 1764 C 164.536 -0.565187 -1.52674 0
M  V30 1765 O 165.725 -0.839356 -1.57534 0
M  V30 1766 C 162.825 -1.67966 -2.94348 0
M  V30 1767 C 161.998 -2.964 -3.21661 0
M  V30 1768 C 161.057 -2.88171 -4.40277 0
M  V30 1769 O 160.083 -3.62119 -4.39157 0
M  V30 1770 N 161.285 -2.03706 -5.43584 0
M  V30 1771 H 164.05 -2.644 -1.41112 0
M  V30 1772 H 161.611 -1.49104 -0.630838 0
M  V30 1773 H 163.603 -1.60035 -3.71713 0
M  V30 1774 H 162.173 -0.796225 -3.0229 0
M  V30 1775 H 161.393 -3.18234 -2.32638 0
M  V30 1776 H 162.681 -3.81427 -3.36736 0
M  V30 1777 H 162.079 -1.42995 -5.47329 0
M  V30 1778 H 160.636 -2.01658 -6.1982 0
M  V30 1779 N 164.069 0.697108 -1.41344 0
M  V30 1780 C 165.315 1.4593 -1.40827 0
M  V30 1781 C 165.648 1.94193 -0.0167098 0
M  V30 1782 O 164.923 1.69425 0.955263 0
M  V30 1783 C 165.206 2.67229 -2.41373 0
M  V30 1784 C 165.059 2.24741 -3.8963 0
M  V30 1785 C 166.378 3.69423 -2.39196 0
M  V30 1786 H 163.497 0.529303 -0.512842 0
M  V30 1787 H 166.139 0.794112 -1.72609 0
M  V30 1788 H 164.289 3.23982 -2.14401 0
M  V30 1789 H 165.961 1.73327 -4.27499 0
M  V30 1790 H 164.204 1.56542 -4.0457 0
M  V30 1791 H 164.875 3.1177 -4.55525 0
M  V30 1792 H 167.351 3.2234 -2.63128 0
M  V30 1793 H 166.227 4.51907 -3.11563 0
M  V30 1794 H 166.488 4.19012 -1.41001 0
M  V30 1795 N 165.547 1.27147 0.931209 0
M  V30 1796 C 166.494 1.09568 2.03134 0
M  V30 1797 C 167.464 -0.00222433 1.661 0
M  V30 1798 O 168.649 0.159439 1.90133 0
M  V30 1799 C 165.789 0.745231 3.36957 0
M  V30 1800 C 164.902 1.92041 3.86968 0
M  V30 1801 C 164.037 1.51216 5.09222 0
M  V30 1802 C 163.076 2.65504 5.5152 0
M  V30 1803 N 162.213 2.25291 6.64972 0
M  V30 1804 H 167.053 2.03708 2.17502 0
M  V30 1805 H 164.59 1.01411 1.06556 0
M  V30 1806 H 166.548 0.522878 4.1391 0
M  V30 1807 H 165.178 -0.159202 3.22407 0
M  V30 1808 H 164.23 2.25541 3.06326 0
M  V30 1809 H 165.542 2.77787 4.1429 0
M  V30 1810 H 164.696 1.25084 5.93666 0
M  V30 1811 H 163.435 0.625749 4.83669 0
M  V30 1812 H 162.44 2.92354 4.65628 0
M  V30 1813 H 163.665 3.54761 5.7907 0
M  V30 1814 H 161.611 1.39098 6.41083 0
M  V30 1815 H 161.528 3.04577 6.91931 0
M  V30 1816 H 162.796 2.02398 7.52765 0
M  V30 1817 N 167.025 -1.13721 1.09112 0
M  V30 1818 C 168.274 -1.84275 0.82009 0
M  V30 1819 C 168.587 -1.84253 -0.656509 0
M  V30 1820 O 169.793 -2.50668 -1.04296 0
M  V30 1821 C 168.249 -3.30825 1.41714 0
M  V30 1822 C 167.857 -3.39244 2.92605 0
M  V30 1823 C 169.601 -4.06443 1.22492 0
M  V30 1824 C 167.508 -4.80047 3.45411 0
M  V30 1825 H 166.438 -0.690387 0.30312 0
M  V30 1826 H 169.089 -1.28146 1.31343 0
M  V30 1827 H 167.471 -3.86737 0.851498 0
M  V30 1828 H 168.645 -2.93344 3.55367 0
M  V30 1829 H 166.96 -2.77088 3.10823 0
M  V30 1830 H 169.557 -5.10387 1.59402 0
M  V30 1831 H 169.9 -4.15972 0.165299 0
M  V30 1832 H 170.433 -3.56852 1.75788 0
M  V30 1833 H 167.172 -4.75709 4.50978 0
M  V30 1834 H 166.692 -5.26455 2.87411 0
M  V30 1835 H 168.371 -5.48957 3.42425 0
M  V30 1836 N 168.503 -0.877838 -1.30888 0
M  V30 1837 C 169.749 -0.502773 -1.97088 0
M  V30 1838 C 170.104 0.936274 -1.68082 0
M  V30 1839 O 169.397 1.65162 -0.971196 0
M  V30 1840 C 169.591 -0.705748 -3.50363 0
M  V30 1841 C 169.42 -2.16297 -3.94266 0
M  V30 1842 C 168.19 -2.80614 -4.20219 0
M  V30 1843 C 170.388 -3.13606 -4.07622 0
M  V30 1844 N 168.37 -4.17007 -4.50532 0
M  V30 1845 C 169.741 -4.35051 -4.41736 0
M  V30 1846 C 171.796 -3.09491 -3.90026 0
M  V30 1847 C 170.499 -5.52911 -4.60089 0
M  V30 1848 C 172.525 -4.26616 -4.09576 0
M  V30 1849 C 171.887 -5.46825 -4.44029 0
M  V30 1850 H 167.986 -0.233168 -0.746429 0
M  V30 1851 H 170.57 -1.13408 -1.58261 0
M  V30 1852 H 168.741 -0.103976 -3.88261 0
M  V30 1853 H 170.473 -0.298291 -4.03599 0
M  V30 1854 H 167.228 -2.3152 -4.13153 0
M  V30 1855 H 167.652 -4.87426 -4.69834 0
M  V30 1856 H 172.294 -2.17657 -3.62471 0
M  V30 1857 H 170.012 -6.45255 -4.86489 0
M  V30 1858 H 173.598 -4.24894 -3.97438 0
M  V30 1859 H 172.478 -6.35947 -4.58848 0
M  V30 1860 N 169.982 1.44106 -0.638065 0
M  V30 1861 C 171.398 1.56672 -0.304286 0
M  V30 1862 C 171.598 1.6244 1.19228 0
M  V30 1863 O 170.654 1.57121 1.9766 0
M  V30 1864 C 171.967 2.83503 -1.00231 0
M  V30 1865 C 173.515 2.97226 -0.981116 0
M  V30 1866 C 173.99 4.26868 -1.65974 0
M  V30 1867 N 175.481 4.33698 -1.62666 0
M  V30 1868 C 176.216 5.32745 -2.12063 0
M  V30 1869 N 175.712 6.38157 -2.6968 0
M  V30 1870 N 177.505 5.24299 -2.02651 0
M  V30 1871 H 169.656 1.38605 -1.60942 0
M  V30 1872 H 171.919 0.664661 -0.675965 0
M  V30 1873 H 171.625 2.85251 -2.0573 0
M  V30 1874 H 171.499 3.73251 -0.54439 0
M  V30 1875 H 173.886 2.95027 0.0654188 0
M  V30 1876 H 173.967 2.08808 -1.47759 0
M  V30 1877 H 173.611 4.29826 -2.70576 0
M  V30 1878 H 173.541 5.14156 -1.13804 0
M  V30 1879 H 176.032 3.58138 -1.20606 0
M  V30 1880 H 176.345 7.10029 -3.05087 0
M  V30 1881 H 174.69 6.38823 -2.73734 0
M  V30 1882 H 177.881 4.4086 -1.57353 0
M  V30 1883 H 178.054 6.01334 -2.41457 0
M  V30 1884 N 171.46 0.379036 1.52974 0
M  V30 1885 C 172.876 0.0285448 1.59574 0
M  V30 1886 C 173.076 -1.45542 1.39355 0
M  V30 1887 O 172.132 -2.2187 1.20541 0
M  V30 1888 C 173.445 0.496535 2.96572 0
M  V30 1889 C 174.993 0.451909 3.0972 0
M  V30 1890 C 175.468 0.895924 4.49152 0
M  V30 1891 N 176.959 0.851522 4.55306 0
M  V30 1892 C 177.694 1.16661 5.61407 0
M  V30 1893 N 177.19 1.55166 6.752 0
M  V30 1894 N 178.983 1.08853 5.51459 0
M  V30 1895 H 171.134 1.34525 1.64367 0
M  V30 1896 H 173.397 0.550733 0.771619 0
M  V30 1897 H 173.103 1.53258 3.16552 0
M  V30 1898 H 172.977 -0.109802 3.7704 0
M  V30 1899 H 175.364 -0.575029 2.89443 0
M  V30 1900 H 175.445 1.09392 2.3123 0
M  V30 1901 H 175.089 1.92104 4.70168 0
M  V30 1902 H 175.019 0.23103 5.26093 0
M  V30 1903 H 177.51 0.568038 3.73606 0
M  V30 1904 H 177.823 1.776 7.52116 0
M  V30 1905 H 176.168 1.59044 6.76557 0
M  V30 1906 H 179.359 0.786803 4.6144 0
M  V30 1907 H 179.532 1.33742 6.34048 0
M  V30 1908 N 172.938 -1.57226 0.108567 0
M  V30 1909 C 174.163 -1.99604 -0.563303 0
M  V30 1910 C 174.588 -0.987563 -1.6009 0
M  V30 1911 O 173.946 0.0421687 -1.81251 0
M  V30 1912 C 173.994 -3.40902 -1.17552 0
M  V30 1913 O 173.098 -3.42896 -2.2912 0
M  V30 1914 H 172.439 -0.648704 -0.1417 0
M  V30 1915 H 174.969 -2.03679 0.193961 0
M  V30 1916 H 174.979 -3.78886 -1.51357 0
M  V30 1917 H 173.654 -4.1382 -0.415445 0
M  V30 1918 H 172.231 -3.1672 -1.96832 0
M  V30 1919 N 174.416 0.165178 -1.56732 0
M  V30 1920 C 175.663 0.880807 -1.8234 0
M  V30 1921 C 175.991 1.81977 -0.686621 0
M  V30 1922 O 175.246 1.92971 0.325697 0
M  V30 1923 C 175.545 1.70405 -3.1416 0
M  V30 1924 C 175.211 0.913475 -4.4155 0
M  V30 1925 C 173.873 0.695303 -4.7615 0
M  V30 1926 C 176.225 0.359349 -5.1996 0
M  V30 1927 C 173.553 -0.0879947 -5.86634 0
M  V30 1928 C 175.905 -0.410893 -6.31264 0
M  V30 1929 C 174.569 -0.639808 -6.64427 0
M  V30 1930 H 173.839 0.32231 -0.667231 0
M  V30 1931 H 176.486 0.145402 -1.90947 0
M  V30 1932 H 174.791 2.50903 -3.00923 0
M  V30 1933 H 176.488 2.26091 -3.31186 0
M  V30 1934 H 173.078 1.09357 -4.14414 0
M  V30 1935 H 177.262 0.515228 -4.93618 0
M  V30 1936 H 172.518 -0.27503 -6.10781 0
M  V30 1937 H 176.692 -0.847494 -6.91224 0
M  V30 1938 H 174.319 -1.24864 -7.49875 0
M  V30 1939 N 175.894 1.51508 0.433938 0
M  V30 1940 C 177.171 1.54888 1.19453 0
M  V30 1941 C 177.551 0.315154 2.08734 0
M  V30 1942 O 176.899 -0.699558 2.17528 0
M  V30 1943 C 177.109 2.86467 1.99342 0
M  V30 1944 C 178.457 3.38545 2.56267 0
M  V30 1945 O 179.481 2.88041 2.0955 0
M  V30 1946 O 178.34 4.26675 3.41483 0
M  V30 1947 H 175.434 0.622863 0.544032 0
M  V30 1948 H 177.98 1.63823 0.442732 0
M  V30 1949 H 176.752 3.67718 1.33788 0
M  V30 1950 H 176.375 2.8071 2.8158 0
M  V30 1951 N 177.372 -0.689602 1.41712 0
M  V30 1952 C 178.621 -1.44534 1.40686 0
M  V30 1953 C 178.934 -1.95588 0.0213352 0
M  V30 1954 O 180.14 -2.71271 -0.111534 0
M  V30 1955 C 178.596 -2.61387 2.47396 0
M  V30 1956 C 178.204 -2.17094 3.91885 0
M  V30 1957 C 179.948 -3.38986 2.55517 0
M  V30 1958 C 177.855 -3.3094 4.90135 0
M  V30 1959 H 176.785 -0.542925 0.52321 0
M  V30 1960 H 179.436 -0.748054 1.6756 0
M  V30 1961 H 177.818 -3.33412 2.13664 0
M  V30 1962 H 178.992 -1.52318 4.34897 0
M  V30 1963 H 177.307 -1.52473 3.8748 0
M  V30 1964 H 179.904 -4.23747 3.26102 0
M  V30 1965 H 180.247 -3.84578 1.59391 0
M  V30 1966 H 180.78 -2.74021 2.8837 0
M  V30 1967 H 177.519 -2.90355 5.87685 0
M  V30 1968 H 177.039 -3.94546 4.51767 0
M  V30 1969 H 178.718 -3.9663 5.11169 0
M  V30 1970 N 178.85 -1.27639 -0.924453 0
M  V30 1971 C 180.261 -1.12834 -1.48746 0
M  V30 1972 C 180.612 0.285505 -1.94112 0
M  V30 1973 O 179.737 1.17874 -1.81479 0
M  V30 1974 C 180.332 -2.04217 -2.70334 0
M  V30 1975 C 178.891 -1.93509 -3.22848 0
M  V30 1976 C 178.038 -1.96583 -1.95577 0
M  V30 1977 H 180.989 -1.40484 -0.738233 0
M  V30 1978 H 181.01 -1.59989 -3.4523 0
M  V30 1979 H 180.522 -3.07111 -2.37285 0
M  V30 1980 H 178.623 -0.936131 -3.60649 0
M  V30 1981 H 178.736 -2.79917 -3.88823 0
M  V30 1982 H 177.1 -1.4085 -2.12211 0
M  V30 1983 H 177.883 -3.01137 -1.64837 0
M  V30 1984 N 180.328 1.1314 -1.09713 0
M  V30 1985 C 181.739 1.66029 -0.853885 0
M  V30 1986 C 182.09 1.86241 0.617142 0
M  V30 1987 O 181.215 1.5834 1.47503 0
M  V30 1988 C 181.81 3.01599 -1.5435 0
M  V30 1989 C 180.369 3.51467 -1.34714 0
M  V30 1990 C 179.516 2.26648 -1.59769 0
M  V30 1991 H 182.467 0.970226 -1.25588 0
M  V30 1992 H 182.488 3.67709 -0.978267 0
M  V30 1993 H 182 2.86856 -2.6141 0
M  V30 1994 H 180.101 3.71408 -0.297838 0
M  V30 1995 H 180.214 4.314 -2.08401 0
M  V30 1996 H 178.578 2.33385 -1.01998 0
M  V30 1997 H 179.361 2.14467 -2.68065 0
M  V30 1998 N 181.806 0.884767 1.30421 0
M  V30 1999 C 183.217 0.553656 1.78302 0
M  V30 2000 C 183.568 -0.930153 1.7275 0
M  V30 2001 O 182.693 -1.72681 1.30423 0
M  V30 2002 C 183.288 0.998234 3.2376 0
M  V30 2003 C 181.847 0.71854 3.69478 0
M  V30 2004 C 180.994 1.18132 2.50879 0
M  V30 2005 H 183.945 1.06901 1.17294 0
M  V30 2006 H 183.966 0.327118 3.79091 0
M  V30 2007 H 183.478 2.0782 3.27769 0
M  V30 2008 H 181.579 -0.349444 3.70958 0
M  V30 2009 H 181.692 1.30595 4.60958 0
M  V30 2010 H 180.056 0.600669 2.47516 0
M  V30 2011 H 180.839 2.26902 2.57624 0
M  V30 2012 N 183.284 -1.43765 0.645699 0
M  V30 2013 C 184.695 -1.85193 0.236719 0
M  V30 2014 C 185.046 -1.54045 -1.21509 0
M  V30 2015 O 184.171 -0.985694 -1.92647 0
M  V30 2016 C 184.766 -3.36151 0.422845 0
M  V30 2017 C 183.325 -3.76338 0.0682492 0
M  V30 2018 C 182.472 -2.67538 0.729306 0
M  V30 2019 H 185.423 -1.34025 0.849883 0
M  V30 2020 H 185.444 -3.79032 -0.333904 0
M  V30 2021 H 184.956 -3.5879 1.47958 0
M  V30 2022 H 183.057 -3.59312 -0.986179 0
M  V30 2023 H 183.17 -4.76603 0.488469 0
M  V30 2024 H 181.534 -2.54176 0.163235 0
M  V30 2025 H 182.317 -2.93006 1.78892 0
M  V30 2026 N 184.763 -0.387143 -1.52771 0
M  V30 2027 C 185.696 0.493123 -2.22808 0
M  V30 2028 C 186.674 1.0658 -1.22798 0
M  V30 2029 O 187.858 1.11785 -1.51777 0
M  V30 2030 C 184.985 1.68238 -2.93962 0
M  V30 2031 C 184.031 1.23515 -4.08223 0
M  V30 2032 S 184.864 0.21848 -5.35054 0
M  V30 2033 C 186.02 1.41357 -6.09729 0
M  V30 2034 H 186.253 -0.101625 -2.97126 0
M  V30 2035 H 183.786 -0.171323 -1.53447 0
M  V30 2036 H 185.744 2.36443 -3.35567 0
M  V30 2037 H 184.405 2.24842 -2.19328 0
M  V30 2038 H 183.598 2.12304 -4.57103 0
M  V30 2039 H 183.2 0.632044 -3.68621 0
M  V30 2040 H 185.492 2.34101 -6.3577 0
M  V30 2041 H 186.435 0.965736 -7.01484 0
M  V30 2042 H 186.843 1.6294 -5.40473 0
M  V30 2043 N 186.241 1.57166 -0.116904 0
M  V30 2044 C 187.518 1.86645 0.585049 0
M  V30 2045 C 187.898 1.0177 1.84949 0
M  V30 2046 O 187.246 0.0960379 2.28298 0
M  V30 2047 C 187.456 3.37736 0.879507 0
M  V30 2048 C 188.804 4.06289 1.23348 0
M  V30 2049 O 189.828 3.42743 0.969836 0
M  V30 2050 O 188.687 5.18455 1.7282 0
M  V30 2051 H 185.781 0.772593 0.295007 0
M  V30 2052 H 188.327 1.69025 -0.151249 0
M  V30 2053 H 187.099 3.91296 -0.0166136 0
M  V30 2054 H 186.722 3.6078 1.67103 0
M  V30 2055 N 187.719 -0.156864 1.56817 0
M  V30 2056 C 188.629 -1.2136 2.00771 0
M  V30 2057 C 189.645 -1.47598 0.921459 0
M  V30 2058 O 190.821 -1.59462 1.2302 0
M  V30 2059 C 187.886 -2.52943 2.37109 0
M  V30 2060 C 186.947 -2.34439 3.59634 0
M  V30 2061 C 186.18 -3.59748 3.94229 0
M  V30 2062 O 186.403 -4.65526 3.29609 0
M  V30 2063 O 185.337 -3.52998 4.8752 0
M  V30 2064 H 189.163 -0.870468 2.90958 0
M  V30 2065 H 186.748 -0.36484 1.44877 0
M  V30 2066 H 188.63 -3.30538 2.61386 0
M  V30 2067 H 187.305 -2.86806 1.5008 0
M  V30 2068 H 186.212 -1.54828 3.40557 0
M  V30 2069 H 187.545 -2.05496 4.4725 0
M  V30 2070 N 189.197 -1.51736 -0.425897 0
M  V30 2071 C 190.144 -1.73875 -1.51776 0
M  V30 2072 C 191.114 -0.580702 -1.55618 0
M  V30 2073 O 192.299 -0.81641 -1.72451 0
M  V30 2074 C 189.439 -1.88012 -2.89388 0
M  V30 2075 C 188.552 -3.15606 -2.94986 0
M  V30 2076 C 187.687 -3.20271 -4.23793 0
M  V30 2077 C 186.726 -4.42134 -4.23302 0
M  V30 2078 N 185.863 -4.44284 -5.43651 0
M  V30 2079 H 190.703 -2.67071 -1.32201 0
M  V30 2080 H 188.24 -1.32351 -0.642008 0
M  V30 2081 H 190.198 -1.9419 -3.69251 0
M  V30 2082 H 188.828 -0.98213 -3.07496 0
M  V30 2083 H 187.88 -3.18681 -2.07717 0
M  V30 2084 H 189.192 -4.05486 -2.90486 0
M  V30 2085 H 188.346 -3.25428 -5.12036 0
M  V30 2086 H 187.085 -2.28299 -4.30965 0
M  V30 2087 H 186.09 -4.3714 -3.3345 0
M  V30 2088 H 187.315 -5.35382 -4.17783 0
M  V30 2089 H 185.261 -3.55188 -5.51523 0
M  V30 2090 H 185.178 -5.27988 -5.41078 0
M  V30 2091 H 186.446 -4.53649 -6.33895 0
M  V30 2092 N 190.675 0.682077 -1.42076 0
M  V30 2093 C 191.625 1.78823 -1.41444 0
M  V30 2094 C 192.609 1.58323 -0.28681 0
M  V30 2095 O 193.801 1.68926 -0.528498 0
M  V30 2096 C 190.93 3.17232 -1.3122 0
M  V30 2097 C 190.016 3.4338 -2.489 0
M  V30 2098 N 190.407 3.40152 -3.7434 0
M  V30 2099 C 188.705 3.73986 -2.43003 0
M  V30 2100 C 189.406 3.65581 -4.52466 0
M  V30 2101 N 188.382 3.85989 -3.8277 0
M  V30 2102 H 192.184 1.7471 -2.36334 0
M  V30 2103 H 189.698 0.882622 -1.36321 0
M  V30 2104 H 191.695 3.96489 -1.2885 0
M  V30 2105 H 190.355 3.22547 -0.373263 0
M  V30 2106 H 191.366 3.20221 -4.07037 0
M  V30 2107 H 188.043 3.86591 -1.57651 0
M  V30 2108 H 189.433 3.69108 -5.61435 0
M  V30 2109 N 192.153 1.28127 0.917671 0
M  V30 2110 C 193.564 1.13622 1.48145 0
M  V30 2111 C 193.915 -0.275207 1.9426 0
M  V30 2112 O 193.04 -1.1691 1.82102 0
M  V30 2113 C 193.635 2.05648 2.69248 0
M  V30 2114 C 192.194 1.95219 3.21818 0
M  V30 2115 C 191.341 1.97618 1.94532 0
M  V30 2116 H 194.292 1.40874 0.730772 0
M  V30 2117 H 194.313 1.61818 3.44377 0
M  V30 2118 H 193.825 3.08365 2.35653 0
M  V30 2119 H 191.926 0.955244 3.60147 0
M  V30 2120 H 192.039 2.81976 3.87333 0
M  V30 2121 H 190.403 1.41973 2.11461 0
M  V30 2122 H 191.186 3.02007 1.63238 0
M  V30 2123 N 193.631 -1.12557 1.10312 0
M  V30 2124 C 194.861 -1.87592 0.865617 0
M  V30 2125 C 195.269 -1.79851 -0.587389 0
M  V30 2126 O 194.612 -1.16949 -1.41664 0
M  V30 2127 C 194.674 -3.37665 1.23381 0
M  V30 2128 C 194.338 -3.69181 2.69359 0
M  V30 2129 C 195.335 -3.67652 3.67597 0
M  V30 2130 C 193.02 -3.98555 3.05711 0
M  V30 2131 C 195.014 -3.95053 5.00212 0
M  V30 2132 C 192.701 -4.25616 4.38514 0
M  V30 2133 C 193.699 -4.23851 5.35574 0
M  V30 2134 O 193.387 -4.50242 6.65986 0
M  V30 2135 H 193.119 -0.600442 0.310557 0
M  V30 2136 H 195.673 -1.4335 1.47105 0
M  V30 2137 H 193.903 -3.82454 0.571467 0
M  V30 2138 H 195.592 -3.94041 0.973994 0
M  V30 2139 H 196.358 -3.45024 3.40857 0
M  V30 2140 H 192.237 -3.99071 2.30789 0
M  V30 2141 H 195.781 -3.93591 5.75962 0
M  V30 2142 H 191.678 -4.47718 4.64994 0
M  V30 2143 H 192.446 -4.67867 6.71597 0
M  V30 2144 N 195.109 -0.891671 -1.2995 0
M  V30 2145 C 196.339 -0.527893 -1.99742 0
M  V30 2146 C 196.747 0.88979 -1.66971 0
M  V30 2147 O 196.09 1.59766 -0.906667 0
M  V30 2148 C 196.152 -0.630804 -3.53922 0
M  V30 2149 C 195.816 -2.01401 -4.10228 0
M  V30 2150 C 196.813 -2.98422 -4.25724 0
M  V30 2151 C 194.498 -2.32121 -4.45449 0
M  V30 2152 C 196.492 -4.24293 -4.75662 0
M  V30 2153 C 194.179 -3.58237 -4.95086 0
M  V30 2154 C 195.177 -4.54137 -5.10146 0
M  V30 2155 O 194.865 -5.78014 -5.58708 0
M  V30 2156 H 194.597 -0.201953 -0.645129 0
M  V30 2157 H 197.151 -1.20076 -1.66646 0
M  V30 2158 H 195.381 0.0990616 -3.86573 0
M  V30 2159 H 197.07 -0.277338 -4.04951 0
M  V30 2160 H 197.836 -2.76001 -3.98809 0
M  V30 2161 H 193.715 -1.5824 -4.32991 0
M  V30 2162 H 197.259 -4.99153 -4.87332 0
M  V30 2163 H 193.156 -3.80491 -5.21437 0
M  V30 2164 H 193.924 -5.8049 -5.77039 0
M  V30 2165 N 196.587 1.43421 -0.653314 0
M  V30 2166 C 197.535 2.32546 0.0501531 0
M  V30 2167 C 198.529 1.48617 0.812985 0
M  V30 2168 O 199.735 1.64825 0.723375 0
M  V30 2169 H 196.11 0.751185 0.0350032 0
M  V30 2170 H 198.081 2.89602 -0.719261 0
M  V30 2171 C 196.83 3.32925 1.00279 0
M  V30 2172 H 196.153 3.97532 0.425236 0
M  V30 2173 H 197.593 3.9792 1.46409 0
M  V30 2174 C 196.052 2.63532 2.09886 0
M  V30 2175 O 196.582 2.45092 3.18265 0
M  V30 2176 N 194.788 2.22905 1.86445 0
M  V30 2177 H 194.335 2.38103 0.98309 0
M  V30 2178 H 194.293 1.76805 2.59976 0
M  V30 2179 N 198.065 0.39524 1.52563 0
M  V30 2180 C 199.29 -0.187456 2.06551 0
M  V30 2181 C 199.715 -1.39249 1.26457 0
M  V30 2182 O 199.073 -1.78947 0.291151 0
M  V30 2183 C 199.121 -0.529985 3.56684 0
M  V30 2184 O 198.225 -1.62307 3.79118 0
M  V30 2185 H 197.566 -0.0202537 0.663691 0
M  V30 2186 H 200.096 0.564426 1.96661 0
M  V30 2187 H 200.106 -0.792598 4.00227 0
M  V30 2188 H 198.781 0.350987 4.14416 0
M  V30 2189 H 197.358 -1.3537 3.47461 0
M  V30 2190 N 199.544 -1.57102 0.125237 0
M  V30 2191 C 200.793 -1.94582 -0.531095 0
M  V30 2192 C 201.106 -1.01126 -1.6743 0
M  V30 2193 O 202.312 -1.28097 -2.39381 0
M  V30 2194 C 200.768 -3.45839 -0.996164 0
M  V30 2195 C 200.376 -4.47842 0.118926 0
M  V30 2196 C 202.12 -3.92227 -1.62352 0
M  V30 2197 C 200.027 -5.90284 -0.363192 0
M  V30 2198 H 198.957 -0.726391 -0.20217 0
M  V30 2199 H 201.608 -1.82339 0.206092 0
M  V30 2200 H 199.99 -3.53338 -1.78796 0
M  V30 2201 H 201.164 -4.52018 0.895358 0
M  V30 2202 H 199.479 -4.11243 0.653324 0
M  V30 2203 H 202.076 -4.96069 -1.99548 0
M  V30 2204 H 202.419 -3.32552 -2.50429 0
M  V30 2205 H 202.952 -3.87554 -0.897019 0
M  V30 2206 H 199.691 -6.53728 0.481679 0
M  V30 2207 H 199.211 -5.89515 -1.10597 0
M  V30 2208 H 200.89 -6.41752 -0.822377 0
M  V30 2209 N 201.022 0.148545 -1.56898 0
M  V30 2210 C 202.247 0.880385 -1.87787 0
M  V30 2211 C 202.672 1.74018 -0.714093 0
M  V30 2212 O 202.03 1.78153 0.336343 0
M  V30 2213 C 202.078 1.71422 -3.17249 0
M  V30 2214 O 201.182 2.8183 -3.01074 0
M  V30 2215 H 200.523 0.245301 -0.617028 0
M  V30 2216 H 203.053 0.139826 -2.04122 0
M  V30 2217 H 203.063 2.10954 -3.49231 0
M  V30 2218 H 201.738 1.08284 -4.01556 0
M  V30 2219 H 200.315 2.45715 -2.80497 0
M  V30 2220 N 202.5 1.5196 0.417844 0
M  V30 2221 C 203.447 1.74678 1.50852 0
M  V30 2222 C 204.417 0.588947 1.55308 0
M  V30 2223 O 205.602 0.825544 1.72016 0
M  V30 2224 C 202.742 1.89544 2.88387 0
M  V30 2225 C 201.855 3.17166 2.93309 0
M  V30 2226 C 200.99 3.22513 4.22088 0
M  V30 2227 C 200.029 4.44372 4.20951 0
M  V30 2228 N 199.166 4.47161 5.41287 0
M  V30 2229 H 204.006 2.67768 1.30783 0
M  V30 2230 H 201.543 1.32689 0.63498 0
M  V30 2231 H 203.501 1.96146 3.68216 0
M  V30 2232 H 202.131 0.998424 3.06971 0
M  V30 2233 H 201.183 3.19778 2.06024 0
M  V30 2234 H 202.495 4.07021 2.88332 0
M  V30 2235 H 201.649 3.28139 5.10303 0
M  V30 2236 H 200.388 2.30581 4.29748 0
M  V30 2237 H 199.393 4.38902 3.31127 0
M  V30 2238 H 200.618 5.3759 4.14938 0
M  V30 2239 H 198.564 3.58108 5.49632 0
M  V30 2240 H 198.481 5.3085 5.3827 0
M  V30 2241 H 199.749 4.57005 6.3148 0
M  V30 2242 N 203.978 -0.674533 1.42435 0
M  V30 2243 C 204.888 -1.81751 1.48337 0
M  V30 2244 C 205.904 -1.69975 0.372099 0
M  V30 2245 O 207.08 -1.91521 0.62304 0
M  V30 2246 C 204.145 -3.17895 1.38361 0
M  V30 2247 C 203.206 -3.41625 2.59982 0
M  V30 2248 C 202.439 -4.71274 2.50473 0
M  V30 2249 O 202.662 -5.49197 1.54075 0
M  V30 2250 O 201.596 -4.96254 3.4061 0
M  V30 2251 H 205.422 -1.79728 2.44809 0
M  V30 2252 H 203.007 -0.830312 1.24202 0
M  V30 2253 H 204.889 -3.99136 1.35161 0
M  V30 2254 H 203.564 -3.20555 0.450144 0
M  V30 2255 H 202.471 -2.60231 2.68757 0
M  V30 2256 H 203.804 -3.43796 3.52229 0
M  V30 2257 N 205.456 -1.28612 -0.910864 0
M  V30 2258 C 206.872 -1.06381 -1.18976 0
M  V30 2259 C 207.072 0.191998 -2.00583 0
M  V30 2260 O 206.128 0.892869 -2.36187 0
M  V30 2261 C 207.441 -2.31295 -1.92154 0
M  V30 2262 C 208.989 -2.36503 -2.05025 0
M  V30 2263 C 209.464 -3.61191 -2.81612 0
M  V30 2264 N 210.955 -3.61847 -2.89172 0
M  V30 2265 C 211.69 -4.55004 -3.4894 0
M  V30 2266 N 211.186 -5.58482 -4.09963 0
M  V30 2267 N 212.979 -4.42594 -3.46506 0
M  V30 2268 H 205.13 -2.09221 -0.366094 0
M  V30 2269 H 207.393 -0.921003 -0.224629 0
M  V30 2270 H 207.099 -3.228 -1.39618 0
M  V30 2271 H 206.973 -2.37934 -2.9269 0
M  V30 2272 H 209.36 -1.45494 -2.5674 0
M  V30 2273 H 209.441 -2.33857 -1.03657 0
M  V30 2274 H 209.085 -4.52545 -2.30576 0
M  V30 2275 H 209.015 -3.61092 -3.83302 0
M  V30 2276 H 211.506 -2.87022 -2.45819 0
M  V30 2277 H 211.819 -6.25704 -4.53557 0
M  V30 2278 H 210.164 -5.62305 -4.08459 0
M  V30 2279 H 213.355 -3.60953 -2.98045 0
M  V30 2280 H 213.528 -5.15381 -3.92793 0
M  V30 2281 N 206.934 1.1197 -1.10907 0
M  V30 2282 C 208.35 1.35591 -0.841852 0
M  V30 2283 C 208.55 1.94233 0.536246 0
M  V30 2284 O 207.606 2.1717 1.28816 0
M  V30 2285 C 208.919 2.29284 -1.94549 0
M  V30 2286 C 210.467 2.42862 -1.97451 0
M  V30 2287 C 210.942 3.39873 -3.07002 0
M  V30 2288 N 212.433 3.47433 -3.06341 0
M  V30 2289 C 213.168 4.22421 -3.87748 0
M  V30 2290 N 212.664 5.00432 -4.79103 0
M  V30 2291 N 214.457 4.17876 -3.75946 0
M  V30 2292 H 206.608 0.722664 -1.99728 0
M  V30 2293 H 208.871 0.380635 -0.868229 0
M  V30 2294 H 208.577 1.93378 -2.93765 0
M  V30 2295 H 208.451 3.29452 -1.83688 0
M  V30 2296 H 210.838 2.78046 -0.988645 0
M  V30 2297 H 210.919 1.42566 -2.12388 0
M  V30 2298 H 210.563 3.05417 -4.05811 0
M  V30 2299 H 210.493 4.40011 -2.89306 0
M  V30 2300 H 212.984 2.91784 -2.40147 0
M  V30 2301 H 213.297 5.55002 -5.37766 0
M  V30 2302 H 211.642 4.99612 -4.83128 0
M  V30 2303 H 214.833 3.56016 -3.03924 0
M  V30 2304 H 215.006 4.76061 -4.39624 0
M  V30 2305 N 208.412 0.89855 1.29475 0
M  V30 2306 C 209.642 0.538479 1.99459 0
M  V30 2307 C 210.05 -0.880922 1.67441 0
M  V30 2308 O 209.393 -1.59283 0.915127 0
M  V30 2309 C 209.455 0.649564 3.53583 0
M  V30 2310 C 209.119 2.03573 4.09154 0
M  V30 2311 C 210.116 3.00675 4.24135 0
M  V30 2312 C 207.801 2.3448 4.44212 0
M  V30 2313 C 209.795 4.26809 4.73405 0
M  V30 2314 C 207.482 3.60857 4.93179 0
M  V30 2315 C 208.48 4.56836 5.0773 0
M  V30 2316 O 208.168 5.80969 5.55635 0
M  V30 2317 H 207.9 0.205372 0.644048 0
M  V30 2318 H 210.454 1.20958 1.66007 0
M  V30 2319 H 208.684 -0.0785592 3.8662 0
M  V30 2320 H 210.373 0.29881 4.04799 0
M  V30 2321 H 211.139 2.78112 3.97339 0
M  V30 2322 H 207.018 1.60534 4.32145 0
M  V30 2323 H 210.562 5.0173 4.84678 0
M  V30 2324 H 206.459 3.83251 5.19412 0
M  V30 2325 H 207.227 5.83542 5.73952 0
M  V30 2326 N 209.89 -1.43072 0.660911 0
M  V30 2327 C 210.853 -2.29194 -0.0166406 0
M  V30 2328 C 211.853 -1.42609 -0.742912 0
M  V30 2329 O 213.043 -1.64155 -0.583004 0
M  V30 2330 C 210.175 -3.24831 -1.0343 0
M  V30 2331 H 211.368 -2.90596 0.741208 0
M  V30 2332 H 208.921 -1.5048 0.422532 0
M  V30 2333 H 209.656 -2.68339 -1.82111 0
M  V30 2334 H 209.441 -3.88676 -0.517082 0
M  V30 2335 H 210.931 -3.89451 -1.50723 0
M  V30 2336 N 211.368 -0.403325 -1.52352 0
M  V30 2337 C 212.616 0.174003 -2.0135 0
M  V30 2338 C 212.937 1.46139 -1.29106 0
M  V30 2339 O 212.207 1.91448 -0.415253 0
M  V30 2340 H 210.787 0.0672911 -0.743963 0
M  V30 2341 H 213.449 -0.538235 -1.87321 0
M  V30 2342 H 212.545 0.374254 -3.09848 0
M  V30 2343 N 212.846 1.57033 -0.133567 0
M  V30 2344 C 213.776 2.1909 0.807567 0
M  V30 2345 C 214.757 1.13517 1.26681 0
M  V30 2346 O 215.942 1.41809 1.32679 0
M  V30 2347 C 213.072 2.80188 2.05212 0
M  V30 2348 C 212.026 3.91471 1.73015 0
M  V30 2349 C 211.352 4.39443 3.04622 0
M  V30 2350 C 212.652 5.12886 0.987168 0
M  V30 2351 H 214.346 2.97988 0.290403 0
M  V30 2352 H 211.892 1.43335 0.138239 0
M  V30 2353 H 213.845 3.22264 2.71521 0
M  V30 2354 H 212.569 1.98601 2.59278 0
M  V30 2355 H 211.228 3.49993 1.0909 0
M  V30 2356 H 210.876 3.54695 3.56651 0
M  V30 2357 H 210.576 5.14495 2.83847 0
M  V30 2358 H 212.1 4.8418 3.72024 0
M  V30 2359 H 213.514 5.51891 1.55208 0
M  V30 2360 H 211.911 5.93615 0.87985 0
M  V30 2361 H 212.981 4.84894 -0.0235286 0
M  V30 2362 N 214.325 -0.140222 1.56975 0
M  V30 2363 C 215.272 -1.17292 1.98774 0
M  V30 2364 C 216.242 -1.4232 0.856408 0
M  V30 2365 O 217.427 -1.54541 1.119 0
M  V30 2366 C 214.567 -2.49973 2.37923 0
M  V30 2367 C 213.68 -2.32062 3.64378 0
M  V30 2368 C 212.815 -3.57825 3.926 0
M  V30 2369 C 211.854 -3.3498 5.12303 0
M  V30 2370 N 210.991 -4.52891 5.36502 0
M  V30 2371 H 215.831 -0.809472 2.86795 0
M  V30 2372 H 213.368 -0.388237 1.41884 0
M  V30 2373 H 215.326 -3.27346 2.58652 0
M  V30 2374 H 213.956 -2.84252 1.52972 0
M  V30 2375 H 213.008 -1.45711 3.51387 0
M  V30 2376 H 214.32 -2.11145 4.51906 0
M  V30 2377 H 213.474 -4.43624 4.13863 0
M  V30 2378 H 212.213 -3.81753 3.03506 0
M  V30 2379 H 211.218 -2.4757 4.90906 0
M  V30 2380 H 212.443 -3.12444 6.02956 0
M  V30 2381 H 210.389 -4.76979 4.50363 0
M  V30 2382 H 210.306 -4.35001 6.18312 0
M  V30 2383 H 211.574 -5.39884 5.62268 0
M  V30 2384 N 215.803 -1.52179 -0.40978 0
M  V30 2385 C 217.214 -1.58377 -0.988615 0
M  V30 2386 C 217.565 -0.423879 -1.91566 0
M  V30 2387 O 216.69 0.455844 -2.11544 0
M  V30 2388 C 217.285 -2.87044 -1.79976 0
M  V30 2389 C 215.844 -2.95722 -2.32863 0
M  V30 2390 C 214.991 -2.53309 -1.12828 0
M  V30 2391 H 217.942 -1.57558 -0.190039 0
M  V30 2392 H 217.963 -2.7236 -2.65707 0
M  V30 2393 H 217.475 -3.71444 -1.12478 0
M  V30 2394 H 215.576 -2.15814 -3.03735 0
M  V30 2395 H 215.689 -3.99951 -2.63773 0
M  V30 2396 H 214.053 -2.07142 -1.48204 0
M  V30 2397 H 214.836 -3.40082 -0.46897 0
M  V30 2398 N 217.281 0.66697 -1.42791 0
M  V30 2399 C 218.529 1.42417 -1.43394 0
M  V30 2400 C 218.85 1.94925 -0.0542373 0
M  V30 2401 O 218.12 1.73564 0.908415 0
M  V30 2402 H 216.7 0.528515 -0.527902 0
M  V30 2403 H 219.362 0.787562 -1.78279 0
M  V30 2404 H 218.458 2.27333 -2.13837 0
M  V30 2405 N 218.759 1.29093 0.90403 0
M  V30 2406 C 219.669 1.15727 2.0407 0
M  V30 2407 C 220.685 0.0815308 1.73809 0
M  V30 2408 O 221.861 0.292749 1.99261 0
M  V30 2409 C 218.926 0.830424 3.36608 0
M  V30 2410 C 217.987 1.98955 3.80415 0
M  V30 2411 C 217.22 1.6782 5.06628 0
M  V30 2412 O 217.443 0.597105 5.67266 0
M  V30 2413 O 216.377 2.52486 5.46383 0
M  V30 2414 H 220.203 2.11171 2.18267 0
M  V30 2415 H 217.788 1.08504 1.027 0
M  V30 2416 H 219.67 0.662521 4.16159 0
M  V30 2417 H 218.345 -0.0942678 3.23563 0
M  V30 2418 H 217.252 2.21267 3.01648 0
M  V30 2419 H 218.585 2.89529 3.98037 0
M  V30 2420 N 220.237 -1.11381 1.11499 0
M  V30 2421 C 221.167 -2.19509 0.796125 0
M  V30 2422 C 222.148 -1.68458 -0.235796 0
M  V30 2423 O 223.333 -1.93947 -0.0991344 0
M  V30 2424 C 220.463 -3.46475 0.239205 0
M  V30 2425 C 219.417 -4.10744 1.20307 0
M  V30 2426 C 218.743 -5.32293 0.50683 0
M  V30 2427 C 220.043 -4.55597 2.55399 0
M  V30 2428 H 221.737 -2.46439 1.70024 0
M  V30 2429 H 219.283 -1.18446 0.818935 0
M  V30 2430 H 221.236 -4.214 0.00392006 0
M  V30 2431 H 219.96 -3.19006 -0.700206 0
M  V30 2432 H 218.619 -3.37813 1.42399 0
M  V30 2433 H 218.267 -5.01095 -0.437408 0
M  V30 2434 H 217.967 -5.76243 1.1497 0
M  V30 2435 H 219.491 -6.09956 0.280351 0
M  V30 2436 H 220.905 -5.21841 2.37391 0
M  V30 2437 H 219.302 -5.10363 3.15673 0
M  V30 2438 H 220.372 -3.69013 3.14575 0
M  V30 2439 N 221.715 -0.905404 -1.28997 0
M  V30 2440 C 223.126 -0.581953 -1.77398 0
M  V30 2441 C 223.477 0.902552 -1.74208 0
M  V30 2442 O 222.602 1.70584 -1.33154 0
M  V30 2443 C 223.197 -1.04961 -3.22131 0
M  V30 2444 C 221.756 -0.777229 -3.68288 0
M  V30 2445 C 220.903 -1.22109 -2.48967 0
M  V30 2446 H 223.854 -1.08754 -1.15578 0
M  V30 2447 H 223.875 -0.387387 -3.78523 0
M  V30 2448 H 223.387 -2.13008 -3.24421 0
M  V30 2449 H 221.488 0.290383 -3.71467 0
M  V30 2450 H 221.601 -1.37911 -4.58822 0
M  V30 2451 H 219.965 -0.639971 -2.46529 0
M  V30 2452 H 220.748 -2.30972 -2.53982 0
M  V30 2453 N 223.193 1.4272 -0.668489 0
M  V30 2454 C 224.421 2.05966 -0.196348 0
M  V30 2455 C 224.836 1.50191 1.14403 0
M  V30 2456 O 224.193 0.639208 1.7094 0
M  V30 2457 C 224.244 3.61314 -0.115815 0
M  V30 2458 O 223.965 4.1502 -1.40322 0
M  V30 2459 C 225.466 4.41663 0.380579 0
M  V30 2460 H 222.686 0.663954 -0.0969829 0
M  V30 2461 H 225.23 1.82966 -0.913446 0
M  V30 2462 H 223.385 3.83448 0.551931 0
M  V30 2463 H 223.799 5.08832 -1.27243 0
M  V30 2464 H 225.273 5.5065 0.385848 0
M  V30 2465 H 225.75 4.15792 1.41471 0
M  V30 2466 H 226.356 4.24534 -0.255209 0
M  V30 2467 N 224.671 0.411399 1.52136 0
M  V30 2468 C 225.911 -0.163143 2.03748 0
M  V30 2469 C 226.275 -1.42187 1.29022 0
M  V30 2470 O 227.476 -2.075 1.70872 0
M  V30 2471 C 225.747 -0.402651 3.55125 0
M  V30 2472 S 227.306 -0.944315 4.28519 0
M  V30 2473 H 224.124 -0.0439833 0.709638 0
M  V30 2474 H 226.726 0.56484 1.87163 0
M  V30 2475 H 225.43 0.520212 4.0709 0
M  V30 2476 H 224.961 -1.15844 3.75957 0
M  V30 2477 H 226.976 -2.22463 4.43536 0
M  V30 2478 N 226.149 -1.5696 0.141893 0
M  V30 2479 C 227.059 -2.20066 -0.812905 0
M  V30 2480 C 228.075 -1.18344 -1.27557 0
M  V30 2481 O 229.251 -1.50902 -1.33381 0
M  V30 2482 C 226.316 -2.80583 -2.03652 0
M  V30 2483 C 225.377 -3.97414 -1.62359 0
M  V30 2484 C 224.61 -4.55036 -2.78887 0
M  V30 2485 O 224.833 -4.11538 -3.94959 0
M  V30 2486 O 223.767 -5.45376 -2.54653 0
M  V30 2487 H 227.593 -3.02157 -0.305746 0
M  V30 2488 H 225.178 -1.49159 -0.0848799 0
M  V30 2489 H 227.06 -3.19067 -2.75272 0
M  V30 2490 H 225.735 -2.01508 -2.5333 0
M  V30 2491 H 224.642 -3.63656 -0.877775 0
M  V30 2492 H 225.975 -4.77994 -1.17401 0
M  V30 2493 N 227.627 0.131896 -1.57047 0
M  V30 2494 C 228.852 0.860418 -1.8871 0
M  V30 2495 C 229.277 1.73251 -0.73251 0
M  V30 2496 O 228.635 1.785 0.317429 0
M  V30 2497 C 228.683 1.68047 -3.19049 0
M  V30 2498 O 227.787 2.7862 -3.04047 0
M  V30 2499 H 227.128 0.238743 -0.619595 0
M  V30 2500 H 229.658 0.118169 -2.04258 0
M  V30 2501 H 229.668 2.07238 -3.51449 0
M  V30 2502 H 228.343 1.04018 -4.02682 0
M  V30 2503 H 226.92 2.42726 -2.83088 0
M  V30 2504 N 229.106 1.52395 0.401703 0
M  V30 2505 C 230.036 1.79231 1.49661 0
M  V30 2506 C 231.017 0.643654 1.57452 0
M  V30 2507 O 232.202 0.889989 1.72606 0
M  V30 2508 C 229.332 1.94971 2.87409 0
M  V30 2509 C 228.286 3.10604 2.94465 0
M  V30 2510 C 227.612 3.11577 4.34538 0
M  V30 2511 C 228.912 4.49921 2.6527 0
M  V30 2512 H 230.606 2.70917 1.27454 0
M  V30 2513 H 228.152 1.30362 0.6117 0
M  V30 2514 H 230.105 2.12328 3.63999 0
M  V30 2515 H 228.829 0.999632 3.10926 0
M  V30 2516 H 227.488 2.93009 2.20321 0
M  V30 2517 H 227.136 2.14277 4.55076 0
M  V30 2518 H 226.836 3.89247 4.40183 0
M  V30 2519 H 228.36 3.31073 5.13053 0
M  V30 2520 H 229.774 4.67683 3.31581 0
M  V30 2521 H 228.171 5.29564 2.82281 0
M  V30 2522 H 229.241 4.57507 1.60671 0
M  V30 2523 N 230.584 -0.659388 1.43143 0
M  V30 2524 C 231.531 -1.77249 1.47822 0
M  V30 2525 C 232.501 -1.62818 0.328558 0
M  V30 2526 O 233.686 -1.83151 0.534838 0
M  V30 2527 C 230.826 -3.15371 1.40126 0
M  V30 2528 C 229.939 -3.4098 2.65249 0
M  V30 2529 C 229.074 -4.68915 2.49584 0
M  V30 2530 C 228.113 -4.87608 3.70006 0
M  V30 2531 N 227.25 -6.06796 3.53189 0
M  V30 2532 H 232.09 -1.72584 2.42938 0
M  V30 2533 H 229.627 -0.842297 1.20598 0
M  V30 2534 H 231.585 -3.9521 1.33659 0
M  V30 2535 H 230.215 -3.19121 0.485964 0
M  V30 2536 H 229.267 -2.55282 2.8202 0
M  V30 2537 H 230.579 -3.50681 3.54717 0
M  V30 2538 H 229.733 -5.56871 2.4079 0
M  V30 2539 H 228.472 -4.61524 1.5763 0
M  V30 2540 H 227.477 -3.9809 3.79215 0
M  V30 2541 H 228.702 -4.96834 4.62961 0
M  V30 2542 H 226.648 -6.00549 2.63965 0
M  V30 2543 H 226.565 -6.17428 4.36255 0
M  V30 2544 H 227.833 -6.9739 3.48236 0
M  V30 2545 N 232.062 -1.29571 -0.897171 0
M  V30 2546 C 233.339 -1.08365 -1.62839 0
M  V30 2547 C 233.719 0.371331 -2.07808 0
M  V30 2548 O 233.067 1.3606 -1.83576 0
M  V30 2549 C 233.277 -2.0735 -2.80726 0
M  V30 2550 C 234.625 -2.38406 -3.51351 0
M  V30 2551 O 235.649 -2.05564 -2.90898 0
M  V30 2552 O 234.508 -2.9453 -4.60341 0
M  V30 2553 H 231.602 -0.415345 -0.715134 0
M  V30 2554 H 234.148 -1.40952 -0.945018 0
M  V30 2555 H 232.92 -3.05339 -2.44711 0
M  V30 2556 H 232.543 -1.75507 -3.56767 0
M  V30 2557 N 233.54 1.10788 -1.12088 0
M  V30 2558 C 234.768 1.86461 -0.896651 0
M  V30 2559 C 235.183 1.80492 0.553912 0
M  V30 2560 O 234.54 1.19102 1.38278 0
M  V30 2561 C 234.591 3.35006 -1.35843 0
M  V30 2562 O 234.312 3.40866 -2.75213 0
M  V30 2563 C 235.813 4.27565 -1.1706 0
M  V30 2564 H 233.033 0.589425 -0.320654 0
M  V30 2565 H 235.577 1.40076 -1.48993 0
M  V30 2566 H 233.732 3.7887 -0.808458 0
M  V30 2567 H 234.146 4.33411 -2.9539 0
M  V30 2568 H 235.62 5.30007 -1.54263 0
M  V30 2569 H 236.097 4.3906 -0.110814 0
M  V30 2570 H 236.703 3.89501 -1.70789 0
M  V30 2571 N 235.018 0.912232 1.28515 0
M  V30 2572 C 236.267 0.540504 1.94323 0
M  V30 2573 C 236.58 -0.920044 1.72611 0
M  V30 2574 O 237.786 -1.39986 2.32629 0
M  V30 2575 C 236.242 0.915803 3.48053 0
M  V30 2576 C 235.85 2.39598 3.78546 0
M  V30 2577 C 237.594 0.614588 4.20027 0
M  V30 2578 C 235.501 2.71148 5.25578 0
M  V30 2579 H 234.431 0.198418 0.727424 0
M  V30 2580 H 237.082 1.11094 1.46049 0
M  V30 2581 H 235.464 0.274168 3.9505 0
M  V30 2582 H 236.638 3.08422 3.42364 0
M  V30 2583 H 234.953 2.66749 3.1974 0
M  V30 2584 H 237.55 0.827002 5.28266 0
M  V30 2585 H 237.893 -0.447531 4.13887 0
M  V30 2586 H 238.426 1.21462 3.78803 0
M  V30 2587 H 235.165 3.76207 5.36794 0
M  V30 2588 H 234.685 2.0696 5.62963 0
M  V30 2589 H 236.364 2.58072 5.93302 0
M  V30 2590 N 236.496 -1.42363 0.676048 0
M  V30 2591 C 237.459 -2.29199 0.00766941 0
M  V30 2592 C 238.459 -1.43389 -0.727745 0
M  V30 2593 O 239.649 -1.64764 -0.56556 0
M  V30 2594 C 236.781 -3.2591 -0.999785 0
M  V30 2595 H 237.974 -2.89794 0.771988 0
M  V30 2596 H 235.527 -1.50024 0.438468 0
M  V30 2597 H 236.262 -2.70256 -1.79255 0
M  V30 2598 H 236.047 -3.89202 -0.475829 0
M  V30 2599 H 237.537 -3.91028 -1.46583 0
M  V30 2600 N 237.974 -0.419461 -1.51915 0
M  V30 2601 C 239.39 -0.0708431 -1.59443 0
M  V30 2602 C 239.59 1.41796 -1.43164 0
M  V30 2603 O 238.646 2.18596 -1.26381 0
M  V30 2604 C 239.959 -0.574991 -2.95151 0
M  V30 2605 C 241.507 -0.533867 -3.08413 0
M  V30 2606 C 241.982 -1.01469 -4.46618 0
M  V30 2607 N 243.473 -0.971939 -4.52888 0
M  V30 2608 C 244.208 -1.31505 -5.58116 0
M  V30 2609 N 243.704 -1.73014 -6.70849 0
M  V30 2610 N 245.497 -1.23436 -5.48379 0
M  V30 2611 H 237.648 -1.38836 -1.60743 0
M  V30 2612 H 239.911 -0.570998 -0.756747 0
M  V30 2613 H 239.617 -1.61597 -3.12377 0
M  V30 2614 H 239.491 0.00979777 -3.77199 0
M  V30 2615 H 241.878 0.498086 -2.90866 0
M  V30 2616 H 241.959 -1.15484 -2.28248 0
M  V30 2617 H 241.603 -2.04502 -4.6491 0
M  V30 2618 H 241.533 -0.370433 -5.25295 0
M  V30 2619 H 244.024 -0.666893 -3.71969 0
M  V30 2620 H 244.337 -1.97479 -7.47143 0
M  V30 2621 H 242.682 -1.76926 -6.72103 0
M  V30 2622 H 245.873 -0.908869 -4.59192 0
M  V30 2623 H 246.046 -1.50506 -6.30279 0
M  V30 2624 N 239.452 1.56882 -0.150215 0
M  V30 2625 C 240.415 2.1573 0.774157 0
M  V30 2626 C 241.415 1.0999 1.17298 0
M  V30 2627 O 242.605 1.35613 1.09338 0
M  V30 2628 C 239.737 2.72302 2.05096 0
M  V30 2629 H 240.93 2.98752 0.262201 0
M  V30 2630 H 238.483 1.55985 0.099248 0
M  V30 2631 H 239.218 1.92956 2.6065 0
M  V30 2632 H 239.003 3.49665 1.77416 0
M  V30 2633 H 240.493 3.17632 2.71109 0
M  V30 2634 N 240.93 -0.123565 1.57115 0
M  V30 2635 C 241.86 -1.15309 2.03042 0
M  V30 2636 C 242.841 -1.43454 0.914061 0
M  V30 2637 O 244.026 -1.53973 1.18347 0
M  V30 2638 C 241.156 -2.48043 2.43089 0
M  V30 2639 C 240.11 -2.3437 3.58127 0
M  V30 2640 C 239.436 -3.72026 3.84059 0
M  V30 2641 C 240.736 -1.80804 4.90007 0
M  V30 2642 H 242.43 -0.771102 2.893 0
M  V30 2643 H 239.976 -0.369479 1.39179 0
M  V30 2644 H 241.929 -3.20311 2.73823 0
M  V30 2645 H 240.653 -2.88122 1.53796 0
M  V30 2646 H 239.312 -1.64551 3.27595 0
M  V30 2647 H 238.96 -4.09582 2.91979 0
M  V30 2648 H 238.66 -3.63732 4.6149 0
M  V30 2649 H 240.184 -4.45806 4.1724 0
M  V30 2650 H 241.598 -2.42886 5.19307 0
M  V30 2651 H 239.995 -1.83343 5.71407 0
M  V30 2652 H 241.065 -0.76528 4.78823 0
M  V30 2653 N 242.408 -1.52605 -0.393616 0
M  V30 2654 C 243.819 -1.59417 -0.971761 0
M  V30 2655 C 244.17 -0.444173 -1.91106 0
M  V30 2656 O 243.295 0.433382 -2.12016 0
M  V30 2657 C 243.89 -2.88936 -1.76921 0
M  V30 2658 C 242.449 -2.98175 -2.29714 0
M  V30 2659 C 241.596 -2.54491 -1.10135 0
M  V30 2660 H 244.547 -1.57751 -0.173317 0
M  V30 2661 H 244.568 -2.75163 -2.62804 0
M  V30 2662 H 244.08 -3.72616 -1.08532 0
M  V30 2663 H 242.181 -2.19024 -3.01429 0
M  V30 2664 H 242.294 -4.02726 -2.59517 0
M  V30 2665 H 240.658 -2.08702 -1.45999 0
M  V30 2666 H 241.441 -3.4056 -0.432874 0
M  V30 2667 N 243.887 0.651787 -1.4349 0
M  V30 2668 C 245.134 1.41167 -1.45183 0
M  V30 2669 C 245.462 1.94349 -0.0766601 0
M  V30 2670 O 244.717 1.72804 0.918555 0
M  V30 2671 C 245.016 2.60914 -2.44251 0
M  V30 2672 C 244.682 2.26142 -3.9009 0
M  V30 2673 C 243.344 2.16371 -4.2981 0
M  V30 2674 C 245.696 1.98334 -4.81989 0
M  V30 2675 C 243.024 1.7695 -5.5938 0
M  V30 2676 C 245.376 1.6041 -6.11924 0
M  V30 2677 C 244.04 1.49166 -6.5062 0
M  V30 2678 H 243.31 0.516566 -0.531263 0
M  V30 2679 H 245.957 0.741099 -1.76579 0
M  V30 2680 H 244.262 3.3311 -2.06265 0
M  V30 2681 H 245.959 3.19127 -2.42815 0
M  V30 2682 H 242.549 2.34658 -3.58655 0
M  V30 2683 H 246.733 2.04803 -4.52072 0
M  V30 2684 H 241.989 1.66831 -5.88198 0
M  V30 2685 H 246.163 1.37925 -6.82605 0
M  V30 2686 H 243.79 1.1839 -7.50925 0
M  V30 2687 N 245.365 1.30045 0.890287 0
M  V30 2688 C 246.611 1.19747 1.64415 0
M  V30 2689 C 246.966 -0.246591 1.90813 0
M  V30 2690 O 246.259 -1.174 1.51419 0
M  V30 2691 C 246.453 1.95409 2.99249 0
M  V30 2692 C 246.282 3.47025 2.86013 0
M  V30 2693 C 245.052 4.1638 2.86279 0
M  V30 2694 C 247.25 4.42353 2.62351 0
M  V30 2695 N 245.232 5.54293 2.63879 0
M  V30 2696 C 246.603 5.67792 2.49022 0
M  V30 2697 C 248.658 4.32009 2.47533 0
M  V30 2698 C 247.361 6.8406 2.22383 0
M  V30 2699 C 249.387 5.48038 2.22279 0
M  V30 2700 C 248.749 6.72455 2.09722 0
M  V30 2701 H 244.848 0.493223 0.60684 0
M  V30 2702 H 247.432 1.6399 1.04954 0
M  V30 2703 H 245.603 1.53565 3.56752 0
M  V30 2704 H 247.335 1.77298 3.63796 0
M  V30 2705 H 244.09 3.68164 2.97913 0
M  V30 2706 H 244.514 6.26852 2.55706 0
M  V30 2707 H 249.156 3.36503 2.55979 0
M  V30 2708 H 246.874 7.79612 2.12675 0
M  V30 2709 H 250.46 5.41939 2.11643 0
M  V30 2710 H 249.34 7.60722 1.90453 0
M  V30 2711 N 246.843 -1.10192 1.12674 0
M  V30 2712 C 247.791 -2.18694 0.792196 0
M  V30 2713 C 248.785 -1.67938 -0.222058 0
M  V30 2714 O 249.991 -1.79822 -0.0800074 0
M  V30 2715 H 246.366 -0.713223 0.238364 0
M  V30 2716 H 248.337 -2.44149 1.71564 0
M  V30 2717 C 247.086 -3.46682 0.265859 0
M  V30 2718 H 246.409 -3.86101 1.03761 0
M  V30 2719 H 247.849 -4.23942 0.0701128 0
M  V30 2720 C 246.308 -3.21506 -1.00675 0
M  V30 2721 O 246.838 -3.43408 -2.08408 0
M  V30 2722 N 245.044 -2.75158 -0.934692 0
M  V30 2723 H 244.591 -2.57535 -0.0578604 0
M  V30 2724 H 244.549 -2.58691 -1.7868 0
M  V30 2725 N 248.321 -0.919034 -1.28029 0
M  V30 2726 C 249.231 -0.416756 -2.30869 0
M  V30 2727 C 250.247 0.498235 -1.66714 0
M  V30 2728 O 251.423 0.383144 -1.97722 0
M  V30 2729 C 248.488 0.330274 -3.45123 0
M  V30 2730 C 247.549 -0.618578 -4.2482 0
M  V30 2731 C 246.782 0.0928959 -5.33619 0
M  V30 2732 O 247.005 1.31375 -5.55065 0
M  V30 2733 O 245.939 -0.574499 -5.99152 0
M  V30 2734 H 249.765 -1.27043 -2.75851 0
M  V30 2735 H 247.35 -0.684052 -1.3282 0
M  V30 2736 H 249.232 0.751972 -4.14636 0
M  V30 2737 H 247.907 1.1597 -3.02213 0
M  V30 2738 H 246.814 -1.08978 -3.57875 0
M  V30 2739 H 248.147 -1.41497 -4.71423 0
M  V30 2740 N 249.799 1.42003 -0.683588 0
M  V30 2741 C 250.709 2.34597 -0.0109075 0
M  V30 2742 C 251.725 1.55576 0.779245 0
M  V30 2743 O 252.901 1.88107 0.719555 0
M  V30 2744 C 249.966 3.34199 0.922588 0
M  V30 2745 C 249.027 4.29115 0.125984 0
M  V30 2746 C 248.26 5.23959 1.01502 0
M  V30 2747 O 248.483 5.23952 2.25456 0
M  V30 2748 O 247.417 6.00053 0.47111 0
M  V30 2749 H 251.243 2.93675 -0.773853 0
M  V30 2750 H 248.828 1.42654 -0.443861 0
M  V30 2751 H 250.71 3.95365 1.45823 0
M  V30 2752 H 249.385 2.77582 1.66523 0
M  V30 2753 H 248.292 3.71335 -0.453969 0
M  V30 2754 H 249.625 4.88798 -0.577736 0
M  V30 2755 N 251.277 0.427512 1.51691 0
M  V30 2756 C 252.526 -0.143679 2.01188 0
M  V30 2757 C 252.839 -1.44642 1.31674 0
M  V30 2758 O 254.045 -2.09997 1.72086 0
M  V30 2759 C 252.501 -0.306602 3.58592 0
M  V30 2760 C 252.109 0.985125 4.37035 0
M  V30 2761 C 253.853 -0.832091 4.16265 0
M  V30 2762 C 251.76 0.788382 5.86122 0
M  V30 2763 H 250.69 -0.0574701 0.751807 0
M  V30 2764 H 253.341 0.555772 1.74881 0
M  V30 2765 H 251.723 -1.06882 3.81303 0
M  V30 2766 H 252.897 1.75492 4.26074 0
M  V30 2767 H 251.212 1.4384 3.90767 0
M  V30 2768 H 253.809 -0.995617 5.25349 0
M  V30 2769 H 254.152 -1.81186 3.74803 0
M  V30 2770 H 254.685 -0.128444 3.97593 0
M  V30 2771 H 251.424 1.74025 6.31978 0
M  V30 2772 H 250.944 0.0582143 5.99772 0
M  V30 2773 H 252.623 0.437722 6.45518 0
M  V30 2774 N 252.755 -1.56801 0.158532 0
M  V30 2775 C 254.001 -1.96781 -0.490405 0
M  V30 2776 C 254.334 -1.04397 -1.63753 0
M  V30 2777 O 253.609 -0.0885805 -1.94298 0
M  V30 2778 C 253.892 -3.4635 -0.985594 0
M  V30 2779 C 253.745 -4.49512 0.160824 0
M  V30 2780 C 255.064 -3.98697 -1.86355 0
M  V30 2781 H 252.183 -0.715482 -0.176788 0
M  V30 2782 H 254.825 -1.88451 0.242088 0
M  V30 2783 H 252.975 -3.53579 -1.60978 0
M  V30 2784 H 254.647 -4.54353 0.797537 0
M  V30 2785 H 252.89 -4.26013 0.818256 0
M  V30 2786 H 253.561 -5.51531 -0.227569 0
M  V30 2787 H 256.037 -3.94019 -1.33746 0
M  V30 2788 H 254.913 -5.03792 -2.17909 0
M  V30 2789 H 255.174 -3.41744 -2.8047 0
M  V30 2790 N 254.233 0.115231 -1.57178 0
M  V30 2791 C 255.644 0.67197 -1.74188 0
M  V30 2792 C 255.995 1.80125 -0.777777 0
M  V30 2793 O 255.12 2.16346 0.0484376 0
M  V30 2794 C 255.715 1.22573 -3.1585 0
M  V30 2795 C 254.274 1.72872 -3.34353 0
M  V30 2796 C 253.421 0.629972 -2.70049 0
M  V30 2797 H 256.372 -0.110712 -1.58313 0
M  V30 2798 H 256.393 2.09535 -3.17609 0
M  V30 2799 H 255.905 0.403598 -3.85996 0
M  V30 2800 H 254.006 2.5755 -2.69256 0
M  V30 2801 H 254.119 1.83557 -4.42542 0
M  V30 2802 H 252.483 1.0645 -2.31388 0
M  V30 2803 H 253.266 -0.181241 -3.42821 0
M  V30 2804 N 255.711 1.52812 0.385517 0
M  V30 2805 C 256.643 1.74096 1.49074 0
M  V30 2806 C 257.656 0.621462 1.50472 0
M  V30 2807 O 258.845 0.897245 1.54311 0
M  V30 2808 C 255.945 1.78774 2.87911 0
M  V30 2809 C 255.118 3.08134 3.10439 0
M  V30 2810 C 254.177 3.04313 4.29278 0
M  V30 2811 O 253.203 3.78168 4.25415 0
M  V30 2812 N 254.405 2.23741 5.35649 0
M  V30 2813 H 257.17 2.69455 1.31202 0
M  V30 2814 H 254.731 1.51343 0.575065 0
M  V30 2815 H 256.723 1.73721 3.65518 0
M  V30 2816 H 255.293 0.907869 2.99126 0
M  V30 2817 H 254.513 3.26649 2.20667 0
M  V30 2818 H 255.801 3.93662 3.22347 0
M  V30 2819 H 255.199 1.63211 5.41645 0
M  V30 2820 H 253.756 2.24524 6.11909 0
M  V30 2821 N 257.189 -0.644168 1.43834 0
M  V30 2822 C 258.438 -1.39985 1.45214 0
M  V30 2823 C 258.751 -1.95421 0.0835494 0
M  V30 2824 O 259.957 -2.71488 -0.0251748 0
M  V30 2825 C 258.413 -2.53384 2.55587 0
M  V30 2826 C 258.021 -2.04517 3.98594 0
M  V30 2827 C 259.765 -3.30685 2.66172 0
M  V30 2828 C 257.672 -3.1518 5.00416 0
M  V30 2829 H 256.602 -0.526005 0.540218 0
M  V30 2830 H 259.253 -0.694367 1.69855 0
M  V30 2831 H 257.635 -3.26446 2.24163 0
M  V30 2832 H 258.809 -1.38405 4.39523 0
M  V30 2833 H 257.124 -1.40068 3.92135 0
M  V30 2834 H 259.721 -4.13158 3.39418 0
M  V30 2835 H 260.064 -3.79312 1.71546 0
M  V30 2836 H 260.597 -2.64708 2.96942 0
M  V30 2837 H 257.336 -2.71511 5.96625 0
M  V30 2838 H 256.856 -3.79974 4.64091 0
M  V30 2839 H 258.535 -3.80166 5.23529 0
M  V30 2840 N 258.668 -1.30515 -0.883378 0
M  V30 2841 C 259.615 -1.17032 -1.98927 0
M  V30 2842 C 260.585 -0.0594241 -1.65994 0
M  V30 2843 O 261.77 -0.229895 -1.8941 0
M  V30 2844 C 258.91 -0.869777 -3.33959 0
M  V30 2845 C 258.023 -2.06271 -3.79574 0
M  V30 2846 C 257.158 -1.70011 -5.03259 0
M  V30 2847 C 256.197 -2.8579 -5.41286 0
M  V30 2848 N 255.334 -2.49816 -6.56153 0
M  V30 2849 H 260.174 -2.1164 -2.09792 0
M  V30 2850 H 257.711 -1.05296 -1.02719 0
M  V30 2851 H 259.669 -0.676138 -4.11685 0
M  V30 2852 H 258.299 0.0394332 -3.22776 0
M  V30 2853 H 257.351 -2.36755 -2.97744 0
M  V30 2854 H 258.663 -2.92971 -4.03694 0
M  V30 2855 H 257.817 -1.47032 -5.88614 0
M  V30 2856 H 256.556 -0.804829 -4.81013 0
M  V30 2857 H 255.561 -3.09434 -4.54456 0
M  V30 2858 H 256.786 -3.76008 -5.65504 0
M  V30 2859 H 254.732 -1.62795 -6.35479 0
M  V30 2860 H 254.649 -3.30048 -6.8015 0
M  V30 2861 H 255.917 -2.30197 -7.44735 0
M  V30 2862 N 260.146 1.09593 -1.13257 0
M  V30 2863 C 261.109 2.14359 -0.811358 0
M  V30 2864 C 262.109 1.59808 0.178377 0
M  V30 2865 O 263.299 1.74132 -0.0484911 0
M  V30 2866 C 260.431 3.40269 -0.207276 0
M  V30 2867 H 261.624 2.44284 -1.73969 0
M  V30 2868 H 259.177 1.25102 -0.936973 0
M  V30 2869 H 259.912 3.15969 0.73036 0
M  V30 2870 H 259.697 3.81154 -0.919992 0
M  V30 2871 H 261.187 4.176 0.000667944 0
M  V30 2872 N 261.624 0.925811 1.2754 0
M  V30 2873 C 262.872 0.564138 1.94067 0
M  V30 2874 C 263.193 -0.897188 1.73134 0
M  V30 2875 O 262.463 -1.63573 1.07799 0
M  V30 2876 H 261.043 0.205645 0.718136 0
M  V30 2877 H 263.705 1.1778 1.55287 0
M  V30 2878 H 262.801 0.76881 3.02483 0
M  V30 2879 N 263.102 -1.41638 0.69111 0
M  V30 2880 C 264.049 -2.30789 0.0229705 0
M  V30 2881 C 265.019 -1.46863 -0.775911 0
M  V30 2882 O 266.204 -1.75661 -0.74485 0
M  V30 2883 C 263.344 -3.32868 -0.910666 0
M  V30 2884 C 262.457 -4.31875 -0.103874 0
M  V30 2885 C 261.592 -5.21024 -1.03475 0
M  V30 2886 C 260.631 -6.11702 -0.220598 0
M  V30 2887 N 259.768 -6.93349 -1.10504 0
M  V30 2888 H 264.608 -2.87366 0.788978 0
M  V30 2889 H 262.145 -1.41535 0.400794 0
M  V30 2890 H 264.103 -3.90596 -1.46597 0
M  V30 2891 H 262.733 -2.77851 -1.64312 0
M  V30 2892 H 261.785 -3.76131 0.568285 0
M  V30 2893 H 263.097 -4.96003 0.527504 0
M  V30 2894 H 262.251 -5.83565 -1.65943 0
M  V30 2895 H 260.99 -4.57112 -1.69999 0
M  V30 2896 H 259.995 -5.48215 0.417187 0
M  V30 2897 H 261.22 -6.77668 0.440784 0
M  V30 2898 H 259.166 -6.3205 -1.75638 0
M  V30 2899 H 259.083 -7.54146 -0.529125 0
M  V30 2900 H 260.351 -7.60362 -1.71667 0
M  V30 2901 N 264.58 -0.43555 -1.51462 0
M  V30 2902 C 265.996 -0.0877501 -1.59359 0
M  V30 2903 C 266.196 1.4027 -1.4466 0
M  V30 2904 O 265.252 2.17243 -1.28693 0
M  V30 2905 C 266.565 -0.606264 -2.94525 0
M  V30 2906 C 268.113 -0.566548 -3.0783 0
M  V30 2907 C 268.588 -1.06201 -4.45517 0
M  V30 2908 N 270.079 -1.01992 -4.51832 0
M  V30 2909 C 270.814 -1.37417 -5.5669 0
M  V30 2910 N 270.31 -1.80119 -6.68976 0
M  V30 2911 N 272.103 -1.29245 -5.47039 0
M  V30 2912 H 264.254 -1.40533 -1.59261 0
M  V30 2913 H 266.517 -0.578992 -0.750648 0
M  V30 2914 H 266.223 -1.64901 -3.10645 0
M  V30 2915 H 266.097 -0.0302097 -3.77188 0
M  V30 2916 H 268.484 0.467208 -2.91378 0
M  V30 2917 H 268.565 -1.17898 -2.2701 0
M  V30 2918 H 268.209 -2.09422 -4.62715 0
M  V30 2919 H 268.139 -0.426127 -5.24873 0
M  V30 2920 H 270.63 -0.706308 -3.71241 0
M  V30 2921 H 270.943 -2.05392 -7.45006 0
M  V30 2922 H 269.288 -1.84044 -6.70189 0
M  V30 2923 H 272.479 -0.957522 -4.58202 0
M  V30 2924 H 272.652 -1.57182 -6.28648 0
M  V30 2925 N 266.058 1.56714 -0.166846 0
M  V30 2926 C 267.304 1.97039 0.479962 0
M  V30 2927 C 267.637 1.05264 1.63197 0
M  V30 2928 O 266.912 0.0988833 1.94248 0
M  V30 2929 C 267.195 3.46867 0.967212 0
M  V30 2930 C 267.048 4.49421 -0.18466 0
M  V30 2931 C 268.367 3.9968 1.84238 0
M  V30 2932 H 265.486 0.71641 0.172992 0
M  V30 2933 H 268.128 1.8832 -0.252079 0
M  V30 2934 H 266.278 3.54428 1.59101 0
M  V30 2935 H 267.95 4.53924 -0.821621 0
M  V30 2936 H 266.193 4.25573 -0.840837 0
M  V30 2937 H 266.864 5.51644 0.198317 0
M  V30 2938 H 269.34 3.94723 1.31655 0
M  V30 2939 H 268.216 5.04941 2.15234 0
M  V30 2940 H 268.477 3.43226 2.78654 0
M  V30 2941 N 267.536 -0.106894 1.57237 0
M  V30 2942 C 268.466 -1.13148 2.04254 0
M  V30 2943 C 269.447 -1.42476 0.929224 0
M  V30 2944 O 270.632 -1.52709 1.19973 0
M  V30 2945 C 267.762 -2.4545 2.45706 0
M  V30 2946 C 266.716 -2.30558 3.60592 0
M  V30 2947 C 266.042 -3.67931 3.87983 0
M  V30 2948 C 267.342 -1.75597 4.91897 0
M  V30 2949 H 269.036 -0.740374 2.90101 0
M  V30 2950 H 266.582 -0.354696 1.39563 0
M  V30 2951 H 268.535 -3.17389 2.77205 0
M  V30 2952 H 267.259 -2.86475 1.56843 0
M  V30 2953 H 265.918 -1.61067 3.29322 0
M  V30 2954 H 265.566 -4.06462 2.96306 0
M  V30 2955 H 265.266 -3.58817 4.65322 0
M  V30 2956 H 266.79 -4.41356 4.21945 0
M  V30 2957 H 268.204 -2.37364 5.21854 0
M  V30 2958 H 266.601 -1.77272 5.73319 0
M  V30 2959 H 267.671 -0.714451 4.79608 0
M  V30 2960 N 269.014 -1.53014 -0.377408 0
M  V30 2961 C 270.263 -1.67845 -1.11853 0
M  V30 2962 C 270.576 -0.430625 -1.90801 0
M  V30 2963 O 271.782 -0.459261 -2.67587 0
M  V30 2964 C 270.238 -2.96668 -2.03756 0
M  V30 2965 C 269.846 -4.28671 -1.30175 0
M  V30 2966 C 271.59 -3.20865 -2.77932 0
M  V30 2967 C 269.497 -5.48591 -2.20911 0
M  V30 2968 H 268.427 -0.625343 -0.421263 0
M  V30 2969 H 271.078 -1.79514 -0.380409 0
M  V30 2970 H 269.46 -2.78773 -2.8125 0
M  V30 2971 H 270.634 -4.57157 -0.578259 0
M  V30 2972 H 268.949 -4.10825 -0.679108 0
M  V30 2973 H 271.546 -4.07642 -3.46024 0
M  V30 2974 H 271.889 -2.36424 -3.4265 0
M  V30 2975 H 272.422 -3.39379 -2.07525 0
M  V30 2976 H 269.161 -6.35474 -1.6079 0
M  V30 2977 H 268.681 -5.244 -2.91144 0
M  V30 2978 H 270.36 -5.8292 -2.80736 0
M  V30 2979 N 270.492 0.636531 -1.44174 0
M  V30 2980 C 271.455 1.73063 -1.50273 0
M  V30 2981 C 272.455 1.56113 -0.385397 0
M  V30 2982 O 273.645 1.61707 -0.64781 0
M  V30 2983 C 270.777 3.12096 -1.37145 0
M  V30 2984 H 271.97 1.69031 -2.47727 0
M  V30 2985 H 269.523 0.849706 -1.31186 0
M  V30 2986 H 270.258 3.21728 -0.407636 0
M  V30 2987 H 270.043 3.25805 -2.18159 0
M  V30 2988 H 271.533 3.91846 -1.44382 0
M  V30 2989 N 271.97 1.30982 0.876444 0
M  V30 2990 C 272.933 1.18054 1.96459 0
M  V30 2991 C 273.933 0.109399 1.60427 0
M  V30 2992 O 275.123 0.358173 1.70478 0
M  V30 2993 C 272.255 0.810616 3.31122 0
M  V30 2994 H 273.448 2.14735 2.09354 0
M  V30 2995 H 271.001 1.145 1.06392 0
M  V30 2996 H 271.736 -0.155322 3.23928 0
M  V30 2997 H 271.521 1.58481 3.58645 0
M  V30 2998 H 273.011 0.743876 4.10921 0
M  V30 2999 N 273.449 -1.08991 1.13837 0
M  V30 3000 C 274.399 -2.1393 0.788535 0
M  V30 3001 C 275.383 -1.59396 -0.219516 0
M  V30 3002 O 276.575 -1.76985 -0.0227557 0
M  V30 3003 C 273.704 -3.42305 0.261147 0
M  V30 3004 C 272.79 -4.03736 1.29837 0
M  V30 3005 N 273.181 -4.39659 2.50067 0
M  V30 3006 C 271.479 -4.30993 1.1472 0
M  V30 3007 C 272.18 -4.88113 3.16419 0
M  V30 3008 N 271.156 -4.85846 2.43832 0
M  V30 3009 H 274.958 -2.39516 1.70322 0
M  V30 3010 H 272.472 -1.26263 1.02134 0
M  V30 3011 H 274.469 -4.16899 -0.0077405 0
M  V30 3012 H 273.129 -3.18172 -0.647805 0
M  V30 3013 H 274.14 -4.30878 2.8734 0
M  V30 3014 H 270.817 -4.16444 0.296773 0
M  V30 3015 H 272.207 -5.25336 4.18894 0
M  V30 3016 N 274.927 -0.932562 -1.27047 0
M  V30 3017 C 276.175 -0.574422 -1.93765 0
M  V30 3018 C 276.496 0.887993 -1.73608 0
M  V30 3019 O 275.766 1.62999 -1.08665 0
M  V30 3020 H 274.346 -0.209451 -0.717035 0
M  V30 3021 H 277.008 -1.18601 -1.5466 0
M  V30 3022 H 276.104 -0.784841 -3.02071 0
M  V30 3023 N 276.405 1.4127 -0.698611 0
M  V30 3024 C 277.353 2.32588 -0.023855 0
M  V30 3025 C 278.347 1.51128 0.765292 0
M  V30 3026 O 279.553 1.67043 0.670571 0
M  V30 3027 H 275.928 0.751918 0.0110871 0
M  V30 3028 H 277.899 2.87167 -0.811031 0
M  V30 3029 C 276.648 3.35947 0.896369 0
M  V30 3030 H 275.971 3.98684 0.298548 0
M  V30 3031 H 277.411 4.02376 1.33676 0
M  V30 3032 C 275.87 2.70076 2.01396 0
M  V30 3033 O 276.4 2.55093 3.10307 0
M  V30 3034 N 274.606 2.28724 1.79259 0
M  V30 3035 H 274.153 2.4111 0.906841 0
M  V30 3036 H 274.111 1.84986 2.54219 0
M  V30 3037 N 277.883 0.443576 1.51229 0
M  V30 3038 C 279.108 -0.121648 2.07043 0
M  V30 3039 C 279.533 -1.35156 1.30823 0
M  V30 3040 O 278.891 -1.7793 0.347934 0
M  V30 3041 C 278.939 -0.41624 3.5819 0
M  V30 3042 O 278.043 -1.50163 3.8409 0
M  V30 3043 H 277.384 0.000871367 0.663999 0
M  V30 3044 H 279.914 0.626706 1.94765 0
M  V30 3045 H 279.924 -0.664867 4.02546 0
M  V30 3046 H 278.599 0.482653 4.1309 0
M  V30 3047 H 277.176 -1.24248 3.51592 0
M  V30 3048 N 279.361 -1.56624 0.175154 0
M  V30 3049 C 280.291 -2.21155 -0.749195 0
M  V30 3050 C 281.272 -1.16836 -1.23626 0
M  V30 3051 O 282.457 -1.45277 -1.28873 0
M  V30 3052 C 279.587 -2.8553 -1.97711 0
M  V30 3053 C 278.541 -3.95921 -1.62575 0
M  V30 3054 C 277.867 -4.47365 -2.92864 0
M  V30 3055 C 279.167 -5.15323 -0.850838 0
M  V30 3056 H 280.861 -2.98653 -0.211295 0
M  V30 3057 H 278.407 -1.43651 -0.100188 0
M  V30 3058 H 280.36 -3.2935 -2.62881 0
M  V30 3059 H 279.084 -2.05406 -2.53921 0
M  V30 3060 H 277.743 -3.52762 -0.997719 0
M  V30 3061 H 277.391 -3.64027 -3.47122 0
M  V30 3062 H 277.091 -5.21839 -2.70106 0
M  V30 3063 H 278.615 -4.93873 -3.59056 0
M  V30 3064 H 280.029 -5.55812 -1.40521 0
M  V30 3065 H 278.426 -5.95739 -0.722154 0
M  V30 3066 H 279.496 -4.84661 0.152082 0
M  V30 3067 N 280.839 0.0985539 -1.57292 0
M  V30 3068 C 282.255 0.45267 -1.53046 0
M  V30 3069 C 282.455 1.80713 -0.891342 0
M  V30 3070 O 281.511 2.4785 -0.482375 0
M  V30 3071 C 282.824 0.418341 -2.97776 0
M  V30 3072 C 284.372 0.500443 -3.08973 0
M  V30 3073 C 284.847 0.496297 -4.55303 0
M  V30 3074 N 286.338 0.557151 -4.59837 0
M  V30 3075 C 287.073 0.575726 -5.70502 0
M  V30 3076 N 286.569 0.550714 -6.90608 0
M  V30 3077 N 288.362 0.620277 -5.58667 0
M  V30 3078 H 280.513 -0.788673 -1.97215 0
M  V30 3079 H 282.776 -0.293188 -0.901524 0
M  V30 3080 H 282.482 -0.509659 -3.47988 0
M  V30 3081 H 282.356 1.2386 -3.56284 0
M  V30 3082 H 284.743 1.41886 -2.58751 0
M  V30 3083 H 284.824 -0.347894 -2.53423 0
M  V30 3084 H 284.468 -0.418162 -5.06176 0
M  V30 3085 H 284.398 1.3618 -5.08687 0
M  V30 3086 H 286.889 0.581816 -3.73394 0
M  V30 3087 H 287.202 0.568075 -7.70709 0
M  V30 3088 H 285.547 0.517816 -6.93068 0
M  V30 3089 H 288.738 0.637322 -4.63741 0
M  V30 3090 H 288.911 0.631283 -6.44918 0
M  V30 3091 N 282.317 1.53212 0.369288 0
M  V30 3092 C 283.565 1.68881 1.11012 0
M  V30 3093 C 283.886 0.441285 1.89941 0
M  V30 3094 O 283.156 -0.544623 1.88177 0
M  V30 3095 H 281.736 0.622569 0.412816 0
M  V30 3096 H 284.398 1.90391 0.416802 0
M  V30 3097 H 283.494 2.54822 1.80201 0
M  V30 3098 N 283.795 -0.628877 1.44509 0
M  V30 3099 C 285.044 -1.38437 1.4669 0
M  V30 3100 C 285.357 -1.95322 0.104272 0
M  V30 3101 O 286.563 -2.715 0.00362163 0
M  V30 3102 C 285.019 -2.50659 2.5826 0
M  V30 3103 C 284.627 -2.00277 4.0074 0
M  V30 3104 C 286.371 -3.27844 2.69664 0
M  V30 3105 C 284.278 -3.09854 5.0373 0
M  V30 3106 H 283.208 -0.520245 0.545766 0
M  V30 3107 H 285.859 -0.676313 1.70582 0
M  V30 3108 H 284.241 -3.2405 2.27612 0
M  V30 3109 H 285.415 -1.33736 4.40966 0
M  V30 3110 H 283.73 -1.35901 3.93599 0
M  V30 3111 H 286.327 -4.09534 3.43781 0
M  V30 3112 H 286.67 -3.77471 1.75559 0
M  V30 3113 H 287.203 -2.61543 2.99733 0
M  V30 3114 H 283.942 -2.65168 5.99472 0
M  V30 3115 H 283.462 -3.7503 4.68095 0
M  V30 3116 H 285.141 -3.74592 5.27532 0
M  V30 3117 N 285.273 -1.31445 -0.869486 0
M  V30 3118 C 286.519 -1.21337 -1.62496 0
M  V30 3119 C 286.852 0.227872 -1.92858 0
M  V30 3120 O 286.127 1.16094 -1.56053 0
M  V30 3121 C 286.41 -2.05814 -2.95487 0
M  V30 3122 C 286.263 -3.5824 -2.72 0
M  V30 3123 C 287.582 -1.9079 -3.96594 0
M  V30 3124 H 284.701 -0.442135 -0.589649 0
M  V30 3125 H 287.343 -1.6124 -1.00507 0
M  V30 3126 H 285.493 -1.71913 -3.48394 0
M  V30 3127 H 287.165 -4.0228 -2.25762 0
M  V30 3128 H 285.408 -3.81647 -2.06224 0
M  V30 3129 H 286.079 -4.12657 -3.66631 0
M  V30 3130 H 288.555 -2.20459 -3.52898 0
M  V30 3131 H 287.431 -2.52199 -4.87531 0
M  V30 3132 H 287.692 -0.871341 -4.33428 0
M  V30 3133 N 286.751 1.08385 -1.14413 0
M  V30 3134 C 287.698 2.15311 -0.831265 0
M  V30 3135 C 288.668 1.64751 0.211292 0
M  V30 3136 O 289.853 1.90627 0.0811674 0
M  V30 3137 C 286.993 3.43658 -0.315143 0
M  V30 3138 C 286.106 4.08064 -1.41802 0
M  V30 3139 C 285.241 5.24207 -0.859126 0
M  V30 3140 C 284.28 5.80554 -1.93967 0
M  V30 3141 N 283.417 6.88042 -1.39793 0
M  V30 3142 H 288.257 2.41415 -1.74708 0
M  V30 3143 H 285.794 1.18474 -0.871909 0
M  V30 3144 H 287.752 4.172 0.00230884 0
M  V30 3145 H 286.382 3.17839 0.56378 0
M  V30 3146 H 285.434 3.3228 -1.85187 0
M  V30 3147 H 286.746 4.45962 -2.23427 0
M  V30 3148 H 285.9 6.04689 -0.49359 0
M  V30 3149 H 284.639 4.87699 -0.011932 0
M  V30 3150 H 283.644 4.98725 -2.31415 0
M  V30 3151 H 284.869 6.19121 -2.79046 0
M  V30 3152 H 282.815 6.53493 -0.572919 0
M  V30 3153 H 282.732 7.24767 -2.15054 0
M  V30 3154 H 284 7.72255 -1.0603 0
M  V30 3155 N 288.23 0.939286 1.26551 0
M  V30 3156 C 289.18 0.418284 2.2413 0
M  V30 3157 C 290.164 -0.483935 1.5345 0
M  V30 3158 O 291.356 -0.319489 1.74093 0
M  V30 3159 C 288.485 -0.31709 3.41832 0
M  V30 3160 C 287.571 0.602311 4.19801 0
M  V30 3161 N 287.962 1.72726 4.75394 0
M  V30 3162 C 286.26 0.407534 4.44134 0
M  V30 3163 C 286.961 2.30004 5.34297 0
M  V30 3164 N 285.937 1.58828 5.1988 0
M  V30 3165 H 289.739 1.27705 2.64705 0
M  V30 3166 H 287.253 0.794929 1.41614 0
M  V30 3167 H 289.25 -0.707364 4.10855 0
M  V30 3168 H 287.91 -1.17264 3.02786 0
M  V30 3169 H 288.921 2.10944 4.72994 0
M  V30 3170 H 285.598 -0.406406 4.15517 0
M  V30 3171 H 286.988 3.24778 5.88191 0
M  V30 3172 N 289.708 -1.40897 0.706093 0
M  V30 3173 C 290.638 -2.33418 0.0620085 0
M  V30 3174 C 291.619 -1.52385 -0.755827 0
M  V30 3175 O 292.804 -1.80886 -0.706674 0
M  V30 3176 C 289.934 -3.36293 -0.867445 0
M  V30 3177 C 288.888 -4.27716 -0.155932 0
M  V30 3178 C 288.214 -5.2105 -1.20046 0
M  V30 3179 C 289.514 -5.12944 0.984149 0
M  V30 3180 H 291.208 -2.87527 0.83477 0
M  V30 3181 H 288.754 -1.38249 0.402875 0
M  V30 3182 H 290.707 -3.99949 -1.32735 0
M  V30 3183 H 289.431 -2.80556 -1.67199 0
M  V30 3184 H 288.09 -3.65498 0.284047 0
M  V30 3185 H 287.738 -4.61624 -1.99781 0
M  V30 3186 H 287.438 -5.83056 -0.729328 0
M  V30 3187 H 288.962 -5.87584 -1.66066 0
M  V30 3188 H 290.376 -5.70109 0.604048 0
M  V30 3189 H 288.773 -5.83945 1.38304 0
M  V30 3190 H 289.843 -4.49485 1.81911 0
M  V30 3191 N 291.186 -0.45159 -1.50991 0
M  V30 3192 C 292.096 0.358431 -2.31846 0
M  V30 3193 C 293.112 1.01438 -1.41373 0
M  V30 3194 O 294.288 1.00663 -1.74439 0
M  V30 3195 C 291.353 1.43704 -3.15515 0
M  V30 3196 C 290.414 0.799742 -4.21785 0
M  V30 3197 C 289.647 1.82696 -5.01456 0
M  V30 3198 O 289.87 3.05105 -4.81941 0
M  V30 3199 O 288.804 1.40958 -5.85162 0
M  V30 3200 H 292.63 -0.302032 -3.02194 0
M  V30 3201 H 290.215 -0.213825 -1.47862 0
M  V30 3202 H 292.097 2.06227 -3.67489 0
M  V30 3203 H 290.772 2.08133 -2.47916 0
M  V30 3204 H 289.679 0.136084 -3.73852 0
M  V30 3205 H 291.012 0.198718 -4.91799 0
M  V30 3206 N 292.664 1.56529 -0.183458 0
M  V30 3207 C 293.912 1.96855 0.457452 0
M  V30 3208 C 294.233 1.07104 1.62953 0
M  V30 3209 O 293.503 0.139887 1.954 0
M  V30 3210 H 292.083 0.72693 0.171992 0
M  V30 3211 H 294.745 1.93056 -0.267476 0
M  V30 3212 H 293.841 3.01423 0.809368 0
M  V30 3213 N 294.142 -0.090211 1.57342 0
M  V30 3214 C 295.075 -1.14035 1.97664 0
M  V30 3215 C 296.053 -1.38576 0.850616 0
M  V30 3216 O 297.237 -1.52255 1.11134 0
M  V30 3217 C 294.364 -2.48854 2.2976 0
M  V30 3218 C 293.41 -2.40564 3.52181 0
M  V30 3219 S 294.243 -1.81745 5.03715 0
M  V30 3220 C 295.399 -3.18178 5.38993 0
M  V30 3221 H 295.632 -0.796636 2.86428 0
M  V30 3222 H 293.165 -0.298072 1.51496 0
M  V30 3223 H 295.123 -3.26413 2.48927 0
M  V30 3224 H 293.784 -2.80393 1.41558 0
M  V30 3225 H 292.977 -3.39942 3.72096 0
M  V30 3226 H 292.579 -1.71135 3.32549 0
M  V30 3227 H 294.871 -4.14461 5.35937 0
M  V30 3228 H 295.814 -3.03062 6.39968 0
M  V30 3229 H 296.222 -3.17935 4.66452 0
M  V30 3230 N 295.62 -1.53406 -0.361157 0
M  V30 3231 C 296.845 -1.74024 -1.12829 0
M  V30 3232 C 297.27 -0.470069 -1.82132 0
M  V30 3233 O 296.628 0.57619 -1.719 0
M  V30 3234 C 296.676 -2.90903 -2.13091 0
M  V30 3235 O 295.78 -2.59821 -3.20261 0
M  V30 3236 H 295.121 -0.577804 -0.327168 0
M  V30 3237 H 297.651 -2.00307 -0.41693 0
M  V30 3238 H 297.661 -3.17194 -2.56616 0
M  V30 3239 H 296.336 -3.83034 -1.62042 0
M  V30 3240 H 294.913 -2.44362 -2.81677 0
M  V30 3241 N 297.098 0.621204 -1.44841 0
M  V30 3242 C 298.375 1.38 -1.38619 0
M  V30 3243 C 298.755 2.11041 -0.0498935 0
M  V30 3244 O 298.103 2.06992 0.967816 0
M  V30 3245 C 298.313 2.33817 -2.59096 0
M  V30 3246 C 299.661 2.96844 -3.03593 0
M  V30 3247 O 300.685 2.44141 -2.59371 0
M  V30 3248 O 299.544 3.92476 -3.80296 0
M  V30 3249 H 296.638 0.61811 -0.549426 0
M  V30 3250 H 299.184 0.645429 -1.56947 0
M  V30 3251 H 297.956 1.79012 -3.47952 0
M  V30 3252 H 297.579 3.14676 -2.43032 0
M  V30 3253 N 298.576 1.31904 0.862503 0
M  V30 3254 C 299.508 1.16005 1.97675 0
M  V30 3255 C 300.521 0.0971234 1.6251 0
M  V30 3256 O 301.71 0.345337 1.75128 0
M  V30 3257 C 298.81 0.751791 3.30456 0
M  V30 3258 C 297.983 1.90133 3.93914 0
M  V30 3259 C 297.042 1.4779 5.05019 0
M  V30 3260 O 296.068 2.18872 5.25437 0
M  V30 3261 N 297.27 0.369491 5.79323 0
M  V30 3262 H 300.035 2.11982 2.11857 0
M  V30 3263 H 297.596 1.24337 1.03691 0
M  V30 3264 H 299.588 0.451084 4.02178 0
M  V30 3265 H 298.158 -0.116593 3.12382 0
M  V30 3266 H 297.378 2.36896 3.15078 0
M  V30 3267 H 298.666 2.67111 4.33047 0
M  V30 3268 H 298.064 -0.222299 5.65263 0
M  V30 3269 H 296.621 0.128354 6.51674 0
M  V30 3270 N 300.054 -1.07777 1.14986 0
M  V30 3271 C 301.017 -2.13041 0.845358 0
M  V30 3272 C 302.017 -1.60071 -0.152931 0
M  V30 3273 O 303.207 -1.74033 0.0761879 0
M  V30 3274 C 300.339 -3.39896 0.261383 0
M  V30 3275 H 301.532 -2.41485 1.77834 0
M  V30 3276 H 299.085 -1.23595 0.956757 0
M  V30 3277 H 299.82 -3.17091 -0.68 0
M  V30 3278 H 299.605 -3.79642 0.980514 0
M  V30 3279 H 301.095 -4.17548 0.0657687 0
M  V30 3280 N 301.532 -0.945985 -1.26051 0
M  V30 3281 C 302.781 -0.591836 -1.92822 0
M  V30 3282 C 303.094 0.873956 -1.7499 0
M  V30 3283 O 304.3 1.33769 -2.36259 0
M  V30 3284 C 302.756 -1.00776 -3.45503 0
M  V30 3285 C 302.364 -2.4955 -3.7206 0
M  V30 3286 C 304.108 -0.725735 -4.1825 0
M  V30 3287 C 302.015 -2.84988 -5.18205 0
M  V30 3288 H 300.945 -0.217635 -0.721908 0
M  V30 3289 H 303.596 -1.14927 -1.43052 0
M  V30 3290 H 301.978 -0.378812 -3.94184 0
M  V30 3291 H 303.152 -3.1739 -3.34066 0
M  V30 3292 H 301.467 -2.75133 -3.12555 0
M  V30 3293 H 304.064 -0.966771 -5.25887 0
M  V30 3294 H 304.407 0.337639 -4.14929 0
M  V30 3295 H 304.94 -1.31463 -3.7545 0
M  V30 3296 H 301.679 -3.90307 -5.26631 0
M  V30 3297 H 301.199 -2.21813 -5.57278 0
M  V30 3298 H 302.878 -2.73712 -5.86252 0
M  V30 3299 N 303.011 1.40521 -0.713556 0
M  V30 3300 C 303.944 2.28198 -0.00881422 0
M  V30 3301 C 304.922 1.43227 0.769735 0
M  V30 3302 O 306.106 1.72641 0.756799 0
M  V30 3303 C 303.233 3.23758 0.994899 0
M  V30 3304 C 302.279 4.25391 0.3074 0
M  V30 3305 S 303.112 5.26765 -0.963247 0
M  V30 3306 C 304.268 6.25888 0.0384143 0
M  V30 3307 H 304.501 2.87622 -0.752407 0
M  V30 3308 H 302.034 1.45925 -0.504502 0
M  V30 3309 H 303.992 3.79341 1.56879 0
M  V30 3310 H 302.653 2.63396 1.71118 0
M  V30 3311 H 301.846 4.92596 1.0661 0
M  V30 3312 H 301.448 3.73497 -0.193879 0
M  V30 3313 H 303.74 6.71683 0.885912 0
M  V30 3314 H 304.683 7.05552 -0.60019 0
M  V30 3315 H 305.091 5.63072 0.401233 0
M  V30 3316 N 304.489 0.459591 1.5075 0
M  V30 3317 C 305.399 -0.34613 2.32033 0
M  V30 3318 C 306.415 -1.00686 1.41909 0
M  V30 3319 O 307.591 -0.997361 1.7497 0
M  V30 3320 C 304.656 -1.42029 3.16273 0
M  V30 3321 C 303.717 -0.777362 4.22203 0
M  V30 3322 C 302.95 -1.80034 5.02418 0
M  V30 3323 O 303.173 -3.02544 4.83553 0
M  V30 3324 O 302.107 -1.37853 5.85901 0
M  V30 3325 H 305.933 0.318054 3.0203 0
M  V30 3326 H 303.518 0.221663 1.47746 0
M  V30 3327 H 305.4 -2.04275 3.68578 0
M  V30 3328 H 304.075 -2.06815 2.49016 0
M  V30 3329 H 302.982 -0.116256 3.73919 0
M  V30 3330 H 304.315 -0.172634 4.91897 0
M  V30 3331 N 305.967 -1.56429 0.191757 0
M  V30 3332 C 306.897 -2.21937 -0.725696 0
M  V30 3333 C 307.878 -1.1814 -1.2238 0
M  V30 3334 O 309.063 -1.46636 -1.27325 0
M  V30 3335 C 306.193 -2.87611 -1.94672 0
M  V30 3336 C 305.147 -3.97623 -1.58366 0
M  V30 3337 C 304.473 -4.50446 -2.88102 0
M  V30 3338 C 305.773 -5.16197 -0.796133 0
M  V30 3339 H 307.467 -2.98861 -0.179606 0
M  V30 3340 H 305.013 -1.43749 -0.0849464 0
M  V30 3341 H 306.966 -3.3212 -2.59373 0
M  V30 3342 H 305.69 -2.08087 -2.51728 0
M  V30 3343 H 304.349 -3.53801 -0.960247 0
M  V30 3344 H 303.997 -3.67688 -3.43241 0
M  V30 3345 H 303.697 -5.24675 -2.64556 0
M  V30 3346 H 305.221 -4.97654 -3.53798 0
M  V30 3347 H 306.635 -5.57271 -1.34618 0
M  V30 3348 H 305.032 -5.96471 -0.658928 0
M  V30 3349 H 306.102 -4.84473 0.203478 0
M  V30 3350 N 307.445 0.0818655 -1.57387 0
M  V30 3351 C 308.393 1.11712 -2.04018 0
M  V30 3352 C 309.387 1.40683 -0.94364 0
M  V30 3353 O 310.593 1.40209 -1.12878 0
M  V30 3354 H 306.968 0.377542 -0.650358 0
M  V30 3355 H 308.939 0.697614 -2.90131 0
M  V30 3356 C 307.688 2.42537 -2.49141 0
M  V30 3357 H 307.011 2.21092 -3.33104 0
M  V30 3358 H 308.451 3.13446 -2.85531 0
M  V30 3359 C 306.91 3.0778 -1.37014 0
M  V30 3360 O 307.44 3.95436 -0.706621 0
M  V30 3361 N 305.646 2.68242 -1.11779 0
M  V30 3362 H 305.193 1.97052 -1.65917 0
M  V30 3363 H 305.151 3.1222 -0.369594 0
M  V30 3364 N 308.923 1.53595 0.353017 0
M  V30 3365 C 309.853 1.83902 1.43883 0
M  V30 3366 C 310.834 0.693421 1.55324 0
M  V30 3367 O 312.019 0.944452 1.69687 0
M  V30 3368 C 309.149 2.04016 2.8106 0
M  V30 3369 C 308.103 3.19814 2.84434 0
M  V30 3370 C 307.429 3.25244 4.24406 0
M  V30 3371 C 308.729 4.58133 2.50822 0
M  V30 3372 H 310.423 2.74835 1.1877 0
M  V30 3373 H 307.969 1.32242 0.569917 0
M  V30 3374 H 309.922 2.238 3.57059 0
M  V30 3375 H 308.646 1.09804 3.07588 0
M  V30 3376 H 307.305 2.9987 2.10887 0
M  V30 3377 H 306.953 2.28646 4.48029 0
M  V30 3378 H 306.653 4.03054 4.27576 0
M  V30 3379 H 308.177 3.47228 5.0226 0
M  V30 3380 H 309.591 4.77995 3.16534 0
M  V30 3381 H 307.988 5.38276 2.6529 0
M  V30 3382 H 309.058 4.62387 1.46034 0
M  V30 3383 N 310.401 -0.613514 1.45168 0
M  V30 3384 C 311.812 -1.19539 1.43413 0
M  V30 3385 C 312.163 -1.95558 0.158632 0
M  V30 3386 O 311.288 -2.0335 -0.740119 0
M  V30 3387 C 311.883 -2.17445 2.59813 0
M  V30 3388 C 310.442 -2.71022 2.61197 0
M  V30 3389 C 309.589 -1.46323 2.35552 0
M  V30 3390 H 312.54 -0.403163 1.53494 0
M  V30 3391 H 312.561 -3.00373 2.33574 0
M  V30 3392 H 312.073 -1.62089 3.52631 0
M  V30 3393 H 310.174 -3.30332 1.7237 0
M  V30 3394 H 310.287 -3.15859 3.60236 0
M  V30 3395 H 308.651 -1.75072 1.84992 0
M  V30 3396 H 309.434 -0.92844 3.30507 0
M  V30 3397 N 311.879 -1.3236 -0.855495 0
M  V30 3398 C 313.107 -1.2587 -1.64208 0
M  V30 3399 C 313.522 0.173457 -1.88002 0
M  V30 3400 O 312.879 1.11027 -1.44842 0
M  V30 3401 C 312.93 -2.01424 -3.00184 0
M  V30 3402 O 312.651 -3.39051 -2.77445 0
M  V30 3403 C 314.152 -2.01948 -3.94629 0
M  V30 3404 H 311.372 -0.434318 -0.511477 0
M  V30 3405 H 313.916 -1.74469 -1.0668 0
M  V30 3406 H 312.071 -1.56549 -3.5436 0
M  V30 3407 H 312.485 -3.77711 -3.63916 0
M  V30 3408 H 313.959 -2.59297 -4.87308 0
M  V30 3409 H 314.436 -1.00554 -4.27534 0
M  V30 3410 H 315.042 -2.46767 -3.4639 0
M  V30 3411 N 313.357 1.07166 -1.15556 0
M  V30 3412 C 314.605 1.79443 -0.929764 0
M  V30 3413 C 314.926 1.87246 0.544414 0
M  V30 3414 O 314.196 1.37473 1.39564 0
M  V30 3415 H 312.776 0.664625 -0.341003 0
M  V30 3416 H 315.438 1.29499 -1.45657 0
M  V30 3417 H 314.534 2.81832 -1.34079 0
M  V30 3418 N 314.835 0.952656 1.25548 0
M  V30 3419 C 316.084 0.602053 1.92505 0
M  V30 3420 C 316.397 -0.864663 1.75451 0
M  V30 3421 O 317.603 -1.32514 2.36965 0
M  V30 3422 C 316.059 1.02607 3.44963 0
M  V30 3423 C 315.667 2.51519 3.70732 0
M  V30 3424 C 317.411 0.747905 4.1786 0
M  V30 3425 C 315.318 2.87732 5.16686 0
M  V30 3426 H 314.248 0.22146 0.720744 0
M  V30 3427 H 316.899 1.15684 1.42441 0
M  V30 3428 H 315.281 0.399712 3.93978 0
M  V30 3429 H 316.455 3.19157 3.32378 0
M  V30 3430 H 314.77 2.76786 3.11092 0
M  V30 3431 H 317.367 0.994647 5.25367 0
M  V30 3432 H 317.71 -0.315629 4.15102 0
M  V30 3433 H 318.243 1.33452 3.74747 0
M  V30 3434 H 314.982 3.93095 5.24554 0
M  V30 3435 H 314.502 2.24765 5.56094 0
M  V30 3436 H 316.181 2.76817 5.84792 0
M  V30 3437 N 316.313 -1.40141 0.720998 0
M  V30 3438 C 317.724 -1.83678 0.334553 0
M  V30 3439 C 318.075 -1.6027 -1.13173 0
M  V30 3440 O 317.2 -1.08643 -1.87152 0
M  V30 3441 C 317.795 -3.33437 0.600437 0
M  V30 3442 C 316.354 -3.75447 0.267642 0
M  V30 3443 C 315.501 -2.63296 0.870097 0
M  V30 3444 H 318.452 -1.29331 0.919732 0
M  V30 3445 H 318.473 -3.80269 -0.132517 0
M  V30 3446 H 317.985 -3.50442 1.66768 0
M  V30 3447 H 316.086 -3.64035 -0.794329 0
M  V30 3448 H 316.199 -4.73344 0.74042 0
M  V30 3449 H 314.563 -2.52954 0.297739 0
M  V30 3450 H 315.346 -2.83112 1.94172 0
M  V30 3451 N 317.792 -0.46758 -1.50504 0
M  V30 3452 C 319.041 0.0902868 -2.01498 0
M  V30 3453 C 319.354 1.411 -1.35463 0
M  V30 3454 O 320.56 2.0536 -1.77594 0
M  V30 3455 C 319.016 0.21142 -3.59278 0
M  V30 3456 C 318.624 -1.10065 -4.34269 0
M  V30 3457 C 320.368 0.721433 -4.18325 0
M  V30 3458 C 318.275 -0.943505 -5.83825 0
M  V30 3459 H 317.205 0.037517 -0.753066 0
M  V30 3460 H 319.856 -0.601943 -1.73346 0
M  V30 3461 H 318.238 0.967352 -3.84003 0
M  V30 3462 H 319.412 -1.86726 -4.21272 0
M  V30 3463 H 317.727 -1.5415 -3.86816 0
M  V30 3464 H 320.324 0.85598 -5.27804 0
M  V30 3465 H 320.667 1.71186 -3.79475 0
M  V30 3466 H 321.2 0.0229843 -3.97793 0
M  V30 3467 H 317.939 -1.90719 -6.27141 0
M  V30 3468 H 317.459 -0.217213 -5.99407 0
M  V30 3469 H 319.138 -0.608715 -6.4413 0
M  V30 3470 N 319.27 1.56325 -0.20005 0
M  V30 3471 C 320.516 1.98012 0.438059 0
M  V30 3472 C 320.849 1.08702 1.60927 0
M  V30 3473 O 320.124 0.140064 1.93995 0
M  V30 3474 C 320.407 3.48841 0.893419 0
M  V30 3475 C 320.26 4.48928 -0.279947 0
M  V30 3476 C 321.579 4.03498 1.75719 0
M  V30 3477 H 318.698 0.719918 0.157757 0
M  V30 3478 H 321.34 1.87743 -0.291968 0
M  V30 3479 H 319.49 3.57723 1.51547 0
M  V30 3480 H 321.162 4.52079 -0.91772 0
M  V30 3481 H 319.405 4.23694 -0.930919 0
M  V30 3482 H 320.076 5.5194 0.0812601 0
M  V30 3483 H 322.552 3.97427 1.23253 0
M  V30 3484 H 321.428 5.09393 2.04476 0
M  V30 3485 H 321.689 3.4906 2.71311 0
M  V30 3486 N 320.748 -0.0735177 1.57428 0
M  V30 3487 C 321.978 -0.78483 1.91112 0
M  V30 3488 C 322.386 -1.71729 0.7941 0
M  V30 3489 O 321.729 -1.82105 -0.241542 0
M  V30 3490 C 321.791 -1.63346 3.20247 0
M  V30 3491 C 321.455 -0.870557 4.48632 0
M  V30 3492 C 322.452 -0.19058 5.19551 0
M  V30 3493 C 320.137 -0.838242 4.95256 0
M  V30 3494 C 322.131 0.511503 6.35344 0
M  V30 3495 C 319.818 -0.132386 6.10957 0
M  V30 3496 C 320.816 0.541288 6.80852 0
M  V30 3497 O 320.504 1.23578 7.94345 0
M  V30 3498 H 320.236 -0.228408 0.636244 0
M  V30 3499 H 322.79 -0.0486039 2.05342 0
M  V30 3500 H 321.02 -2.41245 3.02222 0
M  V30 3501 H 322.709 -2.22329 3.39595 0
M  V30 3502 H 323.475 -0.206864 4.84559 0
M  V30 3503 H 319.354 -1.35206 4.40727 0
M  V30 3504 H 322.898 1.03789 6.89836 0
M  V30 3505 H 318.795 -0.114023 6.45399 0
M  V30 3506 H 319.563 1.14487 8.10454 0
M  V30 3507 N 322.226 -1.5378 -0.344866 0
M  V30 3508 C 323.136 -1.84667 -1.4469 0
M  V30 3509 C 324.152 -0.736704 -1.57635 0
M  V30 3510 O 325.328 -1.02888 -1.73136 0
M  V30 3511 C 322.393 -2.04869 -2.79696 0
M  V30 3512 C 321.454 -3.28731 -2.76106 0
M  V30 3513 C 320.687 -3.4796 -4.04673 0
M  V30 3514 O 320.91 -2.71052 -5.01883 0
M  V30 3515 O 319.844 -4.41383 -4.09224 0
M  V30 3516 H 323.67 -2.78334 -1.21506 0
M  V30 3517 H 321.255 -1.39418 -0.536921 0
M  V30 3518 H 323.137 -2.19609 -3.59652 0
M  V30 3519 H 321.812 -1.14391 -3.02814 0
M  V30 3520 H 320.719 -3.19396 -1.94774 0
M  V30 3521 H 322.052 -4.19198 -2.57941 0
M  V30 3522 N 323.704 0.605807 -1.45491 0
M  V30 3523 C 324.634 1.72709 -1.57143 0
M  V30 3524 C 325.615 1.6476 -0.422884 0
M  V30 3525 O 326.8 1.83132 -0.646247 0
M  V30 3526 C 323.93 3.11316 -1.53948 0
M  V30 3527 C 322.884 3.34077 -2.67537 0
M  V30 3528 C 322.21 4.72975 -2.49397 0
M  V30 3529 C 323.51 3.24158 -4.09535 0
M  V30 3530 H 325.204 1.63214 -2.51001 0
M  V30 3531 H 322.75 0.78379 -1.208 0
M  V30 3532 H 324.703 3.89557 -1.60696 0
M  V30 3533 H 323.427 3.21655 -0.566205 0
M  V30 3534 H 322.086 2.58227 -2.6022 0
M  V30 3535 H 321.734 4.8005 -1.50205 0
M  V30 3536 H 321.434 4.8916 -3.25571 0
M  V30 3537 H 322.958 5.53414 -2.58002 0
M  V30 3538 H 324.372 3.92271 -4.18086 0
M  V30 3539 H 322.769 3.51872 -4.86113 0
M  V30 3540 H 323.839 2.2157 -4.31317 0
M  V30 3541 N 325.182 1.32811 0.848464 0
M  V30 3542 C 326.13 1.22231 1.97895 0
M  V30 3543 C 327.124 0.125749 1.68933 0
M  V30 3544 O 328.33 0.289083 1.77663 0
M  V30 3545 H 324.705 0.379058 0.649476 0
M  V30 3546 H 326.676 2.17828 2.03945 0
M  V30 3547 C 325.425 0.968572 3.33937 0
M  V30 3548 H 324.748 1.80458 3.56756 0
M  V30 3549 H 326.188 0.934808 4.13567 0
M  V30 3550 C 324.647 -0.328628 3.35293 0
M  V30 3551 O 325.177 -1.33848 3.78745 0
M  V30 3552 N 323.383 -0.352788 2.88451 0
M  V30 3553 H 322.93 0.469541 2.53285 0
M  V30 3554 H 322.888 -1.22057 2.89741 0
M  V30 3555 N 326.66 -1.06551 1.16123 0
M  V30 3556 C 327.607 -2.13961 0.865414 0
M  V30 3557 C 328.577 -1.65066 -0.185055 0
M  V30 3558 O 329.762 -1.90732 -0.05083 0
M  V30 3559 C 326.902 -3.43113 0.369776 0
M  V30 3560 C 326.015 -4.05756 1.48276 0
M  V30 3561 C 325.15 -5.22773 0.942414 0
M  V30 3562 C 324.189 -5.77395 2.03179 0
M  V30 3563 N 323.326 -6.85731 1.50721 0
M  V30 3564 H 328.166 -2.38605 1.78527 0
M  V30 3565 H 325.703 -1.17072 0.890646 0
M  V30 3566 H 327.661 -4.17151 0.0640643 0
M  V30 3567 H 326.291 -3.18695 -0.513143 0
M  V30 3568 H 325.343 -3.29292 1.9045 0
M  V30 3569 H 326.655 -4.42351 2.30493 0
M  V30 3570 H 325.809 -6.03827 0.589729 0
M  V30 3571 H 324.548 -4.87618 0.0895191 0
M  V30 3572 H 323.553 -4.94981 2.3932 0
M  V30 3573 H 324.778 -6.14603 2.8886 0
M  V30 3574 H 322.724 -6.52499 0.676811 0
M  V30 3575 H 322.641 -7.21254 2.26557 0
M  V30 3576 H 323.909 -7.7047 1.18303 0
M  V30 3577 N 328.138 -0.959301 -1.25041 0
M  V30 3578 C 329.048 -0.489994 -2.29426 0
M  V30 3579 C 330.064 0.444944 -1.68215 0
M  V30 3580 O 331.24 0.320046 -1.98841 0
M  V30 3581 C 328.305 0.220309 -3.45999 0
M  V30 3582 C 327.366 -0.753418 -4.22637 0
M  V30 3583 C 326.599 -0.076918 -5.33645 0
M  V30 3584 O 326.822 1.13649 -5.58963 0
M  V30 3585 O 325.756 -0.764824 -5.97021 0
M  V30 3586 H 329.582 -1.35755 -2.71669 0
M  V30 3587 H 327.167 -0.725961 -1.30576 0
M  V30 3588 H 329.049 0.619677 -4.16819 0
M  V30 3589 H 327.724 1.06296 -3.0575 0
M  V30 3590 H 326.631 -1.20308 -3.54227 0
M  V30 3591 H 327.964 -1.56423 -4.66683 0
M  V30 3592 N 329.616 1.39756 -0.72842 0
M  V30 3593 C 330.546 2.33289 -0.0991354 0
M  V30 3594 C 331.527 1.53568 0.731489 0
M  V30 3595 O 332.712 1.81987 0.677807 0
M  V30 3596 C 329.842 3.3763 0.813834 0
M  V30 3597 C 328.796 4.2791 0.0878663 0
M  V30 3598 C 328.122 5.22894 1.11741 0
M  V30 3599 C 329.422 5.11314 -1.06563 0
M  V30 3600 H 331.116 2.86163 -0.880408 0
M  V30 3601 H 328.662 1.37591 -0.424819 0
M  V30 3602 H 330.615 4.0201 1.26355 0
M  V30 3603 H 329.339 2.83181 1.62715 0
M  V30 3604 H 327.998 3.65 -0.342159 0
M  V30 3605 H 327.646 4.64744 1.92412 0
M  V30 3606 H 327.346 5.84143 0.636477 0
M  V30 3607 H 328.87 5.90151 1.56697 0
M  V30 3608 H 330.284 5.69076 -0.694671 0
M  V30 3609 H 328.681 5.81671 -1.47577 0
M  V30 3610 H 329.751 4.46534 -1.89038 0
M  V30 3611 N 331.094 0.475555 1.50254 0
M  V30 3612 C 332.041 -0.316293 2.28622 0
M  V30 3613 C 333.011 -0.983227 1.33873 0
M  V30 3614 O 334.196 -0.994805 1.62814 0
M  V30 3615 C 331.336 -1.38975 3.1588 0
M  V30 3616 C 330.449 -0.737146 4.25664 0
M  V30 3617 C 329.584 -1.78887 5.00173 0
M  V30 3618 C 328.623 -1.11676 6.01826 0
M  V30 3619 N 327.76 -2.11154 6.69596 0
M  V30 3620 H 332.6 0.358297 2.95838 0
M  V30 3621 H 330.137 0.188541 1.45887 0
M  V30 3622 H 332.095 -2.02383 3.64825 0
M  V30 3623 H 330.725 -2.03344 2.50701 0
M  V30 3624 H 329.777 0.0096065 3.80399 0
M  V30 3625 H 331.089 -0.206816 4.98371 0
M  V30 3626 H 330.243 -2.49865 5.52859 0
M  V30 3627 H 328.982 -2.35302 4.27182 0
M  V30 3628 H 327.987 -0.392633 5.48396 0
M  V30 3629 H 329.212 -0.55945 6.76792 0
M  V30 3630 H 327.158 -2.66577 5.99394 0
M  V30 3631 H 327.075 -1.63118 7.38193 0
M  V30 3632 H 328.343 -2.81497 7.26897 0
M  V30 3633 N 332.573 -1.56217 0.208337 0
M  V30 3634 C 333.984 -1.84243 -0.301904 0
M  V30 3635 C 334.335 -1.12939 -1.60434 0
M  V30 3636 O 333.46 -0.39461 -2.12772 0
M  V30 3637 C 334.055 -3.34231 -0.554543 0
M  V30 3638 C 332.614 -3.62621 -1.00912 0
M  V30 3639 C 331.761 -2.77224 -0.064933 0
M  V30 3640 H 334.712 -1.52712 0.431833 0
M  V30 3641 H 334.733 -3.5372 -1.40223 0
M  V30 3642 H 334.245 -3.86099 0.393561 0
M  V30 3643 H 332.346 -3.16197 -1.97104 0
M  V30 3644 H 332.459 -4.7071 -0.892674 0
M  V30 3645 H 330.823 -2.48256 -0.56929 0
M  V30 3646 H 331.606 -3.31887 0.877851 0
M  V30 3647 N 334.051 0.0651679 -1.57465 0
M  V30 3648 C 335.279 0.775808 -1.91804 0
M  V30 3649 C 335.694 1.70782 -0.804916 0
M  V30 3650 O 335.051 1.81153 0.221311 0
M  V30 3651 C 335.102 1.56381 -3.25925 0
M  V30 3652 O 334.823 0.669248 -4.32958 0
M  V30 3653 C 336.324 2.37485 -3.7432 0
M  V30 3654 H 333.544 0.2202 -0.63384 0
M  V30 3655 H 336.088 0.0334587 -2.04473 0
M  V30 3656 H 334.243 2.25837 -3.14764 0
M  V30 3657 H 334.657 1.21801 -5.10162 0
M  V30 3658 H 336.131 2.88223 -4.70778 0
M  V30 3659 H 336.608 3.17307 -3.03666 0
M  V30 3660 H 337.214 1.73173 -3.88447 0
M  V30 3661 N 335.529 1.53961 0.336706 0
M  V30 3662 C 336.476 1.82428 1.41381 0
M  V30 3663 C 337.446 0.670444 1.51968 0
M  V30 3664 O 338.631 0.915565 1.67398 0
M  V30 3665 C 335.771 2.04564 2.77934 0
M  V30 3666 C 334.884 3.32267 2.76084 0
M  V30 3667 C 334.019 3.44434 4.04399 0
M  V30 3668 C 333.058 4.66061 3.96804 0
M  V30 3669 N 332.195 4.75224 5.16823 0
M  V30 3670 H 337.035 2.74324 1.16405 0
M  V30 3671 H 334.572 1.35869 0.563752 0
M  V30 3672 H 336.53 2.15388 3.57301 0
M  V30 3673 H 335.16 1.15974 3.01247 0
M  V30 3674 H 334.212 3.3025 1.88784 0
M  V30 3675 H 335.524 4.21733 2.66351 0
M  V30 3676 H 334.678 3.54728 4.92192 0
M  V30 3677 H 333.417 2.53037 4.16921 0
M  V30 3678 H 332.422 4.55838 3.07396 0
M  V30 3679 H 333.647 5.58829 3.85858 0
M  V30 3680 H 331.593 3.86739 5.29876 0
M  V30 3681 H 331.51 5.58636 5.09374 0
M  V30 3682 H 332.778 4.89835 6.06367 0
M  V30 3683 N 337.007 -0.598083 1.45811 0
M  V30 3684 C 338.418 -1.18011 1.44673 0
M  V30 3685 C 338.769 -1.95378 0.179364 0
M  V30 3686 O 337.894 -2.04124 -0.718509 0
M  V30 3687 C 338.489 -2.14677 2.62105 0
M  V30 3688 C 337.048 -2.68236 2.64057 0
M  V30 3689 C 336.195 -1.43816 2.37091 0
M  V30 3690 H 339.146 -0.38686 1.53913 0
M  V30 3691 H 339.167 -2.97878 2.36746 0
M  V30 3692 H 338.679 -1.5834 3.5433 0
M  V30 3693 H 336.78 -3.28486 1.75864 0
M  V30 3694 H 336.893 -3.12021 3.63566 0
M  V30 3695 H 335.257 -1.731 1.86838 0
M  V30 3696 H 336.04 -0.893333 3.31473 0
M  V30 3697 N 338.485 -1.33259 -0.841409 0
M  V30 3698 C 339.418 -1.1764 -1.95541 0
M  V30 3699 C 340.396 -0.072501 -1.62438 0
M  V30 3700 O 341.58 -0.23427 -1.87039 0
M  V30 3701 C 338.707 -0.803794 -3.29024 0
M  V30 3702 C 337.753 -1.91482 -3.81099 0
M  V30 3703 S 338.586 -3.52538 -4.03085 0
M  V30 3704 C 339.742 -3.17279 -5.39523 0
M  V30 3705 H 339.975 -2.11941 -2.08491 0
M  V30 3706 H 337.508 -1.18072 -0.9949 0
M  V30 3707 H 339.466 -0.595592 -4.06156 0
M  V30 3708 H 338.127 0.120574 -3.13868 0
M  V30 3709 H 337.32 -1.60742 -4.7768 0
M  V30 3710 H 336.922 -2.07956 -3.10854 0
M  V30 3711 H 339.214 -2.67946 -6.22263 0
M  V30 3712 H 340.157 -4.1293 -5.75234 0
M  V30 3713 H 340.565 -2.53943 -5.04156 0
M  V30 3714 N 339.963 1.05934 -1.16686 0
M  V30 3715 C 340.895 2.13468 -0.834503 0
M  V30 3716 C 341.908 1.62013 0.15984 0
M  V30 3717 O 343.097 1.7838 -0.0654228 0
M  V30 3718 C 340.197 3.3817 -0.222361 0
M  V30 3719 C 339.37 4.18928 -1.25771 0
M  V30 3720 C 338.429 5.21985 -0.664703 0
M  V30 3721 O 337.455 5.53334 -1.33453 0
M  V30 3722 N 338.657 5.77919 0.546834 0
M  V30 3723 H 341.422 2.42578 -1.75999 0
M  V30 3724 H 338.983 1.21967 -1.06469 0
M  V30 3725 H 340.975 4.04266 0.187472 0
M  V30 3726 H 339.545 3.06655 0.606758 0
M  V30 3727 H 338.765 3.48433 -1.84358 0
M  V30 3728 H 340.053 4.69687 -1.95631 0
M  V30 3729 H 339.451 5.54721 1.10912 0
M  V30 3730 H 338.008 6.45573 0.898829 0
M  V30 3731 N 341.441 0.965919 1.2453 0
M  V30 3732 C 342.688 0.626831 1.92554 0
M  V30 3733 C 343.016 -0.837739 1.75534 0
M  V30 3734 O 342.271 -1.61793 1.10098 0
M  V30 3735 C 342.57 0.945428 3.44669 0
M  V30 3736 C 342.236 2.39785 3.81856 0
M  V30 3737 C 340.898 2.79483 3.91718 0
M  V30 3738 C 343.25 3.34055 4.00071 0
M  V30 3739 C 340.578 4.12496 4.1721 0
M  V30 3740 C 342.93 4.66694 4.27059 0
M  V30 3741 C 341.594 5.06172 4.3514 0
M  V30 3742 H 340.864 0.229374 0.704605 0
M  V30 3743 H 343.511 1.21707 1.4785 0
M  V30 3744 H 341.816 0.272926 3.90848 0
M  V30 3745 H 343.513 0.661484 3.95507 0
M  V30 3746 H 340.103 2.08003 3.74743 0
M  V30 3747 H 344.287 3.04571 3.91855 0
M  V30 3748 H 339.543 4.42709 4.21685 0
M  V30 3749 H 343.717 5.3971 4.40097 0
M  V30 3750 H 341.344 6.09262 4.54646 0
M  V30 3751 N 342.919 -1.39368 0.735821 0
M  V30 3752 C 343.849 -2.33234 0.111506 0
M  V30 3753 C 344.83 -1.53954 -0.723334 0
M  V30 3754 O 346.015 -1.82344 -0.668147 0
M  V30 3755 C 343.145 -3.38057 -0.795917 0
M  V30 3756 C 342.099 -4.2795 -0.065172 0
M  V30 3757 C 341.425 -5.23479 -1.08967 0
M  V30 3758 C 342.725 -5.10741 1.09273 0
M  V30 3759 H 344.419 -2.85692 0.895571 0
M  V30 3760 H 341.965 -1.37364 0.432109 0
M  V30 3761 H 343.918 -4.02675 -1.24221 0
M  V30 3762 H 342.642 -2.8404 -1.61211 0
M  V30 3763 H 341.301 -3.64813 0.361511 0
M  V30 3764 H 340.949 -4.65758 -1.89944 0
M  V30 3765 H 340.649 -5.84472 -0.605489 0
M  V30 3766 H 342.173 -5.90974 -1.53565 0
M  V30 3767 H 343.587 -5.68699 0.724841 0
M  V30 3768 H 341.984 -5.8088 1.50659 0
M  V30 3769 H 343.054 -4.45525 1.91404 0
M  V30 3770 N 344.397 -0.483516 -1.5 0
M  V30 3771 C 345.645 0.067027 -2.01989 0
M  V30 3772 C 345.966 1.3909 -1.36671 0
M  V30 3773 O 345.236 1.88978 -0.516152 0
M  V30 3774 H 343.816 0.0277606 -0.746484 0
M  V30 3775 H 346.478 -0.636773 -1.84204 0
M  V30 3776 H 345.574 0.209484 -3.11396 0
M  V30 3777 N 345.875 1.56104 -0.216619 0
M  V30 3778 C 347.152 1.89988 0.465165 0
M  V30 3779 C 347.532 1.13326 1.78102 0
M  V30 3780 O 346.88 0.241033 2.27225 0
M  V30 3781 C 347.09 3.42646 0.662939 0
M  V30 3782 C 348.438 4.13311 0.972602 0
M  V30 3783 O 349.462 3.48217 0.749901 0
M  V30 3784 O 348.321 5.28396 1.39499 0
M  V30 3785 H 345.415 0.78979 0.245276 0
M  V30 3786 H 347.961 1.67721 -0.258436 0
M  V30 3787 H 346.733 3.90399 -0.26543 0
M  V30 3788 H 346.356 3.70677 1.43821 0
M  V30 3789 N 347.353 -0.0568162 1.57498 0
M  V30 3790 C 348.263 -1.08346 2.08083 0
M  V30 3791 C 349.279 -1.41439 1.01346 0
M  V30 3792 O 350.455 -1.51316 1.32912 0
M  V30 3793 C 347.52 -2.37352 2.52715 0
M  V30 3794 C 346.581 -2.11093 3.73816 0
M  V30 3795 C 345.814 -3.33949 4.1631 0
M  V30 3796 O 346.037 -4.43622 3.58547 0
M  V30 3797 O 344.971 -3.21279 5.08983 0
M  V30 3798 H 348.797 -0.683667 2.95905 0
M  V30 3799 H 346.382 -0.271965 1.46904 0
M  V30 3800 H 348.264 -3.13246 2.81877 0
M  V30 3801 H 346.939 -2.76681 1.68016 0
M  V30 3802 H 345.846 -1.32856 3.49714 0
M  V30 3803 H 347.179 -1.76637 4.59413 0
M  V30 3804 N 348.832 -1.54138 -0.328536 0
M  V30 3805 C 349.742 -1.86192 -1.42723 0
M  V30 3806 C 350.758 -0.753382 -1.56844 0
M  V30 3807 O 351.934 -1.04718 -1.72035 0
M  V30 3808 C 348.999 -2.07824 -2.77507 0
M  V30 3809 C 348.06 -3.31641 -2.72603 0
M  V30 3810 C 347.293 -3.52232 -4.00959 0
M  V30 3811 O 347.516 -2.7636 -4.9898 0
M  V30 3812 O 346.45 -4.45699 -4.0452 0
M  V30 3813 H 350.276 -2.79608 -1.18547 0
M  V30 3814 H 347.861 -1.3998 -0.522104 0
M  V30 3815 H 349.743 -2.23411 -3.57303 0
M  V30 3816 H 348.418 -1.17596 -3.01584 0
M  V30 3817 H 347.325 -3.21444 -1.91376 0
M  V30 3818 H 348.658 -4.2191 -2.53481 0
M  V30 3819 N 350.31 0.590341 -1.46126 0
M  V30 3820 C 351.538 1.37504 -1.54597 0
M  V30 3821 C 351.953 1.87897 -0.184447 0
M  V30 3822 O 351.31 1.63192 0.816984 0
M  V30 3823 C 351.361 2.56779 -2.54454 0
M  V30 3824 O 351.082 2.08476 -3.85317 0
M  V30 3825 C 352.583 3.49427 -2.72792 0
M  V30 3826 H 349.803 0.420325 -0.523037 0
M  V30 3827 H 352.347 0.718383 -1.91467 0
M  V30 3828 H 350.502 3.1845 -2.20609 0
M  V30 3829 H 350.916 2.86097 -4.396 0
M  V30 3830 H 352.39 4.29619 -3.466 0
M  V30 3831 H 352.867 4.00876 -1.79429 0
M  V30 3832 H 353.473 2.93598 -3.07702 0
M  V30 3833 N 351.788 1.33704 0.83433 0
M  V30 3834 C 353.034 1.25603 1.59222 0
M  V30 3835 C 353.367 -0.176659 1.93395 0
M  V30 3836 O 352.642 -1.11915 1.59076 0
M  V30 3837 C 352.925 2.13576 2.89926 0
M  V30 3838 C 352.778 3.65326 2.62406 0
M  V30 3839 C 354.097 2.01238 3.91397 0
M  V30 3840 H 351.216 0.457613 0.577719 0
M  V30 3841 H 353.858 1.63848 0.961972 0
M  V30 3842 H 352.008 1.8109 3.43713 0
M  V30 3843 H 353.68 4.08124 2.15017 0
M  V30 3844 H 351.923 3.8698 1.96033 0
M  V30 3845 H 352.594 4.22232 3.55562 0
M  V30 3846 H 355.07 2.29738 3.46929 0
M  V30 3847 H 353.946 2.65036 4.80673 0
M  V30 3848 H 354.207 0.985951 4.30966 0
M  V30 3849 N 353.266 -1.05314 1.17247 0
M  V30 3850 C 354.682 -1.30452 0.919473 0
M  V30 3851 C 354.882 -1.9703 -0.42209 0
M  V30 3852 O 353.938 -2.24311 -1.15935 0
M  V30 3853 C 355.251 -2.17551 2.07586 0
M  V30 3854 C 356.799 -2.30937 2.11275 0
M  V30 3855 C 357.274 -3.21396 3.26296 0
M  V30 3856 N 358.765 -3.28981 3.26076 0
M  V30 3857 C 359.5 -3.99095 4.11716 0
M  V30 3858 N 358.996 -4.71648 5.07465 0
M  V30 3859 N 360.789 -3.95247 3.9967 0
M  V30 3860 H 352.94 -0.604988 2.03602 0
M  V30 3861 H 355.203 -0.329368 0.888944 0
M  V30 3862 H 354.909 -1.75921 3.0454 0
M  V30 3863 H 354.783 -3.18182 2.02584 0
M  V30 3864 H 357.17 -2.71809 1.14907 0
M  V30 3865 H 357.251 -1.2994 2.20339 0
M  V30 3866 H 356.895 -2.81238 4.22927 0
M  V30 3867 H 356.825 -4.22395 3.14467 0
M  V30 3868 H 359.316 -2.77286 2.5675 0
M  V30 3869 H 359.629 -5.22705 5.6921 0
M  V30 3870 H 357.974 -4.70594 5.11435 0
M  V30 3871 H 361.165 -3.37691 3.24164 0
M  V30 3872 H 361.338 -4.4962 4.66632 0
M  V30 3873 N 354.744 -0.972509 -1.24016 0
M  V30 3874 C 355.691 -0.505969 -2.25186 0
M  V30 3875 C 356.661 0.451009 -1.5986 0
M  V30 3876 O 357.846 0.360307 -1.87367 0
M  V30 3877 C 354.986 0.193089 -3.44559 0
M  V30 3878 C 354.099 -0.803222 -4.24467 0
M  V30 3879 C 353.234 -0.0797793 -5.3114 0
M  V30 3880 C 352.273 -1.06583 -6.02749 0
M  V30 3881 N 351.41 -0.372074 -7.01113 0
M  V30 3882 H 356.25 -1.37351 -2.64459 0
M  V30 3883 H 353.787 -0.688419 -1.29997 0
M  V30 3884 H 355.745 0.615125 -4.1264 0
M  V30 3885 H 354.375 1.02455 -3.06109 0
M  V30 3886 H 353.427 -1.34368 -3.55878 0
M  V30 3887 H 354.739 -1.55494 -4.73944 0
M  V30 3888 H 353.893 0.400015 -6.0538 0
M  V30 3889 H 352.632 0.704597 -4.82583 0
M  V30 3890 H 351.637 -1.55645 -5.27309 0
M  V30 3891 H 352.862 -1.85074 -6.53395 0
M  V30 3892 H 350.808 0.393238 -6.5482 0
M  V30 3893 H 350.725 -1.06258 -7.48495 0
M  V30 3894 H 351.993 0.0855932 -7.79453 0
M  V30 3895 N 356.222 1.38976 -0.743202 0
M  V30 3896 C 357.185 2.28901 -0.117014 0
M  V30 3897 C 358.185 1.46698 0.658503 0
M  V30 3898 O 359.375 1.67274 0.486305 0
M  V30 3899 C 356.507 3.30309 0.84315 0
M  V30 3900 H 357.7 2.8578 -0.909373 0
M  V30 3901 H 355.253 1.47761 -0.509547 0
M  V30 3902 H 355.988 2.785 1.66157 0
M  V30 3903 H 355.773 3.91029 0.289594 0
M  V30 3904 H 357.263 3.97577 1.2776 0
M  V30 3905 N 357.7 0.491464 1.49741 0
M  V30 3906 C 358.633 -0.338464 2.25676 0
M  V30 3907 C 359.611 -0.978676 1.29849 0
M  V30 3908 O 360.795 -1.01064 1.59117 0
M  V30 3909 C 357.922 -1.47588 3.04853 0
M  V30 3910 C 356.968 -0.951 4.15762 0
M  V30 3911 S 357.801 0.150626 5.35288 0
M  V30 3912 C 358.957 -0.990178 6.18018 0
M  V30 3913 H 359.19 0.306068 2.9572 0
M  V30 3914 H 356.723 0.276622 1.51902 0
M  V30 3915 H 358.681 -2.12764 3.51058 0
M  V30 3916 H 357.342 -2.09199 2.34296 0
M  V30 3917 H 356.535 -1.80311 4.70642 0
M  V30 3918 H 356.137 -0.376607 3.72099 0
M  V30 3919 H 358.429 -1.89748 6.50386 0
M  V30 3920 H 359.372 -0.480205 7.0647 0
M  V30 3921 H 359.78 -1.25321 5.50413 0
M  V30 3922 N 359.178 -1.55987 0.224894 0
M  V30 3923 C 360.088 -2.24066 -0.69511 0
M  V30 3924 C 361.104 -1.24939 -1.21104 0
M  V30 3925 O 362.28 -1.5776 -1.25195 0
M  V30 3926 C 359.345 -2.90983 -1.88493 0
M  V30 3927 C 358.406 -4.05462 -1.41064 0
M  V30 3928 C 357.639 -4.69179 -2.54375 0
M  V30 3929 O 357.862 -4.31895 -3.72589 0
M  V30 3930 O 356.796 -5.58108 -2.25386 0
M  V30 3931 H 360.622 -3.03353 -0.145149 0
M  V30 3932 H 358.207 -1.49399 -0.00569476 0
M  V30 3933 H 360.089 -3.33209 -2.57972 0
M  V30 3934 H 358.764 -2.14653 -2.42293 0
M  V30 3935 H 357.671 -3.67798 -0.683774 0
M  V30 3936 H 359.004 -4.83545 -0.918985 0
M  V30 3937 N 360.656 0.0484629 -1.57525 0
M  V30 3938 C 361.619 1.03956 -2.04269 0
M  V30 3939 C 362.619 1.30211 -0.943496 0
M  V30 3940 O 363.809 1.25539 -1.20771 0
M  V30 3941 C 360.941 2.37742 -2.44319 0
M  V30 3942 H 362.134 0.636182 -2.93075 0
M  V30 3943 H 359.687 0.294811 -1.53494 0
M  V30 3944 H 360.422 2.82866 -1.5861 0
M  V30 3945 H 360.207 2.20021 -3.24551 0
M  V30 3946 H 361.697 3.08936 -2.80978 0
M  V30 3947 N 362.134 1.5431 0.320358 0
M  V30 3948 C 363.38 1.72924 1.05949 0
M  V30 3949 C 363.713 0.503185 1.87568 0
M  V30 3950 O 362.988 -0.499839 1.87968 0
M  V30 3951 C 363.271 3.00676 1.98156 0
M  V30 3952 C 363.124 4.3354 1.19845 0
M  V30 3953 C 364.443 3.24198 2.9763 0
M  V30 3954 H 361.562 0.629195 0.383774 0
M  V30 3955 H 364.204 1.87008 0.335854 0
M  V30 3956 H 362.354 2.888 2.59859 0
M  V30 3957 H 364.026 4.57305 0.605773 0
M  V30 3958 H 362.269 4.309 0.500784 0
M  V30 3959 H 362.94 5.19156 1.87567 0
M  V30 3960 H 365.416 3.35557 2.4605 0
M  V30 3961 H 364.292 4.14938 3.59329 0
M  V30 3962 H 364.553 2.41577 3.7026 0
M  V30 3963 N 363.613 -0.582584 1.46437 0
M  V30 3964 C 364.576 -1.67366 1.56592 0
M  V30 3965 C 365.576 -1.54575 0.443072 0
M  V30 3966 O 366.766 -1.59191 0.707381 0
M  V30 3967 C 363.898 -3.06791 1.48634 0
M  V30 3968 H 365.091 -1.5972 2.5383 0
M  V30 3969 H 362.644 -0.800432 1.34249 0
M  V30 3970 H 363.379 -3.19993 0.526763 0
M  V30 3971 H 363.164 -3.17484 2.30101 0
M  V30 3972 H 364.654 -3.86218 1.58826 0
M  V30 3973 N 365.091 -1.34144 -0.827227 0
M  V30 3974 C 366.054 -1.25264 -1.91942 0
M  V30 3975 C 367.054 -0.168866 -1.59911 0
M  V30 3976 O 368.244 -0.421198 -1.69031 0
M  V30 3977 C 365.376 -0.932952 -3.27885 0
M  V30 3978 H 366.569 -2.22357 -2.0124 0
M  V30 3979 H 364.122 -1.1837 -1.0207 0
M  V30 3980 H 364.857 0.0349917 -3.24281 0
M  V30 3981 H 364.642 -1.71682 -3.52516 0
M  V30 3982 H 366.132 -0.895874 -4.07877 0
M  V30 3983 N 366.569 1.04691 -1.17803 0
M  V30 3984 C 367.501 2.12571 -0.857097 0
M  V30 3985 C 368.514 1.62174 0.142647 0
M  V30 3986 O 369.703 1.78301 -0.0843387 0
M  V30 3987 C 366.803 3.37915 -0.258216 0
M  V30 3988 C 365.976 4.1757 -1.30207 0
M  V30 3989 C 365.035 5.2125 -0.720029 0
M  V30 3990 O 364.061 5.51888 -1.39314 0
M  V30 3991 N 365.263 5.78466 0.485507 0
M  V30 3992 H 368.028 2.40698 -1.78562 0
M  V30 3993 H 365.589 1.20831 -1.07757 0
M  V30 3994 H 367.581 4.04442 0.144584 0
M  V30 3995 H 366.151 3.07281 0.574199 0
M  V30 3996 H 365.371 3.46458 -1.88043 0
M  V30 3997 H 366.659 4.67586 -2.00601 0
M  V30 3998 H 366.057 5.55866 1.05022 0
M  V30 3999 H 364.614 6.4649 0.830307 0
M  V30 4000 N 368.047 0.979072 1.23499 0
M  V30 4001 C 369.295 0.645941 1.91499 0
M  V30 4002 C 369.616 -0.822948 1.76784 0
M  V30 4003 O 368.886 -1.58854 1.14639 0
M  V30 4004 H 367.466 0.235919 0.708767 0
M  V30 4005 H 370.128 1.2426 1.50152 0
M  V30 4006 H 369.224 0.896411 2.9895 0
M  V30 4007 N 369.525 -1.3858 0.750561 0
M  V30 4008 C 370.472 -2.30483 0.120835 0
M  V30 4009 C 371.442 -1.50022 -0.712923 0
M  V30 4010 O 372.627 -1.78662 -0.669676 0
M  V30 4011 C 369.767 -3.36431 -0.768666 0
M  V30 4012 C 368.88 -4.31927 0.0793922 0
M  V30 4013 C 368.015 -5.24944 -0.81283 0
M  V30 4014 C 367.054 -6.12088 0.0390447 0
M  V30 4015 N 366.191 -6.97412 -0.809969 0
M  V30 4016 H 371.031 -2.83761 0.91015 0
M  V30 4017 H 368.568 -1.39707 0.460463 0
M  V30 4018 H 370.526 -3.96462 -1.29898 0
M  V30 4019 H 369.156 -2.8457 -1.5238 0
M  V30 4020 H 368.208 -3.73382 0.727303 0
M  V30 4021 H 369.52 -4.93319 0.737401 0
M  V30 4022 H 368.674 -5.90078 -1.41042 0
M  V30 4023 H 367.413 -4.63911 -1.50458 0
M  V30 4024 H 366.418 -5.45952 0.649328 0
M  V30 4025 H 367.643 -6.75189 0.727809 0
M  V30 4026 H 365.589 -6.38931 -1.48672 0
M  V30 4027 H 365.506 -7.55712 -0.208789 0
M  V30 4028 H 366.774 -7.66959 -1.39263 0
M  V30 4029 N 371.003 -0.499398 -1.49478 0
M  V30 4030 C 371.966 0.268838 -2.27618 0
M  V30 4031 C 372.966 0.895383 -1.33565 0
M  V30 4032 O 374.156 0.760164 -1.56739 0
M  V30 4033 C 371.288 1.38559 -3.11471 0
M  V30 4034 H 372.481 -0.416812 -2.96989 0
M  V30 4035 H 370.034 -0.254313 -1.54217 0
M  V30 4036 H 370.769 2.10544 -2.46661 0
M  V30 4037 H 370.554 0.941797 -3.80621 0
M  V30 4038 H 372.044 1.92678 -3.70493 0
M  V30 4039 N 372.481 1.55866 -0.233164 0
M  V30 4040 C 373.428 2.20796 0.67215 0
M  V30 4041 C 374.398 1.16731 1.18166 0
M  V30 4042 O 375.583 1.45129 1.23864 0
M  V30 4043 C 372.723 2.90072 1.86955 0
M  V30 4044 C 371.836 4.08759 1.39786 0
M  V30 4045 C 370.971 4.65787 2.55374 0
M  V30 4046 C 370.01 5.76752 2.04998 0
M  V30 4047 N 369.147 6.28021 3.13901 0
M  V30 4048 H 373.987 2.9779 0.111749 0
M  V30 4049 H 371.524 1.47036 0.0434007 0
M  V30 4050 H 373.482 3.28428 2.57276 0
M  V30 4051 H 372.112 2.15575 2.40265 0
M  V30 4052 H 371.164 3.7581 0.589173 0
M  V30 4053 H 372.476 4.88906 0.98856 0
M  V30 4054 H 371.63 5.06646 3.33758 0
M  V30 4055 H 370.369 3.84828 2.99598 0
M  V30 4056 H 369.374 5.35383 1.25079 0
M  V30 4057 H 370.599 6.59553 1.61759 0
M  V30 4058 H 368.545 5.49971 3.57586 0
M  V30 4059 H 368.462 7.03323 2.7726 0
M  V30 4060 H 369.73 6.73538 3.92386 0
M  V30 4061 O 373.998 0.0973059 1.61207 0
M  V30 4062 H 374.689 -0.50491 1.87004 0
M  V30 END ATOM
M  V30 BEGIN BOND
M  V30 END BOND
M  V30 END CTAB
M  END
$$$$
