drugbank_target|Q9UKI8 Serine/threonine-protein kinase tousled-like 1 (DB12010)
 OpenBabel12092121143D

  0  0  0     0  0            999 V3000
M  V30 BEGIN CTAB
M  V30 COUNTS 12144 12271 0 0 0
M  V30 BEGIN ATOM
M  V30 1 H -0.908 1.98254 -0.117106 0
M  V30 2 N 0 1.576 0 0
M  V30 3 C 0.933 2.03868 1.02534 0
M  V30 4 C 1.911 0.928543 1.3348 0
M  V30 5 O 3.095 1.19667 1.45644 0
M  V30 6 C 0.222 2.43627 2.35294 0
M  V30 7 C -0.732 3.65373 2.2001 0
M  V30 8 S 0.101 5.13292 1.52614 0
M  V30 9 C 1.257 5.56322 2.86805 0
M  V30 10 H 1.49 2.90518 0.631377 0
M  V30 11 H -0.977 1.52953 0.210867 0
M  V30 12 H 0.981 2.67203 3.11629 0
M  V30 13 H -0.358 1.57376 2.7183 0
M  V30 14 H -1.165 3.90944 3.18086 0
M  V30 15 H -1.563 3.418 1.51819 0
M  V30 16 H 0.729 5.58782 3.83104 0
M  V30 17 H 1.672 6.56266 2.65933 0
M  V30 18 H 2.08 4.83886 2.90714 0
M  V30 19 N 1.4781 -0.272755 1.55222 0
M  V30 20 C 2.7031 -1.02683 1.80197 0
M  V30 21 C 3.1281 -1.79142 0.573551 0
M  V30 22 O 2.4861 -1.74917 -0.476849 0
M  V30 23 C 2.5341 -1.9609 3.02624 0
M  V30 24 O 1.6381 -3.04863 2.77727 0
M  V30 25 H 0.9791 -0.293557 0.595584 0
M  V30 26 H 3.5091 -0.30159 2.02365 0
M  V30 27 H 3.5191 -2.38039 3.31363 0
M  V30 28 H 2.1941 -1.39851 3.91682 0
M  V30 29 H 0.7711 -2.67228 2.60084 0
M  V30 30 N 2.9562 -1.48159 -0.537278 0
M  V30 31 C 4.2022 -1.56035 -1.29541 0
M  V30 32 C 4.5352 -0.230377 -1.92829 0
M  V30 33 O 3.8102 0.762952 -1.78911 0
M  V30 34 C 4.0932 -2.69323 -2.39034 0
M  V30 35 C 3.9462 -4.12002 -1.80485 0
M  V30 36 C 5.2652 -2.78408 -3.40847 0
M  V30 37 H 2.3842 -0.567992 -0.469632 0
M  V30 38 H 5.0262 -1.80302 -0.599277 0
M  V30 39 H 3.1762 -2.48763 -2.98412 0
M  V30 40 H 4.8482 -4.43981 -1.25215 0
M  V30 41 H 3.0912 -4.19344 -1.11055 0
M  V30 42 H 3.7622 -4.87077 -2.59731 0
M  V30 43 H 6.2382 -2.97012 -2.91416 0
M  V30 44 H 5.1142 -3.59416 -4.14863 0
M  V30 45 H 5.3752 -1.86269 -4.00944 0
M  V30 46 N 4.4343 0.785586 -1.36625 0
M  V30 47 C 5.3663 1.90711 -1.2713 0
M  V30 48 C 6.3793 1.61688 -0.189986 0
M  V30 49 O 7.5683 1.72864 -0.445014 0
M  V30 50 C 4.6683 3.25611 -0.939713 0
M  V30 51 C 3.8413 3.82385 -2.12369 0
M  V30 52 C 2.9003 4.95732 -1.76456 0
M  V30 53 O 1.9263 5.12047 -2.48589 0
M  V30 54 N 3.1283 5.76258 -0.700492 0
M  V30 55 H 5.8933 1.99376 -2.23762 0
M  V30 56 H 3.4543 0.964041 -1.30069 0
M  V30 57 H 5.4463 3.98937 -0.680554 0
M  V30 58 H 4.0163 3.12538 -0.0624074 0
M  V30 59 H 3.2363 3.01001 -2.54543 0
M  V30 60 H 4.5243 4.17047 -2.9146 0
M  V30 61 H 3.9223 5.65609 -0.101624 0
M  V30 62 H 2.4793 6.4987 -0.501165 0
M  V30 63 N 5.9124 1.20967 1.01018 0
M  V30 64 C 7.1374 1.0503 1.78839 0
M  V30 65 C 7.5624 -0.395752 1.8389 0
M  V30 66 O 6.9204 -1.28529 1.27867 0
M  V30 67 C 6.9684 1.64602 3.2084 0
M  V30 68 O 6.0724 0.887988 4.02726 0
M  V30 69 H 5.4134 0.369987 0.551367 0
M  V30 70 H 7.9434 1.60399 1.27018 0
M  V30 71 H 7.9534 1.68607 3.71532 0
M  V30 72 H 6.6284 2.69841 3.16479 0
M  V30 73 H 5.2054 0.922648 3.61305 0
M  V30 74 N 7.3905 -1.2043 1.01659 0
M  V30 75 C 8.6155 -1.94318 0.724942 0
M  V30 76 C 9.0405 -1.74266 -0.708034 0
M  V30 77 O 8.3985 -1.03694 -1.48719 0
M  V30 78 C 8.4465 -3.44486 1.06591 0
M  V30 79 O 7.5505 -4.12017 0.177599 0
M  V30 80 H 6.8915 -0.60708 0.26898 0
M  V30 81 H 9.4215 -1.52861 1.35995 0
M  V30 82 H 9.4315 -3.95106 1.01762 0
M  V30 83 H 8.1065 -3.58404 2.10997 0
M  V30 84 H 6.6835 -3.71821 0.283421 0
M  V30 85 N 8.8686 -0.792821 -1.36206 0
M  V30 86 C 10.0936 -0.377701 -2.03932 0
M  V30 87 C 10.5186 0.998947 -1.59382 0
M  V30 88 O 9.8766 1.64421 -0.763903 0
M  V30 89 C 9.9246 -0.453635 -3.57735 0
M  V30 90 O 9.0286 0.538151 -4.08874 0
M  V30 91 H 8.3696 -0.159855 -0.644471 0
M  V30 92 H 10.8996 -1.07488 -1.7409 0
M  V30 93 H 10.9096 -0.318464 -4.06755 0
M  V30 94 H 9.5846 -1.45784 -3.89512 0
M  V30 95 H 8.1616 0.364359 -3.71116 0
M  V30 96 N 10.3467 1.47872 -0.545128 0
M  V30 97 C 11.5947 2.02093 -0.016553 0
M  V30 98 C 11.9157 1.42305 1.3332 0
M  V30 99 O 11.1857 0.593853 1.86682 0
M  V30 100 H 9.7657 0.746993 -0.00313038 0
M  V30 101 H 12.4277 1.81414 -0.712397 0
M  V30 102 H 11.5237 3.11996 0.0805422 0
M  V30 103 N 11.8248 0.280983 1.55075 0
M  V30 104 C 13.0498 -0.340154 2.04592 0
M  V30 105 C 13.4748 -1.48246 1.15779 0
M  V30 106 O 12.8328 -1.80614 0.15761 0
M  V30 107 C 12.8808 -0.793104 3.5177 0
M  V30 108 O 11.9848 -1.89981 3.66034 0
M  V30 109 H 11.3258 -0.0694289 0.66036 0
M  V30 110 H 13.8558 0.416993 2.00306 0
M  V30 111 H 13.8658 -1.08729 3.93245 0
M  V30 112 H 12.5408 0.0426163 4.15878 0
M  V30 113 H 11.1178 -1.60771 3.36463 0
M  V30 114 N 13.3029 -1.57598 0.00835791 0
M  V30 115 C 14.2329 -2.1198 -0.979113 0
M  V30 116 C 15.2139 -1.03091 -1.35301 0
M  V30 117 O 16.3989 -1.30818 -1.43528 0
M  V30 118 C 13.5289 -2.62995 -2.26828 0
M  V30 119 C 12.4829 -3.76485 -2.03576 0
M  V30 120 C 11.8089 -4.13846 -3.38579 0
M  V30 121 C 13.1089 -5.0342 -1.39161 0
M  V30 122 H 14.8029 -2.94738 -0.526281 0
M  V30 123 H 12.3489 -1.41783 -0.251704 0
M  V30 124 H 14.3019 -2.99669 -2.96271 0
M  V30 125 H 13.0259 -1.7737 -2.7424 0
M  V30 126 H 11.6849 -3.40217 -1.36557 0
M  V30 127 H 11.3329 -3.25232 -3.83709 0
M  V30 128 H 11.0329 -4.90312 -3.23834 0
M  V30 129 H 12.5569 -4.53086 -4.09323 0
M  V30 130 H 13.9709 -5.37812 -1.98573 0
M  V30 131 H 12.3679 -5.84746 -1.34878 0
M  V30 132 H 13.4379 -4.83548 -0.361868 0
M  V30 133 N 14.781 0.264519 -1.55364 0
M  V30 134 C 15.691 1.34902 -1.91934 0
M  V30 135 C 16.707 1.53595 -0.817593 0
M  V30 136 O 17.883 1.67558 -1.11742 0
M  V30 137 C 14.948 2.68676 -2.19121 0
M  V30 138 C 14.009 2.58657 -3.4263 0
M  V30 139 C 13.242 3.86051 -3.68511 0
M  V30 140 O 13.465 4.87126 -2.96757 0
M  V30 141 O 12.399 3.85744 -4.62045 0
M  V30 142 H 16.225 1.06883 -2.8427 0
M  V30 143 H 13.81 0.463775 -1.42019 0
M  V30 144 H 15.692 3.47759 -2.37995 0
M  V30 145 H 14.367 2.96463 -1.29966 0
M  V30 146 H 13.274 1.7792 -3.29082 0
M  V30 147 H 14.607 2.35818 -4.32031 0
M  V30 148 N 16.2591 1.48442 0.529413 0
M  V30 149 C 17.5071 1.56179 1.28267 0
M  V30 150 C 17.8281 0.237721 1.93546 0
M  V30 151 O 17.0981 -0.740779 1.81354 0
M  V30 152 H 15.6781 0.575367 0.476405 0
M  V30 153 H 18.3401 1.84909 0.61602 0
M  V30 154 H 17.4361 2.34312 2.06165 0
M  V30 155 N 17.7372 -0.778329 1.37039 0
M  V30 156 C 19.1482 -1.35421 1.28523 0
M  V30 157 C 19.4992 -1.96075 -0.0700901 0
M  V30 158 O 18.6242 -1.93352 -0.971801 0
M  V30 159 C 19.2192 -2.46211 2.32735 0
M  V30 160 C 17.7782 -2.99585 2.27873 0
M  V30 161 C 16.9252 -1.72748 2.16918 0
M  V30 162 H 19.8762 -0.5791 1.47757 0
M  V30 163 H 19.8972 -3.2552 1.9702 0
M  V30 164 H 19.4092 -2.02036 3.31365 0
M  V30 165 H 17.5102 -3.48152 1.32745 0
M  V30 166 H 17.6232 -3.55646 3.21018 0
M  V30 167 H 15.9872 -1.95416 1.63354 0
M  V30 168 H 16.7702 -1.30686 3.17452 0
M  V30 169 N 19.2153 -1.21501 -1.00376 0
M  V30 170 C 20.6263 -1.03146 -1.55621 0
M  V30 171 C 20.9773 0.408375 -1.91903 0
M  V30 172 O 20.1023 1.29177 -1.73616 0
M  V30 173 C 20.6973 -1.86612 -2.82775 0
M  V30 174 C 19.2563 -1.72586 -3.34501 0
M  V30 175 C 18.4033 -1.83747 -2.07683 0
M  V30 176 H 21.3543 -1.35505 -0.826081 0
M  V30 177 H 21.3753 -1.3771 -3.54706 0
M  V30 178 H 20.8873 -2.91399 -2.56336 0
M  V30 179 H 18.9883 -0.704877 -3.65872 0
M  V30 180 H 19.1013 -2.54623 -4.05837 0
M  V30 181 H 17.4653 -1.27069 -2.20739 0
M  V30 182 H 18.2483 -2.90044 -1.83655 0
M  V30 183 N 20.6934 1.19889 -1.02296 0
M  V30 184 C 21.9184 1.9393 -0.735237 0
M  V30 185 C 22.3434 1.74639 0.698782 0
M  V30 186 O 21.7014 1.04481 1.48167 0
M  V30 187 C 21.7494 3.43916 -1.08417 0
M  V30 188 O 20.8534 4.11917 -0.199446 0
M  V30 189 H 20.1944 0.605645 -0.272196 0
M  V30 190 H 22.7244 1.52137 -1.36804 0
M  V30 191 H 22.7344 3.9456 -1.03856 0
M  V30 192 H 21.4094 3.5728 -2.12894 0
M  V30 193 H 19.9864 3.71666 -0.303136 0
M  V30 194 N 22.1715 0.800033 1.35784 0
M  V30 195 C 23.4175 0.38701 1.99684 0
M  V30 196 C 23.7725 -1.03268 1.62338 0
M  V30 197 O 23.0655 -1.70543 0.87325 0
M  V30 198 C 23.2595 0.500276 3.53881 0
M  V30 199 C 23.0885 1.92942 4.06206 0
M  V30 200 C 21.8585 2.55637 4.35865 0
M  V30 201 C 24.0565 2.89307 4.25213 0
M  V30 202 N 22.0385 3.9003 4.74078 0
M  V30 203 C 23.4095 4.08556 4.66349 0
M  V30 204 C 25.4645 2.86225 4.07406 0
M  V30 205 C 24.1675 5.25146 4.91543 0
M  V30 206 C 26.1935 4.02011 4.33752 0
M  V30 207 C 25.5555 5.20007 4.75155 0
M  V30 208 H 21.6545 0.189252 0.758754 0
M  V30 209 H 24.2385 1.03988 1.64604 0
M  V30 210 H 22.4095 -0.122568 3.88207 0
M  V30 211 H 24.1415 0.0624733 4.04652 0
M  V30 212 H 20.8965 2.07039 4.25948 0
M  V30 213 H 21.3205 4.59205 4.97454 0
M  V30 214 H 25.9625 1.96154 3.74544 0
M  V30 215 H 23.6805 6.15794 5.23281 0
M  V30 216 H 27.2665 4.00999 4.21534 0
M  V30 217 H 26.1465 6.08113 4.95145 0
M  V30 218 N 23.6496 -1.47581 0.552962 0
M  V30 219 C 24.8746 -2.07378 0.0300593 0
M  V30 220 C 25.2996 -1.40355 -1.25229 0
M  V30 221 O 24.6576 -0.477099 -1.7491 0
M  V30 222 C 24.7056 -3.60274 -0.153231 0
M  V30 223 O 23.8096 -3.94041 -1.21678 0
M  V30 224 H 23.1506 -0.662158 0.0494182 0
M  V30 225 H 25.6806 -1.89662 0.767434 0
M  V30 226 H 25.6906 -4.0633 -0.368761 0
M  V30 227 H 24.3656 -4.08455 0.783397 0
M  V30 228 H 22.9426 -3.59735 -0.982079 0
M  V30 229 N 25.1277 -0.289203 -1.54924 0
M  V30 230 C 26.0597 0.625583 -2.20497 0
M  V30 231 C 27.0727 1.10667 -1.19402 0
M  V30 232 O 28.2617 1.02615 -1.46056 0
M  V30 233 C 25.3617 1.86702 -2.82835 0
M  V30 234 C 24.5347 1.5304 -4.09753 0
M  V30 235 C 23.5937 2.62576 -4.56005 0
M  V30 236 O 22.6197 2.28167 -5.21468 0
M  V30 237 N 23.8217 3.92901 -4.27328 0
M  V30 238 H 26.5867 0.0642801 -2.99631 0
M  V30 239 H 24.1477 -0.110896 -1.6152 0
M  V30 240 H 26.1397 2.59304 -3.10715 0
M  V30 241 H 24.7097 2.33702 -2.07611 0
M  V30 242 H 23.9297 0.637564 -3.8901 0
M  V30 243 H 25.2177 1.28072 -4.92418 0
M  V30 244 H 24.6157 4.23671 -3.74859 0
M  V30 245 H 23.1727 4.61837 -4.59946 0
M  V30 246 N 26.6058 1.57591 -0.0167156 0
M  V30 247 C 27.5358 2.12496 0.967858 0
M  V30 248 C 28.5168 1.03807 1.34752 0
M  V30 249 O 29.7018 1.31577 1.42833 0
M  V30 250 C 26.8318 2.64194 2.25431 0
M  V30 251 C 25.7858 3.77559 2.01576 0
M  V30 252 C 25.1118 4.15636 3.36379 0
M  V30 253 C 26.4118 5.04151 1.36489 0
M  V30 254 H 28.1058 2.95013 0.510643 0
M  V30 255 H 25.6518 1.41915 0.244181 0
M  V30 256 H 27.6048 3.01236 2.94678 0
M  V30 257 H 26.3288 1.78821 2.73296 0
M  V30 258 H 24.9878 3.40937 1.34751 0
M  V30 259 H 24.6358 3.27263 3.81979 0
M  V30 260 H 24.3358 4.92022 3.21229 0
M  V30 261 H 25.8598 4.5525 4.06915 0
M  V30 262 H 27.2738 5.38857 1.95718 0
M  V30 263 H 25.6708 5.85453 1.31776 0
M  V30 264 H 26.7408 4.83733 0.336219 0
M  V30 265 N 28.0839 -0.256276 1.55502 0
M  V30 266 C 29.3089 -1.00766 1.81276 0
M  V30 267 C 29.7339 -1.78524 0.59252 0
M  V30 268 O 29.0919 -1.75413 -0.45827 0
M  V30 269 C 29.1399 -1.92869 3.04687 0
M  V30 270 O 28.2439 -3.019 2.80945 0
M  V30 271 H 27.5849 -0.287224 0.598664 0
M  V30 272 H 30.1149 -0.280109 2.02674 0
M  V30 273 H 30.1249 -2.34511 3.33869 0
M  V30 274 H 28.7999 -1.35689 3.93143 0
M  V30 275 H 27.3769 -2.64454 2.62904 0
M  V30 276 N 29.562 -1.4872 -0.521534 0
M  V30 277 C 30.79 -1.60843 -1.30142 0
M  V30 278 C 31.205 -0.271897 -1.86832 0
M  V30 279 O 30.562 0.739969 -1.66825 0
M  V30 280 C 30.613 -2.66155 -2.4463 0
M  V30 281 O 30.334 -3.94623 -1.90275 0
M  V30 282 C 31.835 -2.88795 -3.36322 0
M  V30 283 H 29.055 -0.542075 -0.395468 0
M  V30 284 H 31.599 -1.94609 -0.628285 0
M  V30 285 H 29.754 -2.35224 -3.07812 0
M  V30 286 H 30.168 -4.52468 -2.65279 0
M  V30 287 H 31.642 -3.66264 -4.12983 0
M  V30 288 H 32.119 -1.97934 -3.9207 0
M  V30 289 H 32.725 -3.21063 -2.78924 0
M  V30 290 N 31.0401 0.771051 -1.3745 0
M  V30 291 C 32.2651 1.56529 -1.36065 0
M  V30 292 C 32.6901 1.88029 0.0515859 0
M  V30 293 O 32.0481 1.49282 1.02882 0
M  V30 294 C 32.0961 2.85187 -2.20683 0
M  V30 295 O 31.2001 3.79593 -1.61193 0
M  V30 296 H 30.5411 0.47411 -0.464883 0
M  V30 297 H 33.0711 0.954269 -1.80983 0
M  V30 298 H 33.0811 3.34283 -2.33921 0
M  V30 299 H 31.7561 2.61588 -3.23334 0
M  V30 300 H 30.3331 3.38239 -1.56999 0
M  V30 301 N 32.5182 1.22032 0.997298 0
M  V30 302 C 33.9292 1.0397 1.55071 0
M  V30 303 C 34.2802 -0.398192 1.92117 0
M  V30 304 O 33.4052 -1.28254 1.74298 0
M  V30 305 C 34.0002 1.88109 2.81781 0
M  V30 306 C 32.5592 1.74357 3.33581 0
M  V30 307 C 31.7062 1.84846 2.06706 0
M  V30 308 H 34.6572 1.35941 0.818883 0
M  V30 309 H 34.6782 1.39589 3.53971 0
M  V30 310 H 34.1902 2.92754 2.54787 0
M  V30 311 H 32.2912 0.72427 3.65493 0
M  V30 312 H 32.4042 2.56772 4.04481 0
M  V30 313 H 30.7682 1.28238 2.20062 0
M  V30 314 H 31.5512 2.91014 1.82114 0
M  V30 315 N 33.9963 -1.19345 1.0293 0
M  V30 316 C 35.2243 -1.92997 0.745644 0
M  V30 317 C 35.6393 -1.75519 -0.695589 0
M  V30 318 O 34.9963 -1.07737 -1.47306 0
M  V30 319 C 35.0473 -3.44741 1.08792 0
M  V30 320 O 34.7683 -3.61658 2.47256 0
M  V30 321 C 36.2693 -4.35515 0.827129 0
M  V30 322 H 33.4893 -0.613042 0.272801 0
M  V30 323 H 36.0333 -1.51473 1.3739 0
M  V30 324 H 34.1883 -3.84097 0.504832 0
M  V30 325 H 34.6023 -4.55514 2.60015 0
M  V30 326 H 36.0763 -5.40589 1.11658 0
M  V30 327 H 36.5533 -4.38552 -0.238436 0
M  V30 328 H 37.1593 -4.01841 1.39297 0
M  V30 329 N 35.4744 -0.807222 -1.35358 0
M  V30 330 C 36.8854 -0.44876 -1.81226 0
M  V30 331 C 37.2364 1.02929 -1.67033 0
M  V30 332 O 36.3614 1.79991 -1.20133 0
M  V30 333 C 36.9564 -0.807774 -3.2903 0
M  V30 334 C 35.5154 -0.501901 -3.73039 0
M  V30 335 C 34.6624 -1.03304 -2.57339 0
M  V30 336 H 37.6134 -0.998808 -1.23327 0
M  V30 337 H 37.6344 -0.10554 -3.80354 0
M  V30 338 H 37.1464 -1.88357 -3.39328 0
M  V30 339 H 35.2474 0.565128 -3.68289 0
M  V30 340 H 35.3604 -1.03497 -4.67787 0
M  V30 341 H 33.7244 -0.455339 -2.50597 0
M  V30 342 H 34.5074 -2.11496 -2.70415 0
M  V30 343 N 36.9525 1.47285 -0.560781 0
M  V30 344 C 38.2005 2.02064 -0.0379868 0
M  V30 345 C 38.5215 1.43711 1.31803 0
M  V30 346 O 37.7915 0.61362 1.86042 0
M  V30 347 H 36.3715 0.746918 -0.0110531 0
M  V30 348 H 39.0335 1.80648 -0.731598 0
M  V30 349 H 38.1295 3.12064 0.0474463 0
M  V30 350 N 38.4306 0.297415 1.54768 0
M  V30 351 C 39.6556 -0.318435 2.04941 0
M  V30 352 C 40.0806 -1.4701 1.17345 0
M  V30 353 O 39.4386 -1.80436 0.176758 0
M  V30 354 C 39.4866 -0.755749 3.52592 0
M  V30 355 O 38.5906 -1.86088 3.68028 0
M  V30 356 H 37.9316 -0.062421 0.661059 0
M  V30 357 H 40.4616 0.438215 1.99852 0
M  V30 358 H 40.4716 -1.04552 3.94376 0
M  V30 359 H 39.1466 0.0867233 4.1581 0
M  V30 360 H 37.7236 -1.57193 3.38149 0
M  V30 361 N 39.9087 -1.5758 0.0250728 0
M  V30 362 C 40.8717 -2.08896 -0.943139 0
M  V30 363 C 41.8717 -1.00321 -1.25668 0
M  V30 364 O 43.0617 -1.26495 -1.19769 0
M  V30 365 C 40.1937 -2.55143 -2.26086 0
M  V30 366 H 41.3867 -2.95723 -0.498775 0
M  V30 367 H 38.9397 -1.54703 -0.222888 0
M  V30 368 H 39.6747 -1.71633 -2.75159 0
M  V30 369 H 39.4597 -3.34461 -2.04641 0
M  V30 370 H 40.9497 -2.95083 -2.95492 0
M  V30 371 N 41.3868 0.248026 -1.55636 0
M  V30 372 C 42.3498 1.29044 -1.89421 0
M  V30 373 C 43.3498 1.41134 -0.770581 0
M  V30 374 O 44.5398 1.39854 -1.03858 0
M  V30 375 C 41.6718 2.66831 -2.12165 0
M  V30 376 H 42.8648 1.00305 -2.82629 0
M  V30 377 H 40.4178 0.487265 -1.48511 0
M  V30 378 H 41.1528 3.00711 -1.21422 0
M  V30 379 H 40.9378 2.59438 -2.93997 0
M  V30 380 H 42.4278 3.42103 -2.3949 0
M  V30 381 N 42.8649 1.48995 0.513639 0
M  V30 382 C 43.8279 1.64229 1.59879 0
M  V30 383 C 44.8279 0.514696 1.5234 0
M  V30 384 O 46.0179 0.78087 1.55718 0
M  V30 385 C 43.1499 1.62783 2.99524 0
M  V30 386 H 44.3429 2.61004 1.47705 0
M  V30 387 H 41.8959 1.37837 0.736936 0
M  V30 388 H 42.6309 0.675461 3.17188 0
M  V30 389 H 42.4159 2.4466 3.06404 0
M  V30 390 H 43.9059 1.76669 3.78388 0
M  V30 391 N 44.343 -0.763751 1.37857 0
M  V30 392 C 45.306 -1.85889 1.34081 0
M  V30 393 C 46.306 -1.58949 0.243277 0
M  V30 394 O 47.496 -1.66882 0.499589 0
M  V30 395 C 44.628 -3.23176 1.08489 0
M  V30 396 H 45.821 -1.90648 2.31502 0
M  V30 397 H 43.374 -0.964367 1.23003 0
M  V30 398 H 44.109 -3.24091 0.116318 0
M  V30 399 H 43.894 -3.44124 1.8794 0
M  V30 400 H 45.384 -4.03254 1.08517 0
M  V30 401 N 45.8211 -1.22559 -0.990812 0
M  V30 402 C 47.2371 -0.985996 -1.255 0
M  V30 403 C 47.4371 0.319173 -1.98956 0
M  V30 404 O 46.4931 1.04127 -2.3003 0
M  V30 405 C 47.8061 -2.18607 -2.06474 0
M  V30 406 C 49.3541 -2.22985 -2.19651 0
M  V30 407 C 49.8291 -3.4255 -3.04012 0
M  V30 408 N 51.3201 -3.42725 -3.11599 0
M  V30 409 C 52.0551 -4.31892 -3.7717 0
M  V30 410 N 51.5511 -5.31279 -4.44651 0
M  V30 411 N 53.3441 -4.19662 -3.73952 0
M  V30 412 H 45.4951 -2.06469 -0.49841 0
M  V30 413 H 47.7581 -0.904853 -0.282747 0
M  V30 414 H 47.4641 -3.13267 -1.59865 0
M  V30 415 H 47.3381 -2.18838 -3.07229 0
M  V30 416 H 49.7251 -1.28871 -2.65474 0
M  V30 417 H 49.8061 -2.26791 -1.18319 0
M  V30 418 H 49.4501 -4.36965 -2.58889 0
M  V30 419 H 49.3801 -3.35984 -4.0549 0
M  V30 420 H 51.8711 -2.70807 -2.63575 0
M  V30 421 H 52.1841 -5.95593 -4.92431 0
M  V30 422 H 50.5291 -5.3519 -4.43392 0
M  V30 423 H 53.7201 -3.41268 -3.20396 0
M  V30 424 H 53.8931 -4.89358 -4.24774 0
M  V30 425 N 47.2992 1.18797 -1.03562 0
M  V30 426 C 48.5242 1.9314 -0.755764 0
M  V30 427 C 48.9492 1.7537 0.68022 0
M  V30 428 O 48.3072 1.06046 1.47051 0
M  V30 429 C 48.3552 3.42747 -1.12058 0
M  V30 430 O 47.4592 4.11683 -0.243124 0
M  V30 431 H 46.8002 0.602724 -0.278604 0
M  V30 432 H 49.3302 1.50678 -1.3841 0
M  V30 433 H 49.3402 3.93437 -1.08035 0
M  V30 434 H 48.0152 3.55002 -2.16672 0
M  V30 435 H 46.5922 3.71323 -0.342539 0
M  V30 436 N 48.7773 0.814389 1.34928 0
M  V30 437 C 49.7073 0.244827 2.32213 0
M  V30 438 C 50.6883 -0.634024 1.57842 0
M  V30 439 O 51.8733 -0.562676 1.8587 0
M  V30 440 C 49.0033 -0.601106 3.42058 0
M  V30 441 C 47.9573 0.179896 4.27622 0
M  V30 442 C 47.2833 -0.788237 5.28858 0
M  V30 443 C 48.5833 1.38329 5.03649 0
M  V30 444 H 50.2773 1.05763 2.80097 0
M  V30 445 H 47.8233 0.510029 1.34665 0
M  V30 446 H 49.7763 -1.00968 4.09125 0
M  V30 447 H 48.5003 -1.44688 2.92802 0
M  V30 448 H 47.1593 0.569739 3.62146 0
M  V30 449 H 46.8073 -1.62973 4.75866 0
M  V30 450 H 46.5073 -0.269942 5.8698 0
M  V30 451 H 48.0313 -1.19485 5.98795 0
M  V30 452 H 49.4453 1.04918 5.63618 0
M  V30 453 H 47.8423 1.83662 5.71304 0
M  V30 454 H 48.9123 2.16592 4.33839 0
M  V30 455 N 50.2554 -1.46986 0.568584 0
M  V30 456 C 51.1854 -2.32946 -0.160753 0
M  V30 457 C 52.1664 -1.44487 -0.897631 0
M  V30 458 O 53.3514 -1.73327 -0.875867 0
M  V30 459 C 50.4814 -3.26494 -1.18403 0
M  V30 460 C 49.4354 -4.24282 -0.562895 0
M  V30 461 C 48.7614 -5.07236 -1.69163 0
M  V30 462 C 50.0614 -5.19989 0.490761 0
M  V30 463 H 51.7554 -2.94175 0.556916 0
M  V30 464 H 49.3014 -1.4146 0.26927 0
M  V30 465 H 51.2544 -3.85477 -1.70251 0
M  V30 466 H 49.9784 -2.63343 -1.93179 0
M  V30 467 H 48.6374 -3.66541 -0.0656164 0
M  V30 468 H 48.2854 -4.4048 -2.42871 0
M  V30 469 H 47.9854 -5.7345 -1.28174 0
M  V30 470 H 49.5094 -5.6908 -2.21314 0
M  V30 471 H 50.9234 -5.73271 0.0579047 0
M  V30 472 H 49.3204 -5.94469 0.820165 0
M  V30 473 H 50.3904 -4.64777 1.3824 0
M  V30 474 N 51.7335 -0.305618 -1.54608 0
M  V30 475 C 52.6815 0.584119 -2.25146 0
M  V30 476 C 53.6755 1.13326 -1.25911 0
M  V30 477 O 54.8815 1.08337 -1.43747 0
M  V30 478 H 51.2565 0.206983 -0.722954 0
M  V30 479 H 53.2275 -0.033291 -2.98381 0
M  V30 480 C 51.9765 1.74225 -3.009 0
M  V30 481 H 51.2995 1.32892 -3.77067 0
M  V30 482 H 52.7395 2.34077 -3.53531 0
M  V30 483 C 51.1985 2.64914 -2.0814 0
M  V30 484 O 51.7285 3.66137 -1.65246 0
M  V30 485 N 49.9345 2.3275 -1.74 0
M  V30 486 H 49.4815 1.50479 -2.09078 0
M  V30 487 H 49.4395 2.93694 -1.12211 0
M  V30 488 N 53.2116 1.57565 -0.0334293 0
M  V30 489 C 54.1616 2.06978 0.956237 0
M  V30 490 C 55.1456 0.971193 1.28283 0
M  V30 491 O 56.3376 1.23471 1.26822 0
M  V30 492 C 53.4666 2.60393 2.23719 0
M  V30 493 C 52.5526 3.7719 1.93877 0
M  V30 494 N 52.9436 4.87639 1.34321 0
M  V30 495 C 51.2416 3.85758 2.23845 0
M  V30 496 C 51.9426 5.68825 1.21709 0
M  V30 497 N 50.9186 5.1587 1.71404 0
M  V30 498 H 54.7206 2.89773 0.490815 0
M  V30 499 H 52.2346 1.61492 0.171478 0
M  V30 500 H 54.2316 2.94088 2.95496 0
M  V30 501 H 52.8916 1.79031 2.70884 0
M  V30 502 H 53.9026 5.07803 1.01767 0
M  V30 503 H 50.5796 3.1531 2.73653 0
M  V30 504 H 51.9696 6.67631 0.75621 0
M  V30 505 N 54.6897 -0.239769 1.55765 0
M  V30 506 C 55.9177 -0.98417 1.81994 0
M  V30 507 C 56.3327 -1.7867 0.610124 0
M  V30 508 O 55.6897 -1.77571 -0.421271 0
M  V30 509 C 55.7407 -1.91635 3.06526 0
M  V30 510 O 55.4617 -1.14629 4.22838 0
M  V30 511 C 56.9627 -2.77616 3.45607 0
M  V30 512 H 54.1827 -0.28928 0.605441 0
M  V30 513 H 56.7267 -0.260499 2.02834 0
M  V30 514 H 54.8817 -2.5942 2.87715 0
M  V30 515 H 55.2957 -1.77745 4.93464 0
M  V30 516 H 56.7697 -3.38759 4.35828 0
M  V30 517 H 57.2467 -3.4909 2.6652 0
M  V30 518 H 57.8527 -2.15271 3.66795 0
M  V30 519 N 56.1678 -1.49265 -0.50573 0
M  V30 520 C 57.5788 -1.51769 -1.08734 0
M  V30 521 C 57.9298 -0.301192 -1.93874 0
M  V30 522 O 57.0548 0.589456 -2.08217 0
M  V30 523 C 57.6498 -2.75017 -1.97867 0
M  V30 524 C 56.2088 -2.80314 -2.51199 0
M  V30 525 C 55.3558 -2.4562 -1.28709 0
M  V30 526 H 58.3068 -1.56031 -0.289855 0
M  V30 527 H 58.3278 -2.5491 -2.82491 0
M  V30 528 H 57.8398 -3.63539 -1.35873 0
M  V30 529 H 55.9408 -1.96061 -3.16845 0
M  V30 530 H 56.0538 -3.82366 -2.88675 0
M  V30 531 H 54.4178 -1.97297 -1.61078 0
M  V30 532 H 55.2008 -3.36411 -0.6843 0
M  V30 533 N 57.6459 0.756429 -1.3826 0
M  V30 534 C 59.0569 1.33359 -1.30661 0
M  V30 535 C 59.4079 1.96161 0.0388875 0
M  V30 536 O 58.5329 1.94874 0.940918 0
M  V30 537 C 59.1279 2.42477 -2.36622 0
M  V30 538 C 57.6869 2.95922 -2.3261 0
M  V30 539 C 56.8339 1.69275 -2.19639 0
M  V30 540 H 59.7849 0.55552 -1.4866 0
M  V30 541 H 59.8059 3.22345 -2.02174 0
M  V30 542 H 59.3179 1.96739 -3.34538 0
M  V30 543 H 57.4189 3.45996 -1.38267 0
M  V30 544 H 57.5319 3.50494 -3.26636 0
M  V30 545 H 55.8959 1.92793 -1.66442 0
M  V30 546 H 56.6789 1.25619 -3.19491 0
M  V30 547 N 59.124 1.23083 0.984299 0
M  V30 548 C 60.349 1.088 1.76571 0
M  V30 549 C 60.774 -0.356657 1.84688 0
M  V30 550 O 60.132 -1.25788 1.30565 0
M  V30 551 C 60.18 1.71371 3.17277 0
M  V30 552 O 59.284 0.973213 4.00752 0
M  V30 553 H 58.625 0.381599 0.543395 0
M  V30 554 H 61.155 1.63057 1.23587 0
M  V30 555 H 61.165 1.76449 3.67872 0
M  V30 556 H 59.84 2.76493 3.10684 0
M  V30 557 H 58.417 0.999078 3.59267 0
M  V30 558 N 60.6021 -1.18246 1.0419 0
M  V30 559 C 61.8501 -1.87886 0.744543 0
M  V30 560 C 62.1711 -1.8082 -0.730006 0
M  V30 561 O 61.4411 -1.22736 -1.52685 0
M  V30 562 H 60.0211 -0.695556 0.272417 0
M  V30 563 H 62.6831 -1.43494 1.31892 0
M  V30 564 H 61.7791 -2.9389 1.05049 0
M  V30 565 N 62.0802 -0.821533 -1.34494 0
M  V30 566 C 63.4962 -0.507117 -1.51329 0
M  V30 567 C 63.6962 0.968964 -1.76673 0
M  V30 568 O 62.7522 1.75348 -1.81685 0
M  V30 569 C 64.0652 -1.36544 -2.67911 0
M  V30 570 C 65.6132 -1.36242 -2.81793 0
M  V30 571 C 66.0882 -2.2052 -4.01416 0
M  V30 572 N 67.5792 -2.18136 -4.08621 0
M  V30 573 C 68.3142 -2.80095 -5.00334 0
M  V30 574 N 67.8102 -3.51039 -5.9728 0
M  V30 575 N 69.6032 -2.69656 -4.93196 0
M  V30 576 H 61.7542 -1.77729 -1.16302 0
M  V30 577 H 64.0172 -0.757291 -0.570276 0
M  V30 578 H 63.7232 -2.41361 -2.55808 0
M  V30 579 H 63.5972 -1.02917 -3.62888 0
M  V30 580 H 65.9842 -0.322041 -2.93338 0
M  V30 581 H 66.0652 -1.73866 -1.87628 0
M  V30 582 H 65.7092 -3.24607 -3.90631 0
M  V30 583 H 65.6392 -1.80247 -4.94791 0
M  V30 584 H 68.1302 -1.6653 -3.39229 0
M  V30 585 H 68.4432 -3.95565 -6.63889 0
M  V30 586 H 66.7882 -3.55145 -5.97409 0
M  V30 587 H 69.9792 -2.13808 -4.16418 0
M  V30 588 H 70.1522 -3.1823 -5.64476 0
M  V30 589 N 63.5583 1.46682 -0.576371 0
M  V30 590 C 64.9693 1.86112 -0.148091 0
M  V30 591 C 65.3203 1.48073 1.2872 0
M  V30 592 O 64.4453 0.892656 1.97131 0
M  V30 593 C 65.0403 3.37786 -0.261982 0
M  V30 594 C 63.5993 3.76235 0.111384 0
M  V30 595 C 62.7463 2.70713 -0.60083 0
M  V30 596 H 65.6973 1.37927 -0.78497 0
M  V30 597 H 65.7183 3.77007 0.514364 0
M  V30 598 H 65.2303 3.6544 -1.30671 0
M  V30 599 H 63.3313 3.54198 1.15649 0
M  V30 600 H 63.4443 4.78391 -0.26052 0
M  V30 601 H 61.8083 2.54666 -0.0417783 0
M  V30 602 H 62.5913 3.01208 -1.64708 0
M  V30 603 N 65.0364 0.313813 1.54444 0
M  V30 604 C 66.4524 -0.0391619 1.59552 0
M  V30 605 C 66.6524 -1.51322 1.33056 0
M  V30 606 O 65.7084 -2.26782 1.11022 0
M  V30 607 C 67.0214 0.370302 2.98411 0
M  V30 608 C 68.5694 0.320139 3.11358 0
M  V30 609 C 69.0444 0.704617 4.52547 0
M  V30 610 N 70.5354 0.657645 4.58508 0
M  V30 611 C 71.2704 0.927453 5.6585 0
M  V30 612 N 70.7664 1.26389 6.81174 0
M  V30 613 N 72.5594 0.853662 5.5558 0
M  V30 614 H 64.7104 1.27433 1.69925 0
M  V30 615 H 66.9734 0.517511 0.794284 0
M  V30 616 H 66.6794 1.39694 3.22767 0
M  V30 617 H 66.5534 -0.269619 3.76235 0
M  V30 618 H 68.9404 -0.697275 2.86744 0
M  V30 619 H 69.0214 0.99486 2.35661 0
M  V30 620 H 68.6654 1.7199 4.77893 0
M  V30 621 H 68.5954 0.00768843 5.26599 0
M  V30 622 H 71.0864 0.409067 3.75679 0
M  V30 623 H 71.3994 1.4554 7.58972 0
M  V30 624 H 69.7444 1.30206 6.82694 0
M  V30 625 H 72.9354 0.590383 4.64362 0
M  V30 626 H 73.1084 1.0673 6.3915 0
M  V30 627 N 66.5145 -1.57545 0.0417849 0
M  V30 628 C 67.4245 -2.14451 -0.951213 0
M  V30 629 C 68.4405 -1.09992 -1.34825 0
M  V30 630 O 69.6165 -1.42114 -1.42708 0
M  V30 631 C 66.6815 -2.67063 -2.21084 0
M  V30 632 C 65.7425 -3.86284 -1.87304 0
M  V30 633 C 64.9755 -4.36378 -3.07261 0
M  V30 634 O 65.1985 -3.85587 -4.20332 0
M  V30 635 O 64.1325 -5.28077 -2.88822 0
M  V30 636 H 67.9585 -2.99601 -0.497287 0
M  V30 637 H 65.5435 -1.48317 -0.179567 0
M  V30 638 H 67.4255 -3.00914 -2.95006 0
M  V30 639 H 66.1005 -1.84989 -2.65633 0
M  V30 640 H 65.0075 -3.57338 -1.10727 0
M  V30 641 H 66.3405 -4.6956 -1.47562 0
M  V30 642 N 67.9926 0.231505 -1.5589 0
M  V30 643 C 69.2406 0.955461 -1.78088 0
M  V30 644 C 69.5616 1.85262 -0.608533 0
M  V30 645 O 68.8316 1.92277 0.375035 0
M  V30 646 H 67.4116 0.355787 -0.656829 0
M  V30 647 H 70.0736 0.245751 -1.93344 0
M  V30 648 H 69.1696 1.56814 -2.69844 0
M  V30 649 N 69.4707 1.49531 0.497807 0
M  V30 650 C 70.4337 1.65916 1.58128 0
M  V30 651 C 71.4337 0.530825 1.51786 0
M  V30 652 O 72.6237 0.797342 1.54881 0
M  V30 653 C 69.7557 1.65951 2.9778 0
M  V30 654 H 70.9487 2.62556 1.44929 0
M  V30 655 H 68.5017 1.38611 0.722275 0
M  V30 656 H 69.2367 0.709065 3.16453 0
M  V30 657 H 69.0217 2.47897 3.03792 0
M  V30 658 H 70.5117 1.80673 3.76493 0
M  V30 659 N 70.9488 -0.749086 1.3866 0
M  V30 660 C 71.8818 -1.87111 1.30631 0
M  V30 661 C 72.8598 -1.61572 0.18251 0
M  V30 662 O 74.0438 -1.85019 0.360592 0
M  V30 663 C 71.1708 -3.22815 1.02511 0
M  V30 664 C 70.2168 -3.67234 2.1689 0
M  V30 665 S 71.0498 -3.78245 3.79066 0
M  V30 666 C 72.2058 -5.16761 3.53142 0
M  V30 667 H 72.4388 -1.93636 2.25594 0
M  V30 668 H 69.9718 -0.912525 1.24549 0
M  V30 669 H 71.9298 -4.01181 0.869701 0
M  V30 670 H 70.5908 -3.13964 0.0925884 0
M  V30 671 H 69.7838 -4.65677 1.92771 0
M  V30 672 H 69.3858 -2.96034 2.28561 0
M  V30 673 H 71.6778 -6.02656 3.09534 0
M  V30 674 H 72.6208 -5.45902 4.50995 0
M  V30 675 H 73.0288 -4.85771 2.87554 0
M  V30 676 N 72.4269 -1.23603 -0.977757 0
M  V30 677 C 73.7039 -0.977897 -1.69401 0
M  V30 678 C 74.0839 0.502738 -2.05026 0
M  V30 679 O 73.4319 1.47459 -1.74551 0
M  V30 680 C 73.6419 -1.89077 -2.93345 0
M  V30 681 C 74.9899 -2.15579 -3.65802 0
M  V30 682 O 76.0139 -1.86648 -3.03383 0
M  V30 683 O 74.8729 -2.64658 -4.78141 0
M  V30 684 H 71.9669 -0.369025 -0.740101 0
M  V30 685 H 74.5129 -1.34657 -1.03274 0
M  V30 686 H 73.2849 -2.89158 -2.63634 0
M  V30 687 H 72.9079 -1.52463 -3.67207 0
M  V30 688 N 73.905 1.17692 -1.04816 0
M  V30 689 C 74.815 2.25229 -0.65643 0
M  V30 690 C 75.831 1.71018 0.320761 0
M  V30 691 O 77.007 2.00649 0.173805 0
M  V30 692 C 74.072 3.46684 -0.0332629 0
M  V30 693 C 73.133 4.15997 -1.06042 0
M  V30 694 C 72.366 5.31654 -0.466893 0
M  V30 695 O 72.589 5.65777 0.724758 0
M  V30 696 O 71.523 5.89831 -1.1993 0
M  V30 697 H 75.349 2.61016 -1.55255 0
M  V30 698 H 72.934 1.24919 -0.81949 0
M  V30 699 H 74.816 4.20234 0.313256 0
M  V30 700 H 73.491 3.12703 0.836566 0
M  V30 701 H 72.398 3.44482 -1.45886 0
M  V30 702 H 73.731 4.53996 -1.90127 0
M  V30 703 N 75.3831 0.828654 1.34056 0
M  V30 704 C 76.3131 0.269443 2.3194 0
M  V30 705 C 77.2941 -0.617247 1.58506 0
M  V30 706 O 78.4791 -0.542931 1.86456 0
M  V30 707 C 75.6091 -0.564793 3.42677 0
M  V30 708 C 74.5631 0.225241 4.27407 0
M  V30 709 C 73.8891 -0.7321 5.29664 0
M  V30 710 C 75.1891 1.43663 5.02154 0
M  V30 711 H 76.8831 1.08728 2.7896 0
M  V30 712 H 74.4291 0.524283 1.34117 0
M  V30 713 H 76.3821 -0.966233 4.10173 0
M  V30 714 H 75.1061 -1.41574 2.9432 0
M  V30 715 H 73.7651 0.608117 3.61521 0
M  V30 716 H 73.4131 -1.57916 4.77568 0
M  V30 717 H 73.1131 -0.20767 5.87233 0
M  V30 718 H 74.6371 -1.13128 6.00029 0
M  V30 719 H 76.0511 1.1089 5.62473 0
M  V30 720 H 74.4481 1.89711 5.69324 0
M  V30 721 H 75.5181 2.21181 4.31517 0
M  V30 722 N 76.8612 -1.46375 0.584142 0
M  V30 723 C 77.8112 -2.27371 -0.169232 0
M  V30 724 C 78.7952 -1.35955 -0.860523 0
M  V30 725 O 79.9872 -1.60119 -0.754382 0
M  V30 726 C 77.1162 -3.22334 -1.18134 0
M  V30 727 C 76.2022 -4.21235 -0.492088 0
M  V30 728 N 76.5932 -5.03766 0.453129 0
M  V30 729 C 74.8912 -4.39773 -0.742652 0
M  V30 730 C 75.5922 -5.75366 0.85609 0
M  V30 731 N 74.5682 -5.43214 0.204926 0
M  V30 732 H 78.3702 -2.88572 0.557097 0
M  V30 733 H 75.8842 -1.57242 0.406042 0
M  V30 734 H 77.8812 -3.79071 -1.73525 0
M  V30 735 H 76.5412 -2.62693 -1.90847 0
M  V30 736 H 77.5522 -5.11227 0.828723 0
M  V30 737 H 74.2292 -3.91279 -1.45625 0
M  V30 738 H 75.6192 -6.5172 1.63434 0
M  V30 739 N 78.3393 -0.321999 -1.54275 0
M  V30 740 C 79.5643 0.285791 -2.05422 0
M  V30 741 C 79.9893 1.45124 -1.19669 0
M  V30 742 O 79.3473 1.80132 -0.205441 0
M  V30 743 C 79.3953 0.69956 -3.53749 0
M  V30 744 O 78.4993 1.8021 -3.70942 0
M  V30 745 H 77.8403 0.0518962 -0.661969 0
M  V30 746 H 80.3703 -0.469954 -1.9913 0
M  V30 747 H 80.3803 0.982649 -3.9599 0
M  V30 748 H 79.0553 -0.152864 -4.15619 0
M  V30 749 H 77.6323 1.51794 -3.40607 0
M  V30 750 N 79.8174 1.5752 -0.0501392 0
M  V30 751 C 80.7474 2.14502 0.922566 0
M  V30 752 C 81.7284 1.06642 1.3252 0
M  V30 753 O 82.9134 1.34577 1.4001 0
M  V30 754 C 80.0434 2.68916 2.19776 0
M  V30 755 C 78.9974 3.8175 1.93523 0
M  V30 756 C 78.3234 4.22677 3.27487 0
M  V30 757 C 79.6234 5.06932 1.25765 0
M  V30 758 H 81.3174 2.9603 0.447952 0
M  V30 759 H 78.8634 1.42401 0.214024 0
M  V30 760 H 80.8164 3.07419 2.88222 0
M  V30 761 H 79.5404 1.84578 2.69441 0
M  V30 762 H 78.1994 3.43718 1.27489 0
M  V30 763 H 77.8474 3.35291 3.74952 0
M  V30 764 H 77.5474 4.98725 3.1072 0
M  V30 765 H 79.0714 4.63779 3.97166 0
M  V30 766 H 80.4854 5.42888 1.84244 0
M  V30 767 H 78.8824 5.88116 1.19328 0
M  V30 768 H 79.9524 4.84337 0.233536 0
M  V30 769 N 81.2955 -0.223234 1.56011 0
M  V30 770 C 82.5725 -0.972108 1.69733 0
M  V30 771 C 82.9525 -2.02485 0.59691 0
M  V30 772 O 82.3005 -2.25037 -0.396324 0
M  V30 773 C 82.5105 -1.58407 3.10979 0
M  V30 774 C 83.8585 -2.07696 3.70334 0
M  V30 775 O 84.8825 -1.68304 3.1393 0
M  V30 776 O 83.7415 -2.80096 4.69264 0
M  V30 777 H 80.8355 -0.453993 0.691245 0
M  V30 778 H 83.3815 -0.215149 1.68331 0
M  V30 779 H 82.1535 -0.823831 3.82529 0
M  V30 780 H 81.7765 -2.40661 3.16493 0
M  V30 781 N 82.7736 -1.49793 -0.48987 0
M  V30 782 C 84.1846 -1.52914 -1.07118 0
M  V30 783 C 84.5356 -0.321738 -1.93544 0
M  V30 784 O 83.6606 0.567338 -2.08831 0
M  V30 785 C 84.2556 -2.771 -1.94938 0
M  V30 786 C 82.8146 -2.82963 -2.48212 0
M  V30 787 C 81.9616 -2.46972 -1.26096 0
M  V30 788 H 84.9126 -1.56329 -0.273289 0
M  V30 789 H 84.9336 -2.57892 -2.79771 0
M  V30 790 H 84.4456 -3.64959 -1.32009 0
M  V30 791 H 82.5466 -1.99411 -3.14748 0
M  V30 792 H 82.6596 -3.85406 -2.84603 0
M  V30 793 H 81.0236 -1.98994 -1.58976 0
M  V30 794 H 81.8066 -3.37118 -0.648581 0
M  V30 795 N 84.2517 0.741722 -1.39055 0
M  V30 796 C 85.6677 1.04638 -1.20512 0
M  V30 797 C 85.8677 2.01405 -0.0620218 0
M  V30 798 O 84.9237 2.45547 0.588457 0
M  V30 799 C 86.2367 1.6151 -2.53643 0
M  V30 800 C 87.7847 1.73623 -2.6043 0
M  V30 801 C 88.2597 2.33906 -3.93767 0
M  V30 802 N 89.7507 2.41323 -3.9537 0
M  V30 803 C 90.4857 2.88888 -4.95309 0
M  V30 804 N 89.9817 3.36401 -6.05645 0
M  V30 805 N 91.7747 2.88037 -4.82692 0
M  V30 806 H 83.9257 0.0998155 -2.12165 0
M  V30 807 H 86.1887 0.106907 -0.941953 0
M  V30 808 H 85.8947 0.978739 -3.37807 0
M  V30 809 H 85.7687 2.60411 -2.72885 0
M  V30 810 H 88.1557 2.36384 -1.76655 0
M  V30 811 H 88.2367 0.733945 -2.45045 0
M  V30 812 H 87.8807 1.71776 -4.7797 0
M  V30 813 H 87.8107 3.34799 -4.06469 0
M  V30 814 H 90.3017 2.07734 -3.15682 0
M  V30 815 H 90.6147 3.71186 -6.77821 0
M  V30 816 H 88.9597 3.34427 -6.09248 0
M  V30 817 H 92.1507 2.50237 -3.95599 0
M  V30 818 H 92.3237 3.24792 -5.60726 0
M  V30 819 N 85.7298 1.2412 0.971189 0
M  V30 820 C 87.1458 1.00584 1.23916 0
M  V30 821 C 87.3458 -0.287481 1.99439 0
M  V30 822 O 86.4018 -1.00454 2.31658 0
M  V30 823 C 87.7148 2.21864 2.0297 0
M  V30 824 C 89.2628 2.26452 2.16076 0
M  V30 825 C 89.7378 3.47343 2.98524 0
M  V30 826 N 91.2288 3.47639 3.06107 0
M  V30 827 C 91.9638 4.37837 3.70251 0
M  V30 828 N 91.4598 5.38286 4.36142 0
M  V30 829 N 93.2528 4.25558 3.67228 0
M  V30 830 H 85.4038 2.07236 0.465499 0
M  V30 831 H 87.6668 0.909236 0.268315 0
M  V30 832 H 87.3728 3.15771 1.54861 0
M  V30 833 H 87.2468 2.23698 3.03709 0
M  V30 834 H 89.6338 1.33078 2.6339 0
M  V30 835 H 89.7148 2.28645 1.14696 0
M  V30 836 H 89.3588 4.41029 2.51905 0
M  V30 837 H 89.2888 3.42393 4.00093 0
M  V30 838 H 91.7798 2.74966 2.59233 0
M  V30 839 H 92.0928 6.03352 4.82894 0
M  V30 840 H 90.4378 5.42176 4.34822 0
M  V30 841 H 93.6288 3.46322 3.14927 0
M  V30 842 H 93.8018 4.96054 4.16935 0
M  V30 843 N 87.2079 -1.17134 1.05439 0
M  V30 844 C 88.1399 -2.2078 0.615539 0
M  V30 845 C 89.1529 -1.59584 -0.322001 0
M  V30 846 O 90.3419 -1.78133 -0.114344 0
M  V30 847 C 87.4419 -3.38691 -0.118938 0
M  V30 848 C 86.6149 -4.29454 0.829924 0
M  V30 849 C 85.6739 -5.26024 0.136258 0
M  V30 850 O 84.6999 -5.63952 0.77115 0
M  V30 851 N 85.9019 -5.69487 -1.1254 0
M  V30 852 H 88.6669 -2.59052 1.50705 0
M  V30 853 H 86.2279 -1.32058 0.936603 0
M  V30 854 H 88.2199 -4.00329 -0.593179 0
M  V30 855 H 86.7899 -2.98996 -0.91215 0
M  V30 856 H 86.0099 -3.65211 1.48373 0
M  V30 857 H 87.2979 -4.86984 1.47392 0
M  V30 858 H 86.6959 -5.4075 -1.6615 0
M  V30 859 H 85.2529 -6.33257 -1.54366 0
M  V30 860 N 88.686 -0.835752 -1.33615 0
M  V30 861 C 89.596 -0.269088 -2.33052 0
M  V30 862 C 90.612 0.603251 -1.63208 0
M  V30 863 O 91.788 0.508112 -1.94885 0
M  V30 864 C 88.853 0.549091 -3.42324 0
M  V30 865 C 87.914 -0.347156 -4.27894 0
M  V30 866 C 87.147 0.43207 -5.31948 0
M  V30 867 O 87.37 1.66409 -5.45586 0
M  V30 868 O 86.304 -0.192298 -6.01593 0
M  V30 869 H 90.13 -1.09243 -2.83372 0
M  V30 870 H 87.715 -0.598198 -1.36901 0
M  V30 871 H 89.597 1.01414 -4.09015 0
M  V30 872 H 88.272 1.34955 -2.94226 0
M  V30 873 H 87.179 -0.859979 -3.64081 0
M  V30 874 H 88.512 -1.1123 -4.79467 0
M  V30 875 N 90.1641 1.46063 -0.591896 0
M  V30 876 C 91.0941 2.33172 0.123673 0
M  V30 877 C 92.0751 1.45897 0.87453 0
M  V30 878 O 93.2601 1.74698 0.848181 0
M  V30 879 C 90.3901 3.28336 1.13194 0
M  V30 880 C 89.3441 4.25124 0.495324 0
M  V30 881 C 88.6701 5.09863 1.61071 0
M  V30 882 C 89.9701 5.19143 -0.573425 0
M  V30 883 H 91.6641 2.93252 -0.603646 0
M  V30 884 H 89.2101 1.41014 -0.291741 0
M  V30 885 H 91.1631 3.88137 1.64097 0
M  V30 886 H 89.8871 2.66383 1.88965 0
M  V30 887 H 88.5461 3.66599 0.00729452 0
M  V30 888 H 88.1941 4.44288 2.35832 0
M  V30 889 H 87.8941 5.75417 1.19035 0
M  V30 890 H 89.4181 5.72529 2.12233 0
M  V30 891 H 90.8321 5.73106 -0.1491 0
M  V30 892 H 89.2291 5.93089 -0.914636 0
M  V30 893 H 90.2991 4.62519 -1.45617 0
M  V30 894 N 91.6422 0.330177 1.54103 0
M  V30 895 C 92.5722 -0.525353 2.27513 0
M  V30 896 C 93.5532 -1.11383 1.2856 0
M  V30 897 O 94.7382 -1.13773 1.57383 0
M  V30 898 C 91.8682 -1.6831 3.03791 0
M  V30 899 C 90.8222 -1.2236 4.10137 0
M  V30 900 C 90.1482 -2.46882 4.74293 0
M  V30 901 C 91.4482 -0.333697 5.21233 0
M  V30 902 H 93.1422 0.087013 2.99274 0
M  V30 903 H 90.6882 0.0432893 1.43935 0
M  V30 904 H 92.6412 -2.28795 3.5388 0
M  V30 905 H 91.3652 -2.32216 2.29659 0
M  V30 906 H 90.0242 -0.64165 3.60941 0
M  V30 907 H 89.6722 -3.09165 3.96769 0
M  V30 908 H 89.3722 -2.16825 5.46133 0
M  V30 909 H 90.8962 -3.08117 5.27159 0
M  V30 910 H 92.3102 -0.845013 5.67038 0
M  V30 911 H 90.7072 -0.125612 5.99969 0
M  V30 912 H 91.7772 0.633724 4.80741 0
M  V30 913 N 93.1203 -1.57491 0.0584922 0
M  V30 914 C 94.0303 -2.15448 -0.928414 0
M  V30 915 C 95.0463 -1.11416 -1.3365 0
M  V30 916 O 96.2223 -1.4362 -1.41193 0
M  V30 917 C 93.2873 -2.69393 -2.18239 0
M  V30 918 C 92.3483 -3.88249 -1.83196 0
M  V30 919 C 91.5813 -4.39613 -3.02616 0
M  V30 920 O 91.8043 -3.90023 -4.16219 0
M  V30 921 O 90.7383 -5.31111 -2.83204 0
M  V30 922 H 94.5643 -3.00112 -0.465483 0
M  V30 923 H 92.1493 -1.48499 -0.163826 0
M  V30 924 H 94.0313 -3.04026 -2.91798 0
M  V30 925 H 92.7063 -1.87796 -2.63656 0
M  V30 926 H 91.6133 -3.58492 -1.06931 0
M  V30 927 H 92.9463 -4.71098 -1.42573 0
M  V30 928 N 94.5984 0.214957 -1.56127 0
M  V30 929 C 95.5614 1.24997 -1.92116 0
M  V30 930 C 96.5614 1.39467 -0.800344 0
M  V30 931 O 97.7514 1.37619 -1.06802 0
M  V30 932 C 94.8834 2.62271 -2.17777 0
M  V30 933 H 96.0764 0.942875 -2.84693 0
M  V30 934 H 93.6294 0.455654 -1.49511 0
M  V30 935 H 94.3644 2.98068 -1.27773 0
M  V30 936 H 94.1494 2.53143 -2.99434 0
M  V30 937 H 95.6394 3.36946 -2.46693 0
M  V30 938 N 96.0765 1.50051 0.48192 0
M  V30 939 C 97.4925 1.37237 0.814756 0
M  V30 940 C 97.6925 0.420109 1.97072 0
M  V30 941 O 96.7485 -0.141246 2.52105 0
M  V30 942 C 98.0615 2.78375 1.13701 0
M  V30 943 C 99.6095 2.87213 1.2441 0
M  V30 944 C 100.084 4.29161 1.59954 0
M  V30 945 N 101.575 4.32061 1.66967 0
M  V30 946 C 102.31 5.38879 1.95952 0
M  V30 947 N 101.806 6.55918 2.23031 0
M  V30 948 N 103.599 5.26312 1.97363 0
M  V30 949 H 95.7505 2.10546 -0.28005 0
M  V30 950 H 98.0135 0.945921 -0.0627454 0
M  V30 951 H 97.7195 3.49845 0.360787 0
M  V30 952 H 97.5935 3.14941 2.07586 0
M  V30 953 H 99.9805 2.15969 2.01101 0
M  V30 954 H 100.061 2.54204 0.285299 0
M  V30 955 H 99.7055 5.00938 0.838067 0
M  V30 956 H 99.6355 4.59648 2.56966 0
M  V30 957 H 102.126 3.47661 1.48123 0
M  V30 958 H 102.439 7.33139 2.44391 0
M  V30 959 H 100.784 6.59112 2.20447 0
M  V30 960 H 103.975 4.33876 1.75697 0
M  V30 961 H 104.148 6.09649 2.19618 0
M  V30 962 N 97.5546 -0.734337 1.39446 0
M  V30 963 C 98.8016 -1.49391 1.36706 0
M  V30 964 C 99.1296 -1.94465 -0.0367813 0
M  V30 965 O 98.3846 -1.67154 -1.01774 0
M  V30 966 C 98.6836 -2.74711 2.28623 0
M  V30 967 C 98.3496 -2.48501 3.76242 0
M  V30 968 C 97.0116 -2.41062 4.16464 0
M  V30 969 C 99.3636 -2.26098 4.69606 0
M  V30 970 C 96.6916 -2.09262 5.48112 0
M  V30 971 C 99.0436 -1.95814 6.01531 0
M  V30 972 C 97.7076 -1.86845 6.40816 0
M  V30 973 H 96.9776 -0.546661 0.500243 0
M  V30 974 H 99.6246 -0.842788 1.71957 0
M  V30 975 H 97.9296 -3.44569 1.86492 0
M  V30 976 H 99.6266 -3.32741 2.23796 0
M  V30 977 H 96.2166 -2.55169 3.44364 0
M  V30 978 H 100.401 -2.30812 4.39363 0
M  V30 979 H 95.6566 -2.00841 5.77471 0
M  V30 980 H 99.8306 -1.77488 6.73403 0
M  V30 981 H 97.4576 -1.6197 7.42745 0
M  V30 982 N 99.0327 -1.24633 -0.964593 0
M  V30 983 C 100.261 -1.11501 -1.74285 0
M  V30 984 C 100.676 0.332165 -1.85855 0
M  V30 985 O 100.033 1.22903 -1.34911 0
M  V30 986 C 100.084 -1.75258 -3.16175 0
M  V30 987 O 99.8047 -3.14318 -3.05182 0
M  V30 988 C 101.306 -1.67776 -4.10324 0
M  V30 989 H 98.5257 -0.389407 -0.546446 0
M  V30 990 H 101.07 -1.64801 -1.21083 0
M  V30 991 H 99.2247 -1.25954 -3.66353 0
M  V30 992 H 99.6387 -3.4551 -3.94618 0
M  V30 993 H 101.113 -2.17064 -5.0753 0
M  V30 994 H 101.59 -0.639584 -4.34518 0
M  V30 995 H 102.196 -2.16522 -3.66058 0
M  V30 996 N 100.511 1.16574 -1.06058 0
M  V30 997 C 101.759 1.86677 -0.77434 0
M  V30 998 C 102.08 1.81959 0.701147 0
M  V30 999 O 101.35 1.2515 1.50713 0
M  V30 1000 H 99.9298 0.691134 -0.283449 0
M  V30 1001 H 102.592 1.41378 -1.34158 0
M  V30 1002 H 101.688 2.92181 -1.09711 0
M  V30 1003 N 101.989 0.842826 1.3317 0
M  V30 1004 C 103.235 0.441099 1.97945 0
M  V30 1005 C 103.568 -0.998024 1.66593 0
M  V30 1006 O 102.843 -1.69839 0.947898 0
M  V30 1007 C 103.126 0.666841 3.53872 0
M  V30 1008 C 102.979 2.15352 3.94897 0
M  V30 1009 C 104.298 0.115544 4.39948 0
M  V30 1010 H 101.417 0.161739 0.719034 0
M  V30 1011 H 104.059 1.05907 1.57746 0
M  V30 1012 H 102.209 0.140828 3.88245 0
M  V30 1013 H 103.881 2.7447 3.70761 0
M  V30 1014 H 102.124 2.63653 3.44484 0
M  V30 1015 H 102.795 2.26221 5.03516 0
M  V30 1016 H 105.271 0.565213 4.12243 0
M  V30 1017 H 104.147 0.303152 5.48062 0
M  V30 1018 H 104.408 -0.980935 4.3108 0
M  V30 1019 N 103.467 -1.45747 0.599634 0
M  V30 1020 C 104.43 -2.28917 -0.113835 0
M  V30 1021 C 105.43 -1.3933 -0.802729 0
M  V30 1022 O 106.62 -1.61534 -0.652103 0
M  V30 1023 C 103.752 -3.20152 -1.17114 0
M  V30 1024 H 104.945 -2.93478 0.617289 0
M  V30 1025 H 102.498 -1.52137 0.358327 0
M  V30 1026 H 103.233 -2.60374 -1.93329 0
M  V30 1027 H 103.018 -3.86133 -0.681468 0
M  V30 1028 H 104.508 -3.82708 -1.67105 0
M  V30 1029 N 104.945 -0.338344 -1.53925 0
M  V30 1030 C 106.17 0.263987 -2.05713 0
M  V30 1031 C 106.595 1.43847 -1.21201 0
M  V30 1032 O 105.953 1.79904 -0.224535 0
M  V30 1033 C 106.001 0.662 -3.54471 0
M  V30 1034 O 105.105 1.76265 -3.72833 0
M  V30 1035 H 104.446 0.0448722 -0.662482 0
M  V30 1036 H 106.976 -0.491048 -1.9862 0
M  V30 1037 H 106.986 0.940594 -3.9701 0
M  V30 1038 H 105.661 -0.196937 -4.15433 0
M  V30 1039 H 104.238 1.48173 -3.42198 0
M  V30 1040 N 106.423 1.57458 -0.0668435 0
M  V30 1041 C 107.671 1.92919 0.602214 0
M  V30 1042 C 107.992 0.947215 1.70449 0
M  V30 1043 O 107.262 -0.00544117 1.95899 0
M  V30 1044 H 105.842 0.71217 0.22544 0
M  V30 1045 H 108.504 1.94508 -0.123535 0
M  V30 1046 H 107.6 2.94589 1.03073 0
M  V30 1047 N 107.901 -0.206675 1.56239 0
M  V30 1048 C 109.126 -0.949474 1.8439 0
M  V30 1049 C 109.551 -1.76549 0.649016 0
M  V30 1050 O 108.909 -1.76782 -0.402231 0
M  V30 1051 C 108.957 -1.83078 3.10668 0
M  V30 1052 O 108.061 -2.9281 2.90407 0
M  V30 1053 H 107.402 -0.268033 0.607499 0
M  V30 1054 H 109.932 -0.215488 2.03462 0
M  V30 1055 H 109.942 -2.2377 3.41161 0
M  V30 1056 H 108.617 -1.23112 3.97261 0
M  V30 1057 H 107.194 -2.55956 2.71184 0
M  V30 1058 N 109.379 -1.50304 -0.473955 0
M  V30 1059 C 110.607 -1.64902 -1.24959 0
M  V30 1060 C 111.022 -0.331198 -1.85872 0
M  V30 1061 O 110.379 0.68652 -1.69095 0
M  V30 1062 C 110.43 -2.73803 -2.36038 0
M  V30 1063 O 110.151 -4.00477 -1.77624 0
M  V30 1064 C 111.652 -2.99349 -3.26964 0
M  V30 1065 H 108.872 -0.554383 -0.378022 0
M  V30 1066 H 111.416 -1.9651 -0.566054 0
M  V30 1067 H 109.571 -2.44898 -3.00173 0
M  V30 1068 H 109.985 -4.60678 -2.5075 0
M  V30 1069 H 111.459 -3.79217 -4.01121 0
M  V30 1070 H 111.936 -2.10307 -3.85574 0
M  V30 1071 H 112.542 -3.29774 -2.68569 0
M  V30 1072 N 110.857 0.726932 -1.39834 0
M  V30 1073 C 112.105 1.4837 -1.37225 0
M  V30 1074 C 112.426 1.94979 0.0284857 0
M  V30 1075 O 111.696 1.69555 0.981213 0
M  V30 1076 H 110.276 0.55043 -0.505011 0
M  V30 1077 H 112.938 0.862468 -1.74778 0
M  V30 1078 H 112.034 2.36198 -2.04003 0
M  V30 1079 N 112.336 1.25143 0.95797 0
M  V30 1080 C 113.561 1.12521 1.74223 0
M  V30 1081 C 113.986 -0.317402 1.85403 0
M  V30 1082 O 113.344 -1.2299 1.33204 0
M  V30 1083 C 113.392 1.78062 3.1357 0
M  V30 1084 O 112.496 1.058 3.98598 0
M  V30 1085 H 111.837 0.39304 0.535178 0
M  V30 1086 H 114.367 1.65641 1.201 0
M  V30 1087 H 114.377 1.84213 3.64046 0
M  V30 1088 H 113.052 2.83021 3.04749 0
M  V30 1089 H 111.629 1.07506 3.57067 0
M  V30 1090 N 113.814 -1.1601 1.06675 0
M  V30 1091 C 115.042 -1.90527 0.806667 0
M  V30 1092 C 115.457 -1.77643 -0.639396 0
M  V30 1093 O 114.814 -1.12369 -1.43803 0
M  V30 1094 C 114.865 -3.41106 1.19705 0
M  V30 1095 O 114.586 -3.53608 2.58636 0
M  V30 1096 C 116.087 -4.32663 0.965266 0
M  V30 1097 H 113.307 -0.604053 0.292166 0
M  V30 1098 H 115.851 -1.47026 1.4214 0
M  V30 1099 H 114.006 -3.82296 0.626774 0
M  V30 1100 H 114.42 -4.47011 2.74375 0
M  V30 1101 H 115.894 -5.36763 1.288 0
M  V30 1102 H 116.371 -4.39089 -0.0987936 0
M  V30 1103 H 116.977 -3.97206 1.52011 0
M  V30 1104 N 115.292 -0.849877 -1.32721 0
M  V30 1105 C 116.54 -0.450032 -1.97026 0
M  V30 1106 C 116.861 0.996604 -1.67609 0
M  V30 1107 O 116.131 1.6958 -0.980786 0
M  V30 1108 H 114.711 -0.163426 -0.728904 0
M  V30 1109 H 117.373 -1.08526 -1.6189 0
M  V30 1110 H 116.469 -0.591146 -3.0645 0
M  V30 1111 N 116.77 1.45427 -0.607355 0
M  V30 1112 C 117.995 2.07124 -0.107006 0
M  V30 1113 C 118.42 1.44906 1.19933 0
M  V30 1114 O 117.778 0.541687 1.73019 0
M  V30 1115 C 117.826 3.60595 0.0194119 0
M  V30 1116 O 116.93 3.98285 1.0697 0
M  V30 1117 H 116.271 0.659868 -0.0739597 0
M  V30 1118 H 118.801 1.86683 -0.837297 0
M  V30 1119 H 118.811 4.07419 0.2177 0
M  V30 1120 H 117.486 4.05266 -0.934453 0
M  V30 1121 H 116.063 3.63133 0.847889 0
M  V30 1122 N 118.248 0.346503 1.53744 0
M  V30 1123 C 119.488 -0.249413 2.02873 0
M  V30 1124 C 119.852 -1.47532 1.22876 0
M  V30 1125 O 121.053 -2.1456 1.61918 0
M  V30 1126 C 119.324 -0.552909 3.53097 0
M  V30 1127 S 120.883 -1.12521 4.24128 0
M  V30 1128 H 117.701 -0.074042 0.707134 0
M  V30 1129 H 120.303 0.48495 1.8939 0
M  V30 1130 H 119.007 0.347083 4.0893 0
M  V30 1131 H 118.538 -1.31686 3.70705 0
M  V30 1132 H 120.553 -2.41075 4.33702 0
M  V30 1133 N 119.726 -1.57421 0.075193 0
M  V30 1134 C 120.951 -1.98364 -0.605515 0
M  V30 1135 C 121.376 -0.953383 -1.62149 0
M  V30 1136 O 120.734 0.0806053 -1.81121 0
M  V30 1137 C 120.782 -3.38332 -1.24756 0
M  V30 1138 O 119.886 -3.37959 -2.36342 0
M  V30 1139 H 119.227 -0.645553 -0.155428 0
M  V30 1140 H 121.757 -2.04044 0.150714 0
M  V30 1141 H 121.767 -3.75591 -1.5936 0
M  V30 1142 H 120.442 -4.12846 -0.503129 0
M  V30 1143 H 119.019 -3.12474 -2.03506 0
M  V30 1144 N 121.204 0.198386 -1.56346 0
M  V30 1145 C 122.45 0.920648 -1.80698 0
M  V30 1146 C 122.783 1.83045 -0.648697 0
M  V30 1147 O 122.058 1.91308 0.350925 0
M  V30 1148 C 122.341 1.73971 -3.15287 0
M  V30 1149 C 122.194 0.85485 -4.41602 0
M  V30 1150 C 123.513 2.71296 -3.46535 0
M  V30 1151 H 120.632 0.333261 -0.657348 0
M  V30 1152 H 123.274 0.188198 -1.89066 0
M  V30 1153 H 121.424 2.36416 -3.08285 0
M  V30 1154 H 123.096 0.245362 -4.60647 0
M  V30 1155 H 121.339 0.161398 -4.335 0
M  V30 1156 H 122.01 1.46286 -5.32264 0
M  V30 1157 H 124.486 2.18983 -3.53816 0
M  V30 1158 H 123.362 3.2569 -4.41834 0
M  V30 1159 H 123.623 3.5018 -2.69864 0
M  V30 1160 N 122.682 1.50554 0.465978 0
M  V30 1161 C 123.93 1.61479 1.21528 0
M  V30 1162 C 124.251 0.319596 1.92363 0
M  V30 1163 O 123.521 -0.663194 1.84333 0
M  V30 1164 H 122.101 0.595055 0.451573 0
M  V30 1165 H 124.763 1.87355 0.53704 0
M  V30 1166 H 123.859 2.42846 1.96042 0
M  V30 1167 N 124.16 -0.719506 1.40217 0
M  V30 1168 C 125.123 -1.8153 1.39927 0
M  V30 1169 C 126.123 -1.58095 0.293723 0
M  V30 1170 O 127.313 -1.65209 0.552429 0
M  V30 1171 C 124.445 -3.19561 1.18716 0
M  V30 1172 H 125.638 -1.83186 2.37451 0
M  V30 1173 H 123.191 -0.924746 1.26008 0
M  V30 1174 H 123.926 -3.23557 0.219366 0
M  V30 1175 H 123.711 -3.3797 1.98793 0
M  V30 1176 H 125.201 -3.99598 1.21291 0
M  V30 1177 N 125.638 -1.25649 -0.95132 0
M  V30 1178 C 126.585 -1.06323 -2.04851 0
M  V30 1179 C 127.555 0.0286491 -1.66075 0
M  V30 1180 O 128.74 -0.12917 -1.90362 0
M  V30 1181 C 125.88 -0.691529 -3.381 0
M  V30 1182 C 124.993 -1.85861 -3.89974 0
M  V30 1183 C 124.128 -1.43096 -5.11563 0
M  V30 1184 C 123.167 -2.56696 -5.55674 0
M  V30 1185 N 122.304 -2.14684 -6.68472 0
M  V30 1186 H 127.144 -2.00222 -2.20715 0
M  V30 1187 H 124.681 -0.997027 -1.08156 0
M  V30 1188 H 126.639 -0.456963 -4.1469 0
M  V30 1189 H 125.269 0.210474 -3.22113 0
M  V30 1190 H 124.321 -2.20639 -3.09875 0
M  V30 1191 H 125.633 -2.71161 -4.18657 0
M  V30 1192 H 124.787 -1.15624 -5.9558 0
M  V30 1193 H 123.526 -0.548722 -4.84603 0
M  V30 1194 H 122.531 -2.84909 -4.7022 0
M  V30 1195 H 123.756 -3.45503 -5.8464 0
M  V30 1196 H 121.702 -1.28881 -6.43215 0
M  V30 1197 H 121.619 -2.9353 -6.96689 0
M  V30 1198 H 122.887 -1.90397 -7.5589 0
M  V30 1199 N 127.117 1.15442 -1.07289 0
M  V30 1200 C 128.08 2.18358 -0.696591 0
M  V30 1201 C 129.08 1.58637 0.262837 0
M  V30 1202 O 130.27 1.74145 0.0438809 0
M  V30 1203 C 127.402 3.4089 -0.0266151 0
M  V30 1204 H 128.595 2.53162 -1.60776 0
M  V30 1205 H 126.148 1.29893 -0.869342 0
M  V30 1206 H 126.883 3.11653 0.896822 0
M  V30 1207 H 126.668 3.85495 -0.716657 0
M  V30 1208 H 128.158 4.17009 0.222028 0
M  V30 1209 N 128.595 0.856903 1.32268 0
M  V30 1210 C 129.82 0.474569 2.01897 0
M  V30 1211 C 130.245 -0.921766 1.63967 0
M  V30 1212 O 129.603 -1.60589 0.84148 0
M  V30 1213 C 129.651 0.623799 3.55164 0
M  V30 1214 O 128.755 -0.342459 4.10976 0
M  V30 1215 H 128.096 0.190422 0.63611 0
M  V30 1216 H 130.626 1.15672 1.68764 0
M  V30 1217 H 130.636 0.512169 4.04773 0
M  V30 1218 H 129.311 1.64202 3.82113 0
M  V30 1219 H 127.888 -0.18688 3.72431 0
M  V30 1220 N 130.073 -1.45103 0.615059 0
M  V30 1221 C 131.301 -2.06553 0.11977 0
M  V30 1222 C 131.716 -1.45842 -1.19898 0
M  V30 1223 O 131.073 -0.575325 -1.73194 0
M  V30 1224 C 131.124 -3.61495 -0.018364 0
M  V30 1225 O 130.845 -4.19942 1.24822 0
M  V30 1226 C 132.346 -4.39947 -0.544237 0
M  V30 1227 H 129.566 -0.667096 0.0722739 0
M  V30 1228 H 132.11 -1.8623 0.84491 0
M  V30 1229 H 130.265 -3.81135 -0.693865 0
M  V30 1230 H 130.679 -5.13204 1.0827 0
M  V30 1231 H 132.153 -5.48838 -0.589953 0
M  V30 1232 H 132.63 -4.10255 -1.56805 0
M  V30 1233 H 133.236 -4.25188 0.0974703 0
M  V30 1234 N 131.551 -0.354651 -1.53558 0
M  V30 1235 C 132.499 0.512195 -2.26891 0
M  V30 1236 C 133.493 1.09263 -1.29452 0
M  V30 1237 O 134.699 1.03709 -1.47121 0
M  V30 1238 H 131.074 0.183878 -0.729173 0
M  V30 1239 H 133.045 -0.128202 -2.98124 0
M  V30 1240 C 131.794 1.64563 -3.06291 0
M  V30 1241 H 131.117 1.20829 -3.81104 0
M  V30 1242 H 132.557 2.22711 -3.60799 0
M  V30 1243 C 131.016 2.58158 -2.16462 0
M  V30 1244 O 131.546 3.60695 -1.76811 0
M  V30 1245 N 129.752 2.27096 -1.81317 0
M  V30 1246 H 129.299 1.43751 -2.1376 0
M  V30 1247 H 129.257 2.89975 -1.21498 0
M  V30 1248 N 133.029 1.57378 -0.0835403 0
M  V30 1249 C 133.977 2.14602 0.89714 0
M  V30 1250 C 134.971 1.08589 1.30018 0
M  V30 1251 O 136.177 1.26952 1.27606 0
M  V30 1252 H 132.552 0.686346 0.3073 0
M  V30 1253 H 134.523 2.95845 0.38969 0
M  V30 1254 C 133.272 2.73188 2.15089 0
M  V30 1255 H 132.595 3.54442 1.84962 0
M  V30 1256 H 134.035 3.1681 2.81793 0
M  V30 1257 C 132.494 1.68517 2.91725 0
M  V30 1258 O 133.024 1.11718 3.85852 0
M  V30 1259 N 131.23 1.39277 2.55049 0
M  V30 1260 H 130.777 1.85655 1.78577 0
M  V30 1261 H 130.735 0.694791 3.06627 0
M  V30 1262 N 134.507 -0.190092 1.56449 0
M  V30 1263 C 135.417 -1.25591 1.98152 0
M  V30 1264 C 136.433 -1.49519 0.889944 0
M  V30 1265 O 137.609 -1.62036 1.19609 0
M  V30 1266 C 134.674 -2.57916 2.3169 0
M  V30 1267 C 133.735 -2.42015 3.5458 0
M  V30 1268 C 132.968 -3.6803 3.8651 0
M  V30 1269 O 133.191 -4.72413 3.1966 0
M  V30 1270 O 132.125 -3.6326 4.79923 0
M  V30 1271 H 135.951 -0.931988 2.89046 0
M  V30 1272 H 133.536 -0.395488 1.4407 0
M  V30 1273 H 135.418 -3.36008 2.54316 0
M  V30 1274 H 134.093 -2.89925 1.43963 0
M  V30 1275 H 133 -1.62017 3.37196 0
M  V30 1276 H 134.333 -2.14937 4.4279 0
M  V30 1277 N 135.985 -1.50799 -0.457987 0
M  V30 1278 C 137.21 -1.66496 -1.23668 0
M  V30 1279 C 137.635 -0.353288 -1.84752 0
M  V30 1280 O 136.993 0.684346 -1.67888 0
M  V30 1281 C 137.041 -2.76763 -2.3116 0
M  V30 1282 O 136.145 -2.38928 -3.36136 0
M  V30 1283 H 135.486 -0.555828 -0.363252 0
M  V30 1284 H 138.016 -1.9725 -0.543474 0
M  V30 1285 H 138.026 -3.00232 -2.76269 0
M  V30 1286 H 136.701 -3.71954 -1.86073 0
M  V30 1287 H 135.278 -2.25953 -2.96647 0
M  V30 1288 N 137.463 0.71206 -1.40597 0
M  V30 1289 C 138.688 1.50617 -1.42581 0
M  V30 1290 C 139.113 1.88079 -0.0282102 0
M  V30 1291 O 138.471 1.53511 0.964579 0
M  V30 1292 C 138.519 2.7557 -2.3258 0
M  V30 1293 O 137.623 3.72414 -1.77148 0
M  V30 1294 H 136.964 0.453966 -0.484573 0
M  V30 1295 H 139.494 0.876649 -1.84868 0
M  V30 1296 H 139.504 3.2406 -2.47889 0
M  V30 1297 H 138.179 2.47639 -3.34138 0
M  V30 1298 H 136.756 3.31276 -1.71204 0
M  V30 1299 N 138.941 1.26152 0.944643 0
M  V30 1300 C 139.889 1.07215 2.06417 0
M  V30 1301 C 140.883 9.2007e-05 1.694 0
M  V30 1302 O 142.089 0.1565 1.79318 0
M  V30 1303 H 138.464 0.329837 0.675805 0
M  V30 1304 H 140.435 2.02099 2.19541 0
M  V30 1305 C 139.184 0.718197 3.40202 0
M  V30 1306 H 138.507 1.53497 3.69159 0
M  V30 1307 H 139.947 0.625459 4.19361 0
M  V30 1308 C 138.406 -0.576435 3.31932 0
M  V30 1309 O 138.936 -1.61574 3.67773 0
M  V30 1310 N 137.142 -0.565781 2.85039 0
M  V30 1311 H 136.689 0.280367 2.5607 0
M  V30 1312 H 136.647 -1.43213 2.79888 0
M  V30 1313 N 140.419 -1.14872 1.07899 0
M  V30 1314 C 141.369 -2.17809 0.674027 0
M  V30 1315 C 142.353 -1.58008 -0.303699 0
M  V30 1316 O 143.545 -1.76616 -0.11654 0
M  V30 1317 C 140.674 -3.43208 0.0793318 0
M  V30 1318 C 139.76 -4.10051 1.08253 0
M  V30 1319 N 140.151 -4.52296 2.2641 0
M  V30 1320 C 138.449 -4.36469 0.917124 0
M  V30 1321 C 139.15 -5.04199 2.901 0
M  V30 1322 N 138.126 -4.98088 2.17736 0
M  V30 1323 H 141.928 -2.48207 1.57386 0
M  V30 1324 H 139.442 -1.315 0.952976 0
M  V30 1325 H 141.439 -4.16272 -0.228719 0
M  V30 1326 H 140.099 -3.14291 -0.815551 0
M  V30 1327 H 141.11 -4.45504 2.64096 0
M  V30 1328 H 137.787 -4.17432 0.0756078 0
M  V30 1329 H 139.177 -5.46802 3.90458 0
M  V30 1330 N 141.898 -0.863906 -1.31812 0
M  V30 1331 C 143.123 -0.48527 -2.01643 0
M  V30 1332 C 143.548 0.913058 -1.64453 0
M  V30 1333 O 142.906 1.6014 -0.849985 0
M  V30 1334 C 142.954 -0.642625 -3.54828 0
M  V30 1335 O 142.058 0.320659 -4.11151 0
M  V30 1336 H 141.399 -0.193793 -0.635091 0
M  V30 1337 H 143.929 -1.16565 -1.68148 0
M  V30 1338 H 143.939 -0.533628 -4.04495 0
M  V30 1339 H 142.614 -1.66227 -3.81237 0
M  V30 1340 H 141.191 0.167126 -3.72525 0
M  V30 1341 N 143.376 1.44774 -0.622745 0
M  V30 1342 C 144.623 2.02121 -0.1239 0
M  V30 1343 C 144.951 1.48915 1.25118 0
M  V30 1344 O 144.206 0.660045 1.84233 0
M  V30 1345 C 144.505 3.57364 -0.0508323 0
M  V30 1346 C 144.171 4.29787 -1.36358 0
M  V30 1347 C 142.833 4.4929 -1.72314 0
M  V30 1348 C 145.185 4.71062 -2.23048 0
M  V30 1349 C 142.513 5.07325 -2.94682 0
M  V30 1350 C 144.865 5.30452 -3.44679 0
M  V30 1351 C 143.529 5.48175 -3.80868 0
M  V30 1352 H 142.799 0.739612 -0.0453381 0
M  V30 1353 H 145.446 1.73648 -0.807389 0
M  V30 1354 H 143.751 3.85202 0.715991 0
M  V30 1355 H 145.448 3.99456 0.351533 0
M  V30 1356 H 142.038 4.14932 -1.07375 0
M  V30 1357 H 146.222 4.55715 -1.96565 0
M  V30 1358 H 141.478 5.19235 -3.22809 0
M  V30 1359 H 145.652 5.61385 -4.12092 0
M  V30 1360 H 143.279 5.92912 -4.75773 0
M  V30 1361 N 144.854 0.36279 1.53368 0
M  V30 1362 C 146.102 -0.227326 2.00817 0
M  V30 1363 C 146.423 -1.49511 1.25186 0
M  V30 1364 O 145.693 -1.92482 0.364348 0
M  V30 1365 H 144.273 -0.0869923 0.741917 0
M  V30 1366 H 146.935 0.488381 1.88682 0
M  V30 1367 H 146.031 -0.456273 3.08747 0
M  V30 1368 N 146.332 -1.57332 0.0918853 0
M  V30 1369 C 147.557 -1.98995 -0.584442 0
M  V30 1370 C 147.982 -0.970528 -1.61128 0
M  V30 1371 O 147.34 0.0613904 -1.81196 0
M  V30 1372 C 147.388 -3.39636 -1.21161 0
M  V30 1373 O 146.492 -3.40447 -2.32744 0
M  V30 1374 H 145.833 -0.647165 -0.148572 0
M  V30 1375 H 148.363 -2.03873 0.172347 0
M  V30 1376 H 148.373 -3.7726 -1.55367 0
M  V30 1377 H 147.048 -4.13356 -0.459313 0
M  V30 1378 H 145.625 -3.14614 -2.0018 0
M  V30 1379 N 147.81 0.181792 -1.56548 0
M  V30 1380 C 148.74 1.22765 -1.98623 0
M  V30 1381 C 149.721 1.46747 -0.860189 0
M  V30 1382 O 150.906 1.58259 -1.12551 0
M  V30 1383 C 148.036 2.56894 -2.33715 0
M  V30 1384 C 146.99 2.475 -3.49182 0
M  V30 1385 C 146.316 3.86023 -3.69986 0
M  V30 1386 C 147.616 1.98866 -4.82959 0
M  V30 1387 H 149.31 0.877942 -2.86239 0
M  V30 1388 H 146.856 0.42088 -1.37712 0
M  V30 1389 H 148.809 3.30253 -2.61746 0
M  V30 1390 H 147.533 2.93632 -1.42997 0
M  V30 1391 H 146.192 1.76596 -3.21262 0
M  V30 1392 H 145.84 4.20136 -2.76576 0
M  V30 1393 H 145.54 3.80609 -4.47672 0
M  V30 1394 H 147.064 4.60984 -4.00407 0
M  V30 1395 H 148.478 2.61992 -5.09934 0
M  V30 1396 H 146.875 2.04424 -5.64208 0
M  V30 1397 H 147.945 0.942465 -4.75653 0
M  V30 1398 N 149.288 1.51039 0.449983 0
M  V30 1399 C 150.536 1.62759 1.19808 0
M  V30 1400 C 150.857 0.339981 1.92013 0
M  V30 1401 O 150.127 -0.643606 1.85026 0
M  V30 1402 H 148.707 0.599811 0.445237 0
M  V30 1403 H 151.369 1.87914 0.517138 0
M  V30 1404 H 150.465 2.44911 1.93455 0
M  V30 1405 N 150.766 -0.704594 1.40972 0
M  V30 1406 C 151.991 -1.49858 1.43378 0
M  V30 1407 C 152.416 -1.88061 0.038184 0
M  V30 1408 O 151.774 -1.5402 -0.956425 0
M  V30 1409 C 151.822 -2.74333 2.34038 0
M  V30 1410 O 150.926 -3.7147 1.7912 0
M  V30 1411 H 150.267 -0.45139 0.486974 0
M  V30 1412 H 152.797 -0.866832 1.8533 0
M  V30 1413 H 152.807 -3.22741 2.49604 0
M  V30 1414 H 151.482 -2.45863 3.35446 0
M  V30 1415 H 150.059 -3.30363 1.72958 0
M  V30 1416 N 152.244 -1.26651 -0.937939 0
M  V30 1417 C 153.174 -1.10993 -2.05433 0
M  V30 1418 C 154.155 -0.0142161 -1.70094 0
M  V30 1419 O 155.34 -0.186837 -1.93299 0
M  V30 1420 C 152.47 -0.745561 -3.39203 0
M  V30 1421 C 151.424 -1.79337 -3.88616 0
M  V30 1422 C 150.75 -1.28324 -5.19073 0
M  V30 1423 C 152.05 -3.19553 -4.13138 0
M  V30 1424 H 153.744 -2.0438 -2.1879 0
M  V30 1425 H 151.29 -0.984041 -1.05131 0
M  V30 1426 H 153.243 -0.622888 -4.16771 0
M  V30 1427 H 151.967 0.22401 -3.25831 0
M  V30 1428 H 150.626 -1.90477 -3.13231 0
M  V30 1429 H 150.274 -0.303414 -5.02084 0
M  V30 1430 H 149.974 -1.98369 -5.53103 0
M  V30 1431 H 151.498 -1.1733 -5.99221 0
M  V30 1432 H 152.912 -3.11471 -4.81309 0
M  V30 1433 H 151.309 -3.87218 -4.58457 0
M  V30 1434 H 152.379 -3.65368 -3.18801 0
M  V30 1435 N 153.722 1.14298 -1.08507 0
M  V30 1436 C 154.947 1.8976 -0.837001 0
M  V30 1437 C 155.372 1.78097 0.605228 0
M  V30 1438 O 154.73 1.12188 1.4242 0
M  V30 1439 C 154.778 3.37685 -1.26495 0
M  V30 1440 O 153.882 4.10281 -0.417514 0
M  V30 1441 H 153.223 0.590365 -0.303917 0
M  V30 1442 H 155.753 1.44672 -1.44676 0
M  V30 1443 H 155.763 3.88501 -1.24625 0
M  V30 1444 H 154.438 3.45492 -2.31534 0
M  V30 1445 H 153.015 3.69536 -0.499722 0
M  V30 1446 N 155.201 0.870884 1.31352 0
M  V30 1447 C 156.478 0.402907 1.91405 0
M  V30 1448 C 156.858 -1.11512 1.79244 0
M  V30 1449 O 156.206 -1.94411 1.2007 0
M  V30 1450 C 156.416 0.885301 3.37585 0
M  V30 1451 C 157.764 0.911971 4.14691 0
M  V30 1452 O 158.788 0.831016 3.46371 0
M  V30 1453 O 157.647 1.02927 5.3672 0
M  V30 1454 H 154.741 0.120698 0.818145 0
M  V30 1455 H 157.287 0.958857 1.40014 0
M  V30 1456 H 156.059 1.92889 3.40455 0
M  V30 1457 H 155.682 0.307714 3.96407 0
M  V30 1458 N 156.679 -1.44442 0.630414 0
M  V30 1459 C 157.626 -2.30678 -0.0749355 0
M  V30 1460 C 158.596 -1.4344 -0.837502 0
M  V30 1461 O 159.781 -1.72343 -0.818684 0
M  V30 1462 C 156.921 -3.28706 -1.05103 0
M  V30 1463 C 156.034 -4.31046 -0.286954 0
M  V30 1464 C 155.169 -5.16167 -1.2548 0
M  V30 1465 C 154.208 -6.10216 -0.479843 0
M  V30 1466 N 153.345 -6.88039 -1.39811 0
M  V30 1467 H 158.185 -2.90454 0.666386 0
M  V30 1468 H 155.722 -1.43107 0.340404 0
M  V30 1469 H 157.68 -3.84027 -1.63031 0
M  V30 1470 H 156.31 -2.70632 -1.75949 0
M  V30 1471 H 155.362 -3.78203 0.408243 0
M  V30 1472 H 156.674 -4.97794 0.316657 0
M  V30 1473 H 155.828 -5.76002 -1.90544 0
M  V30 1474 H 154.567 -4.49491 -1.89233 0
M  V30 1475 H 153.572 -5.49491 0.184295 0
M  V30 1476 H 154.797 -6.78928 0.152965 0
M  V30 1477 H 152.743 -6.24032 -2.02287 0
M  V30 1478 H 152.66 -7.51223 -0.848508 0
M  V30 1479 H 153.928 -7.52397 -2.03762 0
M  V30 1480 N 158.157 -0.370918 -1.53173 0
M  V30 1481 C 159.067 0.480823 -2.2962 0
M  V30 1482 C 160.083 1.08789 -1.35798 0
M  V30 1483 O 161.259 1.09768 -1.68858 0
M  V30 1484 C 158.324 1.60227 -3.07454 0
M  V30 1485 C 157.385 1.0222 -4.16953 0
M  V30 1486 C 156.618 2.0902 -4.91066 0
M  V30 1487 O 156.841 3.30222 -4.65091 0
M  V30 1488 O 155.775 1.71778 -5.76867 0
M  V30 1489 H 159.601 -0.141421 -3.03371 0
M  V30 1490 H 157.186 -0.135146 -1.48787 0
M  V30 1491 H 159.068 2.25417 -3.56041 0
M  V30 1492 H 157.743 2.20982 -2.36535 0
M  V30 1493 H 156.65 0.334064 -3.72605 0
M  V30 1494 H 157.983 0.459131 -4.90054 0
M  V30 1495 N 159.635 1.57281 -0.100228 0
M  V30 1496 C 160.86 1.99302 0.573881 0
M  V30 1497 C 161.285 0.979059 1.60611 0
M  V30 1498 O 160.643 -0.0517803 1.81226 0
M  V30 1499 C 160.691 3.40274 1.19358 0
M  V30 1500 O 159.795 3.41676 2.30935 0
M  V30 1501 H 159.136 0.647944 0.145138 0
M  V30 1502 H 161.666 2.03779 -0.183156 0
M  V30 1503 H 161.676 3.78078 1.53365 0
M  V30 1504 H 160.351 4.13594 0.437385 0
M  V30 1505 H 158.928 3.15672 1.98509 0
M  V30 1506 N 161.113 -0.173488 1.56642 0
M  V30 1507 C 162.023 -1.23482 1.99473 0
M  V30 1508 C 163.039 -1.48567 0.905752 0
M  V30 1509 O 164.215 -1.60758 1.21321 0
M  V30 1510 C 161.28 -2.55444 2.34413 0
M  V30 1511 C 160.341 -2.38241 3.57127 0
M  V30 1512 C 159.574 -3.63909 3.90392 0
M  V30 1513 O 159.797 -4.68996 3.24653 0
M  V30 1514 O 158.731 -3.58149 4.83749 0
M  V30 1515 H 162.557 -0.901279 2.90018 0
M  V30 1516 H 160.142 -0.380185 1.44482 0
M  V30 1517 H 162.024 -3.33292 2.57865 0
M  V30 1518 H 160.699 -2.88382 1.4703 0
M  V30 1519 H 159.606 -1.58431 3.38896 0
M  V30 1520 H 160.939 -2.10228 4.45045 0
M  V30 1521 N 162.591 -1.51276 -0.441967 0
M  V30 1522 C 163.819 -1.67516 -1.21434 0
M  V30 1523 C 164.234 -0.37055 -1.85128 0
M  V30 1524 O 163.591 0.650498 -1.70513 0
M  V30 1525 C 163.642 -2.78748 -2.30177 0
M  V30 1526 O 163.363 -4.04154 -1.69089 0
M  V30 1527 C 164.864 -3.06217 -3.20541 0
M  V30 1528 H 162.084 -0.562276 -0.366178 0
M  V30 1529 H 164.628 -1.97666 -0.524244 0
M  V30 1530 H 162.783 -2.5121 -2.94911 0
M  V30 1531 H 163.197 -4.65894 -2.40922 0
M  V30 1532 H 164.671 -3.8764 -3.92987 0
M  V30 1533 H 165.148 -2.18439 -3.81026 0
M  V30 1534 H 165.754 -3.35397 -2.61513 0
M  V30 1535 N 164.069 0.697108 -1.41344 0
M  V30 1536 C 165.48 1.27697 -1.36199 0
M  V30 1537 C 165.831 1.9615 -0.0443463 0
M  V30 1538 O 164.956 1.98689 0.857419 0
M  V30 1539 C 165.551 2.32223 -2.46694 0
M  V30 1540 C 164.11 2.8579 -2.44952 0
M  V30 1541 C 163.257 1.59807 -2.26621 0
M  V30 1542 H 166.208 0.491968 -1.50882 0
M  V30 1543 H 166.229 3.1348 -2.15664 0
M  V30 1544 H 165.741 1.82373 -3.42581 0
M  V30 1545 H 163.842 3.3982 -1.52817 0
M  V30 1546 H 163.955 3.36325 -3.41207 0
M  V30 1547 H 162.319 1.8556 -1.7447 0
M  V30 1548 H 163.102 1.11956 -3.24532 0
M  V30 1549 N 165.547 1.27147 0.931209 0
M  V30 1550 C 166.457 1.11372 2.06478 0
M  V30 1551 C 167.473 0.044645 1.73943 0
M  V30 1552 O 168.649 0.250417 1.99837 0
M  V30 1553 C 165.714 0.758838 3.38294 0
M  V30 1554 C 164.775 1.90841 3.84549 0
M  V30 1555 C 164.008 1.57036 5.10074 0
M  V30 1556 O 164.231 0.476645 5.68405 0
M  V30 1557 O 163.165 2.40839 5.51616 0
M  V30 1558 H 166.991 2.06493 2.22698 0
M  V30 1559 H 164.576 1.06301 1.04978 0
M  V30 1560 H 166.458 0.574098 4.17471 0
M  V30 1561 H 165.133 -0.162879 3.2329 0
M  V30 1562 H 164.04 2.14819 3.06274 0
M  V30 1563 H 165.373 2.81021 4.04089 0
M  V30 1564 N 167.025 -1.13721 1.09112 0
M  V30 1565 C 167.972 -2.19031 0.727591 0
M  V30 1566 C 168.942 -1.63555 -0.289656 0
M  V30 1567 O 170.127 -1.90023 -0.172026 0
M  V30 1568 C 167.267 -3.4477 0.15082 0
M  V30 1569 C 166.38 -4.14365 1.22172 0
M  V30 1570 C 165.515 -5.27709 0.608042 0
M  V30 1571 C 164.554 -5.89147 1.66047 0
M  V30 1572 N 163.691 -6.93929 1.06806 0
M  V30 1573 H 168.531 -2.49475 1.62991 0
M  V30 1574 H 166.068 -1.22499 0.81439 0
M  V30 1575 H 168.026 -4.16714 -0.201358 0
M  V30 1576 H 166.656 -3.14787 -0.714783 0
M  V30 1577 H 165.708 -3.40737 1.69122 0
M  V30 1578 H 167.02 -4.56114 2.01895 0
M  V30 1579 H 166.174 -6.06355 0.204523 0
M  V30 1580 H 164.913 -4.872 -0.220769 0
M  V30 1581 H 163.918 -5.09198 2.07357 0
M  V30 1582 H 165.143 -6.31729 2.49189 0
M  V30 1583 H 163.089 -6.55483 0.260476 0
M  V30 1584 H 163.006 -7.34202 1.8023 0
M  V30 1585 H 164.274 -7.76434 0.690644 0
M  V30 1586 N 168.503 -0.877838 -1.30888 0
M  V30 1587 C 169.45 -0.337538 -2.28318 0
M  V30 1588 C 170.42 0.568346 -1.56074 0
M  V30 1589 O 171.605 0.498298 -1.84178 0
M  V30 1590 C 168.745 0.448142 -3.42178 0
M  V30 1591 C 167.858 -0.48615 -4.29256 0
M  V30 1592 C 166.993 0.314427 -5.30269 0
M  V30 1593 C 166.032 -0.615791 -6.08995 0
M  V30 1594 N 165.169 0.14902 -7.01942 0
M  V30 1595 H 170.009 -1.17356 -2.73919 0
M  V30 1596 H 167.546 -0.590094 -1.34745 0
M  V30 1597 H 169.504 0.919517 -4.06941 0
M  V30 1598 H 168.134 1.24879 -2.97666 0
M  V30 1599 H 167.186 -1.076 -3.64865 0
M  V30 1600 H 168.498 -1.19909 -4.84173 0
M  V30 1601 H 167.652 0.847969 -6.00745 0
M  V30 1602 H 166.391 1.06062 -4.76027 0
M  V30 1603 H 165.396 -1.16102 -5.37401 0
M  V30 1604 H 166.621 -1.36097 -6.65323 0
M  V30 1605 H 164.567 0.877884 -6.50099 0
M  V30 1606 H 164.484 -0.504433 -7.54315 0
M  V30 1607 H 165.752 0.663537 -7.76671 0
M  V30 1608 N 169.982 1.44106 -0.638065 0
M  V30 1609 C 170.914 2.28976 0.101205 0
M  V30 1610 C 171.927 1.4167 0.802088 0
M  V30 1611 O 173.116 1.65755 0.662375 0
M  V30 1612 C 170.216 3.18217 1.16581 0
M  V30 1613 C 169.389 4.33978 0.546066 0
M  V30 1614 C 168.448 5.04202 1.50554 0
M  V30 1615 O 167.474 5.59986 1.01999 0
M  V30 1616 N 168.676 5.06296 2.8398 0
M  V30 1617 H 171.441 2.93064 -0.627186 0
M  V30 1618 H 169.002 1.54629 -0.479731 0
M  V30 1619 H 170.994 3.62061 1.80815 0
M  V30 1620 H 169.564 2.55833 1.79634 0
M  V30 1621 H 168.784 3.93239 -0.275046 0
M  V30 1622 H 170.072 5.08675 0.112793 0
M  V30 1623 H 169.47 4.62319 3.26002 0
M  V30 1624 H 168.027 5.53907 3.43556 0
M  V30 1625 N 171.46 0.379036 1.52974 0
M  V30 1626 C 172.685 -0.209353 2.06341 0
M  V30 1627 C 173.11 -1.40583 1.24972 0
M  V30 1628 O 172.468 -1.79246 0.272155 0
M  V30 1629 C 172.516 -0.567786 3.56102 0
M  V30 1630 O 171.62 -1.66318 3.77375 0
M  V30 1631 H 170.961 -0.0272919 0.663439 0
M  V30 1632 H 173.491 0.543536 1.97248 0
M  V30 1633 H 173.501 -0.835003 3.99364 0
M  V30 1634 H 172.176 0.307013 4.14765 0
M  V30 1635 H 170.753 -1.39048 3.46006 0
M  V30 1636 N 172.938 -1.57226 0.108567 0
M  V30 1637 C 173.848 -2.18292 -0.859401 0
M  V30 1638 C 174.864 -1.15612 -1.30038 0
M  V30 1639 O 176.04 -1.48039 -1.36552 0
M  V30 1640 C 173.105 -2.762 -2.09558 0
M  V30 1641 C 172.166 -3.93881 -1.70752 0
M  V30 1642 C 171.399 -4.49018 -2.88477 0
M  V30 1643 O 171.622 -4.03068 -4.036 0
M  V30 1644 O 170.556 -5.39852 -2.66164 0
M  V30 1645 H 174.382 -3.01441 -0.369769 0
M  V30 1646 H 171.967 -1.48945 -0.1165 0
M  V30 1647 H 173.849 -3.13156 -2.81978 0
M  V30 1648 H 172.524 -1.96089 -2.57548 0
M  V30 1649 H 171.431 -3.61713 -0.954714 0
M  V30 1650 H 172.764 -4.75396 -1.27513 0
M  V30 1651 N 174.416 0.165178 -1.56732 0
M  V30 1652 C 175.641 0.900253 -1.86843 0
M  V30 1653 C 176.066 1.74766 -0.695596 0
M  V30 1654 O 175.424 1.77786 0.35522 0
M  V30 1655 C 175.472 1.74777 -3.15413 0
M  V30 1656 O 174.576 2.85007 -2.98068 0
M  V30 1657 H 173.917 0.251832 -0.614391 0
M  V30 1658 H 176.447 0.161468 -2.03962 0
M  V30 1659 H 176.457 2.14646 -3.46974 0
M  V30 1660 H 175.132 1.12537 -4.00385 0
M  V30 1661 H 173.709 2.48676 -2.77875 0
M  V30 1662 N 175.894 1.51508 0.433938 0
M  V30 1663 C 177.119 1.68443 1.21003 0
M  V30 1664 C 177.544 0.382636 1.84167 0
M  V30 1665 O 176.902 -0.65755 1.68956 0
M  V30 1666 C 176.95 2.80405 2.26727 0
M  V30 1667 O 176.054 2.44245 3.32292 0
M  V30 1668 H 175.395 0.561536 0.354363 0
M  V30 1669 H 177.925 1.9809 0.512024 0
M  V30 1670 H 177.935 3.0459 2.71457 0
M  V30 1671 H 176.61 3.74867 1.80132 0
M  V30 1672 H 175.187 2.30644 2.93015 0
M  V30 1673 N 177.372 -0.689602 1.41712 0
M  V30 1674 C 178.788 -1.00093 1.24312 0
M  V30 1675 C 178.988 -2.01036 0.136729 0
M  V30 1676 O 178.044 -2.47562 -0.496918 0
M  V30 1677 C 179.357 -1.51985 2.59463 0
M  V30 1678 C 180.905 -1.63838 2.66695 0
M  V30 1679 C 181.38 -2.1913 4.02177 0
M  V30 1680 N 182.871 -2.26483 4.04054 0
M  V30 1681 C 183.606 -2.70306 5.0569 0
M  V30 1682 N 183.102 -3.13691 6.17713 0
M  V30 1683 N 184.895 -2.69923 4.9305 0
M  V30 1684 H 177.046 -0.0210029 2.1239 0
M  V30 1685 H 179.309 -0.0718733 0.945272 0
M  V30 1686 H 179.015 -0.85269 3.41207 0
M  V30 1687 H 178.889 -2.50103 2.82362 0
M  V30 1688 H 181.276 -2.29664 1.85306 0
M  V30 1689 H 181.357 -0.642492 2.476 0
M  V30 1690 H 181.001 -1.53918 4.84016 0
M  V30 1691 H 180.931 -3.19482 4.18615 0
M  V30 1692 H 183.422 -1.95874 3.23174 0
M  V30 1693 H 183.735 -3.45773 6.9113 0
M  V30 1694 H 182.08 -3.11585 6.21241 0
M  V30 1695 H 185.271 -2.35382 4.04614 0
M  V30 1696 H 185.444 -3.03758 5.72394 0
M  V30 1697 N 178.85 -1.27639 -0.924453 0
M  V30 1698 C 180.098 -1.13941 -1.66918 0
M  V30 1699 C 180.419 0.314589 -1.92446 0
M  V30 1700 O 179.689 1.21964 -1.53303 0
M  V30 1701 H 178.269 -0.418678 -0.618642 0
M  V30 1702 H 180.931 -1.60213 -1.10985 0
M  V30 1703 H 180.027 -1.67094 -2.63602 0
M  V30 1704 N 180.328 1.1314 -1.09713 0
M  V30 1705 C 181.744 1.36477 -0.827423 0
M  V30 1706 C 181.944 1.93654 0.556817 0
M  V30 1707 O 181 2.15791 1.31112 0
M  V30 1708 C 182.313 2.31334 -1.92106 0
M  V30 1709 C 183.861 2.44943 -1.94864 0
M  V30 1710 C 184.336 3.4311 -3.0338 0
M  V30 1711 N 185.827 3.50662 -3.02639 0
M  V30 1712 C 186.562 4.2651 -3.83246 0
M  V30 1713 N 186.058 5.05485 -4.73768 0
M  V30 1714 N 187.851 4.2184 -3.71493 0
M  V30 1715 H 180.002 0.743807 -1.9895 0
M  V30 1716 H 182.265 0.389823 -0.864143 0
M  V30 1717 H 181.971 1.96483 -2.91698 0
M  V30 1718 H 181.845 3.31381 -1.80184 0
M  V30 1719 H 184.232 2.79079 -0.959099 0
M  V30 1720 H 184.313 1.4481 -2.10864 0
M  V30 1721 H 183.957 3.09704 -4.02549 0
M  V30 1722 H 183.887 4.43055 -2.84622 0
M  V30 1723 H 186.378 2.94315 -2.37039 0
M  V30 1724 H 186.691 5.60675 -5.3185 0
M  V30 1725 H 185.036 5.04708 -4.77802 0
M  V30 1726 H 188.227 3.5922 -3.00131 0
M  V30 1727 H 188.4 4.80697 -4.3455 0
M  V30 1728 N 181.806 0.884767 1.30421 0
M  V30 1729 C 182.753 0.349642 2.28136 0
M  V30 1730 C 183.723 -0.560061 1.56373 0
M  V30 1731 O 184.908 -0.488524 1.8444 0
M  V30 1732 C 182.048 -0.42999 3.42411 0
M  V30 1733 C 181.161 0.508907 4.28992 0
M  V30 1734 C 180.296 -0.286301 5.30428 0
M  V30 1735 C 179.335 0.648079 6.08659 0
M  V30 1736 N 178.472 -0.111792 7.02011 0
M  V30 1737 H 183.312 1.18807 2.73293 0
M  V30 1738 H 180.849 0.597231 1.3443 0
M  V30 1739 H 182.807 -0.897923 4.07423 0
M  V30 1740 H 181.437 -1.23299 2.98324 0
M  V30 1741 H 180.489 1.09533 3.64289 0
M  V30 1742 H 181.801 1.22475 4.8353 0
M  V30 1743 H 180.955 -0.816098 6.01186 0
M  V30 1744 H 179.694 -1.03536 4.76583 0
M  V30 1745 H 178.699 1.18951 5.36778 0
M  V30 1746 H 179.924 1.39623 6.64592 0
M  V30 1747 H 177.87 -0.843395 6.50556 0
M  V30 1748 H 177.787 0.544429 7.54037 0
M  V30 1749 H 179.055 -0.622339 7.77012 0
M  V30 1750 N 183.284 -1.43765 0.645699 0
M  V30 1751 C 184.7 -1.56509 0.312591 0
M  V30 1752 C 184.9 -1.6307 -1.18365 0
M  V30 1753 O 183.956 -1.58167 -1.96824 0
M  V30 1754 C 185.269 -2.82968 1.01733 0
M  V30 1755 C 186.817 -2.96701 0.996865 0
M  V30 1756 C 187.292 -4.25982 1.68236 0
M  V30 1757 N 188.783 -4.32829 1.64964 0
M  V30 1758 C 189.518 -5.31613 2.14885 0
M  V30 1759 N 189.014 -6.36718 2.73061 0
M  V30 1760 N 190.807 -5.23217 2.05428 0
M  V30 1761 H 182.958 -1.3775 1.61675 0
M  V30 1762 H 185.221 -0.661067 0.679481 0
M  V30 1763 H 184.927 -2.84156 2.0724 0
M  V30 1764 H 184.801 -3.72957 0.564177 0
M  V30 1765 H 187.188 -2.95058 -0.0497719 0
M  V30 1766 H 187.269 -2.08022 1.48865 0
M  V30 1767 H 186.913 -4.28386 2.72852 0
M  V30 1768 H 186.843 -5.13545 1.16529 0
M  V30 1769 H 189.334 -3.57493 1.22503 0
M  V30 1770 H 189.647 -7.08401 3.08848 0
M  V30 1771 H 187.992 -6.37362 2.77118 0
M  V30 1772 H 191.183 -4.40019 1.59689 0
M  V30 1773 H 191.356 -6.00045 2.44643 0
M  V30 1774 N 184.763 -0.387143 -1.52771 0
M  V30 1775 C 185.71 0.449048 -2.26389 0
M  V30 1776 C 186.68 1.05961 -1.27912 0
M  V30 1777 O 187.865 1.08804 -1.56737 0
M  V30 1778 C 185.005 1.57155 -3.0724 0
M  V30 1779 C 184.118 0.984066 -4.20643 0
M  V30 1780 C 183.253 2.07745 -4.88892 0
M  V30 1781 C 182.292 1.46574 -5.94292 0
M  V30 1782 N 181.429 2.49834 -6.56146 0
M  V30 1783 H 186.269 -0.185205 -2.97424 0
M  V30 1784 H 183.806 -0.103164 -1.46738 0
M  V30 1785 H 185.764 2.23309 -3.52405 0
M  V30 1786 H 184.394 2.17615 -2.38419 0
M  V30 1787 H 183.446 0.212193 -3.79808 0
M  V30 1788 H 184.758 0.497029 -4.96318 0
M  V30 1789 H 183.912 2.81673 -5.3735 0
M  V30 1790 H 182.651 2.59807 -4.12737 0
M  V30 1791 H 181.656 0.711696 -5.45174 0
M  V30 1792 H 182.881 0.953088 -6.72379 0
M  V30 1793 H 180.827 3.0107 -5.82832 0
M  V30 1794 H 180.744 2.05879 -7.27427 0
M  V30 1795 H 182.012 3.23399 -7.09249 0
M  V30 1796 N 186.241 1.57166 -0.116904 0
M  V30 1797 C 187.204 2.14039 0.819742 0
M  V30 1798 C 188.204 1.07477 1.19605 0
M  V30 1799 O 189.394 1.33263 1.1219 0
M  V30 1800 C 186.526 2.67891 2.10826 0
M  V30 1801 H 187.719 2.98128 0.325511 0
M  V30 1802 H 185.272 1.55739 0.132312 0
M  V30 1803 H 186.007 1.87384 2.64685 0
M  V30 1804 H 185.792 3.45823 1.84793 0
M  V30 1805 H 187.282 3.11809 2.77785 0
M  V30 1806 N 187.719 -0.156864 1.56817 0
M  V30 1807 C 188.629 -1.2136 2.00771 0
M  V30 1808 C 189.645 -1.47598 0.921459 0
M  V30 1809 O 190.821 -1.59462 1.2302 0
M  V30 1810 C 187.886 -2.52943 2.37109 0
M  V30 1811 C 186.947 -2.34439 3.59634 0
M  V30 1812 C 186.18 -3.59748 3.94229 0
M  V30 1813 O 186.403 -4.65526 3.29609 0
M  V30 1814 O 185.337 -3.52998 4.8752 0
M  V30 1815 H 189.163 -0.870468 2.90958 0
M  V30 1816 H 186.748 -0.36484 1.44877 0
M  V30 1817 H 188.63 -3.30538 2.61386 0
M  V30 1818 H 187.305 -2.86806 1.5008 0
M  V30 1819 H 186.212 -1.54828 3.40557 0
M  V30 1820 H 187.545 -2.05496 4.4725 0
M  V30 1821 N 189.197 -1.51736 -0.425897 0
M  V30 1822 C 190.145 -1.74464 -1.53834 0
M  V30 1823 C 191.139 -0.611241 -1.57988 0
M  V30 1824 O 192.345 -0.792899 -1.61596 0
M  V30 1825 H 188.72 -0.551437 -0.511293 0
M  V30 1826 H 190.691 -2.67694 -1.31843 0
M  V30 1827 C 189.44 -1.8972 -2.91379 0
M  V30 1828 H 188.763 -2.76344 -2.88919 0
M  V30 1829 H 190.203 -2.09629 -3.68553 0
M  V30 1830 C 188.662 -0.65992 -3.30374 0
M  V30 1831 O 189.192 0.180083 -4.01296 0
M  V30 1832 N 187.398 -0.500677 -2.86254 0
M  V30 1833 H 186.945 -1.18532 -2.28709 0
M  V30 1834 H 186.903 0.325903 -3.12706 0
M  V30 1835 N 190.675 0.682077 -1.42076 0
M  V30 1836 C 191.607 1.80755 -1.40926 0
M  V30 1837 C 192.62 1.59833 -0.309398 0
M  V30 1838 O 193.809 1.69087 -0.572014 0
M  V30 1839 C 190.909 3.17744 -1.17865 0
M  V30 1840 C 190.082 3.65578 -2.40149 0
M  V30 1841 C 189.141 4.81277 -2.12742 0
M  V30 1842 O 188.167 4.92197 -2.85887 0
M  V30 1843 N 189.369 5.69474 -1.12602 0
M  V30 1844 H 192.134 1.82229 -2.37935 0
M  V30 1845 H 189.695 0.864903 -1.36861 0
M  V30 1846 H 191.687 3.9279 -0.9746 0
M  V30 1847 H 190.257 3.11214 -0.294068 0
M  V30 1848 H 189.477 2.81291 -2.76169 0
M  V30 1849 H 190.765 3.94278 -3.21593 0
M  V30 1850 H 190.163 5.63297 -0.520899 0
M  V30 1851 H 188.72 6.44363 -0.981842 0
M  V30 1852 N 192.153 1.28127 0.917671 0
M  V30 1853 C 193.101 1.11569 2.04096 0
M  V30 1854 C 194.095 0.0360242 1.69362 0
M  V30 1855 O 195.301 0.194501 1.78946 0
M  V30 1856 H 191.676 0.344097 0.668656 0
M  V30 1857 H 193.647 2.06711 2.15205 0
M  V30 1858 C 192.396 0.790197 3.38602 0
M  V30 1859 H 191.719 1.61293 3.6582 0
M  V30 1860 H 193.159 0.714271 4.1794 0
M  V30 1861 C 191.618 -0.505897 3.3308 0
M  V30 1862 O 192.148 -1.53736 3.71117 0
M  V30 1863 N 190.354 -0.505193 2.86175 0
M  V30 1864 H 189.901 0.334621 2.55417 0
M  V30 1865 H 189.859 -1.37243 2.82863 0
M  V30 1866 N 193.631 -1.12557 1.10312 0
M  V30 1867 C 194.541 -2.21841 0.763142 0
M  V30 1868 C 195.557 -1.72354 -0.238801 0
M  V30 1869 O 196.733 -2.01249 -0.0778746 0
M  V30 1870 C 193.798 -3.46131 0.198632 0
M  V30 1871 C 192.859 -4.10464 1.25769 0
M  V30 1872 C 192.092 -5.28821 0.72002 0
M  V30 1873 O 192.315 -5.6859 -0.453993 0
M  V30 1874 O 191.249 -5.83437 1.47935 0
M  V30 1875 H 195.075 -2.53312 1.67532 0
M  V30 1876 H 192.66 -1.20867 0.878157 0
M  V30 1877 H 194.542 -4.2125 -0.112401 0
M  V30 1878 H 193.217 -3.16338 -0.686419 0
M  V30 1879 H 192.124 -3.3713 1.62156 0
M  V30 1880 H 193.457 -4.44408 2.11571 0
M  V30 1881 N 195.109 -0.891671 -1.2995 0
M  V30 1882 C 196.334 -0.527932 -2.00568 0
M  V30 1883 C 196.759 0.877969 -1.66353 0
M  V30 1884 O 196.117 1.58301 -0.883762 0
M  V30 1885 C 196.165 -0.717745 -3.53385 0
M  V30 1886 O 195.269 0.233376 -4.11739 0
M  V30 1887 H 194.61 -0.20722 -0.630837 0
M  V30 1888 H 197.14 -1.20105 -1.65638 0
M  V30 1889 H 197.15 -0.619307 -4.03272 0
M  V30 1890 H 195.825 -1.74276 -3.77625 0
M  V30 1891 H 194.402 0.0880706 -3.72796 0
M  V30 1892 N 196.587 1.43421 -0.653314 0
M  V30 1893 C 197.812 2.06678 -0.172846 0
M  V30 1894 C 198.237 1.48648 1.15262 0
M  V30 1895 O 197.595 0.596457 1.71208 0
M  V30 1896 C 197.643 3.60474 -0.0953184 0
M  V30 1897 O 196.747 4.01487 0.942442 0
M  V30 1898 H 196.088 0.657181 -0.0949155 0
M  V30 1899 H 198.618 1.83925 -0.896265 0
M  V30 1900 H 198.628 4.07905 0.0879728 0
M  V30 1901 H 197.303 4.02088 -1.06291 0
M  V30 1902 H 195.88 3.65646 0.731932 0
M  V30 1903 N 198.065 0.39524 1.52563 0
M  V30 1904 C 198.997 -0.472201 2.24283 0
M  V30 1905 C 200.01 -1.02178 1.26742 0
M  V30 1906 O 201.199 -0.923097 1.52778 0
M  V30 1907 C 198.299 -1.66775 2.95024 0
M  V30 1908 C 197.472 -1.2445 4.19322 0
M  V30 1909 C 196.531 -2.30539 4.7301 0
M  V30 1910 O 195.557 -1.91702 5.35947 0
M  V30 1911 N 196.759 -3.6253 4.53379 0
M  V30 1912 H 199.524 0.142282 2.99362 0
M  V30 1913 H 197.085 0.2219 1.60372 0
M  V30 1914 H 199.077 -2.37283 3.27839 0
M  V30 1915 H 197.647 -2.18845 2.23217 0
M  V30 1916 H 196.867 -0.368069 3.92478 0
M  V30 1917 H 198.155 -0.938457 5.0007 0
M  V30 1918 H 197.553 -3.96841 4.03154 0
M  V30 1919 H 196.11 -4.29055 4.90668 0
M  V30 1920 N 199.544 -1.57102 0.125237 0
M  V30 1921 C 200.792 -1.95021 -0.530198 0
M  V30 1922 C 201.113 -1.00982 -1.66816 0
M  V30 1923 O 200.383 -0.0672693 -1.95784 0
M  V30 1924 H 198.963 -0.720046 -0.198853 0
M  V30 1925 H 201.625 -1.93916 0.19564 0
M  V30 1926 H 200.721 -2.98211 -0.920681 0
M  V30 1927 N 201.022 0.148545 -1.56898 0
M  V30 1928 C 201.969 1.18345 -1.98149 0
M  V30 1929 C 202.939 1.42772 -0.848848 0
M  V30 1930 O 204.124 1.55132 -1.11079 0
M  V30 1931 C 201.264 2.51231 -2.36594 0
M  V30 1932 C 200.377 2.33991 -3.63142 0
M  V30 1933 C 199.512 3.59902 -3.90697 0
M  V30 1934 C 198.551 3.37692 -5.1052 0
M  V30 1935 N 197.688 4.5573 -5.34092 0
M  V30 1936 H 202.528 0.82467 -2.86362 0
M  V30 1937 H 200.065 0.395756 -1.41676 0
M  V30 1938 H 202.023 3.28713 -2.56912 0
M  V30 1939 H 200.653 2.85059 -1.51463 0
M  V30 1940 H 199.705 1.47572 -3.50609 0
M  V30 1941 H 201.017 2.13539 -4.5078 0
M  V30 1942 H 200.171 4.45813 -4.11505 0
M  V30 1943 H 198.91 3.83357 -3.01477 0
M  V30 1944 H 197.915 2.5017 -4.89587 0
M  V30 1945 H 199.14 3.15637 -6.0129 0
M  V30 1946 H 197.086 4.79361 -4.47827 0
M  V30 1947 H 197.003 4.38274 -6.15996 0
M  V30 1948 H 198.271 5.42858 -5.59397 0
M  V30 1949 N 202.5 1.5196 0.417844 0
M  V30 1950 C 203.725 1.69717 1.1921 0
M  V30 1951 C 204.15 0.402148 1.83751 0
M  V30 1952 O 203.508 -0.639593 1.69643 0
M  V30 1953 C 203.556 2.82794 2.2374 0
M  V30 1954 O 202.66 2.47756 3.29683 0
M  V30 1955 H 202.001 0.565263 0.348387 0
M  V30 1956 H 204.531 1.98621 0.490985 0
M  V30 1957 H 204.541 3.07452 2.68212 0
M  V30 1958 H 203.216 3.76756 1.76146 0
M  V30 1959 H 201.793 2.33739 2.90552 0
M  V30 1960 N 203.978 -0.674533 1.42435 0
M  V30 1961 C 205.227 -1.43034 1.42212 0
M  V30 1962 C 205.54 -1.95555 0.0420788 0
M  V30 1963 O 206.746 -2.71374 -0.0827558 0
M  V30 1964 C 205.202 -2.58748 2.50155 0
M  V30 1965 C 204.81 -2.12925 3.94166 0
M  V30 1966 C 206.554 -3.36257 2.59098 0
M  V30 1967 C 204.461 -3.25723 4.93618 0
M  V30 1968 H 203.391 -0.537345 0.528939 0
M  V30 1969 H 206.042 -0.73024 1.68344 0
M  V30 1970 H 204.424 -3.31128 2.17188 0
M  V30 1971 H 205.598 -1.47697 4.36488 0
M  V30 1972 H 203.913 -1.48354 3.89076 0
M  V30 1973 H 206.51 -4.20264 3.30578 0
M  V30 1974 H 206.853 -3.82866 1.63461 0
M  V30 1975 H 207.386 -2.70947 2.9126 0
M  V30 1976 H 204.125 -2.84105 5.90732 0
M  V30 1977 H 203.645 -3.89732 4.55926 0
M  V30 1978 H 205.324 -3.91186 5.15347 0
M  V30 1979 N 205.456 -1.28612 -0.910864 0
M  V30 1980 C 206.704 -1.15705 -1.65701 0
M  V30 1981 C 207.025 0.29416 -1.92769 0
M  V30 1982 O 206.295 1.20331 -1.54588 0
M  V30 1983 H 204.875 -0.425216 -0.614167 0
M  V30 1984 H 207.537 -1.61381 -1.0928 0
M  V30 1985 H 206.633 -1.6988 -2.61815 0
M  V30 1986 N 206.934 1.1197 -1.10907 0
M  V30 1987 C 208.182 1.83225 -0.852819 0
M  V30 1988 C 208.503 1.84769 0.623341 0
M  V30 1989 O 207.773 1.3143 1.45269 0
M  V30 1990 H 206.353 0.67849 -0.312507 0
M  V30 1991 H 209.015 1.3556 -1.40033 0
M  V30 1992 H 208.111 2.87265 -1.22005 0
M  V30 1993 N 208.412 0.89855 1.29475 0
M  V30 1994 C 209.828 0.594483 1.48115 0
M  V30 1995 C 210.028 -0.86431 1.82022 0
M  V30 1996 O 209.084 -1.64457 1.91599 0
M  V30 1997 C 210.397 1.51932 2.59494 0
M  V30 1998 C 211.945 1.5244 2.7337 0
M  V30 1999 C 212.42 2.43548 3.87877 0
M  V30 2000 N 213.911 2.41589 3.95208 0
M  V30 2001 C 214.646 3.08789 4.83153 0
M  V30 2002 N 214.142 3.85265 5.75798 0
M  V30 2003 N 215.935 2.97952 4.76635 0
M  V30 2004 H 208.086 1.84207 1.05742 0
M  V30 2005 H 210.349 0.789251 0.525154 0
M  V30 2006 H 210.055 2.55865 2.41301 0
M  V30 2007 H 209.929 1.23899 3.56271 0
M  V30 2008 H 212.316 0.492518 2.90961 0
M  V30 2009 H 212.397 1.8451 1.77172 0
M  V30 2010 H 212.041 3.46829 3.71041 0
M  V30 2011 H 211.971 2.08788 4.83441 0
M  V30 2012 H 214.462 1.86025 3.28943 0
M  V30 2013 H 214.775 4.33598 6.39697 0
M  V30 2014 H 213.12 3.89371 5.75687 0
M  V30 2015 H 216.311 2.37723 4.03244 0
M  V30 2016 H 216.484 3.50599 5.44962 0
M  V30 2017 N 209.89 -1.43072 0.660911 0
M  V30 2018 C 211.138 -2.01323 0.177094 0
M  V30 2019 C 211.459 -1.5245 -1.2159 0
M  V30 2020 O 210.729 -0.740322 -1.81373 0
M  V30 2021 H 209.309 -0.744382 0.0624804 0
M  V30 2022 H 211.971 -1.75179 0.854305 0
M  V30 2023 H 211.067 -3.11649 0.167641 0
M  V30 2024 N 211.368 -0.403325 -1.52352 0
M  V30 2025 C 212.318 0.442244 -2.2367 0
M  V30 2026 C 213.302 1.01823 -1.24583 0
M  V30 2027 O 214.494 0.942005 -1.49851 0
M  V30 2028 C 211.623 1.5615 -3.05732 0
M  V30 2029 C 210.709 0.996575 -4.12225 0
M  V30 2030 N 211.1 0.157804 -5.05554 0
M  V30 2031 C 209.398 1.26767 -4.27605 0
M  V30 2032 C 210.099 -0.155853 -5.81491 0
M  V30 2033 N 209.075 0.451775 -5.41719 0
M  V30 2034 H 212.877 -0.204964 -2.93184 0
M  V30 2035 H 210.391 -0.213418 -1.60992 0
M  V30 2036 H 212.388 2.17981 -3.55373 0
M  V30 2037 H 211.048 2.21139 -2.37755 0
M  V30 2038 H 212.059 -0.206049 -5.1749 0
M  V30 2039 H 208.736 1.91757 -3.70858 0
M  V30 2040 H 210.126 -0.836329 -6.66675 0
M  V30 2041 N 212.846 1.57033 -0.133567 0
M  V30 2042 C 213.793 2.16074 0.811208 0
M  V30 2043 C 214.763 1.08979 1.2535 0
M  V30 2044 O 215.948 1.36958 1.32843 0
M  V30 2045 C 213.088 2.77595 2.05024 0
M  V30 2046 C 212.201 3.99042 1.65498 0
M  V30 2047 C 211.336 4.48603 2.84479 0
M  V30 2048 C 210.375 5.62547 2.41262 0
M  V30 2049 N 209.512 6.06787 3.53206 0
M  V30 2050 H 214.352 2.96477 0.300906 0
M  V30 2051 H 211.889 1.46462 0.136822 0
M  V30 2052 H 213.847 3.11402 2.77642 0
M  V30 2053 H 212.477 1.99859 2.53488 0
M  V30 2054 H 211.529 3.71302 0.826981 0
M  V30 2055 H 212.841 4.81629 1.29748 0
M  V30 2056 H 211.995 4.84395 3.65303 0
M  V30 2057 H 210.734 3.64995 3.23465 0
M  V30 2058 H 209.739 5.26345 1.58874 0
M  V30 2059 H 210.964 6.47931 2.03377 0
M  V30 2060 H 208.91 5.26117 3.91838 0
M  V30 2061 H 208.827 6.84266 3.21427 0
M  V30 2062 H 210.095 6.4722 4.34427 0
M  V30 2063 N 214.325 -0.140222 1.56975 0
M  V30 2064 C 215.574 -0.850152 1.82908 0
M  V30 2065 C 215.887 -1.82028 0.715892 0
M  V30 2066 O 217.093 -2.57485 0.861016 0
M  V30 2067 C 215.549 -1.5625 3.24213 0
M  V30 2068 C 215.157 -0.63443 4.43485 0
M  V30 2069 C 216.901 -2.25881 3.59413 0
M  V30 2070 C 214.808 -1.34879 5.75814 0
M  V30 2071 H 213.738 -0.321221 0.682153 0
M  V30 2072 H 216.389 -0.102874 1.83211 0
M  V30 2073 H 214.771 -2.35565 3.18316 0
M  V30 2074 H 215.945 0.12398 4.60633 0
M  V30 2075 H 214.26 -0.0461836 4.16374 0
M  V30 2076 H 216.857 -2.79978 4.5554 0
M  V30 2077 H 217.2 -3.02693 2.85802 0
M  V30 2078 H 217.733 -1.53477 3.67001 0
M  V30 2079 H 214.472 -0.622385 6.52539 0
M  V30 2080 H 213.992 -2.07974 5.6259 0
M  V30 2081 H 215.671 -1.88784 6.18845 0
M  V30 2082 N 215.803 -1.52179 -0.40978 0
M  V30 2083 C 217.028 -1.70347 -1.18308 0
M  V30 2084 C 217.453 -0.411887 -1.83535 0
M  V30 2085 O 216.811 0.630587 -1.6998 0
M  V30 2086 C 216.859 -2.83977 -2.22238 0
M  V30 2087 O 215.963 -2.495 -3.28365 0
M  V30 2088 H 215.304 -0.567103 -0.345384 0
M  V30 2089 H 217.834 -1.98879 -0.480445 0
M  V30 2090 H 217.844 -3.0887 -2.66577 0
M  V30 2091 H 216.519 -3.77685 -1.74146 0
M  V30 2092 H 215.096 -2.35277 -2.89308 0
M  V30 2093 N 217.281 0.66697 -1.42791 0
M  V30 2094 C 218.558 1.4234 -1.34159 0
M  V30 2095 C 218.938 2.11093 0.0172729 0
M  V30 2096 O 218.286 2.03808 1.03318 0
M  V30 2097 C 218.496 2.41942 -2.51526 0
M  V30 2098 C 219.844 3.06353 -2.93995 0
M  V30 2099 O 220.868 2.52269 -2.51473 0
M  V30 2100 O 219.727 4.04376 -3.67617 0
M  V30 2101 H 216.821 0.635277 -0.529483 0
M  V30 2102 H 219.367 0.695034 -1.54814 0
M  V30 2103 H 218.139 1.89991 -3.42081 0
M  V30 2104 H 217.762 3.22249 -2.32898 0
M  V30 2105 N 218.759 1.29093 0.90403 0
M  V30 2106 C 219.989 1.19516 1.68522 0
M  V30 2107 C 220.397 -0.24738 1.87576 0
M  V30 2108 O 219.74 -1.17798 1.40959 0
M  V30 2109 C 219.802 1.83249 3.0929 0
M  V30 2110 C 219.466 3.32531 3.13484 0
M  V30 2111 C 220.463 4.28821 2.93953 0
M  V30 2112 C 218.148 3.73656 3.35688 0
M  V30 2113 C 220.142 5.64212 2.96553 0
M  V30 2114 C 217.829 5.0917 3.37919 0
M  V30 2115 C 218.827 6.04258 3.18373 0
M  V30 2116 O 218.515 7.37298 3.20385 0
M  V30 2117 H 218.247 0.415467 0.533257 0
M  V30 2118 H 220.801 1.70912 1.13922 0
M  V30 2119 H 219.031 1.26358 3.65473 0
M  V30 2120 H 220.72 1.68054 3.69476 0
M  V30 2121 H 221.486 3.98382 2.76616 0
M  V30 2122 H 217.365 3.00101 3.49943 0
M  V30 2123 H 220.909 6.38407 2.81216 0
M  V30 2124 H 216.806 5.39256 3.54787 0
M  V30 2125 H 217.574 7.46048 3.36681 0
M  V30 2126 N 220.237 -1.11381 1.11499 0
M  V30 2127 C 221.484 -1.83132 0.864231 0
M  V30 2128 C 221.812 -1.84683 -0.610114 0
M  V30 2129 O 221.067 -1.29589 -1.46646 0
M  V30 2130 C 221.366 -3.30026 1.37177 0
M  V30 2131 C 221.032 -3.48634 2.85946 0
M  V30 2132 C 219.694 -3.53421 3.26569 0
M  V30 2133 C 222.046 -3.54837 3.81759 0
M  V30 2134 C 219.374 -3.61967 4.61733 0
M  V30 2135 C 221.726 -3.64915 5.1674 0
M  V30 2136 C 220.39 -3.67962 5.5692 0
M  V30 2137 H 219.66 -0.670127 0.316245 0
M  V30 2138 H 222.307 -1.31354 1.3935 0
M  V30 2139 H 220.612 -3.84304 0.762753 0
M  V30 2140 H 222.309 -3.84034 1.15408 0
M  V30 2141 H 218.899 -3.45579 2.53521 0
M  V30 2142 H 223.083 -3.50399 3.51474 0
M  V30 2143 H 218.339 -3.62603 4.92269 0
M  V30 2144 H 222.513 -3.68658 5.90816 0
M  V30 2145 H 220.14 -3.74336 6.61647 0
M  V30 2146 N 221.715 -0.905404 -1.28997 0
M  V30 2147 C 222.625 -0.392246 -2.31298 0
M  V30 2148 C 223.641 0.515889 -1.66176 0
M  V30 2149 O 224.817 0.404093 -1.97304 0
M  V30 2150 C 221.882 0.36686 -3.44754 0
M  V30 2151 C 220.943 -0.573485 -4.25452 0
M  V30 2152 C 220.176 0.149488 -5.33491 0
M  V30 2153 O 220.399 1.37255 -5.5364 0
M  V30 2154 O 219.333 -0.510919 -5.99728 0
M  V30 2155 H 223.159 -1.2411 -2.77183 0
M  V30 2156 H 220.744 -0.669926 -1.33538 0
M  V30 2157 H 222.626 0.795907 -4.13816 0
M  V30 2158 H 221.301 1.19169 -3.00966 0
M  V30 2159 H 220.208 -1.05176 -3.59011 0
M  V30 2160 H 221.541 -1.36489 -4.72897 0
M  V30 2161 N 223.193 1.4272 -0.668489 0
M  V30 2162 C 224.423 2.05668 -0.196063 0
M  V30 2163 C 224.831 1.5028 1.14946 0
M  V30 2164 O 224.174 0.6348 1.72383 0
M  V30 2165 C 224.236 3.59469 -0.0468879 0
M  V30 2166 C 223.9 4.37518 -1.32012 0
M  V30 2167 C 224.897 4.68584 -2.25222 0
M  V30 2168 C 222.582 4.77266 -1.56596 0
M  V30 2169 C 224.576 5.38326 -3.41297 0
M  V30 2170 C 222.263 5.4675 -2.72962 0
M  V30 2171 C 223.261 5.77204 -3.65137 0
M  V30 2172 O 222.949 6.45264 -4.79468 0
M  V30 2173 H 222.681 0.669382 -0.0943599 0
M  V30 2174 H 225.235 1.83954 -0.913788 0
M  V30 2175 H 223.465 3.79817 0.726357 0
M  V30 2176 H 225.154 4.04071 0.384852 0
M  V30 2177 H 225.92 4.38382 -2.07477 0
M  V30 2178 H 221.799 4.52959 -0.857249 0
M  V30 2179 H 225.343 5.62014 -4.13263 0
M  V30 2180 H 221.24 5.76369 -2.90635 0
M  V30 2181 H 222.008 6.63753 -4.78931 0
M  V30 2182 N 224.671 0.411399 1.52136 0
M  V30 2183 C 225.603 -0.448386 2.24771 0
M  V30 2184 C 226.616 -1.00828 1.27818 0
M  V30 2185 O 227.805 -0.906841 1.53749 0
M  V30 2186 C 224.905 -1.63636 2.96777 0
M  V30 2187 C 224.078 -1.19995 4.20618 0
M  V30 2188 C 223.137 -2.25509 4.75428 0
M  V30 2189 O 222.163 -1.86007 5.3795 0
M  V30 2190 N 223.365 -3.577 4.57199 0
M  V30 2191 H 226.13 0.174025 2.99194 0
M  V30 2192 H 223.691 0.238897 1.60128 0
M  V30 2193 H 225.683 -2.33793 3.30338 0
M  V30 2194 H 224.253 -2.16465 2.25526 0
M  V30 2195 H 223.473 -0.326421 3.92846 0
M  V30 2196 H 224.761 -0.885365 5.01038 0
M  V30 2197 H 224.159 -3.92543 4.07341 0
M  V30 2198 H 222.716 -4.23827 4.95191 0
M  V30 2199 N 226.149 -1.5696 0.141893 0
M  V30 2200 C 227.397 -1.95573 -0.509484 0
M  V30 2201 C 227.718 -1.02746 -1.65736 0
M  V30 2202 O 226.988 -0.0880311 -1.95702 0
M  V30 2203 H 225.568 -0.722115 -0.191205 0
M  V30 2204 H 228.23 -1.93697 0.216196 0
M  V30 2205 H 227.326 -2.99171 -0.889 0
M  V30 2206 N 227.627 0.131896 -1.57047 0
M  V30 2207 C 228.875 0.840269 -1.83804 0
M  V30 2208 C 229.196 1.81017 -0.72512 0
M  V30 2209 O 228.466 1.94272 0.251995 0
M  V30 2210 H 227.046 0.313294 -0.678127 0
M  V30 2211 H 229.708 0.122294 -1.94516 0
M  V30 2212 H 228.804 1.39335 -2.79271 0
M  V30 2213 N 229.106 1.52395 0.401703 0
M  V30 2214 C 230.054 1.7689 1.51039 0
M  V30 2215 C 231.048 0.636298 1.56996 0
M  V30 2216 O 232.254 0.818507 1.60314 0
M  V30 2217 H 228.629 0.559502 0.502456 0
M  V30 2218 H 230.6 2.69757 1.27568 0
M  V30 2219 C 229.349 1.94331 2.88324 0
M  V30 2220 H 228.672 2.80905 2.84486 0
M  V30 2221 H 230.112 2.15466 3.65172 0
M  V30 2222 C 228.571 0.712396 3.29282 0
M  V30 2223 O 229.101 -0.116218 4.01532 0
M  V30 2224 N 227.307 0.546154 2.85422 0
M  V30 2225 H 226.854 1.22156 2.26794 0
M  V30 2226 H 226.812 -0.276113 3.13185 0
M  V30 2227 N 230.584 -0.659388 1.43143 0
M  V30 2228 C 231.832 -1.41654 1.44147 0
M  V30 2229 C 232.153 -1.94893 0.0645739 0
M  V30 2230 O 231.423 -1.74044 -0.899198 0
M  V30 2231 H 230.003 -0.525708 0.530697 0
M  V30 2232 H 232.665 -0.778097 1.78694 0
M  V30 2233 H 231.761 -2.26195 2.1504 0
M  V30 2234 N 232.062 -1.29571 -0.897171 0
M  V30 2235 C 233.287 -1.20705 -1.68656 0
M  V30 2236 C 233.712 0.228582 -1.86706 0
M  V30 2237 O 233.07 1.16494 -1.3892 0
M  V30 2238 C 233.118 -1.9282 -3.04717 0
M  V30 2239 O 232.222 -1.24697 -3.93096 0
M  V30 2240 H 231.563 -0.418126 -0.515816 0
M  V30 2241 H 234.093 -1.71183 -1.12061 0
M  V30 2242 H 234.103 -2.01372 -3.54843 0
M  V30 2243 H 232.778 -2.97239 -2.90899 0
M  V30 2244 H 231.355 -1.2442 -3.51531 0
M  V30 2245 N 233.54 1.10788 -1.12088 0
M  V30 2246 C 234.765 1.87002 -0.896949 0
M  V30 2247 C 235.19 1.79933 0.548261 0
M  V30 2248 O 234.548 1.16662 1.38779 0
M  V30 2249 C 234.596 3.3349 -1.37174 0
M  V30 2250 O 233.7 4.08745 -0.547831 0
M  V30 2251 H 233.041 0.580397 -0.322545 0
M  V30 2252 H 235.571 1.39996 -1.49206 0
M  V30 2253 H 235.581 3.84339 -1.36922 0
M  V30 2254 H 234.256 3.37951 -2.42408 0
M  V30 2255 H 232.833 3.6776 -0.617034 0
M  V30 2256 N 235.018 0.912232 1.28515 0
M  V30 2257 C 236.429 0.591352 1.77087 0
M  V30 2258 C 236.78 -0.8933 1.74684 0
M  V30 2259 O 235.905 -1.69876 1.34056 0
M  V30 2260 C 236.5 1.06668 3.2157 0
M  V30 2261 C 235.059 0.79675 3.67871 0
M  V30 2262 C 234.206 1.23427 2.48316 0
M  V30 2263 H 237.157 1.09365 1.15 0
M  V30 2264 H 237.178 0.407455 3.78312 0
M  V30 2265 H 236.69 2.14726 3.23287 0
M  V30 2266 H 234.791 -0.270679 3.71616 0
M  V30 2267 H 234.904 1.40343 4.58084 0
M  V30 2268 H 233.268 0.653036 2.46186 0
M  V30 2269 H 234.051 2.32316 2.52753 0
M  V30 2270 N 236.496 -1.42363 0.676048 0
M  V30 2271 C 237.742 -2.0182 0.199125 0
M  V30 2272 C 238.075 -1.53339 -1.19168 0
M  V30 2273 O 237.35 -0.736124 -1.80032 0
M  V30 2274 C 237.633 -3.59331 0.235144 0
M  V30 2275 C 237.486 -4.17989 1.66149 0
M  V30 2276 C 238.805 -4.3813 -0.41595 0
M  V30 2277 H 235.924 -0.733293 0.0738311 0
M  V30 2278 H 238.566 -1.69368 0.86107 0
M  V30 2279 H 236.716 -3.87109 -0.328487 0
M  V30 2280 H 238.388 -4.0116 2.27747 0
M  V30 2281 H 236.631 -3.7377 2.20178 0
M  V30 2282 H 237.302 -5.27126 1.63837 0
M  V30 2283 H 239.778 -4.16051 0.0638529 0
M  V30 2284 H 238.654 -5.47717 -0.360115 0
M  V30 2285 H 238.915 -4.16101 -1.49373 0
M  V30 2286 N 237.974 -0.419461 -1.51915 0
M  V30 2287 C 239.39 -0.0708431 -1.59443 0
M  V30 2288 C 239.59 1.41796 -1.43164 0
M  V30 2289 O 238.646 2.18596 -1.26381 0
M  V30 2290 C 239.959 -0.574991 -2.95151 0
M  V30 2291 C 241.507 -0.533867 -3.08413 0
M  V30 2292 C 241.982 -1.01469 -4.46618 0
M  V30 2293 N 243.473 -0.971939 -4.52888 0
M  V30 2294 C 244.208 -1.31505 -5.58116 0
M  V30 2295 N 243.704 -1.73014 -6.70849 0
M  V30 2296 N 245.497 -1.23436 -5.48379 0
M  V30 2297 H 237.648 -1.38836 -1.60743 0
M  V30 2298 H 239.911 -0.570998 -0.756747 0
M  V30 2299 H 239.617 -1.61597 -3.12377 0
M  V30 2300 H 239.491 0.00979777 -3.77199 0
M  V30 2301 H 241.878 0.498086 -2.90866 0
M  V30 2302 H 241.959 -1.15484 -2.28248 0
M  V30 2303 H 241.603 -2.04502 -4.6491 0
M  V30 2304 H 241.533 -0.370433 -5.25295 0
M  V30 2305 H 244.024 -0.666893 -3.71969 0
M  V30 2306 H 244.337 -1.97479 -7.47143 0
M  V30 2307 H 242.682 -1.76926 -6.72103 0
M  V30 2308 H 245.873 -0.908869 -4.59192 0
M  V30 2309 H 246.046 -1.50506 -6.30279 0
M  V30 2310 N 239.452 1.56882 -0.150215 0
M  V30 2311 C 240.7 1.9584 0.499105 0
M  V30 2312 C 241.021 1.03623 1.65188 0
M  V30 2313 O 240.291 0.0984084 1.95653 0
M  V30 2314 H 238.871 0.723119 0.187373 0
M  V30 2315 H 241.533 1.9358 -0.226466 0
M  V30 2316 H 240.629 2.99638 0.873122 0
M  V30 2317 N 240.93 -0.123565 1.57115 0
M  V30 2318 C 242.179 -0.830704 1.83799 0
M  V30 2319 C 242.492 -1.81259 0.735158 0
M  V30 2320 O 243.698 -2.56558 0.888278 0
M  V30 2321 C 242.154 -1.52802 3.25852 0
M  V30 2322 C 241.762 -0.587356 4.44133 0
M  V30 2323 C 243.506 -2.22056 3.61789 0
M  V30 2324 C 241.413 -1.28764 5.77212 0
M  V30 2325 H 240.343 -0.313967 0.685522 0
M  V30 2326 H 242.994 -0.0834359 1.8331 0
M  V30 2327 H 241.376 -2.32175 3.20797 0
M  V30 2328 H 242.55 0.172829 4.60476 0
M  V30 2329 H 240.865 -0.00201892 4.164 0
M  V30 2330 H 243.462 -2.75131 4.58483 0
M  V30 2331 H 243.805 -2.99644 2.88997 0
M  V30 2332 H 244.338 -1.49576 3.68608 0
M  V30 2333 H 241.077 -0.55314 6.53162 0
M  V30 2334 H 240.597 -2.01995 5.64764 0
M  V30 2335 H 242.276 -1.8221 6.20813 0
M  V30 2336 N 242.408 -1.52605 -0.393616 0
M  V30 2337 C 243.819 -1.59417 -0.971761 0
M  V30 2338 C 244.17 -0.444173 -1.91106 0
M  V30 2339 O 243.295 0.433382 -2.12016 0
M  V30 2340 C 243.89 -2.88936 -1.76921 0
M  V30 2341 C 242.449 -2.98175 -2.29714 0
M  V30 2342 C 241.596 -2.54491 -1.10135 0
M  V30 2343 H 244.547 -1.57751 -0.173317 0
M  V30 2344 H 244.568 -2.75163 -2.62804 0
M  V30 2345 H 244.08 -3.72616 -1.08532 0
M  V30 2346 H 242.181 -2.19024 -3.01429 0
M  V30 2347 H 242.294 -4.02726 -2.59517 0
M  V30 2348 H 240.658 -2.08702 -1.45999 0
M  V30 2349 H 241.441 -3.4056 -0.432874 0
M  V30 2350 N 243.887 0.651787 -1.4349 0
M  V30 2351 C 245.298 1.233 -1.40193 0
M  V30 2352 C 245.649 1.9591 -0.106727 0
M  V30 2353 O 244.774 2.01316 0.793773 0
M  V30 2354 C 245.369 2.24257 -2.53957 0
M  V30 2355 C 243.928 2.77852 -2.5392 0
M  V30 2356 C 243.075 1.52517 -2.3159 0
M  V30 2357 H 246.026 0.443717 -1.52371 0
M  V30 2358 H 246.047 3.0646 -2.25528 0
M  V30 2359 H 245.559 1.71382 -3.4821 0
M  V30 2360 H 243.66 3.34786 -1.63551 0
M  V30 2361 H 243.773 3.25299 -3.51735 0
M  V30 2362 H 242.137 1.79915 -1.80285 0
M  V30 2363 H 242.92 1.01574 -3.27929 0
M  V30 2364 N 245.365 1.30045 0.890287 0
M  V30 2365 C 246.328 1.15963 1.977 0
M  V30 2366 C 247.328 0.0923777 1.60534 0
M  V30 2367 O 248.518 0.340071 1.70848 0
M  V30 2368 C 245.65 0.775451 3.31963 0
M  V30 2369 H 246.843 2.12502 2.11619 0
M  V30 2370 H 244.396 1.13366 1.07601 0
M  V30 2371 H 245.131 -0.189671 3.23745 0
M  V30 2372 H 244.916 1.54668 3.60306 0
M  V30 2373 H 246.406 0.700251 4.11687 0
M  V30 2374 N 246.843 -1.10192 1.12674 0
M  V30 2375 C 248.092 -1.81573 0.8783 0
M  V30 2376 C 248.405 -1.86249 -0.597557 0
M  V30 2377 O 249.611 -2.5386 -0.962681 0
M  V30 2378 C 248.067 -3.26149 1.52167 0
M  V30 2379 C 247.675 -3.29763 3.03249 0
M  V30 2380 C 249.419 -4.0234 1.3536 0
M  V30 2381 C 247.326 -4.68815 3.60508 0
M  V30 2382 H 246.256 -0.680394 0.324931 0
M  V30 2383 H 248.907 -1.23902 1.35353 0
M  V30 2384 H 247.289 -3.83832 0.974104 0
M  V30 2385 H 248.463 -2.8189 3.6452 0
M  V30 2386 H 246.778 -2.67059 3.19481 0
M  V30 2387 H 249.375 -5.05058 1.75559 0
M  V30 2388 H 249.718 -4.15235 0.297554 0
M  V30 2389 H 250.251 -3.51079 1.87052 0
M  V30 2390 H 246.99 -4.61121 4.65884 0
M  V30 2391 H 246.51 -5.17045 3.04014 0
M  V30 2392 H 248.189 -5.37785 3.59717 0
M  V30 2393 N 248.321 -0.919034 -1.28029 0
M  V30 2394 C 249.737 -0.617972 -1.4715 0
M  V30 2395 C 249.937 0.835242 -1.83374 0
M  V30 2396 O 248.993 1.61388 -1.94191 0
M  V30 2397 C 250.306 -1.56041 -2.57044 0
M  V30 2398 C 251.854 -1.56769 -2.7091 0
M  V30 2399 C 252.329 -2.49688 -3.83953 0
M  V30 2400 N 253.82 -2.47845 -3.91314 0
M  V30 2401 C 254.555 -3.16437 -4.78179 0
M  V30 2402 N 254.051 -3.94376 -5.69596 0
M  V30 2403 N 255.844 -3.05498 -4.71834 0
M  V30 2404 H 247.995 -1.85866 -1.02798 0
M  V30 2405 H 250.258 -0.797506 -0.512531 0
M  V30 2406 H 249.964 -2.59671 -2.372 0
M  V30 2407 H 249.838 -1.29551 -3.54255 0
M  V30 2408 H 252.225 -0.538745 -2.90141 0
M  V30 2409 H 252.306 -1.87305 -1.74214 0
M  V30 2410 H 251.95 -3.52688 -3.65477 0
M  V30 2411 H 251.88 -2.16453 -4.80058 0
M  V30 2412 H 254.371 -1.91234 -3.25941 0
M  V30 2413 H 254.684 -4.43721 -6.32718 0
M  V30 2414 H 253.029 -3.98481 -5.69419 0
M  V30 2415 H 256.22 -2.44108 -3.99411 0
M  V30 2416 H 256.393 -3.59225 -5.39316 0
M  V30 2417 N 249.799 1.42003 -0.683588 0
M  V30 2418 C 251.024 2.06265 -0.216647 0
M  V30 2419 C 251.449 1.51059 1.12083 0
M  V30 2420 O 250.807 0.632638 1.69904 0
M  V30 2421 C 250.855 3.60191 -0.171759 0
M  V30 2422 O 249.959 4.03396 0.857069 0
M  V30 2423 H 249.3 0.65502 -0.108834 0
M  V30 2424 H 251.83 1.81982 -0.935077 0
M  V30 2425 H 251.84 4.08 0.0014303 0
M  V30 2426 H 250.515 3.99743 -1.14796 0
M  V30 2427 H 249.092 3.67117 0.654208 0
M  V30 2428 N 251.277 0.427512 1.51691 0
M  V30 2429 C 252.688 -0.0378867 1.86662 0
M  V30 2430 C 253.039 -1.42819 1.34525 0
M  V30 2431 O 252.164 -2.05037 0.692014 0
M  V30 2432 C 252.759 -0.0755266 3.38716 0
M  V30 2433 C 251.318 -0.485309 3.73258 0
M  V30 2434 C 250.465 0.328399 2.75349 0
M  V30 2435 H 253.416 0.64379 1.45055 0
M  V30 2436 H 253.437 -0.887056 3.70016 0
M  V30 2437 H 252.949 0.936487 3.76632 0
M  V30 2438 H 251.05 -1.50329 3.40928 0
M  V30 2439 H 251.163 -0.21693 4.78609 0
M  V30 2440 H 249.527 -0.211905 2.53817 0
M  V30 2441 H 250.31 1.3391 3.16106 0
M  V30 2442 N 252.755 -1.56801 0.158532 0
M  V30 2443 C 253.687 -2.14488 -0.807923 0
M  V30 2444 C 254.7 -1.09721 -1.20271 0
M  V30 2445 O 255.889 -1.36956 -1.14478 0
M  V30 2446 C 252.989 -2.66217 -2.09718 0
M  V30 2447 C 252.162 -3.95507 -1.86796 0
M  V30 2448 C 251.221 -4.3243 -2.99818 0
M  V30 2449 O 250.247 -5.00543 -2.71008 0
M  V30 2450 N 251.449 -3.92947 -4.27285 0
M  V30 2451 H 254.214 -2.98042 -0.314816 0
M  V30 2452 H 251.775 -1.61881 -0.0246692 0
M  V30 2453 H 253.767 -2.87924 -2.84398 0
M  V30 2454 H 252.337 -1.87324 -2.50257 0
M  V30 2455 H 251.557 -3.82309 -0.96089 0
M  V30 2456 H 252.845 -4.79972 -1.68833 0
M  V30 2457 H 252.243 -3.38087 -4.53557 0
M  V30 2458 H 250.8 -4.19681 -4.9871 0
M  V30 2459 N 254.233 0.115231 -1.57178 0
M  V30 2460 C 255.181 1.16014 -2.01602 0
M  V30 2461 C 256.175 1.42653 -0.913587 0
M  V30 2462 O 257.381 1.42571 -1.09879 0
M  V30 2463 H 253.756 0.391252 -0.642204 0
M  V30 2464 H 255.727 0.758998 -2.88586 0
M  V30 2465 C 254.476 2.47767 -2.4394 0
M  V30 2466 H 253.799 2.28108 -3.28339 0
M  V30 2467 H 255.239 3.19432 -2.78818 0
M  V30 2468 C 253.698 3.10617 -1.30455 0
M  V30 2469 O 254.228 3.96846 -0.622585 0
M  V30 2470 N 252.434 2.70553 -1.06064 0
M  V30 2471 H 251.981 2.00527 -1.61699 0
M  V30 2472 H 251.939 3.12934 -0.303284 0
M  V30 2473 N 255.711 1.52812 0.385517 0
M  V30 2474 C 256.936 1.72207 1.15583 0
M  V30 2475 C 257.361 0.441034 1.82857 0
M  V30 2476 O 256.719 -0.603465 1.70962 0
M  V30 2477 C 256.767 2.87476 2.17692 0
M  V30 2478 O 255.871 2.54693 3.24354 0
M  V30 2479 H 255.212 0.572526 0.336319 0
M  V30 2480 H 257.742 1.99618 0.448744 0
M  V30 2481 H 257.752 3.13072 2.6163 0
M  V30 2482 H 256.427 3.80408 1.68115 0
M  V30 2483 H 255.004 2.3985 2.85529 0
M  V30 2484 N 257.189 -0.644168 1.43834 0
M  V30 2485 C 258.139 -1.7501 1.46135 0
M  V30 2486 C 259.123 -1.57507 0.328685 0
M  V30 2487 O 260.315 -1.67465 0.5731 0
M  V30 2488 C 257.444 -3.13641 1.39585 0
M  V30 2489 C 256.53 -3.3666 2.57916 0
M  V30 2490 N 256.921 -3.30107 3.83227 0
M  V30 2491 C 255.219 -3.67411 2.52834 0
M  V30 2492 C 255.92 -3.53456 4.61999 0
M  V30 2493 N 254.896 -3.75705 3.9287 0
M  V30 2494 H 258.698 -1.68382 2.40883 0
M  V30 2495 H 256.212 -0.846169 1.38614 0
M  V30 2496 H 258.209 -3.92933 1.39317 0
M  V30 2497 H 256.869 -3.21444 0.45865 0
M  V30 2498 H 257.88 -3.09316 4.15384 0
M  V30 2499 H 254.557 -3.82275 1.67845 0
M  V30 2500 H 255.947 -3.54093 5.71024 0
M  V30 2501 N 258.668 -1.30515 -0.883378 0
M  V30 2502 C 259.893 -1.22487 -1.67367 0
M  V30 2503 C 260.318 0.208767 -1.86938 0
M  V30 2504 O 259.676 1.15015 -1.40148 0
M  V30 2505 C 259.724 -1.96041 -3.02655 0
M  V30 2506 O 258.828 -1.28859 -3.91751 0
M  V30 2507 H 258.169 -0.423573 -0.511353 0
M  V30 2508 H 260.699 -1.72362 -1.10239 0
M  V30 2509 H 260.709 -2.05124 -3.52687 0
M  V30 2510 H 259.384 -3.00307 -2.8773 0
M  V30 2511 H 257.961 -1.28141 -3.50192 0
M  V30 2512 N 260.146 1.09593 -1.13257 0
M  V30 2513 C 261.096 2.14345 -0.777179 0
M  V30 2514 C 262.08 1.59277 0.227966 0
M  V30 2515 O 263.272 1.76971 0.0321413 0
M  V30 2516 C 260.401 3.42439 -0.242991 0
M  V30 2517 C 259.487 4.04419 -1.27694 0
M  V30 2518 N 259.878 4.40979 -2.47732 0
M  V30 2519 C 258.176 4.31596 -1.12432 0
M  V30 2520 C 258.877 4.89784 -3.13826 0
M  V30 2521 N 257.853 4.87133 -2.41252 0
M  V30 2522 H 261.655 2.40415 -1.69049 0
M  V30 2523 H 259.169 1.26803 -1.01463 0
M  V30 2524 H 261.166 4.16889 0.0298496 0
M  V30 2525 H 259.826 3.17824 0.66467 0
M  V30 2526 H 260.837 4.32396 -2.85051 0
M  V30 2527 H 257.514 4.16595 -0.274684 0
M  V30 2528 H 258.904 5.2755 -4.16102 0
M  V30 2529 N 261.624 0.925811 1.2754 0
M  V30 2530 C 262.849 0.580924 1.99098 0
M  V30 2531 C 263.274 -0.833555 1.68622 0
M  V30 2532 O 262.632 -1.55903 0.925422 0
M  V30 2533 C 262.68 0.811186 3.51358 0
M  V30 2534 O 261.784 -0.124129 4.12213 0
M  V30 2535 H 261.125 0.223873 0.625122 0
M  V30 2536 H 263.655 1.24455 1.62395 0
M  V30 2537 H 263.665 0.72601 4.01489 0
M  V30 2538 H 262.34 1.84227 3.72872 0
M  V30 2539 H 260.917 0.0108006 3.72898 0
M  V30 2540 N 263.102 -1.41638 0.69111 0
M  V30 2541 C 264.33 -2.05628 0.22909 0
M  V30 2542 C 264.745 -1.51992 -1.11999 0
M  V30 2543 O 264.102 -0.666322 -1.69901 0
M  V30 2544 C 264.153 -3.61084 0.173283 0
M  V30 2545 O 263.874 -4.12735 1.46907 0
M  V30 2546 C 265.375 -4.42213 -0.310266 0
M  V30 2547 H 262.595 -0.662327 0.107534 0
M  V30 2548 H 265.139 -1.81489 0.942438 0
M  V30 2549 H 263.294 -3.84278 -0.490858 0
M  V30 2550 H 263.708 -5.06743 1.35322 0
M  V30 2551 H 265.182 -5.51194 -0.298196 0
M  V30 2552 H 265.659 -4.1799 -1.34838 0
M  V30 2553 H 266.265 -4.24074 0.322716 0
M  V30 2554 N 264.58 -0.43555 -1.51462 0
M  V30 2555 C 265.991 0.0279871 -1.86679 0
M  V30 2556 C 266.342 1.42104 -1.35281 0
M  V30 2557 O 265.467 2.04667 -0.702878 0
M  V30 2558 C 266.062 0.0575626 -3.38751 0
M  V30 2559 C 264.621 0.465507 -3.7351 0
M  V30 2560 C 263.768 -0.342996 -2.75171 0
M  V30 2561 H 266.719 -0.651473 -1.44712 0
M  V30 2562 H 266.74 0.867421 -3.70481 0
M  V30 2563 H 266.252 -0.956448 -3.7613 0
M  V30 2564 H 264.353 1.48519 -3.41721 0
M  V30 2565 H 264.466 0.191546 -4.78717 0
M  V30 2566 H 262.83 0.198442 -2.53926 0
M  V30 2567 H 263.613 -1.35585 -3.15391 0
M  V30 2568 N 266.058 1.56714 -0.166846 0
M  V30 2569 C 267.283 2.01557 0.488833 0
M  V30 2570 C 267.708 1.0463 1.56314 0
M  V30 2571 O 267.066 0.0251304 1.81283 0
M  V30 2572 C 267.114 3.4503 1.04818 0
M  V30 2573 O 266.218 3.51163 2.16236 0
M  V30 2574 H 265.559 0.653516 0.117526 0
M  V30 2575 H 268.089 2.02818 -0.269421 0
M  V30 2576 H 268.099 3.84243 1.37191 0
M  V30 2577 H 266.774 4.15077 0.261572 0
M  V30 2578 H 265.351 3.23807 1.84942 0
M  V30 2579 N 267.536 -0.106894 1.57237 0
M  V30 2580 C 268.761 -0.830287 1.90055 0
M  V30 2581 C 269.186 -1.72064 0.75998 0
M  V30 2582 O 268.544 -1.78982 -0.288991 0
M  V30 2583 C 268.592 -1.6295 3.21683 0
M  V30 2584 O 267.696 -2.73748 3.08441 0
M  V30 2585 H 267.037 -0.228855 0.623315 0
M  V30 2586 H 269.567 -0.085658 2.04421 0
M  V30 2587 H 269.577 -2.01621 3.54701 0
M  V30 2588 H 268.252 -0.975989 4.04286 0
M  V30 2589 H 266.829 -2.38192 2.86913 0
M  V30 2590 N 269.014 -1.53014 -0.377408 0
M  V30 2591 C 270.239 -1.72818 -1.14668 0
M  V30 2592 C 270.664 -0.450725 -1.8262 0
M  V30 2593 O 270.022 0.59439 -1.7128 0
M  V30 2594 C 270.07 -2.88627 -2.16164 0
M  V30 2595 O 269.174 -2.56409 -3.22998 0
M  V30 2596 H 268.515 -0.574301 -0.333278 0
M  V30 2597 H 271.045 -1.99853 -0.438152 0
M  V30 2598 H 271.055 -3.14455 -2.59966 0
M  V30 2599 H 269.73 -3.81294 -1.66095 0
M  V30 2600 H 268.307 -2.4136 -2.84253 0
M  V30 2601 N 270.492 0.636531 -1.44174 0
M  V30 2602 C 271.738 1.39826 -1.4689 0
M  V30 2603 C 272.071 1.93947 -0.0990585 0
M  V30 2604 O 271.346 1.73325 0.882544 0
M  V30 2605 C 271.629 2.56751 -2.5249 0
M  V30 2606 C 271.482 2.08014 -3.98811 0
M  V30 2607 C 272.801 3.58946 -2.54649 0
M  V30 2608 H 269.92 0.507075 -0.53483 0
M  V30 2609 H 272.562 0.720188 -1.75822 0
M  V30 2610 H 270.712 3.14597 -2.2795 0
M  V30 2611 H 272.384 1.5504 -4.34466 0
M  V30 2612 H 270.627 1.39242 -4.10846 0
M  V30 2613 H 271.298 2.92169 -4.68339 0
M  V30 2614 H 273.774 3.1089 -2.76563 0
M  V30 2615 H 272.65 4.38286 -3.3045 0
M  V30 2616 H 272.911 4.12655 -1.58646 0
M  V30 2617 N 271.97 1.30982 0.876444 0
M  V30 2618 C 273.386 1.09498 1.16113 0
M  V30 2619 C 273.586 -0.13875 2.01022 0
M  V30 2620 O 272.642 -0.829935 2.38471 0
M  V30 2621 C 273.955 2.36308 1.85954 0
M  V30 2622 C 275.503 2.41856 1.98683 0
M  V30 2623 C 275.978 3.6853 2.71937 0
M  V30 2624 N 277.469 3.69387 2.79477 0
M  V30 2625 C 278.204 4.64096 3.36753 0
M  V30 2626 N 277.7 5.69155 3.95012 0
M  V30 2627 N 279.493 4.51626 3.3465 0
M  V30 2628 H 271.644 2.10118 0.310494 0
M  V30 2629 H 273.907 0.926634 0.200131 0
M  V30 2630 H 273.613 3.26388 1.31011 0
M  V30 2631 H 273.487 2.4561 2.86278 0
M  V30 2632 H 275.874 1.52249 2.52793 0
M  V30 2633 H 275.955 2.36523 0.9742 0
M  V30 2634 H 275.599 4.58499 2.18496 0
M  V30 2635 H 275.529 3.71127 3.73593 0
M  V30 2636 H 278.02 2.93438 2.38123 0
M  V30 2637 H 278.333 6.3751 4.36808 0
M  V30 2638 H 276.678 5.72937 3.93406 0
M  V30 2639 H 279.869 3.68728 2.8837 0
M  V30 2640 H 280.042 5.25614 3.7899 0
M  V30 2641 N 273.449 -1.08991 1.13837 0
M  V30 2642 C 274.86 -1.62746 0.914917 0
M  V30 2643 C 275.211 -1.88403 -0.547594 0
M  V30 2644 O 274.336 -1.63706 -1.41525 0
M  V30 2645 C 274.931 -2.95662 1.65437 0
M  V30 2646 C 273.49 -3.46225 1.47666 0
M  V30 2647 C 272.637 -2.20562 1.6807 0
M  V30 2648 H 275.588 -0.922946 1.29102 0
M  V30 2649 H 275.609 -3.63825 1.11407 0
M  V30 2650 H 275.121 -2.76956 2.71877 0
M  V30 2651 H 273.222 -3.70046 0.435478 0
M  V30 2652 H 273.335 -4.23368 2.24268 0
M  V30 2653 H 271.699 -2.29439 1.10589 0
M  V30 2654 H 272.482 -2.0437 2.7584 0
M  V30 2655 N 274.927 -0.932562 -1.27047 0
M  V30 2656 C 275.875 -0.42603 -2.28665 0
M  V30 2657 C 276.869 0.49219 -1.62092 0
M  V30 2658 O 278.075 0.371355 -1.76128 0
M  V30 2659 H 274.45 -0.119213 -0.742491 0
M  V30 2660 H 276.421 -1.29579 -2.68797 0
M  V30 2661 C 275.17 0.301426 -3.46391 0
M  V30 2662 H 274.493 -0.39595 -3.97834 0
M  V30 2663 H 275.933 0.6202 -4.1944 0
M  V30 2664 C 274.392 1.51616 -3.00856 0
M  V30 2665 O 274.922 2.61476 -3.04948 0
M  V30 2666 N 273.128 1.36969 -2.56296 0
M  V30 2667 H 272.675 0.475873 -2.53166 0
M  V30 2668 H 272.633 2.18368 -2.26192 0
M  V30 2669 N 276.405 1.4127 -0.698611 0
M  V30 2670 C 277.63 2.06024 -0.238512 0
M  V30 2671 C 278.055 1.5224 1.10475 0
M  V30 2672 O 277.413 0.650623 1.69223 0
M  V30 2673 C 277.461 3.59988 -0.209952 0
M  V30 2674 O 276.565 4.04282 0.814235 0
M  V30 2675 H 275.906 0.653829 -0.115775 0
M  V30 2676 H 278.436 1.8098 -0.954326 0
M  V30 2677 H 278.446 4.07979 -0.0418436 0
M  V30 2678 H 277.121 3.98503 -1.1903 0
M  V30 2679 H 275.698 3.6779 0.615234 0
M  V30 2680 N 277.883 0.443576 1.51229 0
M  V30 2681 C 279.294 -0.0180867 1.86691 0
M  V30 2682 C 279.645 -1.41384 1.36033 0
M  V30 2683 O 278.77 -2.04291 0.713722 0
M  V30 2684 C 279.365 -0.039597 3.38777 0
M  V30 2685 C 277.924 -0.445692 3.73752 0
M  V30 2686 C 277.071 0.357584 2.74985 0
M  V30 2687 H 280.022 0.659138 1.44364 0
M  V30 2688 H 280.043 -0.847761 3.70936 0
M  V30 2689 H 279.555 0.976382 3.75617 0
M  V30 2690 H 277.656 -1.46704 3.42503 0
M  V30 2691 H 277.769 -0.166155 4.78812 0
M  V30 2692 H 276.133 -0.184973 2.54027 0
M  V30 2693 H 276.916 1.37256 3.14668 0
M  V30 2694 N 279.361 -1.56624 0.175154 0
M  V30 2695 C 280.586 -2.01813 -0.478137 0
M  V30 2696 C 281.011 -1.05457 -1.55757 0
M  V30 2697 O 280.369 -0.0347439 -1.81267 0
M  V30 2698 C 280.417 -3.45581 -1.02987 0
M  V30 2699 O 279.521 -3.52305 -2.14371 0
M  V30 2700 H 278.862 -0.65413 -0.114059 0
M  V30 2701 H 281.392 -2.02673 0.280173 0
M  V30 2702 H 281.402 -3.84965 -1.35151 0
M  V30 2703 H 280.077 -4.1521 -0.239556 0
M  V30 2704 H 278.654 -3.24783 -1.83222 0
M  V30 2705 N 280.839 0.0985539 -1.57292 0
M  V30 2706 C 282.25 0.653457 -1.74891 0
M  V30 2707 C 282.601 1.7929 -0.796838 0
M  V30 2708 O 281.726 2.16385 0.0254886 0
M  V30 2709 C 282.321 1.19216 -3.17133 0
M  V30 2710 C 280.88 1.69316 -3.36168 0
M  V30 2711 C 280.027 0.601294 -2.70702 0
M  V30 2712 H 282.978 -0.127497 -1.58187 0
M  V30 2713 H 282.999 2.06154 -3.19814 0
M  V30 2714 H 282.511 0.362635 -3.86402 0
M  V30 2715 H 280.612 2.5468 -2.71972 0
M  V30 2716 H 280.725 1.78853 -4.44464 0
M  V30 2717 H 279.089 1.0399 -2.32504 0
M  V30 2718 H 279.872 -0.217592 -3.4261 0
M  V30 2719 N 282.317 1.53212 0.369288 0
M  V30 2720 C 283.545 1.73119 1.13303 0
M  V30 2721 C 283.96 0.458455 1.83149 0
M  V30 2722 O 283.317 -0.568403 1.73423 0
M  V30 2723 C 283.368 2.89413 2.16616 0
M  V30 2724 O 283.089 4.11761 1.49614 0
M  V30 2725 C 284.59 3.21161 3.05566 0
M  V30 2726 H 281.81 0.579107 0.338934 0
M  V30 2727 H 284.354 1.99942 0.429338 0
M  V30 2728 H 282.509 2.64994 2.82589 0
M  V30 2729 H 282.923 4.76858 2.18419 0
M  V30 2730 H 284.397 4.05949 3.74045 0
M  V30 2731 H 284.874 2.36369 3.70171 0
M  V30 2732 H 285.48 3.47492 2.45213 0
M  V30 2733 N 283.795 -0.628877 1.44509 0
M  V30 2734 C 284.758 -1.72263 1.51188 0
M  V30 2735 C 285.758 -1.55907 0.39367 0
M  V30 2736 O 286.948 -1.61361 0.656377 0
M  V30 2737 C 284.08 -3.11365 1.38798 0
M  V30 2738 H 285.273 -1.67714 2.4862 0
M  V30 2739 H 282.826 -0.842737 1.31634 0
M  V30 2740 H 283.561 -3.21507 0.424693 0
M  V30 2741 H 283.346 -3.24644 2.19884 0
M  V30 2742 H 284.836 -3.91075 1.46458 0
M  V30 2743 N 285.273 -1.31445 -0.869486 0
M  V30 2744 C 286.203 -1.21727 -1.99261 0
M  V30 2745 C 287.184 -0.104359 -1.6978 0
M  V30 2746 O 288.369 -0.289038 -1.92037 0
M  V30 2747 C 285.499 -0.924317 -3.34774 0
M  V30 2748 C 284.453 -1.99685 -3.78563 0
M  V30 2749 C 283.779 -1.55658 -5.11541 0
M  V30 2750 C 285.079 -3.41003 -3.95619 0
M  V30 2751 H 286.773 -2.1569 -2.07649 0
M  V30 2752 H 284.319 -1.03839 -0.997675 0
M  V30 2753 H 286.272 -0.842934 -4.12883 0
M  V30 2754 H 284.996 0.0509793 -3.2656 0
M  V30 2755 H 283.655 -2.06813 -3.02694 0
M  V30 2756 H 283.303 -0.569132 -4.9977 0
M  V30 2757 H 283.003 -2.27409 -5.41811 0
M  V30 2758 H 284.527 -1.48928 -5.92159 0
M  V30 2759 H 285.941 -3.36547 -4.64122 0
M  V30 2760 H 284.338 -4.10975 -4.37286 0
M  V30 2761 H 285.408 -3.81754 -2.98985 0
M  V30 2762 N 286.751 1.08385 -1.14413 0
M  V30 2763 C 287.714 2.13486 -0.834048 0
M  V30 2764 C 288.714 1.59988 0.161418 0
M  V30 2765 O 289.904 1.74071 -0.0669575 0
M  V30 2766 C 287.036 3.4003 -0.243354 0
M  V30 2767 H 288.229 2.42425 -1.7655 0
M  V30 2768 H 285.782 1.24101 -0.950189 0
M  V30 2769 H 286.517 3.16726 0.696807 0
M  V30 2770 H 286.302 3.80157 -0.960367 0
M  V30 2771 H 287.792 4.17577 -0.0436242 0
M  V30 2772 N 288.23 0.939286 1.26551 0
M  V30 2773 C 289.477 0.585847 1.9384 0
M  V30 2774 C 289.805 -0.874784 1.73718 0
M  V30 2775 O 289.06 -1.64092 1.06642 0
M  V30 2776 C 289.359 0.872106 3.46596 0
M  V30 2777 C 289.025 2.31632 3.86856 0
M  V30 2778 C 287.687 2.71111 3.97558 0
M  V30 2779 C 290.039 3.25494 4.07066 0
M  V30 2780 C 287.367 4.03553 4.25866 0
M  V30 2781 C 289.719 4.57531 4.36862 0
M  V30 2782 C 288.383 4.96828 4.45778 0
M  V30 2783 H 287.653 0.214377 0.709312 0
M  V30 2784 H 290.3 1.18544 1.50398 0
M  V30 2785 H 288.605 0.18996 3.91339 0
M  V30 2786 H 290.302 0.577442 3.96821 0
M  V30 2787 H 286.892 2.00008 3.79071 0
M  V30 2788 H 291.076 2.9619 3.98227 0
M  V30 2789 H 286.332 4.33665 4.30981 0
M  V30 2790 H 290.506 5.30254 4.51446 0
M  V30 2791 H 288.133 5.99482 4.67468 0
M  V30 2792 N 289.708 -1.40897 0.706093 0
M  V30 2793 C 290.956 -2.00657 0.241054 0
M  V30 2794 C 291.277 -1.56241 -1.16678 0
M  V30 2795 O 290.547 -0.79765 -1.78926 0
M  V30 2796 H 289.127 -0.742018 0.0861308 0
M  V30 2797 H 291.789 -1.72372 0.909604 0
M  V30 2798 H 290.885 -3.10958 0.266705 0
M  V30 2799 N 291.186 -0.45159 -1.50991 0
M  V30 2800 C 292.463 0.170707 -1.94854 0
M  V30 2801 C 292.843 1.58788 -1.39103 0
M  V30 2802 O 292.191 2.20913 -0.583921 0
M  V30 2803 C 292.401 0.133929 -3.48743 0
M  V30 2804 C 293.749 0.33248 -4.23296 0
M  V30 2805 O 294.773 0.211403 -3.55572 0
M  V30 2806 O 293.632 0.57486 -5.43468 0
M  V30 2807 H 290.726 0.122264 -0.817912 0
M  V30 2808 H 293.272 -0.510594 -1.61836 0
M  V30 2809 H 292.044 -0.856283 -3.81816 0
M  V30 2810 H 291.667 0.857529 -3.88242 0
M  V30 2811 N 292.664 1.56529 -0.183458 0
M  V30 2812 C 293.614 2.1515 0.754605 0
M  V30 2813 C 294.598 1.08904 1.18443 0
M  V30 2814 O 295.79 1.34997 1.14476 0
M  V30 2815 C 292.919 2.80531 1.97881 0
M  V30 2816 C 292.005 3.93952 1.57043 0
M  V30 2817 N 292.396 4.98221 0.87231 0
M  V30 2818 C 290.694 4.05338 1.86057 0
M  V30 2819 C 291.395 5.77836 0.669377 0
M  V30 2820 N 290.371 5.29858 1.21454 0
M  V30 2821 H 294.173 2.93132 0.212387 0
M  V30 2822 H 291.687 1.62391 0.0167725 0
M  V30 2823 H 293.684 3.20914 2.6612 0
M  V30 2824 H 292.344 2.04035 2.52586 0
M  V30 2825 H 293.355 5.15191 0.529033 0
M  V30 2826 H 290.032 3.39957 2.42354 0
M  V30 2827 H 291.422 6.71799 0.116422 0
M  V30 2828 N 294.142 -0.090211 1.57342 0
M  V30 2829 C 295.553 -0.644173 1.75235 0
M  V30 2830 C 295.904 -1.78865 0.806335 0
M  V30 2831 O 295.029 -2.16395 -0.0140128 0
M  V30 2832 C 295.624 -1.17532 3.1776 0
M  V30 2833 C 294.183 -1.67531 3.37061 0
M  V30 2834 C 293.33 -0.58693 2.71017 0
M  V30 2835 H 296.281 0.135884 1.58117 0
M  V30 2836 H 296.302 -2.04455 3.20902 0
M  V30 2837 H 295.814 -0.342138 3.86589 0
M  V30 2838 H 293.915 -2.53234 2.73319 0
M  V30 2839 H 294.028 -1.76493 4.45406 0
M  V30 2840 H 292.392 -1.02756 2.33052 0
M  V30 2841 H 293.175 0.235758 3.4249 0
M  V30 2842 N 295.62 -1.53406 -0.361157 0
M  V30 2843 C 296.869 -1.69022 -1.10066 0
M  V30 2844 C 297.182 -0.450838 -1.90333 0
M  V30 2845 O 298.388 -0.487617 -2.67085 0
M  V30 2846 C 296.844 -2.98812 -2.00598 0
M  V30 2847 C 296.452 -4.30027 -1.25621 0
M  V30 2848 C 298.196 -3.23795 -2.74513 0
M  V30 2849 C 296.103 -5.50903 -2.1508 0
M  V30 2850 H 295.033 -0.629776 -0.414606 0
M  V30 2851 H 297.684 -1.79907 -0.361348 0
M  V30 2852 H 296.066 -2.8174 -2.78278 0
M  V30 2853 H 297.24 -4.57745 -0.529739 0
M  V30 2854 H 295.555 -4.11522 -0.635496 0
M  V30 2855 H 298.152 -4.11289 -3.41681 0
M  V30 2856 H 298.495 -2.40045 -3.40123 0
M  V30 2857 H 299.028 -3.41561 -2.03914 0
M  V30 2858 H 295.767 -6.37143 -1.54041 0
M  V30 2859 H 295.287 -5.27459 -2.85565 0
M  V30 2860 H 296.966 -5.85865 -2.74538 0
M  V30 2861 N 297.098 0.621204 -1.44841 0
M  V30 2862 C 298.344 1.3826 -1.48365 0
M  V30 2863 C 298.677 1.93831 -0.119624 0
M  V30 2864 O 297.952 1.74251 0.864111 0
M  V30 2865 C 298.235 2.54058 -2.55199 0
M  V30 2866 C 298.088 2.03772 -4.00995 0
M  V30 2867 C 299.407 3.56225 -2.58442 0
M  V30 2868 H 296.526 0.501374 -0.540179 0
M  V30 2869 H 299.168 0.7015 -1.76576 0
M  V30 2870 H 297.318 3.12162 -2.31274 0
M  V30 2871 H 298.99 1.50423 -4.36086 0
M  V30 2872 H 297.233 1.34876 -4.12299 0
M  V30 2873 H 297.904 2.87185 -4.71411 0
M  V30 2874 H 300.38 3.07939 -2.79844 0
M  V30 2875 H 299.256 4.34756 -3.3508 0
M  V30 2876 H 299.517 4.10949 -1.63013 0
M  V30 2877 N 298.576 1.31904 0.862503 0
M  V30 2878 C 299.508 1.16005 1.97675 0
M  V30 2879 C 300.521 0.0971234 1.6251 0
M  V30 2880 O 301.71 0.345337 1.75128 0
M  V30 2881 C 298.81 0.751791 3.30456 0
M  V30 2882 C 297.983 1.90133 3.93914 0
M  V30 2883 C 297.042 1.4779 5.05019 0
M  V30 2884 O 296.068 2.18872 5.25437 0
M  V30 2885 N 297.27 0.369491 5.79323 0
M  V30 2886 H 300.035 2.11982 2.11857 0
M  V30 2887 H 297.596 1.24337 1.03691 0
M  V30 2888 H 299.588 0.451084 4.02178 0
M  V30 2889 H 298.158 -0.116593 3.12382 0
M  V30 2890 H 297.378 2.36896 3.15078 0
M  V30 2891 H 298.666 2.67111 4.33047 0
M  V30 2892 H 298.064 -0.222299 5.65263 0
M  V30 2893 H 296.621 0.128354 6.51674 0
M  V30 2894 N 300.054 -1.07777 1.14986 0
M  V30 2895 C 301.465 -1.61766 0.932127 0
M  V30 2896 C 301.816 -1.88974 -0.527581 0
M  V30 2897 O 300.941 -1.65198 -1.39781 0
M  V30 2898 C 301.536 -2.93891 1.68563 0
M  V30 2899 C 300.095 -3.44639 1.5133 0
M  V30 2900 C 299.242 -2.18767 1.704 0
M  V30 2901 H 302.193 -0.909201 1.30074 0
M  V30 2902 H 302.214 -3.62623 1.15259 0
M  V30 2903 H 301.726 -2.74057 2.74799 0
M  V30 2904 H 299.827 -3.69564 0.474702 0
M  V30 2905 H 299.94 -4.20966 2.28746 0
M  V30 2906 H 298.304 -2.28253 1.13016 0
M  V30 2907 H 299.087 -2.01433 2.77992 0
M  V30 2908 N 301.532 -0.945985 -1.26051 0
M  V30 2909 C 302.479 -0.45809 -2.26208 0
M  V30 2910 C 303.449 0.484816 -1.58867 0
M  V30 2911 O 304.634 0.399969 -1.86561 0
M  V30 2912 C 301.774 0.266131 -3.44072 0
M  V30 2913 C 300.887 -0.713005 -4.26075 0
M  V30 2914 C 300.022 0.0329013 -5.3119 0
M  V30 2915 C 299.061 -0.93774 -6.04874 0
M  V30 2916 N 298.198 -0.223274 -7.01745 0
M  V30 2917 H 303.038 -1.3171 -2.67313 0
M  V30 2918 H 300.575 -0.66069 -1.31428 0
M  V30 2919 H 302.533 0.702514 -4.11243 0
M  V30 2920 H 301.163 1.08925 -3.03867 0
M  V30 2921 H 300.215 -1.26789 -3.58648 0
M  V30 2922 H 301.527 -1.45406 -4.77136 0
M  V30 2923 H 300.681 0.528335 -6.04395 0
M  V30 2924 H 299.42 0.806801 -4.8098 0
M  V30 2925 H 298.425 -1.44425 -5.30492 0
M  V30 2926 H 299.65 -1.71172 -6.57173 0
M  V30 2927 H 297.596 0.532046 -6.53839 0
M  V30 2928 H 297.513 -0.90357 -7.50581 0
M  V30 2929 H 298.781 0.250907 -7.79096 0
M  V30 2930 N 303.011 1.40521 -0.713556 0
M  V30 2931 C 303.943 2.29191 -0.0203126 0
M  V30 2932 C 304.956 1.45723 0.725864 0
M  V30 2933 O 306.145 1.69033 0.573581 0
M  V30 2934 C 303.245 3.2395 0.995486 0
M  V30 2935 C 302.418 4.36262 0.315256 0
M  V30 2936 C 301.477 5.11474 1.23616 0
M  V30 2937 O 300.503 5.64606 0.721719 0
M  V30 2938 N 301.705 5.20638 2.56743 0
M  V30 2939 H 304.47 2.89327 -0.781652 0
M  V30 2940 H 302.031 1.51869 -0.561022 0
M  V30 2941 H 304.023 3.71137 1.61368 0
M  V30 2942 H 302.593 2.64995 1.6582 0
M  V30 2943 H 301.813 3.91228 -0.483106 0
M  V30 2944 H 303.101 5.08558 -0.157004 0
M  V30 2945 H 302.499 4.7895 3.01037 0
M  V30 2946 H 301.056 5.71339 3.13712 0
M  V30 2947 N 304.489 0.459591 1.5075 0
M  V30 2948 C 305.419 -0.330644 2.31147 0
M  V30 2949 C 306.4 -1.00087 1.37538 0
M  V30 2950 O 307.585 -1.00025 1.66459 0
M  V30 2951 C 304.715 -1.41958 3.16962 0
M  V30 2952 C 303.669 -0.871608 4.19031 0
M  V30 2953 C 302.995 -2.05797 4.9351 0
M  V30 2954 C 304.295 0.109251 5.22186 0
M  V30 2955 H 305.989 0.340336 2.97459 0
M  V30 2956 H 303.535 0.165119 1.4305 0
M  V30 2957 H 305.488 -1.9798 3.71997 0
M  V30 2958 H 304.212 -2.11917 2.48513 0
M  V30 2959 H 302.871 -0.333442 3.6508 0
M  V30 2960 H 302.519 -2.74427 4.21544 0
M  V30 2961 H 302.219 -1.6976 5.62544 0
M  V30 2962 H 303.743 -2.62331 5.51375 0
M  V30 2963 H 305.157 -0.361405 5.7216 0
M  V30 2964 H 303.554 0.383316 5.98875 0
M  V30 2965 H 304.624 1.03887 4.73641 0
M  V30 2966 N 305.967 -1.56429 0.191757 0
M  V30 2967 C 307.192 -2.02309 -0.456706 0
M  V30 2968 C 307.617 -1.07103 -1.5463 0
M  V30 2969 O 306.975 -0.0539677 -1.8122 0
M  V30 2970 C 307.023 -3.46654 -0.993159 0
M  V30 2971 O 306.127 -3.54559 -2.10622 0
M  V30 2972 H 305.468 -0.655303 -0.107114 0
M  V30 2973 H 307.998 -2.02364 0.301653 0
M  V30 2974 H 308.008 -3.86377 -1.31061 0
M  V30 2975 H 306.683 -4.1544 -0.195504 0
M  V30 2976 H 305.26 -3.26708 -1.79767 0
M  V30 2977 N 307.445 0.0818655 -1.57387 0
M  V30 2978 C 308.692 0.782914 -1.86753 0
M  V30 2979 C 309.02 1.78082 -0.782118 0
M  V30 2980 O 308.275 1.94426 0.22295 0
M  V30 2981 C 308.574 1.53513 -3.22752 0
M  V30 2982 C 308.24 0.678134 -4.45771 0
M  V30 2983 C 306.902 0.441929 -4.79166 0
M  V30 2984 C 309.254 0.0832243 -5.21134 0
M  V30 2985 C 306.582 -0.398833 -5.85343 0
M  V30 2986 C 308.934 -0.744935 -6.28199 0
M  V30 2987 C 307.598 -0.991107 -6.60101 0
M  V30 2988 H 306.868 0.286489 -0.683378 0
M  V30 2989 H 309.515 0.0439808 -1.91449 0
M  V30 2990 H 307.82 2.34599 -3.138 0
M  V30 2991 H 309.517 2.08218 -3.42705 0
M  V30 2992 H 306.107 0.872357 -4.19628 0
M  V30 2993 H 310.291 0.252847 -4.95655 0
M  V30 2994 H 305.547 -0.598405 -6.08465 0
M  V30 2995 H 309.721 -1.21271 -6.8576 0
M  V30 2996 H 307.348 -1.64437 -7.42202 0
M  V30 2997 N 308.923 1.53595 0.353017 0
M  V30 2998 C 309.87 1.80919 1.43308 0
M  V30 2999 C 310.84 0.654288 1.5267 0
M  V30 3000 O 312.025 0.897759 1.6836 0
M  V30 3001 C 309.165 2.01605 2.80089 0
M  V30 3002 C 308.278 3.29321 2.79593 0
M  V30 3003 C 307.413 3.40125 4.0803 0
M  V30 3004 C 306.452 4.61826 4.01725 0
M  V30 3005 N 305.589 4.69716 5.21834 0
M  V30 3006 H 310.429 2.73074 1.19308 0
M  V30 3007 H 307.966 1.35263 0.578131 0
M  V30 3008 H 309.924 2.11586 3.59565 0
M  V30 3009 H 308.554 1.12772 3.0246 0
M  V30 3010 H 307.606 3.28229 1.92276 0
M  V30 3011 H 308.918 4.18884 2.70809 0
M  V30 3012 H 308.072 3.49488 4.95927 0
M  V30 3013 H 306.811 2.48601 4.19582 0
M  V30 3014 H 305.816 4.52552 3.12213 0
M  V30 3015 H 307.041 5.54705 3.91764 0
M  V30 3016 H 304.987 3.81097 5.33948 0
M  V30 3017 H 304.904 5.53202 5.1527 0
M  V30 3018 H 306.172 4.83376 6.11529 0
M  V30 3019 N 310.401 -0.613514 1.45168 0
M  V30 3020 C 311.65 -1.36874 1.4815 0
M  V30 3021 C 311.963 -1.952 0.124982 0
M  V30 3022 O 313.169 -2.71481 0.0324176 0
M  V30 3023 C 311.625 -2.47905 2.60904 0
M  V30 3024 C 311.233 -1.96016 4.02842 0
M  V30 3025 C 312.977 -3.24965 2.73126 0
M  V30 3026 C 310.884 -3.04494 5.06988 0
M  V30 3027 H 309.814 -0.514428 0.551253 0
M  V30 3028 H 312.465 -0.658182 1.7129 0
M  V30 3029 H 310.847 -3.21618 2.31037 0
M  V30 3030 H 312.021 -1.29051 4.4236 0
M  V30 3031 H 310.336 -1.31719 3.95018 0
M  V30 3032 H 312.933 -4.05865 3.48106 0
M  V30 3033 H 313.276 -3.75588 1.79553 0
M  V30 3034 H 313.809 -2.5835 3.0249 0
M  V30 3035 H 310.548 -2.58795 6.0225 0
M  V30 3036 H 310.068 -3.70044 4.72046 0
M  V30 3037 H 311.747 -3.68976 5.31475 0
M  V30 3038 N 311.879 -1.3236 -0.855495 0
M  V30 3039 C 313.128 -1.22226 -1.60448 0
M  V30 3040 C 313.441 0.214733 -1.94418 0
M  V30 3041 O 314.647 0.437917 -2.67945 0
M  V30 3042 C 313.103 -2.14063 -2.89318 0
M  V30 3043 C 312.711 -3.62839 -2.62777 0
M  V30 3044 C 314.455 -2.12764 -3.67331 0
M  V30 3045 C 312.362 -4.4664 -3.87643 0
M  V30 3046 H 311.292 -0.453904 -0.602069 0
M  V30 3047 H 313.943 -1.57314 -0.944698 0
M  V30 3048 H 312.325 -1.71889 -3.5675 0
M  V30 3049 H 313.499 -4.1335 -2.03662 0
M  V30 3050 H 311.814 -3.66261 -1.98096 0
M  V30 3051 H 314.411 -2.72611 -4.59987 0
M  V30 3052 H 314.754 -1.11841 -4.00995 0
M  V30 3053 H 315.287 -2.53214 -3.06802 0
M  V30 3054 H 312.026 -5.48373 -3.5912 0
M  V30 3055 H 311.546 -4.0088 -4.46156 0
M  V30 3056 H 313.225 -4.59597 -4.55389 0
M  V30 3057 N 313.357 1.07166 -1.15556 0
M  V30 3058 C 314.289 2.14341 -0.811815 0
M  V30 3059 C 315.302 1.61835 0.177015 0
M  V30 3060 O 316.491 1.78439 -0.0464996 0
M  V30 3061 C 313.591 3.38387 -0.186481 0
M  V30 3062 C 312.764 4.20238 -1.21321 0
M  V30 3063 C 311.823 5.2266 -0.609302 0
M  V30 3064 O 310.849 5.54719 -1.27576 0
M  V30 3065 N 312.051 5.77306 0.608099 0
M  V30 3066 H 314.816 2.44431 -1.73417 0
M  V30 3067 H 312.377 1.23089 -1.0517 0
M  V30 3068 H 314.369 4.04044 0.230339 0
M  V30 3069 H 312.939 3.05994 0.639249 0
M  V30 3070 H 312.159 3.50369 -1.80652 0
M  V30 3071 H 313.447 4.71736 -1.90638 0
M  V30 3072 H 312.845 5.53513 1.1679 0
M  V30 3073 H 311.402 6.44583 0.96725 0
M  V30 3074 N 314.835 0.952656 1.25548 0
M  V30 3075 C 316.063 0.623496 1.97282 0
M  V30 3076 C 316.478 -0.803987 1.70826 0
M  V30 3077 O 315.835 -1.53755 0.983147 0
M  V30 3078 C 315.886 0.870209 3.5087 0
M  V30 3079 O 315.607 2.24156 3.76412 0
M  V30 3080 C 317.108 0.553164 4.39835 0
M  V30 3081 H 314.328 0.233931 0.628902 0
M  V30 3082 H 316.872 1.27649 1.59768 0
M  V30 3083 H 315.027 0.263652 3.86502 0
M  V30 3084 H 315.441 2.31021 4.70882 0
M  V30 3085 H 316.915 0.776342 5.46513 0
M  V30 3086 H 317.392 -0.512215 4.36203 0
M  V30 3087 H 317.998 1.13896 4.09766 0
M  V30 3088 N 316.313 -1.40141 0.720998 0
M  V30 3089 C 317.59 -1.94677 0.189757 0
M  V30 3090 C 317.97 -1.65879 -1.30566 0
M  V30 3091 O 317.318 -0.979391 -2.06447 0
M  V30 3092 C 317.528 -3.45279 0.508304 0
M  V30 3093 C 318.876 -4.22209 0.449934 0
M  V30 3094 O 319.9 -3.53413 0.444677 0
M  V30 3095 O 318.759 -5.44788 0.432189 0
M  V30 3096 H 315.853 -0.826459 0.0299026 0
M  V30 3097 H 318.399 -1.49719 0.7989 0
M  V30 3098 H 317.171 -3.59619 1.54239 0
M  V30 3099 H 316.794 -3.97386 -0.130525 0
M  V30 3100 N 317.792 -0.46758 -1.50504 0
M  V30 3101 C 318.722 0.318381 -2.31319 0
M  V30 3102 C 319.703 0.993564 -1.38066 0
M  V30 3103 O 320.888 0.991411 -1.66987 0
M  V30 3104 C 318.018 1.40275 -3.17711 0
M  V30 3105 C 316.972 0.849373 -4.19487 0
M  V30 3106 C 316.298 2.03177 -4.94594 0
M  V30 3107 C 317.598 -0.136942 -5.2212 0
M  V30 3108 H 319.292 -0.356106 -2.97275 0
M  V30 3109 H 316.838 -0.172703 -1.42961 0
M  V30 3110 H 318.791 1.96004 -3.73042 0
M  V30 3111 H 317.515 2.10596 -2.49634 0
M  V30 3112 H 316.174 0.314076 -3.65252 0
M  V30 3113 H 315.822 2.72187 -4.22993 0
M  V30 3114 H 315.522 1.66774 -5.63436 0
M  V30 3115 H 317.046 2.59403 -5.52759 0
M  V30 3116 H 318.46 0.331056 -5.72343 0
M  V30 3117 H 316.857 -0.41507 -5.98663 0
M  V30 3118 H 317.927 -1.06398 -4.73083 0
M  V30 3119 N 319.27 1.56325 -0.20005 0
M  V30 3120 C 320.498 2.02105 0.442874 0
M  V30 3121 C 320.913 1.08014 1.5485 0
M  V30 3122 O 320.27 0.0858797 1.82298 0
M  V30 3123 C 320.321 3.47549 0.994583 0
M  V30 3124 O 320.042 4.38049 -0.0669322 0
M  V30 3125 C 321.543 4.0887 1.7129 0
M  V30 3126 H 318.763 0.661807 0.110691 0
M  V30 3127 H 321.307 2.02134 -0.310207 0
M  V30 3128 H 319.462 3.48204 1.69803 0
M  V30 3129 H 319.876 5.23368 0.344462 0
M  V30 3130 H 321.35 5.12475 2.05118 0
M  V30 3131 H 321.827 3.52615 2.61838 0
M  V30 3132 H 322.433 4.12002 1.05518 0
M  V30 3133 N 320.748 -0.0735177 1.57428 0
M  V30 3134 C 321.681 -1.11932 1.98863 0
M  V30 3135 C 322.659 -1.37666 0.865266 0
M  V30 3136 O 323.843 -1.51068 1.12742 0
M  V30 3137 C 320.97 -2.46403 2.32386 0
M  V30 3138 C 320.016 -2.36815 3.54713 0
M  V30 3139 S 320.849 -1.76392 5.05614 0
M  V30 3140 C 322.005 -3.12444 5.42337 0
M  V30 3141 H 322.238 -0.766212 2.87257 0
M  V30 3142 H 319.771 -0.281987 1.51803 0
M  V30 3143 H 321.729 -3.23755 2.52375 0
M  V30 3144 H 320.39 -2.78876 1.44524 0
M  V30 3145 H 319.583 -3.35977 3.7568 0
M  V30 3146 H 319.185 -1.67598 3.34345 0
M  V30 3147 H 321.477 -4.08753 5.40303 0
M  V30 3148 H 322.42 -2.96258 6.43146 0
M  V30 3149 H 322.828 -3.1297 4.69798 0
M  V30 3150 N 322.226 -1.5378 -0.344866 0
M  V30 3151 C 323.156 -1.84662 -1.42906 0
M  V30 3152 C 324.137 -0.701648 -1.54955 0
M  V30 3153 O 325.322 -0.953438 -1.69184 0
M  V30 3154 C 322.452 -2.05503 -2.79974 0
M  V30 3155 C 321.406 -3.21318 -2.82734 0
M  V30 3156 C 320.732 -3.2749 -4.22675 0
M  V30 3157 C 322.032 -4.59456 -2.48389 0
M  V30 3158 H 323.726 -2.75461 -1.17311 0
M  V30 3159 H 321.272 -1.32542 -0.562896 0
M  V30 3160 H 323.225 -2.25691 -3.55867 0
M  V30 3161 H 321.949 -1.11434 -3.07002 0
M  V30 3162 H 320.608 -3.00984 -2.09294 0
M  V30 3163 H 320.256 -2.31019 -4.4681 0
M  V30 3164 H 319.956 -4.05316 -4.25433 0
M  V30 3165 H 321.48 -3.49887 -5.00412 0
M  V30 3166 H 322.894 -4.79667 -3.13995 0
M  V30 3167 H 321.291 -5.39675 -2.62432 0
M  V30 3168 H 322.361 -4.63155 -1.4358 0
M  V30 3169 N 323.704 0.605807 -1.45491 0
M  V30 3170 C 324.651 1.7164 -1.54299 0
M  V30 3171 C 325.621 1.61486 -0.388761 0
M  V30 3172 O 326.806 1.81039 -0.602445 0
M  V30 3173 C 323.946 3.09953 -1.51734 0
M  V30 3174 C 323.059 3.309 -2.77721 0
M  V30 3175 C 322.194 4.59329 -2.66816 0
M  V30 3176 C 321.233 4.7354 -3.87848 0
M  V30 3177 N 320.37 5.9327 -3.75467 0
M  V30 3178 H 325.21 1.63449 -2.49176 0
M  V30 3179 H 322.747 0.796957 -1.23641 0
M  V30 3180 H 324.705 3.89977 -1.48235 0
M  V30 3181 H 323.335 3.17098 -0.604068 0
M  V30 3182 H 322.387 2.44639 -2.913 0
M  V30 3183 H 323.699 3.37274 -3.67488 0
M  V30 3184 H 322.853 5.4755 -2.61292 0
M  V30 3185 H 321.592 4.55355 -1.74651 0
M  V30 3186 H 320.597 3.83741 -3.93729 0
M  V30 3187 H 321.822 4.79309 -4.81082 0
M  V30 3188 H 319.768 5.90338 -2.86072 0
M  V30 3189 H 319.685 6.00811 -4.5887 0
M  V30 3190 H 320.953 6.83984 -3.73879 0
M  V30 3191 N 325.182 1.32811 0.848464 0
M  V30 3192 C 326.112 1.24882 1.97299 0
M  V30 3193 C 327.093 0.131357 1.69592 0
M  V30 3194 O 328.278 0.319553 1.91553 0
M  V30 3195 C 325.408 0.97746 3.33261 0
M  V30 3196 C 324.362 2.05682 3.75338 0
M  V30 3197 C 323.688 1.63777 5.09 0
M  V30 3198 C 324.988 3.47254 3.90144 0
M  V30 3199 H 326.682 2.18966 2.04191 0
M  V30 3200 H 324.228 1.05413 0.981029 0
M  V30 3201 H 326.181 0.908513 4.1149 0
M  V30 3202 H 324.905 0.000980011 3.266 0
M  V30 3203 H 323.564 2.11603 2.99366 0
M  V30 3204 H 323.212 0.648569 4.98801 0
M  V30 3205 H 322.912 2.36 5.38124 0
M  V30 3206 H 324.436 1.5833 5.89715 0
M  V30 3207 H 325.85 3.43888 4.58709 0
M  V30 3208 H 324.247 4.1788 4.30693 0
M  V30 3209 H 325.317 3.86462 2.92874 0
M  V30 3210 N 326.66 -1.06551 1.16123 0
M  V30 3211 C 327.623 -2.12132 0.867906 0
M  V30 3212 C 328.623 -1.60224 -0.135944 0
M  V30 3213 O 329.813 -1.73943 0.0946422 0
M  V30 3214 C 326.945 -3.396 0.297419 0
M  V30 3215 H 328.138 -2.39586 1.80385 0
M  V30 3216 H 325.691 -1.22574 0.969812 0
M  V30 3217 H 326.426 -3.17794 -0.64633 0
M  V30 3218 H 326.211 -3.78581 1.02073 0
M  V30 3219 H 327.701 -4.17455 0.110052 0
M  V30 3220 N 328.138 -0.959301 -1.25041 0
M  V30 3221 C 329.101 -0.487677 -2.23952 0
M  V30 3222 C 330.101 0.41119 -1.55454 0
M  V30 3223 O 331.291 0.207825 -1.72956 0
M  V30 3224 C 328.423 0.294807 -3.39623 0
M  V30 3225 H 329.616 -1.36198 -2.67189 0
M  V30 3226 H 327.169 -0.743042 -1.37508 0
M  V30 3227 H 327.904 1.18658 -3.01813 0
M  V30 3228 H 327.689 -0.35012 -3.90534 0
M  V30 3229 H 329.179 0.614089 -4.1306 0
M  V30 3230 N 329.616 1.39756 -0.72842 0
M  V30 3231 C 330.546 2.33289 -0.0991354 0
M  V30 3232 C 331.527 1.53568 0.731489 0
M  V30 3233 O 332.712 1.81987 0.677807 0
M  V30 3234 C 329.842 3.3763 0.813834 0
M  V30 3235 C 328.796 4.2791 0.0878663 0
M  V30 3236 C 328.122 5.22894 1.11741 0
M  V30 3237 C 329.422 5.11314 -1.06563 0
M  V30 3238 H 331.116 2.86163 -0.880408 0
M  V30 3239 H 328.662 1.37591 -0.424819 0
M  V30 3240 H 330.615 4.0201 1.26355 0
M  V30 3241 H 329.339 2.83181 1.62715 0
M  V30 3242 H 327.998 3.65 -0.342159 0
M  V30 3243 H 327.646 4.64744 1.92412 0
M  V30 3244 H 327.346 5.84143 0.636477 0
M  V30 3245 H 328.87 5.90151 1.56697 0
M  V30 3246 H 330.284 5.69076 -0.694671 0
M  V30 3247 H 328.681 5.81671 -1.47577 0
M  V30 3248 H 329.751 4.46534 -1.89038 0
M  V30 3249 N 331.094 0.475555 1.50254 0
M  V30 3250 C 332.004 -0.321501 2.32387 0
M  V30 3251 C 333.02 -0.991755 1.42969 0
M  V30 3252 O 334.196 -0.978747 1.76018 0
M  V30 3253 C 331.261 -1.38667 3.17762 0
M  V30 3254 C 330.322 -0.732538 4.23004 0
M  V30 3255 C 329.555 -1.74695 5.04299 0
M  V30 3256 O 329.778 -2.97399 4.86734 0
M  V30 3257 O 328.712 -1.31631 5.8733 0
M  V30 3258 H 332.538 0.350071 3.01676 0
M  V30 3259 H 330.123 0.237321 1.47503 0
M  V30 3260 H 332.005 -2.00354 3.70724 0
M  V30 3261 H 330.68 -2.04163 2.51196 0
M  V30 3262 H 329.587 -0.0765902 3.74022 0
M  V30 3263 H 330.92 -0.120452 4.92053 0
M  V30 3264 N 332.573 -1.56217 0.208337 0
M  V30 3265 C 333.798 -2.02782 -0.435222 0
M  V30 3266 C 334.223 -1.08738 -1.53485 0
M  V30 3267 O 333.581 -0.0731855 -1.81152 0
M  V30 3268 C 333.629 -3.47687 -0.956335 0
M  V30 3269 O 332.733 -3.56773 -2.06849 0
M  V30 3270 H 332.074 -0.656403 -0.100158 0
M  V30 3271 H 334.604 -2.02033 0.3231 0
M  V30 3272 H 334.614 -3.87745 -1.26955 0
M  V30 3273 H 333.289 -4.15624 -0.15143 0
M  V30 3274 H 331.866 -3.28597 -1.76292 0
M  V30 3275 N 334.051 0.0651679 -1.57465 0
M  V30 3276 C 334.999 1.09542 -2.05191 0
M  V30 3277 C 335.993 1.39675 -0.958509 0
M  V30 3278 O 337.199 1.39003 -1.14359 0
M  V30 3279 H 333.574 0.370623 -0.654326 0
M  V30 3280 H 335.545 0.666802 -2.90854 0
M  V30 3281 C 334.294 2.39881 -2.51699 0
M  V30 3282 H 333.617 2.17547 -3.3543 0
M  V30 3283 H 335.057 3.104 -2.88839 0
M  V30 3284 C 333.516 3.0631 -1.40271 0
M  V30 3285 O 334.046 3.94664 -0.748523 0
M  V30 3286 N 332.252 2.67041 -1.14618 0
M  V30 3287 H 331.799 1.95281 -1.67997 0
M  V30 3288 H 331.757 3.1181 -0.402688 0
M  V30 3289 N 335.529 1.53961 0.336706 0
M  V30 3290 C 336.476 1.82428 1.41381 0
M  V30 3291 C 337.446 0.670444 1.51968 0
M  V30 3292 O 338.631 0.915565 1.67398 0
M  V30 3293 C 335.771 2.04564 2.77934 0
M  V30 3294 C 334.884 3.32267 2.76084 0
M  V30 3295 C 334.019 3.44434 4.04399 0
M  V30 3296 C 333.058 4.66061 3.96804 0
M  V30 3297 N 332.195 4.75224 5.16823 0
M  V30 3298 H 337.035 2.74324 1.16405 0
M  V30 3299 H 334.572 1.35869 0.563752 0
M  V30 3300 H 336.53 2.15388 3.57301 0
M  V30 3301 H 335.16 1.15974 3.01247 0
M  V30 3302 H 334.212 3.3025 1.88784 0
M  V30 3303 H 335.524 4.21733 2.66351 0
M  V30 3304 H 334.678 3.54728 4.92192 0
M  V30 3305 H 333.417 2.53037 4.16921 0
M  V30 3306 H 332.422 4.55838 3.07396 0
M  V30 3307 H 333.647 5.58829 3.85858 0
M  V30 3308 H 331.593 3.86739 5.29876 0
M  V30 3309 H 331.51 5.58636 5.09374 0
M  V30 3310 H 332.778 4.89835 6.06367 0
M  V30 3311 N 337.007 -0.598083 1.45811 0
M  V30 3312 C 338.256 -1.35295 1.49594 0
M  V30 3313 C 338.569 -1.95057 0.145679 0
M  V30 3314 O 339.775 -2.71431 0.0612099 0
M  V30 3315 C 338.231 -2.45124 2.63519 0
M  V30 3316 C 337.839 -1.91732 4.04899 0
M  V30 3317 C 339.583 -3.2205 2.76558 0
M  V30 3318 C 337.49 -2.991 5.1019 0
M  V30 3319 H 336.42 -0.508552 0.556679 0
M  V30 3320 H 339.071 -0.639977 1.71978 0
M  V30 3321 H 337.453 -3.19149 2.34435 0
M  V30 3322 H 338.627 -1.24352 4.43704 0
M  V30 3323 H 336.942 -1.27522 3.96393 0
M  V30 3324 H 339.539 -4.0215 3.52391 0
M  V30 3325 H 339.882 -3.73663 1.83526 0
M  V30 3326 H 340.415 -2.55127 3.05213 0
M  V30 3327 H 337.154 -2.52393 6.04961 0
M  V30 3328 H 336.674 -3.65017 4.75944 0
M  V30 3329 H 338.353 -3.63318 5.35359 0
M  V30 3330 N 338.485 -1.33259 -0.841409 0
M  V30 3331 C 339.417 -1.19136 -1.95804 0
M  V30 3332 C 340.43 -0.122965 -1.62335 0
M  V30 3333 O 341.619 -0.373154 -1.74556 0
M  V30 3334 C 338.719 -0.804268 -3.29218 0
M  V30 3335 C 337.892 -1.96376 -3.90839 0
M  V30 3336 C 336.951 -1.55806 -5.02604 0
M  V30 3337 O 335.977 -2.27203 -5.21888 0
M  V30 3338 N 337.179 -0.461609 -5.78662 0
M  V30 3339 H 339.944 -2.15326 -2.08458 0
M  V30 3340 H 337.505 -1.25971 -1.017 0
M  V30 3341 H 339.497 -0.51501 -4.0141 0
M  V30 3342 H 338.067 0.0668809 -3.12528 0
M  V30 3343 H 337.287 -2.41879 -3.11269 0
M  V30 3344 H 338.575 -2.73966 -4.28742 0
M  V30 3345 H 337.973 0.132343 -5.65545 0
M  V30 3346 H 336.53 -0.232013 -6.51387 0
M  V30 3347 N 339.963 1.05934 -1.16686 0
M  V30 3348 C 341.24 1.75643 -0.860747 0
M  V30 3349 C 341.62 2.01144 0.640641 0
M  V30 3350 O 340.968 1.64147 1.58959 0
M  V30 3351 C 341.178 3.05493 -1.68745 0
M  V30 3352 C 342.526 3.79581 -1.90271 0
M  V30 3353 O 343.55 3.15344 -1.65641 0
M  V30 3354 O 342.409 4.9499 -2.31618 0
M  V30 3355 H 339.503 0.763426 -0.317977 0
M  V30 3356 H 342.049 1.1217 -1.27342 0
M  V30 3357 H 340.821 2.8264 -2.70611 0
M  V30 3358 H 340.444 3.76702 -1.27206 0
M  V30 3359 N 341.441 0.965919 1.2453 0
M  V30 3360 C 342.371 0.513476 2.27784 0
M  V30 3361 C 343.352 -0.445974 1.6415 0
M  V30 3362 O 344.537 -0.342485 1.91156 0
M  V30 3363 C 341.667 -0.198839 3.4673 0
M  V30 3364 C 340.621 0.676456 4.2262 0
M  V30 3365 C 339.947 -0.167248 5.34438 0
M  V30 3366 C 341.247 1.96017 4.84123 0
M  V30 3367 H 342.941 1.3765 2.65881 0
M  V30 3368 H 340.487 0.663321 1.27813 0
M  V30 3369 H 342.44 -0.526567 4.18097 0
M  V30 3370 H 341.164 -1.0962 3.07654 0
M  V30 3371 H 339.823 0.98743 3.53052 0
M  V30 3372 H 339.471 -1.0647 4.91603 0
M  V30 3373 H 339.171 0.415181 5.86131 0
M  V30 3374 H 340.695 -0.489688 6.08633 0
M  V30 3375 H 342.109 1.69814 5.47573 0
M  V30 3376 H 340.506 2.48918 5.4604 0
M  V30 3377 H 341.576 2.65622 4.05676 0
M  V30 3378 N 342.919 -1.39368 0.735821 0
M  V30 3379 C 343.829 -2.34395 0.0979693 0
M  V30 3380 C 344.845 -1.58361 -0.720968 0
M  V30 3381 O 346.021 -1.90648 -0.649245 0
M  V30 3382 C 343.086 -3.37393 -0.797916 0
M  V30 3383 C 342.147 -4.29287 0.0333662 0
M  V30 3384 C 341.38 -5.27365 -0.819854 0
M  V30 3385 O 341.603 -5.31959 -2.05855 0
M  V30 3386 O 340.537 -6.01389 -0.248079 0
M  V30 3387 H 344.363 -2.90601 0.882315 0
M  V30 3388 H 341.948 -1.40909 0.4965 0
M  V30 3389 H 343.83 -4.00505 -1.31048 0
M  V30 3390 H 342.505 -2.83571 -1.56106 0
M  V30 3391 H 341.412 -3.69395 0.591475 0
M  V30 3392 H 342.745 -4.86317 0.758752 0
M  V30 3393 N 344.397 -0.483516 -1.5 0
M  V30 3394 C 345.344 0.304164 -2.28787 0
M  V30 3395 C 346.314 0.976114 -1.34392 0
M  V30 3396 O 347.499 0.986156 -1.63339 0
M  V30 3397 C 344.639 1.37298 -3.16612 0
M  V30 3398 C 343.752 0.714561 -4.26049 0
M  V30 3399 C 342.887 1.76232 -5.01114 0
M  V30 3400 C 341.926 1.08483 -6.0241 0
M  V30 3401 N 341.063 2.076 -6.70706 0
M  V30 3402 H 345.903 -0.373981 -2.95644 0
M  V30 3403 H 343.44 -0.196275 -1.45785 0
M  V30 3404 H 345.398 2.00445 -3.65893 0
M  V30 3405 H 344.028 2.02012 -2.51776 0
M  V30 3406 H 343.08 -0.0297798 -3.80388 0
M  V30 3407 H 344.392 0.180383 -4.98474 0
M  V30 3408 H 343.546 2.46929 -5.54176 0
M  V30 3409 H 342.285 2.33033 -4.28424 0
M  V30 3410 H 341.29 0.363545 -5.48597 0
M  V30 3411 H 342.515 0.523551 -6.77079 0
M  V30 3412 H 340.461 2.63394 -6.00799 0
M  V30 3413 H 340.378 1.59201 -7.39047 0
M  V30 3414 H 341.646 2.77639 -7.2838 0
M  V30 3415 N 345.875 1.56104 -0.216619 0
M  V30 3416 C 346.822 2.2007 0.695531 0
M  V30 3417 C 347.792 1.15471 1.19397 0
M  V30 3418 O 348.977 1.43807 1.25396 0
M  V30 3419 C 346.117 2.88073 1.90021 0
M  V30 3420 C 345.23 4.07253 1.44113 0
M  V30 3421 C 344.365 4.63052 2.603 0
M  V30 3422 C 343.404 5.74545 2.11103 0
M  V30 3423 N 342.541 6.24656 3.20545 0
M  V30 3424 H 347.381 2.97655 0.143327 0
M  V30 3425 H 344.918 1.46982 0.0589934 0
M  V30 3426 H 346.876 3.25681 2.60745 0
M  V30 3427 H 345.506 2.13015 2.42538 0
M  V30 3428 H 344.558 3.75164 0.628999 0
M  V30 3429 H 345.87 4.8783 1.04036 0
M  V30 3430 H 345.024 5.03078 3.39113 0
M  V30 3431 H 343.763 3.81628 3.03663 0
M  V30 3432 H 342.768 5.34027 1.3075 0
M  V30 3433 H 343.993 6.57801 1.68746 0
M  V30 3434 H 341.939 5.46148 3.63399 0
M  V30 3435 H 341.856 7.00343 2.84704 0
M  V30 3436 H 343.124 6.69338 3.99508 0
M  V30 3437 N 347.353 -0.0568162 1.57498 0
M  V30 3438 C 348.263 -1.08346 2.08083 0
M  V30 3439 C 349.279 -1.41439 1.01346 0
M  V30 3440 O 350.455 -1.51316 1.32912 0
M  V30 3441 C 347.52 -2.37352 2.52715 0
M  V30 3442 C 346.581 -2.11093 3.73816 0
M  V30 3443 C 345.814 -3.33949 4.1631 0
M  V30 3444 O 346.037 -4.43622 3.58547 0
M  V30 3445 O 344.971 -3.21279 5.08983 0
M  V30 3446 H 348.797 -0.683667 2.95905 0
M  V30 3447 H 346.382 -0.271965 1.46904 0
M  V30 3448 H 348.264 -3.13246 2.81877 0
M  V30 3449 H 346.939 -2.76681 1.68016 0
M  V30 3450 H 345.846 -1.32856 3.49714 0
M  V30 3451 H 347.179 -1.76637 4.59413 0
M  V30 3452 N 348.832 -1.54138 -0.328536 0
M  V30 3453 C 350.08 -1.71765 -1.06496 0
M  V30 3454 C 350.401 -0.49149 -1.88704 0
M  V30 3455 O 349.671 0.494539 -1.89555 0
M  V30 3456 H 348.251 -0.633295 -0.396164 0
M  V30 3457 H 350.913 -1.91429 -0.366176 0
M  V30 3458 H 350.009 -2.5951 -1.73381 0
M  V30 3459 N 350.31 0.590341 -1.46126 0
M  V30 3460 C 351.726 0.912917 -1.30912 0
M  V30 3461 C 351.926 1.99616 -0.274893 0
M  V30 3462 O 350.982 2.50397 0.325197 0
M  V30 3463 C 352.295 1.3375 -2.69317 0
M  V30 3464 C 353.843 1.45077 -2.77348 0
M  V30 3465 C 354.318 1.90904 -4.16317 0
M  V30 3466 N 355.809 1.9811 -4.18696 0
M  V30 3467 C 356.544 2.34828 -5.23109 0
M  V30 3468 N 356.04 2.70393 -6.37856 0
M  V30 3469 N 357.833 2.35317 -5.10473 0
M  V30 3470 H 349.984 -0.125358 -2.1203 0
M  V30 3471 H 352.247 0.00658481 -0.947977 0
M  V30 3472 H 351.953 0.615614 -3.4627 0
M  V30 3473 H 351.827 2.30058 -2.9892 0
M  V30 3474 H 354.214 2.16353 -2.00687 0
M  V30 3475 H 354.295 0.4704 -2.51438 0
M  V30 3476 H 353.939 1.20209 -4.9347 0
M  V30 3477 H 353.869 2.89886 -4.39629 0
M  V30 3478 H 356.36 1.73146 -3.359 0
M  V30 3479 H 356.673 2.97341 -7.13308 0
M  V30 3480 H 355.018 2.68048 -6.41229 0
M  V30 3481 H 358.209 2.0695 -4.19868 0
M  V30 3482 H 358.382 2.63605 -5.9196 0
M  V30 3483 N 351.788 1.33704 0.83433 0
M  V30 3484 C 353.037 1.24763 1.58484 0
M  V30 3485 C 353.35 -0.183775 1.94735 0
M  V30 3486 O 354.556 -0.395234 2.68608 0
M  V30 3487 C 353.012 2.18638 2.85876 0
M  V30 3488 C 352.62 3.66974 2.56971 0
M  V30 3489 C 354.364 2.18581 3.63899 0
M  V30 3490 C 352.271 4.5275 3.80488 0
M  V30 3491 H 351.201 0.463425 0.594772 0
M  V30 3492 H 353.852 1.58797 0.919551 0
M  V30 3493 H 352.234 1.77542 3.5397 0
M  V30 3494 H 353.408 4.16538 1.9706 0
M  V30 3495 H 351.723 3.69366 1.92244 0
M  V30 3496 H 354.32 2.79894 4.55591 0
M  V30 3497 H 354.663 1.18207 3.99165 0
M  V30 3498 H 355.196 2.58062 3.02735 0
M  V30 3499 H 351.935 5.54017 3.5035 0
M  V30 3500 H 351.455 4.07927 4.39722 0
M  V30 3501 H 353.134 4.66784 4.4802 0
M  V30 3502 N 353.266 -1.05314 1.17247 0
M  V30 3503 C 354.543 -1.75184 0.87005 0
M  V30 3504 C 354.923 -2.01481 -0.629965 0
M  V30 3505 O 354.271 -1.64988 -1.58086 0
M  V30 3506 C 354.481 -3.04594 1.70363 0
M  V30 3507 C 355.829 -3.78567 1.92281 0
M  V30 3508 O 356.853 -3.14461 1.67311 0
M  V30 3509 O 355.712 -4.93755 2.3424 0
M  V30 3510 H 352.806 -0.761729 0.322021 0
M  V30 3511 H 355.352 -1.11493 1.27935 0
M  V30 3512 H 354.124 -2.81201 2.72106 0
M  V30 3513 H 353.747 -3.76022 1.29202 0
M  V30 3514 N 354.744 -0.972509 -1.24016 0
M  V30 3515 C 356.021 -0.553733 -1.87598 0
M  V30 3516 C 356.401 0.969158 -1.87538 0
M  V30 3517 O 355.749 1.84255 -1.35139 0
M  V30 3518 C 355.959 -1.15076 -3.29482 0
M  V30 3519 C 357.307 -1.23862 -4.06132 0
M  V30 3520 O 358.331 -1.10363 -3.38672 0
M  V30 3521 O 357.19 -1.45252 -5.26844 0
M  V30 3522 H 354.284 -0.185331 -0.805966 0
M  V30 3523 H 356.83 -1.06709 -1.31952 0
M  V30 3524 H 355.602 -2.19333 -3.2405 0
M  V30 3525 H 355.225 -0.621746 -3.92709 0
M  V30 3526 N 356.222 1.38976 -0.743202 0
M  V30 3527 C 357.152 2.33171 -0.123873 0
M  V30 3528 C 358.133 1.54336 0.71516 0
M  V30 3529 O 359.318 1.82696 0.658467 0
M  V30 3530 C 356.448 3.38474 0.777978 0
M  V30 3531 C 355.402 4.27979 0.0424758 0
M  V30 3532 C 354.728 5.2405 1.06189 0
M  V30 3533 C 356.028 5.10155 -1.1198 0
M  V30 3534 H 357.722 2.85213 -0.910709 0
M  V30 3535 H 355.268 1.37133 -0.439388 0
M  V30 3536 H 357.221 4.03328 1.22084 0
M  V30 3537 H 355.945 2.84891 1.59702 0
M  V30 3538 H 354.604 3.64616 -0.380853 0
M  V30 3539 H 354.252 4.66758 1.87472 0
M  V30 3540 H 353.952 5.84785 0.574485 0
M  V30 3541 H 355.476 5.9178 1.50428 0
M  V30 3542 H 356.89 5.68307 -0.75499 0
M  V30 3543 H 355.287 5.80073 -1.53738 0
M  V30 3544 H 356.357 4.44504 -1.93764 0
M  V30 3545 N 357.7 0.491464 1.49741 0
M  V30 3546 C 358.63 -0.28154 2.31796 0
M  V30 3547 C 359.611 -0.971473 1.3963 0
M  V30 3548 O 360.796 -0.964719 1.68543 0
M  V30 3549 C 357.926 -1.35203 3.19902 0
M  V30 3550 C 356.88 -0.782529 4.20786 0
M  V30 3551 C 356.206 -1.95283 4.97764 0
M  V30 3552 C 357.506 0.21999 5.21837 0
M  V30 3553 H 359.2 0.403355 2.96671 0
M  V30 3554 H 356.746 0.195425 1.42668 0
M  V30 3555 H 358.699 -1.90045 3.76113 0
M  V30 3556 H 357.423 -2.06598 2.52953 0
M  V30 3557 H 356.082 -0.255928 3.65706 0
M  V30 3558 H 355.73 -2.65423 4.2727 0
M  V30 3559 H 355.43 -1.57789 5.66018 0
M  V30 3560 H 356.954 -2.50577 5.56816 0
M  V30 3561 H 358.368 -0.23996 5.72798 0
M  V30 3562 H 356.765 0.51026 5.97927 0
M  V30 3563 H 357.835 1.13911 4.7133 0
M  V30 3564 N 359.178 -1.55987 0.224894 0
M  V30 3565 C 360.594 -1.59066 -0.130426 0
M  V30 3566 C 360.794 -1.24176 -1.5869 0
M  V30 3567 O 359.85 -0.978592 -2.32766 0
M  V30 3568 C 361.163 -3.00042 0.198883 0
M  V30 3569 C 362.711 -3.1268 0.141391 0
M  V30 3570 C 363.186 -4.55839 0.444422 0
M  V30 3571 N 364.677 -4.6152 0.394115 0
M  V30 3572 C 365.412 -5.70231 0.602038 0
M  V30 3573 N 364.908 -6.87291 0.871914 0
M  V30 3574 N 366.701 -5.59555 0.534245 0
M  V30 3575 H 358.852 -1.76941 1.17497 0
M  V30 3576 H 361.115 -0.822604 0.471197 0
M  V30 3577 H 360.821 -3.30234 1.2099 0
M  V30 3578 H 360.695 -3.74075 -0.484535 0
M  V30 3579 H 363.082 -2.82283 -0.860265 0
M  V30 3580 H 363.163 -2.40969 0.858335 0
M  V30 3581 H 362.807 -4.86954 1.44353 0
M  V30 3582 H 362.737 -5.2578 -0.293752 0
M  V30 3583 H 365.228 -3.77405 0.193356 0
M  V30 3584 H 365.541 -7.66058 1.01858 0
M  V30 3585 H 363.886 -6.89028 0.909145 0
M  V30 3586 H 367.077 -4.6698 0.323612 0
M  V30 3587 H 367.25 -6.44211 0.699693 0
M  V30 3588 N 360.656 0.0484629 -1.57525 0
M  V30 3589 C 361.619 1.03956 -2.04269 0
M  V30 3590 C 362.619 1.30211 -0.943496 0
M  V30 3591 O 363.809 1.25539 -1.20771 0
M  V30 3592 C 360.941 2.37742 -2.44319 0
M  V30 3593 H 362.134 0.636182 -2.93075 0
M  V30 3594 H 359.687 0.294811 -1.53494 0
M  V30 3595 H 360.422 2.82866 -1.5861 0
M  V30 3596 H 360.207 2.20021 -3.24551 0
M  V30 3597 H 361.697 3.08936 -2.80978 0
M  V30 3598 N 362.134 1.5431 0.320358 0
M  V30 3599 C 363.082 1.84647 1.4145 0
M  V30 3600 C 364.076 0.718624 1.53402 0
M  V30 3601 O 365.282 0.902335 1.5575 0
M  V30 3602 H 361.657 0.585349 0.472091 0
M  V30 3603 H 363.628 2.7614 1.13089 0
M  V30 3604 C 362.377 2.09341 2.77617 0
M  V30 3605 H 361.7 2.9559 2.69196 0
M  V30 3606 H 363.14 2.3452 3.53237 0
M  V30 3607 C 361.599 0.885939 3.25043 0
M  V30 3608 O 362.129 0.0967891 4.01583 0
M  V30 3609 N 360.335 0.696682 2.82125 0
M  V30 3610 H 359.882 1.34006 2.2 0
M  V30 3611 H 359.84 -0.109712 3.14209 0
M  V30 3612 N 363.613 -0.582584 1.46437 0
M  V30 3613 C 364.853 -1.35184 1.53312 0
M  V30 3614 C 365.217 -1.9115 0.180508 0
M  V30 3615 O 366.418 -2.68514 0.124017 0
M  V30 3616 C 364.689 -2.45089 2.60127 0
M  V30 3617 S 366.248 -3.32439 2.86408 0
M  V30 3618 H 363.066 -0.460559 0.54167 0
M  V30 3619 H 365.668 -0.669709 1.83671 0
M  V30 3620 H 364.372 -2.02366 3.57038 0
M  V30 3621 H 363.903 -3.18074 2.315 0
M  V30 3622 H 365.918 -4.43924 2.21688 0
M  V30 3623 N 365.091 -1.34144 -0.827227 0
M  V30 3624 C 366.368 -1.16844 -1.56865 0
M  V30 3625 C 366.748 0.260654 -2.09485 0
M  V30 3626 O 366.096 1.26138 -1.9053 0
M  V30 3627 C 366.306 -2.21939 -2.6934 0
M  V30 3628 C 367.654 -2.56695 -3.3822 0
M  V30 3629 O 368.678 -2.20695 -2.79593 0
M  V30 3630 O 367.537 -3.18518 -4.44082 0
M  V30 3631 H 364.631 -0.452669 -0.692112 0
M  V30 3632 H 367.177 -1.45763 -0.868973 0
M  V30 3633 H 365.949 -3.17882 -2.28182 0
M  V30 3634 H 365.572 -1.94172 -3.46962 0
M  V30 3635 N 366.569 1.04691 -1.17803 0
M  V30 3636 C 367.499 2.14494 -0.92275 0
M  V30 3637 C 368.48 1.69546 0.137179 0
M  V30 3638 O 369.665 1.94195 -0.0141108 0
M  V30 3639 C 366.795 3.44491 -0.440803 0
M  V30 3640 C 365.749 4.03031 -1.4405 0
M  V30 3641 C 365.075 5.28432 -0.81631 0
M  V30 3642 C 366.375 4.39932 -2.81527 0
M  V30 3643 H 368.069 2.36107 -1.84103 0
M  V30 3644 H 365.615 1.1347 -0.886599 0
M  V30 3645 H 367.568 4.2066 -0.249602 0
M  V30 3646 H 366.292 3.22546 0.513025 0
M  V30 3647 H 364.951 3.28937 -1.61853 0
M  V30 3648 H 364.599 5.02792 0.144511 0
M  V30 3649 H 364.299 5.68559 -1.48371 0
M  V30 3650 H 365.823 6.07284 -0.635496 0
M  V30 3651 H 367.237 5.07113 -2.67412 0
M  V30 3652 H 365.634 4.9109 -3.44892 0
M  V30 3653 H 366.704 3.50045 -3.35554 0
M  V30 3654 N 368.047 0.979072 1.23499 0
M  V30 3655 C 369.463 0.687475 1.44034 0
M  V30 3656 C 369.663 -0.746801 1.8715 0
M  V30 3657 O 368.719 -1.51939 2.0167 0
M  V30 3658 C 370.032 1.68127 2.49307 0
M  V30 3659 C 371.58 1.69516 2.63122 0
M  V30 3660 C 372.055 2.67723 3.71603 0
M  V30 3661 N 373.546 2.66233 3.79044 0
M  V30 3662 C 374.281 3.38891 4.62537 0
M  V30 3663 N 373.777 4.21103 5.50131 0
M  V30 3664 N 375.57 3.27661 4.56721 0
M  V30 3665 H 367.721 1.90559 0.938135 0
M  V30 3666 H 369.984 0.821051 0.473897 0
M  V30 3667 H 369.69 2.70693 2.2454 0
M  V30 3668 H 369.564 1.46306 3.4767 0
M  V30 3669 H 371.951 0.676561 2.8724 0
M  V30 3670 H 372.032 1.95404 1.65079 0
M  V30 3671 H 371.676 3.69724 3.48233 0
M  V30 3672 H 371.606 2.39111 4.69184 0
M  V30 3673 H 374.097 2.06568 3.16446 0
M  V30 3674 H 374.41 4.73403 6.10827 0
M  V30 3675 H 372.755 4.25195 5.49759 0
M  V30 3676 H 375.946 2.62887 3.87309 0
M  V30 3677 H 376.119 3.84547 5.21562 0
M  V30 3678 N 369.525 -1.3858 0.750561 0
M  V30 3679 C 370.941 -1.53759 0.427824 0
M  V30 3680 C 371.141 -1.71401 -1.05943 0
M  V30 3681 O 370.197 -1.72331 -1.84549 0
M  V30 3682 C 371.51 -2.74642 1.22443 0
M  V30 3683 C 373.058 -2.88489 1.2142 0
M  V30 3684 C 373.533 -4.12329 1.9937 0
M  V30 3685 N 375.024 -4.194 1.96616 0
M  V30 3686 C 375.759 -5.14209 2.53727 0
M  V30 3687 N 375.255 -6.14709 3.19539 0
M  V30 3688 N 377.048 -5.06537 2.43673 0
M  V30 3689 H 369.199 -1.25377 1.71447 0
M  V30 3690 H 371.462 -0.608844 0.726645 0
M  V30 3691 H 371.168 -2.68 2.27747 0
M  V30 3692 H 371.042 -3.67745 0.839273 0
M  V30 3693 H 373.429 -2.94614 0.169232 0
M  V30 3694 H 373.51 -1.96406 1.63885 0
M  V30 3695 H 373.154 -4.06966 3.03877 0
M  V30 3696 H 373.084 -5.03486 1.54302 0
M  V30 3697 H 375.575 -3.47421 1.48684 0
M  V30 3698 H 375.888 -6.8354 3.60545 0
M  V30 3699 H 374.233 -6.1505 3.23633 0
M  V30 3700 H 377.424 -4.26962 1.91889 0
M  V30 3701 H 377.597 -5.80245 2.88479 0
M  V30 3702 N 371.003 -0.499398 -1.49478 0
M  V30 3703 C 371.935 0.316575 -2.27003 0
M  V30 3704 C 372.948 0.932047 -1.33479 0
M  V30 3705 O 374.137 0.815658 -1.58774 0
M  V30 3706 C 371.237 1.46055 -3.05812 0
M  V30 3707 C 370.41 0.952679 -4.26899 0
M  V30 3708 C 369.469 1.97407 -4.87767 0
M  V30 3709 O 368.495 1.54326 -5.4788 0
M  V30 3710 N 369.697 3.30436 -4.77276 0
M  V30 3711 H 372.462 -0.348168 -2.97671 0
M  V30 3712 H 370.023 -0.33185 -1.58463 0
M  V30 3713 H 372.015 2.14135 -3.43407 0
M  V30 3714 H 370.585 2.02948 -2.37762 0
M  V30 3715 H 369.805 0.0968248 -3.94081 0
M  V30 3716 H 371.093 0.59174 -5.05347 0
M  V30 3717 H 370.491 3.68126 -4.29534 0
M  V30 3718 H 369.048 3.94235 -5.19059 0
M  V30 3719 N 372.481 1.55866 -0.233164 0
M  V30 3720 C 373.73 1.97779 0.39579 0
M  V30 3721 C 374.043 1.12419 1.60066 0
M  V30 3722 O 375.249 1.44283 2.29988 0
M  V30 3723 C 373.705 3.5188 0.755556 0
M  V30 3724 C 373.313 4.45959 -0.427152 0
M  V30 3725 C 375.057 4.02479 1.34946 0
M  V30 3726 C 372.964 5.91383 -0.0443043 0
M  V30 3727 H 371.894 0.738592 0.15165 0
M  V30 3728 H 374.545 1.80486 -0.331212 0
M  V30 3729 H 372.927 3.64816 1.5403 0
M  V30 3730 H 374.101 4.44776 -1.20462 0
M  V30 3731 H 372.416 4.05765 -0.935068 0
M  V30 3732 H 375.013 5.08637 1.649 0
M  V30 3733 H 375.356 3.49014 2.26925 0
M  V30 3734 H 375.889 3.92813 0.62791 0
M  V30 3735 H 372.628 6.48857 -0.930874 0
M  V30 3736 H 372.148 5.95734 0.697238 0
M  V30 3737 H 373.827 6.45893 0.378334 0
M  V30 3738 N 373.959 -0.0401083 1.57549 0
M  V30 3739 C 375.236 -0.767917 1.79896 0
M  V30 3740 C 375.616 -1.9416 0.82856 0
M  V30 3741 O 374.964 -2.2812 -0.131671 0
M  V30 3742 C 375.174 -1.2113 3.27305 0
M  V30 3743 C 376.522 -1.63175 3.91994 0
M  V30 3744 O 377.546 -1.30616 3.31388 0
M  V30 3745 O 376.405 -2.23565 4.98679 0
M  V30 3746 H 373.499 -0.370441 0.739393 0
M  V30 3747 H 376.045 -0.017737 1.69691 0
M  V30 3748 H 374.817 -0.372937 3.89519 0
M  V30 3749 H 374.44 -2.02183 3.42356 0
M  V30 3750 N 375.437 -1.54477 -0.31217 0
M  V30 3751 C 376.347 -1.87695 -1.4074 0
M  V30 3752 C 377.363 -0.769975 -1.56036 0
M  V30 3753 O 378.539 -1.06537 -1.70915 0
M  V30 3754 C 375.604 -2.10755 -2.75287 0
M  V30 3755 C 374.665 -3.34514 -2.69071 0
M  V30 3756 C 373.898 -3.56465 -3.97201 0
M  V30 3757 O 374.121 -2.81637 -4.96021 0
M  V30 3758 O 373.055 -4.49964 -3.9977 0
M  V30 3759 H 376.881 -2.80849 -1.15574 0
M  V30 3760 H 374.466 -1.40526 -0.507228 0
M  V30 3761 H 376.348 -2.27188 -3.54913 0
M  V30 3762 H 375.023 -1.20788 -3.0032 0
M  V30 3763 H 373.93 -3.23456 -1.87955 0
M  V30 3764 H 375.263 -4.24575 -2.48992 0
M  V30 3765 N 376.915 0.57481 -1.46744 0
M  V30 3766 C 377.847 1.69804 -1.53946 0
M  V30 3767 C 378.86 1.57098 -0.427106 0
M  V30 3768 O 380.049 1.64378 -0.695863 0
M  V30 3769 C 377.149 3.08125 -1.4111 0
M  V30 3770 C 376.322 3.46757 -2.66605 0
M  V30 3771 C 375.381 4.6417 -2.47855 0
M  V30 3772 O 374.407 4.69634 -3.21609 0
M  V30 3773 N 375.609 5.59553 -1.54534 0
M  V30 3774 H 378.374 1.64077 -2.50796 0
M  V30 3775 H 375.935 0.761 -1.429 0
M  V30 3776 H 377.927 3.84478 -1.26328 0
M  V30 3777 H 376.497 3.08175 -0.524109 0
M  V30 3778 H 375.717 2.6003 -2.96274 0
M  V30 3779 H 377.005 3.69337 -3.49954 0
M  V30 3780 H 376.403 5.57881 -0.937304 0
M  V30 3781 H 374.96 6.35304 -1.45711 0
M  V30 3782 N 378.394 1.34581 0.820102 0
M  V30 3783 C 379.326 1.22236 1.93884 0
M  V30 3784 C 380.339 0.148776 1.62119 0
M  V30 3785 O 381.528 0.400877 1.7394 0
M  V30 3786 C 378.628 0.856542 3.27897 0
M  V30 3787 C 377.801 2.02569 3.87666 0
M  V30 3788 C 376.86 1.63782 5.00062 0
M  V30 3789 O 375.886 2.35477 5.18208 0
M  V30 3790 N 377.088 0.553611 5.77854 0
M  V30 3791 H 379.853 2.18615 2.05006 0
M  V30 3792 H 377.414 1.27573 0.99683 0
M  V30 3793 H 379.406 0.578806 4.0054 0
M  V30 3794 H 377.976 -0.0171518 3.12595 0
M  V30 3795 H 377.196 2.468 3.07382 0
M  V30 3796 H 378.484 2.80752 4.24329 0
M  V30 3797 H 377.882 -0.0423528 5.65684 0
M  V30 3798 H 376.439 0.335614 6.50935 0
M  V30 3799 N 379.872 -1.04064 1.18357 0
M  V30 3800 C 380.819 -2.12077 0.910603 0
M  V30 3801 C 381.789 -1.65421 -0.15 0
M  V30 3802 O 382.974 -1.90797 -0.0103614 0
M  V30 3803 C 380.114 -3.42252 0.442472 0
M  V30 3804 C 379.227 -4.0252 1.5685 0
M  V30 3805 C 378.362 -5.20657 1.05309 0
M  V30 3806 C 377.401 -5.72955 2.1538 0
M  V30 3807 N 376.538 -6.8238 1.65233 0
M  V30 3808 H 381.378 -2.34764 1.83548 0
M  V30 3809 H 378.915 -1.15157 0.915279 0
M  V30 3810 H 380.873 -4.16921 0.152534 0
M  V30 3811 H 379.503 -3.19712 -0.445428 0
M  V30 3812 H 378.555 -3.25178 1.97391 0
M  V30 3813 H 379.867 -4.37362 2.39824 0
M  V30 3814 H 379.021 -6.0244 0.717677 0
M  V30 3815 H 377.76 -4.87318 0.19293 0
M  V30 3816 H 376.765 -4.89793 2.49766 0
M  V30 3817 H 377.99 -6.08337 3.01832 0
M  V30 3818 H 375.936 -6.50917 0.815064 0
M  V30 3819 H 375.853 -7.16286 2.41805 0
M  V30 3820 H 377.121 -7.67788 1.34619 0
M  V30 3821 N 381.35 -0.985608 -1.22978 0
M  V30 3822 C 382.28 -0.549649 -2.26939 0
M  V30 3823 C 383.261 0.419803 -1.64838 0
M  V30 3824 O 384.446 0.31203 -1.91677 0
M  V30 3825 C 381.576 0.143652 -3.47003 0
M  V30 3826 C 380.53 -0.743606 -4.21491 0
M  V30 3827 C 379.856 0.0822027 -5.34637 0
M  V30 3828 C 381.156 -2.03694 -4.80943 0
M  V30 3829 H 382.85 -1.41862 -2.63658 0
M  V30 3830 H 380.396 -0.683571 -1.26741 0
M  V30 3831 H 382.349 0.459985 -4.18882 0
M  V30 3832 H 381.073 1.04711 -3.09359 0
M  V30 3833 H 379.732 -1.04347 -3.51436 0
M  V30 3834 H 379.38 0.986359 -4.93234 0
M  V30 3835 H 379.08 -0.508377 -5.85397 0
M  V30 3836 H 380.604 0.392797 -6.09335 0
M  V30 3837 H 382.018 -1.78504 -5.44802 0
M  V30 3838 H 380.415 -2.57573 -5.42011 0
M  V30 3839 H 381.485 -2.72042 -4.01399 0
M  V30 3840 N 382.828 1.3818 -0.7579 0
M  V30 3841 C 383.758 2.33027 -0.148597 0
M  V30 3842 C 384.739 1.55085 0.69875 0
M  V30 3843 O 385.924 1.83384 0.639053 0
M  V30 3844 C 383.054 3.3928 0.742034 0
M  V30 3845 C 382.008 4.28 -0.00291946 0
M  V30 3846 C 381.334 5.25146 1.00625 0
M  V30 3847 C 382.634 5.08938 -1.17385 0
M  V30 3848 H 384.328 2.84231 -0.940909 0
M  V30 3849 H 381.874 1.36659 -0.453908 0
M  V30 3850 H 383.827 4.046 1.17799 0
M  V30 3851 H 382.551 2.86569 1.56671 0
M  V30 3852 H 381.21 3.64192 -0.419504 0
M  V30 3853 H 380.858 4.68721 1.8251 0
M  V30 3854 H 380.558 5.85361 0.512428 0
M  V30 3855 H 382.082 5.93342 1.44143 0
M  V30 3856 H 383.496 5.67474 -0.815224 0
M  V30 3857 H 381.893 5.7841 -1.59882 0
M  V30 3858 H 382.963 4.42424 -1.98468 0
M  V30 3859 N 384.306 0.507319 1.49211 0
M  V30 3860 C 385.216 -0.272136 2.33016 0
M  V30 3861 C 386.232 -0.961206 1.45041 0
M  V30 3862 O 387.408 -0.941191 1.78055 0
M  V30 3863 C 384.473 -1.31895 3.20631 0
M  V30 3864 C 383.534 -0.642648 4.24463 0
M  V30 3865 C 382.767 -1.63959 5.07891 0
M  V30 3866 O 382.99 -2.87007 4.92933 0
M  V30 3867 O 381.924 -1.19143 5.8999 0
M  V30 3868 H 385.75 0.413982 3.00865 0
M  V30 3869 H 383.335 0.268556 1.46966 0
M  V30 3870 H 385.217 -1.92446 3.7489 0
M  V30 3871 H 383.892 -1.98788 2.5547 0
M  V30 3872 H 382.799 0.00276252 3.741 0
M  V30 3873 H 384.132 -0.0160534 4.92197 0
M  V30 3874 N 385.784 -1.5574 0.241426 0
M  V30 3875 C 386.731 -2.21149 -0.660432 0
M  V30 3876 C 387.701 -1.17356 -1.17545 0
M  V30 3877 O 388.886 -1.45784 -1.23093 0
M  V30 3878 C 386.026 -2.91059 -1.85414 0
M  V30 3879 C 385.139 -4.09495 -1.37616 0
M  V30 3880 C 384.274 -4.67135 -2.529 0
M  V30 3881 C 383.313 -5.77831 -2.01936 0
M  V30 3882 N 382.45 -6.29677 -3.10566 0
M  V30 3883 H 387.29 -2.97845 -0.095955 0
M  V30 3884 H 384.827 -1.47057 -0.0356024 0
M  V30 3885 H 386.785 -3.29788 -2.5553 0
M  V30 3886 H 385.415 -2.16846 -2.39118 0
M  V30 3887 H 384.467 -3.76117 -0.569235 0
M  V30 3888 H 385.779 -4.89423 -0.962618 0
M  V30 3889 H 384.933 -5.08409 -3.31067 0
M  V30 3890 H 383.672 -3.86411 -2.97553 0
M  V30 3891 H 382.677 -5.36039 -1.22238 0
M  V30 3892 H 383.902 -6.60402 -1.58259 0
M  V30 3893 H 381.848 -5.5186 -3.54664 0
M  V30 3894 H 381.765 -7.04783 -2.73526 0
M  V30 3895 H 383.033 -6.75609 -3.88809 0
M  V30 3896 N 387.262 0.0317525 -1.57568 0
M  V30 3897 C 388.492 0.733884 -1.93126 0
M  V30 3898 C 388.9 1.69563 -0.839352 0
M  V30 3899 O 388.243 1.82681 0.193175 0
M  V30 3900 C 388.305 1.54798 -3.24465 0
M  V30 3901 C 387.969 0.751304 -4.50782 0
M  V30 3902 C 388.966 0.0527632 -5.19873 0
M  V30 3903 C 386.651 0.706639 -4.97305 0
M  V30 3904 C 388.645 -0.679774 -6.33765 0
M  V30 3905 C 386.332 -0.0296449 -6.11093 0
M  V30 3906 C 387.33 -0.721614 -6.79177 0
M  V30 3907 O 387.018 -1.44595 -7.90789 0
M  V30 3908 H 386.75 0.211459 -0.642076 0
M  V30 3909 H 389.304 -0.00585615 -2.05399 0
M  V30 3910 H 387.534 2.33147 -3.08512 0
M  V30 3911 H 389.223 2.13247 -3.4537 0
M  V30 3912 H 389.989 0.0783188 -4.84937 0
M  V30 3913 H 385.868 1.23474 -4.44157 0
M  V30 3914 H 389.412 -1.22042 -6.86842 0
M  V30 3915 H 385.309 -0.0571331 -6.45475 0
M  V30 3916 H 386.077 -1.35935 -8.07133 0
M  V30 3917 N 388.74 1.54641 0.303973 0
M  V30 3918 C 389.687 1.85386 1.37479 0
M  V30 3919 C 390.657 0.702528 1.50512 0
M  V30 3920 O 391.842 0.950867 1.65418 0
M  V30 3921 C 388.982 2.10413 2.73533 0
M  V30 3922 C 388.095 3.38049 2.68974 0
M  V30 3923 C 387.23 3.52934 3.97002 0
M  V30 3924 C 386.269 4.74373 3.86829 0
M  V30 3925 N 385.406 4.8608 5.06627 0
M  V30 3926 H 390.246 2.76732 1.1056 0
M  V30 3927 H 387.783 1.37034 0.534805 0
M  V30 3928 H 389.741 2.22919 3.52652 0
M  V30 3929 H 388.371 1.22338 2.98719 0
M  V30 3930 H 387.423 3.3418 1.81736 0
M  V30 3931 H 388.735 4.27288 2.57346 0
M  V30 3932 H 387.889 3.65088 4.84557 0
M  V30 3933 H 386.628 2.61824 4.1146 0
M  V30 3934 H 385.633 4.62255 2.97658 0
M  V30 3935 H 386.858 5.66888 3.73918 0
M  V30 3936 H 384.804 3.97891 5.21554 0
M  V30 3937 H 384.721 5.69315 4.9741 0
M  V30 3938 H 385.989 5.02587 5.95841 0
M  V30 3939 N 390.218 -0.567019 1.47046 0
M  V30 3940 C 391.128 -1.70247 1.6141 0
M  V30 3941 C 392.144 -1.66746 0.497157 0
M  V30 3942 O 393.32 -1.86371 0.763389 0
M  V30 3943 C 390.385 -3.06756 1.61561 0
M  V30 3944 C 389.446 -3.21399 2.84607 0
M  V30 3945 C 388.679 -4.51396 2.84741 0
M  V30 3946 O 388.902 -5.36255 1.94388 0
M  V30 3947 O 387.836 -4.69621 3.76483 0
M  V30 3948 H 391.662 -1.61073 2.57467 0
M  V30 3949 H 389.247 -0.735894 1.30019 0
M  V30 3950 H 391.129 -3.8801 1.64396 0
M  V30 3951 H 389.804 -3.16333 0.686684 0
M  V30 3952 H 388.711 -2.39579 2.8732 0
M  V30 3953 H 390.044 -3.16721 3.76761 0
M  V30 3954 N 391.696 -1.35014 -0.812953 0
M  V30 3955 C 393.112 -1.14914 -1.10757 0
M  V30 3956 C 393.312 0.0426818 -2.01455 0
M  V30 3957 O 392.368 0.715212 -2.42159 0
M  V30 3958 C 393.681 -2.44911 -1.74468 0
M  V30 3959 C 395.229 -2.5106 -1.86917 0
M  V30 3960 C 395.704 -3.81085 -2.54044 0
M  V30 3961 N 397.195 -3.82301 -2.61535 0
M  V30 3962 C 397.93 -4.79634 -3.14227 0
M  V30 3963 N 397.426 -5.87353 -3.67407 0
M  V30 3964 N 399.219 -4.67078 -3.12721 0
M  V30 3965 H 391.37 -2.1136 -0.20989 0
M  V30 3966 H 393.633 -0.935128 -0.155692 0
M  V30 3967 H 393.339 -3.32267 -1.15289 0
M  V30 3968 H 393.213 -2.58989 -2.74234 0
M  V30 3969 H 395.6 -1.64137 -2.45241 0
M  V30 3970 H 395.681 -2.40901 -0.860242 0
M  V30 3971 H 395.325 -4.68402 -1.96372 0
M  V30 3972 H 395.255 -3.88529 -3.55461 0
M  V30 3973 H 397.746 -3.04465 -2.23851 0
M  V30 3974 H 398.059 -6.57624 -4.05894 0
M  V30 3975 H 396.404 -5.91054 -3.65623 0
M  V30 3976 H 399.595 -3.82067 -2.70449 0
M  V30 3977 H 399.768 -5.43098 -3.53481 0
M  V30 3978 N 393.175 1.03435 -1.18907 0
M  V30 3979 C 394.105 2.13503 -0.945448 0
M  V30 3980 C 395.086 1.69682 0.119189 0
M  V30 3981 O 396.271 1.94169 -0.034707 0
M  V30 3982 C 393.401 3.44004 -0.477316 0
M  V30 3983 C 392.355 4.0148 -1.48316 0
M  V30 3984 C 391.681 5.27537 -0.872311 0
M  V30 3985 C 392.981 4.36921 -2.86177 0
M  V30 3986 H 394.675 2.34141 -1.86597 0
M  V30 3987 H 392.221 1.12523 -0.898584 0
M  V30 3988 H 394.174 4.20372 -0.294204 0
M  V30 3989 H 392.898 3.23072 0.478786 0
M  V30 3990 H 391.557 3.27201 -1.65332 0
M  V30 3991 H 391.205 5.02917 0.0911752 0
M  V30 3992 H 390.905 5.66954 -1.54393 0
M  V30 3993 H 392.429 6.06576 -0.699871 0
M  V30 3994 H 393.843 5.04248 -2.72776 0
M  V30 3995 H 392.24 4.87405 -3.50081 0
M  V30 3996 H 393.31 3.46466 -3.39248 0
M  V30 3997 N 394.653 0.992116 1.22453 0
M  V30 3998 C 395.601 0.534644 2.26372 0
M  V30 3999 C 396.595 -0.414293 1.64256 0
M  V30 4000 O 397.801 -0.286899 1.77699 0
M  V30 4001 H 394.176 0.154502 0.735957 0
M  V30 4002 H 396.147 1.42256 2.62309 0
M  V30 4003 C 394.896 -0.135815 3.47435 0
M  V30 4004 H 394.219 0.585311 3.95492 0
M  V30 4005 H 395.659 -0.419374 4.21921 0
M  V30 4006 C 394.118 -1.37089 3.07747 0
M  V30 4007 O 394.648 -2.46629 3.17076 0
M  V30 4008 N 392.854 -1.24585 2.62539 0
M  V30 4009 H 392.401 -0.354542 2.55149 0
M  V30 4010 H 392.359 -2.07327 2.36353 0
M  V30 4011 N 396.131 -1.37776 0.765217 0
M  V30 4012 C 397.078 -2.30342 0.145274 0
M  V30 4013 C 398.048 -1.5077 -0.696971 0
M  V30 4014 O 399.233 -1.79362 -0.650689 0
M  V30 4015 C 396.373 -3.37227 -0.732939 0
M  V30 4016 C 395.486 -4.31819 0.125199 0
M  V30 4017 C 394.621 -5.25777 -0.757107 0
M  V30 4018 C 393.66 -6.12012 0.103963 0
M  V30 4019 N 392.797 -6.98232 -0.735953 0
M  V30 4020 H 397.637 -2.8278 0.940195 0
M  V30 4021 H 395.174 -1.39211 0.475255 0
M  V30 4022 H 397.132 -3.97818 -1.25686 0
M  V30 4023 H 395.762 -2.86171 -1.49353 0
M  V30 4024 H 394.814 -3.7259 0.766865 0
M  V30 4025 H 396.126 -4.92509 0.789683 0
M  V30 4026 H 395.28 -5.91541 -1.34776 0
M  V30 4027 H 394.019 -4.65481 -1.45529 0
M  V30 4028 H 393.024 -5.45233 0.707197 0
M  V30 4029 H 394.249 -6.74379 0.799381 0
M  V30 4030 H 392.195 -6.40472 -1.41887 0
M  V30 4031 H 392.112 -7.55891 -0.128624 0
M  V30 4032 H 393.38 -7.68393 -1.31121 0
M  V30 4033 N 397.609 -0.515225 -1.4894 0
M  V30 4034 C 398.849 0.0223983 -2.04388 0
M  V30 4035 C 399.213 1.32961 -1.38511 0
M  V30 4036 O 400.414 1.95236 -1.8476 0
M  V30 4037 C 398.685 0.157056 -3.57055 0
M  V30 4038 S 400.244 0.646875 -4.34006 0
M  V30 4039 H 397.062 -0.00500662 -0.710982 0
M  V30 4040 H 399.664 -0.69243 -1.82827 0
M  V30 4041 H 398.368 -0.799412 -4.02539 0
M  V30 4042 H 397.899 0.896704 -3.83044 0
M  V30 4043 H 399.914 1.91381 -4.57808 0
M  V30 4044 N 399.087 1.5561 -0.249682 0
M  V30 4045 C 400.336 1.98187 0.37479 0
M  V30 4046 C 400.649 1.14111 1.58865 0
M  V30 4047 O 401.855 1.46714 2.28445 0
M  V30 4048 C 400.311 3.52661 0.718192 0
M  V30 4049 C 399.919 4.45481 -0.474428 0
M  V30 4050 C 401.663 4.03888 1.3067 0
M  V30 4051 C 399.57 5.91303 -0.107026 0
M  V30 4052 H 398.5 0.740159 0.143808 0
M  V30 4053 H 401.151 1.80125 -0.350336 0
M  V30 4054 H 399.533 3.66429 1.50152 0
M  V30 4055 H 400.707 4.43473 -1.25172 0
M  V30 4056 H 399.022 4.04751 -0.978052 0
M  V30 4057 H 401.619 5.10358 1.59496 0
M  V30 4058 H 401.962 3.51401 2.23211 0
M  V30 4059 H 402.495 3.93457 0.586211 0
M  V30 4060 H 399.234 6.47833 -0.999642 0
M  V30 4061 H 398.754 5.9644 0.634013 0
M  V30 4062 H 400.433 6.46258 0.309807 0
M  V30 4063 N 400.565 -0.0233959 1.57583 0
M  V30 4064 C 401.79 -0.728376 1.94189 0
M  V30 4065 C 402.215 -1.67793 0.850119 0
M  V30 4066 O 401.573 -1.80262 -0.19371 0
M  V30 4067 C 401.621 -1.45669 3.29868 0
M  V30 4068 O 400.725 -2.57013 3.22518 0
M  V30 4069 H 400.066 -0.195493 0.63457 0
M  V30 4070 H 402.596 0.0228214 2.04587 0
M  V30 4071 H 402.606 -1.82535 3.6489 0
M  V30 4072 H 401.281 -0.760314 4.08891 0
M  V30 4073 H 399.858 -2.22648 2.99136 0
M  V30 4074 N 402.043 -1.548 -0.295768 0
M  V30 4075 C 402.976 -1.81003 -1.38972 0
M  V30 4076 C 403.954 -0.661544 -1.48534 0
M  V30 4077 O 405.138 -0.902074 -1.65514 0
M  V30 4078 C 402.265 -1.95141 -2.76835 0
M  V30 4079 C 401.311 -3.17592 -2.84671 0
M  V30 4080 S 402.144 -4.75531 -2.46232 0
M  V30 4081 C 403.3 -4.92613 -3.86114 0
M  V30 4082 H 403.533 -2.73507 -1.16537 0
M  V30 4083 H 401.066 -1.46278 -0.494168 0
M  V30 4084 H 403.024 -2.03972 -3.56238 0
M  V30 4085 H 401.685 -1.03565 -2.96535 0
M  V30 4086 H 400.878 -3.24303 -3.85803 0
M  V30 4087 H 400.48 -3.07235 -2.13267 0
M  V30 4088 H 402.772 -4.76957 -4.81164 0
M  V30 4089 H 403.715 -5.94698 -3.8437 0
M  V30 4090 H 404.123 -4.2073 -3.76359 0
M  V30 4091 N 403.521 0.559213 -1.47345 0
M  V30 4092 C 404.746 1.34676 -1.57725 0
M  V30 4093 C 405.171 1.86723 -0.227164 0
M  V30 4094 O 404.529 1.6286 0.796642 0
M  V30 4095 C 404.577 2.49399 -2.60447 0
M  V30 4096 O 403.681 3.51567 -2.15578 0
M  V30 4097 H 403.022 0.400115 -0.52991 0
M  V30 4098 H 405.552 0.676009 -1.93109 0
M  V30 4099 H 405.562 2.95996 -2.80803 0
M  V30 4100 H 404.237 2.10873 -3.58477 0
M  V30 4101 H 402.814 3.11289 -2.05313 0
M  V30 4102 N 404.999 1.35443 0.805782 0
M  V30 4103 C 405.946 1.28431 1.91766 0
M  V30 4104 C 406.916 0.156102 1.65365 0
M  V30 4105 O 408.101 0.339936 1.87747 0
M  V30 4106 C 405.241 1.06301 3.2832 0
M  V30 4107 C 404.354 2.2805 3.66902 0
M  V30 4108 C 403.489 1.99064 4.92491 0
M  V30 4109 C 402.528 3.16863 5.23703 0
M  V30 4110 N 401.665 2.87647 6.40471 0
M  V30 4111 H 406.505 2.23511 1.97096 0
M  V30 4112 H 404.042 1.11105 0.964054 0
M  V30 4113 H 406 0.915012 4.07042 0
M  V30 4114 H 404.63 0.148822 3.22457 0
M  V30 4115 H 403.682 2.53711 2.83434 0
M  V30 4116 H 404.994 3.1601 3.85927 0
M  V30 4117 H 404.148 1.81099 5.7904 0
M  V30 4118 H 402.887 1.0839 4.75503 0
M  V30 4119 H 401.892 3.35404 4.35642 0
M  V30 4120 H 403.117 4.08339 5.4262 0
M  V30 4121 H 401.063 1.99568 6.24907 0
M  V30 4122 H 400.98 3.69141 6.59751 0
M  V30 4123 H 402.248 2.73226 7.30047 0
M  V30 4124 N 406.477 -1.02803 1.19454 0
M  V30 4125 C 407.424 -2.11099 0.933046 0
M  V30 4126 C 408.394 -1.65571 -0.132447 0
M  V30 4127 O 409.579 -1.90797 0.00987576 0
M  V30 4128 C 406.719 -3.41763 0.478747 0
M  V30 4129 C 405.832 -4.00833 1.6111 0
M  V30 4130 C 404.967 -5.19511 1.10825 0
M  V30 4131 C 404.006 -5.70639 2.21445 0
M  V30 4132 N 403.143 -6.80589 1.72461 0
M  V30 4133 H 407.983 -2.32804 1.86028 0
M  V30 4134 H 405.52 -1.14179 0.927441 0
M  V30 4135 H 407.478 -4.16736 0.196745 0
M  V30 4136 H 406.108 -3.20166 -0.411493 0
M  V30 4137 H 405.16 -3.23066 2.00829 0
M  V30 4138 H 406.472 -4.34794 2.4445 0
M  V30 4139 H 405.626 -6.01645 0.781533 0
M  V30 4140 H 404.365 -4.87086 0.244606 0
M  V30 4141 H 403.37 -4.87116 2.54947 0
M  V30 4142 H 404.595 -6.05102 3.08267 0
M  V30 4143 H 402.541 -6.50016 0.884056 0
M  V30 4144 H 402.458 -7.13681 2.49389 0
M  V30 4145 H 403.726 -7.66317 1.42755 0
M  V30 4146 N 407.956 -0.998596 -1.21925 0
M  V30 4147 C 408.886 -0.573688 -2.26343 0
M  V30 4148 C 409.867 0.402296 -1.65274 0
M  V30 4149 O 411.052 0.291683 -1.91997 0
M  V30 4150 C 408.182 0.106839 -3.47136 0
M  V30 4151 C 407.136 -0.788269 -4.20678 0
M  V30 4152 C 406.462 0.0254927 -5.34694 0
M  V30 4153 C 407.762 -2.08784 -4.78755 0
M  V30 4154 H 409.456 -1.44651 -2.62138 0
M  V30 4155 H 407.002 -0.696975 -1.26009 0
M  V30 4156 H 408.955 0.415531 -4.19346 0
M  V30 4157 H 407.679 1.01424 -3.10452 0
M  V30 4158 H 406.338 -1.08069 -3.50309 0
M  V30 4159 H 405.986 0.933989 -4.94253 0
M  V30 4160 H 405.686 -0.570437 -5.84825 0
M  V30 4161 H 407.21 0.328147 -6.09718 0
M  V30 4162 H 408.624 -1.84272 -5.42878 0
M  V30 4163 H 407.021 -2.63307 -5.39249 0
M  V30 4164 H 408.091 -2.76284 -3.98491 0
M  V30 4165 N 409.434 1.37368 -0.772513 0
M  V30 4166 C 410.364 2.32856 -0.173304 0
M  V30 4167 C 411.345 1.55818 0.682262 0
M  V30 4168 O 412.53 1.84052 0.619566 0
M  V30 4169 C 409.66 3.40048 0.706007 0
M  V30 4170 C 408.614 4.27973 -0.0483144 0
M  V30 4171 C 407.94 5.26184 0.950491 0
M  V30 4172 C 409.24 5.07665 -1.22776 0
M  V30 4173 H 410.934 2.83217 -0.971002 0
M  V30 4174 H 408.48 1.3617 -0.468377 0
M  V30 4175 H 410.433 4.05827 1.13501 0
M  V30 4176 H 409.157 2.88214 1.53623 0
M  V30 4177 H 407.816 3.63726 -0.458107 0
M  V30 4178 H 407.464 4.7063 1.77529 0
M  V30 4179 H 407.164 5.85872 0.450314 0
M  V30 4180 H 408.688 5.94838 1.37842 0
M  V30 4181 H 410.102 5.66578 -0.875366 0
M  V30 4182 H 408.499 5.76681 -1.66007 0
M  V30 4183 H 409.569 4.40294 -2.03149 0
M  V30 4184 N 410.912 0.523116 1.48665 0
M  V30 4185 C 412.161 -0.01544 2.01694 0
M  V30 4186 C 412.474 -1.35975 1.40606 0
M  V30 4187 O 413.68 -1.98627 1.85093 0
M  V30 4188 C 412.136 -0.0779303 3.59816 0
M  V30 4189 C 411.744 1.26107 4.29885 0
M  V30 4190 C 413.488 -0.565678 4.20714 0
M  V30 4191 C 411.395 1.15954 5.79921 0
M  V30 4192 H 410.325 -0.00954163 0.75394 0
M  V30 4193 H 412.976 0.665865 1.70993 0
M  V30 4194 H 411.358 -0.824165 3.87329 0
M  V30 4195 H 412.532 2.02233 4.14051 0
M  V30 4196 H 410.847 1.68401 3.80828 0
M  V30 4197 H 413.444 -0.6595 5.30617 0
M  V30 4198 H 413.787 -1.56984 3.85567 0
M  V30 4199 H 414.32 0.12467 3.97605 0
M  V30 4200 H 411.059 2.13864 6.19631 0
M  V30 4201 H 410.579 0.439529 5.98187 0
M  V30 4202 H 412.258 0.847361 6.41427 0
M  V30 4203 N 412.39 -1.55475 0.257931 0
M  V30 4204 C 413.3 -2.2549 -0.647425 0
M  V30 4205 C 414.316 -1.2748 -1.18427 0
M  V30 4206 O 415.492 -1.6038 -1.2182 0
M  V30 4207 C 412.557 -2.94916 -1.82278 0
M  V30 4208 C 411.618 -4.08363 -1.32432 0
M  V30 4209 C 410.851 -4.74469 -2.44366 0
M  V30 4210 O 411.074 -4.39701 -3.63344 0
M  V30 4211 O 410.008 -5.62763 -2.13497 0
M  V30 4212 H 413.834 -3.03593 -0.0807707 0
M  V30 4213 H 411.419 -1.49377 0.0259962 0
M  V30 4214 H 413.301 -3.38606 -2.50846 0
M  V30 4215 H 411.976 -2.19744 -2.37685 0
M  V30 4216 H 410.883 -3.69166 -0.605605 0
M  V30 4217 H 412.216 -4.85385 -0.816211 0
M  V30 4218 N 413.868 0.0150385 -1.57593 0
M  V30 4219 C 414.815 1.01126 -2.07466 0
M  V30 4220 C 415.785 1.35064 -0.966794 0
M  V30 4221 O 416.97 1.4516 -1.23827 0
M  V30 4222 C 414.11 2.30276 -2.57035 0
M  V30 4223 C 413.223 2.02373 -3.81666 0
M  V30 4224 C 412.358 3.25496 -4.19793 0
M  V30 4225 C 411.397 2.93211 -5.37303 0
M  V30 4226 N 410.534 4.08826 -5.70794 0
M  V30 4227 H 415.374 0.57901 -2.92321 0
M  V30 4228 H 412.911 0.27426 -1.44521 0
M  V30 4229 H 414.869 3.05757 -2.83846 0
M  V30 4230 H 413.499 2.71197 -1.75077 0
M  V30 4231 H 412.551 1.17327 -3.61854 0
M  V30 4232 H 413.863 1.74567 -4.67256 0
M  V30 4233 H 413.017 4.09333 -4.47807 0
M  V30 4234 H 411.756 3.56428 -3.32882 0
M  V30 4235 H 410.761 2.07777 -5.09027 0
M  V30 4236 H 411.986 2.63542 -6.25877 0
M  V30 4237 H 409.932 4.39682 -4.86842 0
M  V30 4238 H 409.849 3.84491 -6.50924 0
M  V30 4239 H 411.117 4.93496 -6.03392 0
M  V30 4240 N 415.346 1.54954 0.287554 0
M  V30 4241 C 416.571 1.79209 1.04397 0
M  V30 4242 C 416.996 0.556431 1.79682 0
M  V30 4243 O 416.354 -0.493518 1.74454 0
M  V30 4244 C 416.402 3.00739 1.98969 0
M  V30 4245 O 415.506 2.74805 3.075 0
M  V30 4246 H 414.847 0.592755 0.299227 0
M  V30 4247 H 417.377 2.02068 0.320886 0
M  V30 4248 H 417.387 3.29077 2.4119 0
M  V30 4249 H 416.062 3.90329 1.43582 0
M  V30 4250 H 414.639 2.57523 2.69697 0
M  V30 4251 N 416.824 -0.551391 1.4764 0
M  V30 4252 C 418.052 -1.33357 1.58189 0
M  V30 4253 C 418.467 -1.87342 0.234199 0
M  V30 4254 O 417.824 -1.65301 -0.77343 0
M  V30 4255 C 417.875 -2.49942 2.61173 0
M  V30 4256 O 417.596 -1.98187 3.90709 0
M  V30 4257 C 419.097 -3.42072 2.8196 0
M  V30 4258 H 416.317 -0.40631 0.533998 0
M  V30 4259 H 418.861 -0.667367 1.93304 0
M  V30 4260 H 417.016 -3.12489 2.28975 0
M  V30 4261 H 417.43 -2.74342 4.47031 0
M  V30 4262 H 418.904 -4.20278 3.57869 0
M  V30 4263 H 419.381 -3.95978 1.89995 0
M  V30 4264 H 419.987 -2.85336 3.15378 0
M  V30 4265 N 418.302 -1.35869 -0.798587 0
M  V30 4266 C 419.234 -1.25305 -1.91915 0
M  V30 4267 C 420.247 -0.174548 -1.61862 0
M  V30 4268 O 421.436 -0.428499 -1.73281 0
M  V30 4269 C 418.536 -0.9086 -3.26493 0
M  V30 4270 C 417.709 -2.08711 -3.84394 0
M  V30 4271 C 416.768 -1.71717 -4.97393 0
M  V30 4272 O 415.794 -2.43692 -5.14396 0
M  V30 4273 N 416.996 -0.645473 -5.769 0
M  V30 4274 H 419.761 -2.21849 -2.01502 0
M  V30 4275 H 417.322 -1.29143 -0.976408 0
M  V30 4276 H 419.314 -0.642455 -3.99568 0
M  V30 4277 H 417.884 -0.0325815 -3.12583 0
M  V30 4278 H 417.104 -2.51659 -3.03416 0
M  V30 4279 H 418.392 -2.87468 -4.19809 0
M  V30 4280 H 417.79 -0.047648 -5.6568 0
M  V30 4281 H 416.347 -0.43913 -6.50319 0
M  V30 4282 N 419.78 1.02168 -1.19998 0
M  V30 4283 C 420.69 2.14069 -0.959774 0
M  V30 4284 C 421.706 1.73804 0.082655 0
M  V30 4285 O 422.882 2.01133 -0.103633 0
M  V30 4286 C 419.947 3.42936 -0.509459 0
M  V30 4287 C 419.008 3.97474 -1.62213 0
M  V30 4288 C 418.241 5.2019 -1.19321 0
M  V30 4289 O 418.464 5.70369 -0.0597726 0
M  V30 4290 O 417.398 5.67749 -1.99863 0
M  V30 4291 H 421.224 2.37199 -1.89658 0
M  V30 4292 H 418.809 1.12469 -0.983411 0
M  V30 4293 H 420.691 4.20551 -0.267322 0
M  V30 4294 H 419.366 3.21234 0.398821 0
M  V30 4295 H 418.273 3.21161 -1.9185 0
M  V30 4296 H 419.606 4.23555 -2.50723 0
M  V30 4297 N 421.258 1.00505 1.21394 0
M  V30 4298 C 422.205 0.565496 2.23765 0
M  V30 4299 C 423.175 -0.408466 1.60999 0
M  V30 4300 O 424.36 -0.310503 1.88257 0
M  V30 4301 C 421.5 -0.101667 3.4495 0
M  V30 4302 C 420.613 0.915479 4.22188 0
M  V30 4303 C 419.748 0.220574 5.30742 0
M  V30 4304 C 418.787 1.22527 5.99711 0
M  V30 4305 N 417.924 0.557831 6.9988 0
M  V30 4306 H 422.764 1.44314 2.60725 0
M  V30 4307 H 420.301 0.722643 1.28126 0
M  V30 4308 H 422.259 -0.505504 4.14126 0
M  V30 4309 H 420.889 -0.94303 3.08718 0
M  V30 4310 H 419.941 1.43756 3.52191 0
M  V30 4311 H 421.253 1.68005 4.69655 0
M  V30 4312 H 420.407 -0.239368 6.06228 0
M  V30 4313 H 419.146 -0.576401 4.84282 0
M  V30 4314 H 418.151 1.69571 5.22997 0
M  V30 4315 H 419.376 2.02332 6.48258 0
M  V30 4316 H 417.322 -0.219486 6.55633 0
M  V30 4317 H 417.239 1.26065 7.45415 0
M  V30 4318 H 418.507 0.121095 7.79406 0
M  V30 4319 N 422.737 -1.36956 0.779787 0
M  V30 4320 C 423.667 -2.32761 0.185651 0
M  V30 4321 C 424.648 -1.56177 -0.673989 0
M  V30 4322 O 425.833 -1.84378 -0.609797 0
M  V30 4323 C 422.963 -3.40418 -0.687964 0
M  V30 4324 C 421.917 -4.27941 0.0710102 0
M  V30 4325 C 421.243 -5.26681 -0.922573 0
M  V30 4326 C 422.543 -5.07006 1.25467 0
M  V30 4327 H 424.237 -2.82698 0.986008 0
M  V30 4328 H 421.783 -1.3592 0.475592 0
M  V30 4329 H 423.736 -4.06423 -1.11348 0
M  V30 4330 H 422.46 -2.89025 -1.52093 0
M  V30 4331 H 421.119 -3.63478 0.47739 0
M  V30 4332 H 420.767 -4.71565 -1.7503 0
M  V30 4333 H 420.467 -5.86103 -0.419237 0
M  V30 4334 H 421.991 -5.9556 -1.34686 0
M  V30 4335 H 423.405 -5.66105 0.905401 0
M  V30 4336 H 421.802 -5.75793 1.69063 0
M  V30 4337 H 422.872 -4.3921 2.05481 0
M  V30 4338 N 424.215 -0.530993 -1.48385 0
M  V30 4339 C 425.44 0.000729535 -2.074 0
M  V30 4340 C 425.865 1.27298 -1.3848 0
M  V30 4341 O 425.223 1.75599 -0.451081 0
M  V30 4342 C 425.271 0.206697 -3.60007 0
M  V30 4343 O 424.375 1.27514 -3.92191 0
M  V30 4344 H 423.716 -0.039583 -0.662819 0
M  V30 4345 H 426.246 -0.739194 -1.9078 0
M  V30 4346 H 426.256 0.42904 -4.05738 0
M  V30 4347 H 424.931 -0.722675 -4.09573 0
M  V30 4348 H 423.508 1.03537 -3.58238 0
M  V30 4349 N 425.693 1.55336 -0.266172 0
M  V30 4350 C 426.918 2.04258 0.359661 0
M  V30 4351 C 427.343 1.14359 1.49344 0
M  V30 4352 O 426.701 0.140369 1.80756 0
M  V30 4353 C 426.749 3.50997 0.826635 0
M  V30 4354 O 425.853 3.64204 1.93466 0
M  V30 4355 H 425.194 0.659668 0.075727 0
M  V30 4356 H 427.724 2.00694 -0.39786 0
M  V30 4357 H 427.734 3.9219 1.12477 0
M  V30 4358 H 426.409 4.159 -0.00293032 0
M  V30 4359 H 424.986 3.34913 1.63974 0
M  V30 4360 N 427.171 -0.0066808 1.57599 0
M  V30 4361 C 428.587 -0.36267 1.55425 0
M  V30 4362 C 428.787 -1.75209 0.995187 0
M  V30 4363 O 427.843 -2.44616 0.626058 0
M  V30 4364 C 429.156 -0.244017 2.99708 0
M  V30 4365 C 430.704 -0.319451 3.11366 0
M  V30 4366 C 431.179 -0.229998 4.57422 0
M  V30 4367 N 432.67 -0.288105 4.62303 0
M  V30 4368 C 433.405 -0.242127 5.72889 0
M  V30 4369 N 432.901 -0.147133 6.92644 0
M  V30 4370 N 434.694 -0.293502 5.61333 0
M  V30 4371 H 426.845 0.902314 1.92281 0
M  V30 4372 H 429.108 0.34525 0.882896 0
M  V30 4373 H 428.814 0.711678 3.44424 0
M  V30 4374 H 428.688 -1.02877 3.629 0
M  V30 4375 H 431.075 -1.26559 2.66584 0
M  V30 4376 H 431.156 0.495055 2.50964 0
M  V30 4377 H 430.8 0.712566 5.02877 0
M  V30 4378 H 430.73 -1.0629 5.15761 0
M  V30 4379 H 433.221 -0.363126 3.76151 0
M  V30 4380 H 433.534 -0.117763 7.7271 0
M  V30 4381 H 431.879 -0.112857 6.94908 0
M  V30 4382 H 435.07 -0.365864 4.66668 0
M  V30 4383 H 435.243 -0.254204 6.47501 0
M  V30 4384 N 428.649 -1.55105 -0.279332 0
M  V30 4385 C 429.559 -1.90638 -1.36727 0
M  V30 4386 C 430.575 -0.802899 -1.54368 0
M  V30 4387 O 431.751 -1.10138 -1.68616 0
M  V30 4388 C 428.816 -2.16547 -2.70755 0
M  V30 4389 C 427.877 -3.40146 -2.61915 0
M  V30 4390 C 427.11 -3.6481 -3.8955 0
M  V30 4391 O 427.333 -2.92095 -4.89935 0
M  V30 4392 O 426.267 -4.58343 -3.90135 0
M  V30 4393 H 430.093 -2.83237 -1.09591 0
M  V30 4394 H 427.678 -1.4157 -0.477306 0
M  V30 4395 H 429.56 -2.34665 -3.50014 0
M  V30 4396 H 428.235 -1.27131 -2.9769 0
M  V30 4397 H 427.142 -3.2737 -1.81052 0
M  V30 4398 H 428.475 -4.29761 -2.3993 0
M  V30 4399 N 430.127 0.543554 -1.4793 0
M  V30 4400 C 431.074 1.64942 -1.6144 0
M  V30 4401 C 432.044 1.59692 -0.456903 0
M  V30 4402 O 433.229 1.78321 -0.678688 0
M  V30 4403 C 430.369 3.03238 -1.64744 0
M  V30 4404 C 429.482 3.18823 -2.91506 0
M  V30 4405 C 428.617 4.47599 -2.86057 0
M  V30 4406 C 427.656 4.56664 -4.07584 0
M  V30 4407 N 426.793 5.76811 -4.00292 0
M  V30 4408 H 431.633 1.52733 -2.55884 0
M  V30 4409 H 429.17 0.7438 -1.2691 0
M  V30 4410 H 431.128 3.83339 -1.64641 0
M  V30 4411 H 429.758 3.1425 -0.738017 0
M  V30 4412 H 428.81 2.32064 -3.01414 0
M  V30 4413 H 430.122 3.21384 -3.81463 0
M  V30 4414 H 429.276 5.35975 -2.84281 0
M  V30 4415 H 428.015 4.47538 -1.93807 0
M  V30 4416 H 427.02 3.66697 -4.09651 0
M  V30 4417 H 428.245 4.58474 -5.00978 0
M  V30 4418 H 426.191 5.77673 -3.10853 0
M  V30 4419 H 426.108 5.80808 -4.8394 0
M  V30 4420 H 427.376 6.67512 -4.02553 0
M  V30 4421 N 431.605 1.3629 0.791371 0
M  V30 4422 C 432.83 1.33726 1.58531 0
M  V30 4423 C 433.255 -0.0794933 1.87932 0
M  V30 4424 O 432.613 -1.05087 1.47738 0
M  V30 4425 C 432.661 2.16425 2.88431 0
M  V30 4426 O 431.765 1.5554 3.81944 0
M  V30 4427 H 431.106 0.457793 0.480959 0
M  V30 4428 H 433.636 1.79547 0.981031 0
M  V30 4429 H 433.646 2.28933 3.37718 0
M  V30 4430 H 432.321 3.19415 2.66359 0
M  V30 4431 H 430.898 1.51961 3.40532 0
M  V30 4432 N 433.083 -1.0153 1.20538 0
M  V30 4433 C 434.016 -2.09759 0.898695 0
M  V30 4434 C 434.994 -1.61909 -0.149733 0
M  V30 4435 O 436.178 -1.88486 -0.0230293 0
M  V30 4436 C 433.305 -3.36913 0.347512 0
M  V30 4437 C 432.351 -4.03655 1.37713 0
M  V30 4438 S 433.184 -4.47402 2.94265 0
M  V30 4439 C 434.34 -5.77756 2.40726 0
M  V30 4440 H 434.573 -2.3545 1.81523 0
M  V30 4441 H 432.106 -1.14665 1.03399 0
M  V30 4442 H 434.064 -4.10484 0.0360518 0
M  V30 4443 H 432.725 -3.09291 -0.547546 0
M  V30 4444 H 431.918 -4.9514 0.940872 0
M  V30 4445 H 431.52 -3.36313 1.63614 0
M  V30 4446 H 433.812 -6.52994 1.80569 0
M  V30 4447 H 434.755 -6.2618 3.30612 0
M  V30 4448 H 435.163 -5.34081 1.82806 0
M  V30 4449 N 434.561 -1.01147 -1.20859 0
M  V30 4450 C 435.493 -0.535546 -2.22855 0
M  V30 4451 C 436.506 0.379323 -1.58319 0
M  V30 4452 O 437.695 0.178489 -1.77605 0
M  V30 4453 C 434.795 0.240962 -3.38042 0
M  V30 4454 C 433.968 -0.674562 -4.32167 0
M  V30 4455 C 433.027 0.053467 -5.26173 0
M  V30 4456 O 432.053 -0.567339 -5.66366 0
M  V30 4457 N 433.255 1.32997 -5.65059 0
M  V30 4458 H 436.02 -1.41268 -2.64317 0
M  V30 4459 H 433.581 -0.888386 -1.35349 0
M  V30 4460 H 435.573 0.737115 -3.97931 0
M  V30 4461 H 434.143 1.01935 -2.95513 0
M  V30 4462 H 433.363 -1.35111 -3.70322 0
M  V30 4463 H 434.651 -1.2974 -4.91981 0
M  V30 4464 H 434.049 1.85536 -5.34409 0
M  V30 4465 H 432.606 1.77095 -6.2728 0
M  V30 4466 N 436.039 1.36541 -0.78704 0
M  V30 4467 C 437.316 1.9355 -0.282424 0
M  V30 4468 C 437.696 1.71919 1.22503 0
M  V30 4469 O 437.044 1.07677 2.01539 0
M  V30 4470 C 437.254 3.4246 -0.672462 0
M  V30 4471 C 438.602 4.19582 -0.650863 0
M  V30 4472 O 439.626 3.50889 -0.612789 0
M  V30 4473 O 438.485 5.42106 -0.691623 0
M  V30 4474 H 435.579 0.824091 -0.0693 0
M  V30 4475 H 438.125 1.45736 -0.869423 0
M  V30 4476 H 436.897 3.51851 -1.71221 0
M  V30 4477 H 436.52 3.97556 -0.0592211 0
M  V30 4478 N 437.518 0.538854 1.48102 0
M  V30 4479 C 438.934 0.19732 1.58376 0
M  V30 4480 C 439.134 -1.29971 1.5398 0
M  V30 4481 O 438.19 -2.07861 1.43352 0
M  V30 4482 C 439.503 0.807716 2.89649 0
M  V30 4483 C 441.051 0.77726 3.03196 0
M  V30 4484 C 441.526 1.36639 4.37143 0
M  V30 4485 N 443.017 1.32875 4.43732 0
M  V30 4486 C 443.752 1.7544 5.45901 0
M  V30 4487 N 443.248 2.25776 6.54979 0
M  V30 4488 N 445.041 1.66623 5.36836 0
M  V30 4489 H 437.192 1.5117 1.49202 0
M  V30 4490 H 439.455 0.629327 0.708979 0
M  V30 4491 H 439.161 1.85909 2.98548 0
M  V30 4492 H 439.035 0.289975 3.76084 0
M  V30 4493 H 441.422 -0.265374 2.93904 0
M  V30 4494 H 441.503 1.33256 2.18349 0
M  V30 4495 H 441.147 2.408 4.47189 0
M  V30 4496 H 441.077 0.786689 5.20691 0
M  V30 4497 H 443.568 0.96037 3.65493 0
M  V30 4498 H 443.881 2.56226 7.29087 0
M  V30 4499 H 442.226 2.29775 6.55918 0
M  V30 4500 H 445.417 1.27089 4.50517 0
M  V30 4501 H 445.59 2.00115 6.16326 0
M  V30 4502 N 438.996 -1.55193 0.274407 0
M  V30 4503 C 439.926 -2.25471 -0.607032 0
M  V30 4504 C 440.907 -1.24461 -1.15946 0
M  V30 4505 O 442.092 -1.53179 -1.19373 0
M  V30 4506 C 439.222 -2.97526 -1.79153 0
M  V30 4507 C 438.176 -4.05459 -1.37067 0
M  V30 4508 C 437.502 -4.65084 -2.6382 0
M  V30 4509 C 438.802 -5.19691 -0.521389 0
M  V30 4510 H 440.496 -2.99393 -0.0209343 0
M  V30 4511 H 438.042 -1.43997 -0.00862866 0
M  V30 4512 H 439.995 -3.45402 -2.41404 0
M  V30 4513 H 438.719 -2.21138 -2.40344 0
M  V30 4514 H 437.378 -3.58393 -0.771355 0
M  V30 4515 H 437.026 -3.85365 -3.23268 0
M  V30 4516 H 436.726 -5.37961 -2.36372 0
M  V30 4517 H 438.25 -5.15708 -3.26921 0
M  V30 4518 H 439.664 -5.63623 -1.04889 0
M  V30 4519 H 438.061 -5.99126 -0.341825 0
M  V30 4520 H 439.131 -4.82713 0.46 0
M  V30 4521 N 440.474 -0.00167713 -1.576 0
M  V30 4522 C 441.89 0.354422 -1.55615 0
M  V30 4523 C 442.09 1.74679 -1.00447 0
M  V30 4524 O 441.146 2.4428 -0.639022 0
M  V30 4525 C 442.459 0.22812 -2.99833 0
M  V30 4526 C 444.007 0.302934 -3.11531 0
M  V30 4527 C 444.482 0.205737 -4.57538 0
M  V30 4528 N 445.973 0.263584 -4.62449 0
M  V30 4529 C 446.708 0.211742 -5.73009 0
M  V30 4530 N 446.204 0.110399 -6.92712 0
M  V30 4531 N 447.997 0.263729 -5.61481 0
M  V30 4532 H 440.148 -0.912498 -1.918 0
M  V30 4533 H 442.411 -0.349928 -0.881053 0
M  V30 4534 H 442.117 -0.729934 -3.44042 0
M  V30 4535 H 441.991 1.00951 -3.6344 0
M  V30 4536 H 444.378 1.25143 -2.67251 0
M  V30 4537 H 444.459 -0.508357 -2.50698 0
M  V30 4538 H 444.103 -0.739225 -5.02492 0
M  V30 4539 H 444.033 1.03554 -5.16318 0
M  V30 4540 H 446.524 0.343173 -3.76339 0
M  V30 4541 H 446.837 0.0767828 -7.72762 0
M  V30 4542 H 445.182 0.0760025 -6.94958 0
M  V30 4543 H 448.373 0.34111 -4.66855 0
M  V30 4544 H 448.546 0.219862 -6.47627 0
M  V30 4545 N 441.952 1.55251 0.271103 0
M  V30 4546 C 442.882 1.9127 1.33933 0
M  V30 4547 C 443.863 0.77478 1.5143 0
M  V30 4548 O 445.048 1.03307 1.64442 0
M  V30 4549 C 442.178 2.18627 2.69851 0
M  V30 4550 C 441.132 3.34442 2.67081 0
M  V30 4551 C 440.458 3.47284 4.06569 0
M  V30 4552 C 441.758 4.70784 2.26185 0
M  V30 4553 H 443.452 2.80744 1.04035 0
M  V30 4554 H 440.998 1.35077 0.499017 0
M  V30 4555 H 442.951 2.42413 3.44694 0
M  V30 4556 H 441.675 1.25955 3.01335 0
M  V30 4557 H 440.334 3.10627 1.94695 0
M  V30 4558 H 439.982 2.52074 4.35279 0
M  V30 4559 H 439.682 4.25152 4.0561 0
M  V30 4560 H 441.206 3.73363 4.83148 0
M  V30 4561 H 442.62 4.94102 2.90751 0
M  V30 4562 H 441.017 5.51582 2.36384 0
M  V30 4563 H 442.087 4.69478 1.21319 0
M  V30 4564 N 443.43 -0.535701 1.48216 0
M  V30 4565 C 444.678 -1.28928 1.55634 0
M  V30 4566 C 444.999 -1.93645 0.229514 0
M  V30 4567 O 444.269 -1.81038 -0.74846 0
M  V30 4568 H 442.849 -0.47884 0.573342 0
M  V30 4569 H 445.511 -0.623853 1.84646 0
M  V30 4570 H 444.607 -2.07157 2.33436 0
M  V30 4571 N 444.908 -1.36708 -0.784132 0
M  V30 4572 C 445.858 -1.2799 -1.88686 0
M  V30 4573 C 446.842 -0.170282 -1.59996 0
M  V30 4574 O 448.034 -0.403571 -1.72338 0
M  V30 4575 C 445.163 -1.07674 -3.25977 0
M  V30 4576 C 444.249 -2.23127 -3.60659 0
M  V30 4577 N 444.64 -3.48467 -3.66612 0
M  V30 4578 C 442.938 -2.15009 -3.90752 0
M  V30 4579 C 443.639 -4.24525 -3.97685 0
M  V30 4580 N 442.615 -3.53524 -4.12943 0
M  V30 4581 H 446.417 -2.22927 -1.91522 0
M  V30 4582 H 443.931 -1.29503 -0.979933 0
M  V30 4583 H 445.928 -0.995151 -4.04849 0
M  V30 4584 H 444.588 -0.13643 -3.24413 0
M  V30 4585 H 445.599 -3.82534 -3.49125 0
M  V30 4586 H 442.276 -1.28963 -3.97083 0
M  V30 4587 H 443.666 -5.32944 -4.0917 0
M  V30 4588 N 446.386 1.0089 -1.21074 0
M  V30 4589 C 447.633 1.74607 -1.0256 0
M  V30 4590 C 447.961 1.89426 0.44136 0
M  V30 4591 O 447.216 1.42266 1.34384 0
M  V30 4592 C 447.515 3.16335 -1.66334 0
M  V30 4593 C 447.181 3.21474 -3.16173 0
M  V30 4594 C 445.843 3.22583 -3.57062 0
M  V30 4595 C 448.195 3.19025 -4.12156 0
M  V30 4596 C 445.523 3.18925 -4.92446 0
M  V30 4597 C 447.875 3.16909 -5.47496 0
M  V30 4598 C 446.539 3.16326 -5.87787 0
M  V30 4599 H 445.809 0.638933 -0.375294 0
M  V30 4600 H 448.456 1.18274 -1.50611 0
M  V30 4601 H 446.761 3.75876 -1.10566 0
M  V30 4602 H 448.458 3.72083 -1.49516 0
M  V30 4603 H 445.048 3.2135 -2.83605 0
M  V30 4604 H 449.232 3.17332 -3.81595 0
M  V30 4605 H 444.488 3.16809 -5.22917 0
M  V30 4606 H 448.662 3.13968 -6.21609 0
M  V30 4607 H 446.289 3.13246 -6.92662 0
M  V30 4608 N 447.864 1.01787 1.20321 0
M  V30 4609 C 449.092 0.727194 1.937 0
M  V30 4610 C 449.507 -0.712305 1.74848 0
M  V30 4611 O 448.864 -1.48327 1.06327 0
M  V30 4612 C 448.915 1.05497 3.45764 0
M  V30 4613 O 448.636 2.43794 3.64 0
M  V30 4614 C 450.137 0.785534 4.36285 0
M  V30 4615 H 447.357 0.266939 0.615617 0
M  V30 4616 H 449.901 1.35939 1.52777 0
M  V30 4617 H 448.056 0.468158 3.84561 0
M  V30 4618 H 448.47 2.55656 4.57974 0
M  V30 4619 H 449.944 1.06495 5.4163 0
M  V30 4620 H 450.421 -0.280273 4.38305 0
M  V30 4621 H 451.027 1.35456 4.03152 0
M  V30 4622 N 449.342 -1.36122 0.79427 0
M  V30 4623 C 450.57 -2.03362 0.380989 0
M  V30 4624 C 450.985 -1.59881 -1.00416 0
M  V30 4625 O 450.342 -0.790515 -1.6449 0
M  V30 4626 C 450.393 -3.58804 0.440649 0
M  V30 4627 O 450.114 -4.007 1.77118 0
M  V30 4628 C 451.615 -4.43296 0.0186117 0
M  V30 4629 H 448.835 -0.652526 0.156367 0
M  V30 4630 H 451.379 -1.73998 1.07447 0
M  V30 4631 H 449.534 -3.8686 -0.204458 0
M  V30 4632 H 449.948 -4.95309 1.72538 0
M  V30 4633 H 451.422 -5.51887 0.111488 0
M  V30 4634 H 451.899 -4.2684 -1.03461 0
M  V30 4635 H 452.505 -4.20512 0.636395 0
M  V30 4636 N 450.82 -0.546701 -1.47814 0
M  V30 4637 C 452.066 -0.0187684 -2.02791 0
M  V30 4638 C 452.399 1.32338 -1.42128 0
M  V30 4639 O 451.674 1.85867 -0.573023 0
M  V30 4640 C 451.957 0.0854985 -3.59998 0
M  V30 4641 C 451.81 -1.283 -4.31114 0
M  V30 4642 C 453.129 0.80412 -4.32691 0
M  V30 4643 H 450.248 -0.0082946 -0.736953 0
M  V30 4644 H 452.89 -0.706962 -1.76358 0
M  V30 4645 H 451.04 0.671609 -3.82651 0
M  V30 4646 H 452.712 -1.91151 -4.19832 0
M  V30 4647 H 450.955 -1.86049 -3.91878 0
M  V30 4648 H 451.626 -1.16287 -5.39612 0
M  V30 4649 H 454.102 0.306576 -4.14969 0
M  V30 4650 H 452.978 0.846011 -5.42341 0
M  V30 4651 H 453.239 1.85802 -4.01161 0
M  V30 4652 N 452.299 1.55045 -0.282633 0
M  V30 4653 C 453.715 1.59441 0.0712997 0
M  V30 4654 C 453.915 1.2998 1.53972 0
M  V30 4655 O 452.971 1.06431 2.28973 0
M  V30 4656 C 454.284 2.99097 -0.310104 0
M  V30 4657 C 455.832 3.1194 -0.257343 0
M  V30 4658 C 456.307 4.53875 -0.613297 0
M  V30 4659 N 457.798 4.5974 -0.565134 0
M  V30 4660 C 458.533 5.67603 -0.81326 0
M  V30 4661 N 458.029 6.83582 -1.1264 0
M  V30 4662 N 459.822 5.57187 -0.741553 0
M  V30 4663 H 451.973 1.72458 -1.23984 0
M  V30 4664 H 454.236 0.804549 -0.501403 0
M  V30 4665 H 453.942 3.25516 -1.33163 0
M  V30 4666 H 453.816 3.75616 0.345366 0
M  V30 4667 H 456.203 2.85281 0.754905 0
M  V30 4668 H 456.284 2.37618 -0.947178 0
M  V30 4669 H 455.928 4.81261 -1.62327 0
M  V30 4670 H 455.858 5.26508 0.09841 0
M  V30 4671 H 458.349 3.76427 -0.333294 0
M  V30 4672 H 458.662 7.6175 -1.30219 0
M  V30 4673 H 457.007 6.85179 -1.16425 0
M  V30 4674 H 460.198 4.65457 -0.496705 0
M  V30 4675 H 460.371 6.41171 -0.938306 0
M  V30 4676 N 453.777 0.010035 1.57597 0
M  V30 4677 C 454.727 -0.986858 2.05536 0
M  V30 4678 C 455.711 -1.29711 0.952042 0
M  V30 4679 O 456.903 -1.28641 1.21575 0
M  V30 4680 C 454.032 -2.2756 2.57043 0
M  V30 4681 C 453.118 -1.99455 3.74271 0
M  V30 4682 N 453.509 -1.41546 4.85591 0
M  V30 4683 C 451.807 -2.29547 3.82393 0
M  V30 4684 C 452.508 -1.3014 5.66956 0
M  V30 4685 N 451.484 -1.79044 5.13268 0
M  V30 4686 H 455.286 -0.533778 2.89012 0
M  V30 4687 H 452.8 -0.195432 1.6122 0
M  V30 4688 H 454.797 -2.99829 2.89669 0
M  V30 4689 H 453.457 -2.73512 1.7499 0
M  V30 4690 H 454.468 -1.09294 5.06236 0
M  V30 4691 H 451.145 -2.78304 3.11213 0
M  V30 4692 H 452.535 -0.855237 6.66435 0
M  V30 4693 N 455.255 -1.55392 -0.262866 0
M  V30 4694 C 456.503 -1.76127 -0.991147 0
M  V30 4695 C 456.824 -0.571083 -1.8645 0
M  V30 4696 O 456.094 0.413698 -1.91482 0
M  V30 4697 H 454.674 -0.649528 -0.368948 0
M  V30 4698 H 457.336 -1.9281 -0.284655 0
M  V30 4699 H 456.432 -2.6663 -1.62219 0
M  V30 4700 N 456.733 0.527833 -1.48498 0
M  V30 4701 C 457.696 1.61439 -1.62696 0
M  V30 4702 C 458.696 1.52824 -0.500136 0
M  V30 4703 O 459.886 1.56456 -0.765976 0
M  V30 4704 C 457.018 3.01063 -1.59918 0
M  V30 4705 H 458.211 1.50189 -2.59583 0
M  V30 4706 H 455.764 0.750055 -1.37127 0
M  V30 4707 H 456.499 3.17818 -0.645163 0
M  V30 4708 H 456.284 3.08725 -2.41726 0
M  V30 4709 H 457.774 3.80057 -1.73051 0
M  V30 4710 N 458.211 1.37122 0.776871 0
M  V30 4711 C 459.436 1.354 1.57104 0
M  V30 4712 C 459.861 -0.0595562 1.88006 0
M  V30 4713 O 459.219 -1.03514 1.48844 0
M  V30 4714 C 459.267 2.19472 2.8612 0
M  V30 4715 O 458.371 1.59582 3.80273 0
M  V30 4716 H 457.712 0.462869 0.476076 0
M  V30 4717 H 460.242 1.80577 0.961932 0
M  V30 4718 H 460.252 2.32502 3.35271 0
M  V30 4719 H 458.927 3.22222 2.62956 0
M  V30 4720 H 457.504 1.55564 3.38902 0
M  V30 4721 N 459.689 -1.00246 1.21608 0
M  V30 4722 C 460.936 -1.74061 1.03485 0
M  V30 4723 C 461.264 -1.89658 -0.431308 0
M  V30 4724 O 460.519 -1.42976 -1.33627 0
M  V30 4725 C 460.818 -3.15448 1.68009 0
M  V30 4726 C 460.484 -3.19792 3.17874 0
M  V30 4727 C 459.146 -3.20685 3.58768 0
M  V30 4728 C 461.498 -3.16835 4.13842 0
M  V30 4729 C 458.826 -3.16309 4.94131 0
M  V30 4730 C 461.178 -3.14001 5.49169 0
M  V30 4731 C 459.842 -3.13204 5.89457 0
M  V30 4732 H 459.112 -0.636934 0.378677 0
M  V30 4733 H 461.759 -1.17473 1.51236 0
M  V30 4734 H 460.064 -3.75284 1.12557 0
M  V30 4735 H 461.761 -3.71285 1.51487 0
M  V30 4736 H 458.351 -3.19842 2.85305 0
M  V30 4737 H 462.535 -3.15303 3.83272 0
M  V30 4738 H 457.791 -3.14032 5.24589 0
M  V30 4739 H 461.965 -3.10667 6.23265 0
M  V30 4740 H 459.592 -3.09568 6.94314 0
M  V30 4741 N 461.167 -1.02423 -1.1978 0
M  V30 4742 C 462.395 -0.737456 -1.93311 0
M  V30 4743 C 462.81 0.703023 -1.75223 0
M  V30 4744 O 462.167 1.47761 -1.07112 0
M  V30 4745 C 462.218 -1.0733 -3.45199 0
M  V30 4746 O 461.939 -2.4572 -3.62702 0
M  V30 4747 C 463.44 -0.80866 -4.35862 0
M  V30 4748 H 460.66 -0.2702 -0.614193 0
M  V30 4749 H 463.204 -1.36747 -1.52054 0
M  V30 4750 H 461.359 -0.488545 -3.84307 0
M  V30 4751 H 461.773 -2.58081 -4.56612 0
M  V30 4752 H 463.247 -1.09365 -5.41057 0
M  V30 4753 H 463.724 0.257025 -4.38447 0
M  V30 4754 H 464.33 -1.37592 -4.02428 0
M  V30 4755 N 462.645 1.35699 -0.801477 0
M  V30 4756 C 463.555 2.33661 -0.209691 0
M  V30 4757 C 464.571 1.6162 0.644591 0
M  V30 4758 O 465.747 1.93529 0.557545 0
M  V30 4759 C 462.812 3.40816 0.636033 0
M  V30 4760 C 461.873 4.28639 -0.238147 0
M  V30 4761 C 461.106 5.30676 0.567307 0
M  V30 4762 O 461.329 5.41174 1.8024 0
M  V30 4763 O 460.263 6.01887 -0.0391336 0
M  V30 4764 H 464.089 2.8606 -1.01996 0
M  V30 4765 H 461.674 1.38379 -0.563164 0
M  V30 4766 H 463.556 4.06301 1.11791 0
M  V30 4767 H 462.231 2.90696 1.42399 0
M  V30 4768 H 461.138 3.66152 -0.767044 0
M  V30 4769 H 462.471 4.82143 -0.989915 0
M  V30 4770 N 464.123 0.554532 1.47522 0
M  V30 4771 C 465.055 -0.232106 2.28022 0
M  V30 4772 C 466.068 -0.881865 1.36847 0
M  V30 4773 O 467.257 -0.756168 1.61692 0
M  V30 4774 C 464.357 -1.34604 3.11022 0
M  V30 4775 C 463.53 -0.793582 4.30141 0
M  V30 4776 C 462.589 -1.79168 4.94758 0
M  V30 4777 O 461.615 -1.33886 5.5323 0
M  V30 4778 N 462.817 -3.12495 4.89211 0
M  V30 4779 H 465.582 0.458407 2.96173 0
M  V30 4780 H 463.143 0.390433 1.57122 0
M  V30 4781 H 465.135 -2.01243 3.51118 0
M  V30 4782 H 463.705 -1.93983 2.45131 0
M  V30 4783 H 462.925 0.0495025 3.94169 0
M  V30 4784 H 464.213 -0.403776 5.07195 0
M  V30 4785 H 463.611 -3.51931 4.42901 0
M  V30 4786 H 462.168 -3.74698 5.33333 0
M  V30 4787 N 465.601 -1.54893 0.290851 0
M  V30 4788 C 466.847 -2.00949 -0.314784 0
M  V30 4789 C 467.202 -1.1757 -1.52299 0
M  V30 4790 O 466.495 -0.241558 -1.90071 0
M  V30 4791 C 466.689 -3.49815 -0.732397 0
M  V30 4792 C 466.518 -4.47603 0.433799 0
M  V30 4793 C 465.288 -4.96806 0.922599 0
M  V30 4794 C 467.486 -4.98233 1.27546 0
M  V30 4795 N 465.468 -5.78426 2.05662 0
M  V30 4796 C 466.839 -5.77455 2.25712 0
M  V30 4797 C 468.894 -4.80439 1.307 0
M  V30 4798 C 467.597 -6.40778 3.26796 0
M  V30 4799 C 469.623 -5.44574 2.30637 0
M  V30 4800 C 468.985 -6.23619 3.27533 0
M  V30 4801 H 465.084 -0.777905 -0.0799257 0
M  V30 4802 H 467.668 -1.9015 0.418458 0
M  V30 4803 H 465.839 -3.60925 -1.43483 0
M  V30 4804 H 467.571 -3.82681 -1.31671 0
M  V30 4805 H 464.326 -4.70961 0.49926 0
M  V30 4806 H 464.75 -6.23923 2.62772 0
M  V30 4807 H 469.392 -4.18918 0.571622 0
M  V30 4808 H 467.11 -7.01439 4.01258 0
M  V30 4809 H 470.696 -5.32739 2.33838 0
M  V30 4810 H 469.576 -6.72367 4.03599 0
M  V30 4811 N 467.08 -0.0183926 -1.57589 0
M  V30 4812 C 468.308 0.673046 -1.95647 0
M  V30 4813 C 468.723 1.66275 -0.894312 0
M  V30 4814 O 468.08 1.82072 0.124975 0
M  V30 4815 C 468.131 1.38884 -3.33756 0
M  V30 4816 O 467.852 0.438806 -4.35897 0
M  V30 4817 C 469.353 2.1731 -3.86383 0
M  V30 4818 H 466.573 0.186292 -0.644621 0
M  V30 4819 H 469.117 -0.0749748 -2.04363 0
M  V30 4820 H 467.272 2.08835 -3.26293 0
M  V30 4821 H 467.686 0.945869 -5.15901 0
M  V30 4822 H 469.16 2.62863 -4.85394 0
M  V30 4823 H 469.637 3.00764 -3.20059 0
M  V30 4824 H 470.243 1.52339 -3.97081 0
M  V30 4825 N 468.558 1.5553 0.254621 0
M  V30 4826 C 469.835 1.6774 1.00611 0
M  V30 4827 C 470.215 0.555993 2.03647 0
M  V30 4828 O 469.563 -0.441583 2.24193 0
M  V30 4829 C 469.773 3.07725 1.6464 0
M  V30 4830 C 471.121 3.66074 2.15116 0
M  V30 4831 O 472.145 3.10476 1.74595 0
M  V30 4832 O 471.004 4.63526 2.89493 0
M  V30 4833 H 468.098 0.681958 0.467828 0
M  V30 4834 H 470.644 1.67863 0.24902 0
M  V30 4835 H 469.416 3.80792 0.900734 0
M  V30 4836 H 469.039 3.1158 2.46989 0
M  V30 4837 N 470.036 -0.519951 1.48776 0
M  V30 4838 C 471.284 -1.2727 1.56993 0
M  V30 4839 C 471.605 -1.9339 0.25004 0
M  V30 4840 O 470.875 -1.81822 -0.729216 0
M  V30 4841 H 469.455 -0.472732 0.578389 0
M  V30 4842 H 472.117 -0.604234 1.85297 0
M  V30 4843 H 471.213 -2.04669 2.3562 0
M  V30 4844 N 471.514 -1.37532 -0.769588 0
M  V30 4845 C 472.761 -1.3286 -1.52822 0
M  V30 4846 C 473.089 0.0862597 -1.94309 0
M  V30 4847 O 472.344 1.05995 -1.6451 0
M  V30 4848 C 472.643 -2.21558 -2.8044 0
M  V30 4849 C 472.309 -3.69796 -2.57996 0
M  V30 4850 C 470.971 -4.10194 -2.51583 0
M  V30 4851 C 473.323 -4.63699 -2.37976 0
M  V30 4852 C 470.651 -5.42608 -2.23144 0
M  V30 4853 C 473.003 -5.96353 -2.1106 0
M  V30 4854 C 471.667 -6.35853 -2.03093 0
M  V30 4855 H 470.937 -0.486168 -0.559215 0
M  V30 4856 H 473.584 -1.69757 -0.886277 0
M  V30 4857 H 471.889 -1.77663 -3.49204 0
M  V30 4858 H 473.586 -2.15256 -3.38328 0
M  V30 4859 H 470.176 -3.37759 -2.63851 0
M  V30 4860 H 474.36 -4.33346 -2.41919 0
M  V30 4861 H 469.616 -5.72173 -2.15472 0
M  V30 4862 H 473.79 -6.68667 -1.94568 0
M  V30 4863 H 471.417 -7.38382 -1.8082 0
M  V30 4864 N 472.992 0.995999 -1.22138 0
M  V30 4865 C 473.955 2.06711 -0.990109 0
M  V30 4866 C 474.955 1.60744 0.0422978 0
M  V30 4867 O 476.145 1.73095 -0.195895 0
M  V30 4868 C 473.277 3.37288 -0.49491 0
M  V30 4869 H 474.47 2.28661 -1.94047 0
M  V30 4870 H 472.023 1.16711 -1.03963 0
M  V30 4871 H 472.758 3.21022 0.459948 0
M  V30 4872 H 472.543 3.71986 -1.23971 0
M  V30 4873 H 474.033 4.16103 -0.353253 0
M  V30 4874 N 474.47 1.03057 1.19235 0
M  V30 4875 C 475.717 0.728019 1.88961 0
M  V30 4876 C 476.045 -0.743515 1.79728 0
M  V30 4877 O 475.3 -1.55729 1.1852 0
M  V30 4878 C 475.599 1.1268 3.39172 0
M  V30 4879 C 475.265 2.5969 3.68608 0
M  V30 4880 C 473.927 2.99854 3.76352 0
M  V30 4881 C 476.279 3.54793 3.81801 0
M  V30 4882 C 473.607 4.34031 3.94758 0
M  V30 4883 C 475.959 4.88675 4.0172 0
M  V30 4884 C 474.623 5.28526 4.07697 0
M  V30 4885 H 473.893 0.266401 0.691456 0
M  V30 4886 H 476.54 1.29373 1.41191 0
M  V30 4887 H 474.845 0.479722 3.88852 0
M  V30 4888 H 476.542 0.870203 3.91444 0
M  V30 4889 H 473.132 2.27575 3.63191 0
M  V30 4890 H 477.316 3.24914 3.7516 0
M  V30 4891 H 472.572 4.6444 3.97625 0
M  V30 4892 H 476.746 5.6228 4.1087 0
M  V30 4893 H 474.373 6.32506 4.21712 0
M  V30 4894 N 475.948 -1.35272 0.808662 0
M  V30 4895 C 476.88 -2.28507 0.178149 0
M  V30 4896 C 477.893 -1.50377 -0.623754 0
M  V30 4897 O 479.082 -1.72583 -0.455774 0
M  V30 4898 C 476.182 -3.30038 -0.769959 0
M  V30 4899 C 475.355 -4.37398 -0.0139749 0
M  V30 4900 C 474.414 -5.18775 -0.880875 0
M  V30 4901 O 473.44 -5.68236 -0.331059 0
M  V30 4902 N 474.642 -5.37087 -2.20267 0
M  V30 4903 H 477.407 -2.83255 0.979106 0
M  V30 4904 H 474.968 -1.47643 0.664308 0
M  V30 4905 H 476.96 -3.81371 -1.35418 0
M  V30 4906 H 475.53 -2.75789 -1.47171 0
M  V30 4907 H 474.75 -3.86971 0.751468 0
M  V30 4908 H 476.038 -5.06268 0.506965 0
M  V30 4909 H 475.436 -4.9855 -2.67328 0
M  V30 4910 H 473.993 -5.91593 -2.73608 0
M  V30 4911 N 477.426 -0.562348 -1.47226 0
M  V30 4912 C 478.374 0.195476 -2.31777 0
M  V30 4913 C 479.368 0.90433 -1.43242 0
M  V30 4914 O 480.574 0.825031 -1.59979 0
M  V30 4915 H 476.949 0.0819095 -0.747526 0
M  V30 4916 H 478.92 -0.536753 -2.93533 0
M  V30 4917 C 477.669 1.20902 -3.26003 0
M  V30 4918 H 476.992 0.672997 -3.94095 0
M  V30 4919 H 478.432 1.71006 -3.87986 0
M  V30 4920 C 476.891 2.25955 -2.49891 0
M  V30 4921 O 477.421 3.32969 -2.2471 0
M  V30 4922 N 475.627 2.00019 -2.1081 0
M  V30 4923 H 475.174 1.13006 -2.31489 0
M  V30 4924 H 475.132 2.70523 -1.60201 0
M  V30 4925 N 478.904 1.54736 -0.299062 0
M  V30 4926 C 479.834 2.26409 0.571085 0
M  V30 4927 C 480.815 1.2629 1.13951 0
M  V30 4928 O 482 1.55059 1.16921 0
M  V30 4929 C 479.13 3.00338 1.74396 0
M  V30 4930 C 478.084 4.07588 1.30599 0
M  V30 4931 C 477.41 4.69222 2.56387 0
M  V30 4932 C 478.71 5.20455 0.438645 0
M  V30 4933 H 480.404 2.99388 -0.0266991 0
M  V30 4934 H 477.95 1.43993 -0.0142812 0
M  V30 4935 H 479.903 3.49198 2.35878 0
M  V30 4936 H 478.627 2.24934 2.36796 0
M  V30 4937 H 477.286 3.59575 0.71424 0
M  V30 4938 H 476.934 3.9046 3.17097 0
M  V30 4939 H 476.634 5.41653 2.27784 0
M  V30 4940 H 478.158 5.20844 3.18675 0
M  V30 4941 H 479.572 5.65221 0.959085 0
M  V30 4942 H 477.969 5.99594 0.246466 0
M  V30 4943 H 479.039 4.8192 -0.536738 0
M  V30 4944 N 480.382 0.0267497 1.57577 0
M  V30 4945 C 481.628 -0.653371 1.91987 0
M  V30 4946 C 481.961 -1.71915 0.903263 0
M  V30 4947 O 481.236 -1.94358 -0.0743387 0
M  V30 4948 C 481.519 -1.272 3.36886 0
M  V30 4949 C 481.372 -0.215938 4.49281 0
M  V30 4950 C 482.691 -2.19069 3.81703 0
M  V30 4951 H 479.81 -0.236047 0.698177 0
M  V30 4952 H 482.452 0.0835236 1.89816 0
M  V30 4953 H 480.602 -1.90005 3.38866 0
M  V30 4954 H 482.274 0.41449 4.59434 0
M  V30 4955 H 480.517 0.458855 4.31366 0
M  V30 4956 H 481.188 -0.688347 5.47691 0
M  V30 4957 H 483.664 -1.66253 3.81444 0
M  V30 4958 H 482.54 -2.59307 4.83788 0
M  V30 4959 H 482.801 -3.08087 3.17072 0
M  V30 4960 N 481.861 -1.55662 -0.24637 0
M  V30 4961 C 482.808 -1.90361 -1.30504 0
M  V30 4962 C 483.778 -0.757905 -1.47801 0
M  V30 4963 O 484.963 -1.01161 -1.61775 0
M  V30 4964 C 482.103 -2.2042 -2.65535 0
M  V30 4965 C 481.216 -3.47799 -2.56242 0
M  V30 4966 C 480.351 -3.67426 -3.8363 0
M  V30 4967 C 479.39 -4.88403 -3.68956 0
M  V30 4968 N 478.527 -5.04548 -4.88237 0
M  V30 4969 H 483.367 -2.80645 -1.00213 0
M  V30 4970 H 480.904 -1.38924 -0.483577 0
M  V30 4971 H 482.862 -2.35853 -3.44135 0
M  V30 4972 H 481.492 -1.3334 -2.93973 0
M  V30 4973 H 480.544 -3.40694 -1.69208 0
M  V30 4974 H 481.856 -4.36544 -2.4131 0
M  V30 4975 H 481.01 -3.82821 -4.70673 0
M  V30 4976 H 479.749 -2.76914 -4.01459 0
M  V30 4977 H 478.754 -4.72984 -2.80296 0
M  V30 4978 H 479.979 -5.80375 -3.52621 0
M  V30 4979 H 477.925 -4.16974 -5.06427 0
M  V30 4980 H 477.842 -5.87384 -4.75937 0
M  V30 4981 H 479.11 -5.24355 -5.76777 0
M  V30 4982 N 483.339 0.512053 -1.4905 0
M  V30 4983 C 484.271 1.63121 -1.6101 0
M  V30 4984 C 485.284 1.55145 -0.493352 0
M  V30 4985 O 486.473 1.61278 -0.764955 0
M  V30 4986 C 483.573 3.01863 -1.54052 0
M  V30 4987 C 482.746 3.35138 -2.81072 0
M  V30 4988 C 481.805 4.5324 -2.67319 0
M  V30 4989 O 480.831 4.55571 -3.41238 0
M  V30 4990 N 482.033 5.52495 -1.78127 0
M  V30 4991 H 484.798 1.53292 -2.5753 0
M  V30 4992 H 482.359 0.699706 -1.45999 0
M  V30 4993 H 484.351 3.78774 -1.42521 0
M  V30 4994 H 482.921 3.05675 -0.654345 0
M  V30 4995 H 482.141 2.4723 -3.07036 0
M  V30 4996 H 483.429 3.54162 -3.65304 0
M  V30 4997 H 482.827 5.53403 -1.17308 0
M  V30 4998 H 481.384 6.28553 -1.72525 0
M  V30 4999 N 484.817 1.37938 0.762283 0
M  V30 5000 C 485.749 1.30349 1.88525 0
M  V30 5001 C 486.762 0.217402 1.61342 0
M  V30 5002 O 487.951 0.474291 1.72084 0
M  V30 5003 C 485.051 0.994844 3.23969 0
M  V30 5004 C 484.224 2.18829 3.78725 0
M  V30 5005 C 483.283 1.84844 4.92665 0
M  V30 5006 O 482.309 2.57244 5.07754 0
M  V30 5007 N 483.511 0.798201 5.74986 0
M  V30 5008 H 486.276 2.27114 1.95549 0
M  V30 5009 H 483.837 1.31686 0.941825 0
M  V30 5010 H 485.829 0.748168 3.97724 0
M  V30 5011 H 484.399 0.115446 3.12387 0
M  V30 5012 H 483.619 2.59615 2.96637 0
M  V30 5013 H 484.907 2.98497 4.1204 0
M  V30 5014 H 484.305 0.197611 5.65355 0
M  V30 5015 H 482.862 0.611396 6.48926 0
M  V30 5016 N 486.295 -0.989507 1.22664 0
M  V30 5017 C 487.205 -2.11449 1.01619 0
M  V30 5018 C 488.221 -1.73962 -0.036545 0
M  V30 5019 O 489.397 -2.00788 0.156924 0
M  V30 5020 C 486.462 -3.41465 0.600204 0
M  V30 5021 C 485.523 -3.93033 1.72695 0
M  V30 5022 C 484.756 -5.16844 1.33071 0
M  V30 5023 O 484.979 -5.7001 0.210975 0
M  V30 5024 O 483.913 -5.6225 2.14845 0
M  V30 5025 H 487.739 -2.32088 1.9588 0
M  V30 5026 H 485.324 -1.09823 1.01289 0
M  V30 5027 H 487.206 -4.19695 0.37873 0
M  V30 5028 H 485.881 -3.22178 -0.313511 0
M  V30 5029 H 484.788 -3.15961 2.00298 0
M  V30 5030 H 486.121 -4.16758 2.61865 0
M  V30 5031 N 487.773 -1.03688 -1.18687 0
M  V30 5032 C 489.019 -0.74888 -1.89112 0
M  V30 5033 C 489.374 0.715345 -1.78607 0
M  V30 5034 O 488.667 1.51498 -1.17299 0
M  V30 5035 C 488.861 -1.14477 -3.3857 0
M  V30 5036 C 488.69 -2.64594 -3.63621 0
M  V30 5037 C 487.46 -3.31685 -3.812 0
M  V30 5038 C 489.658 -3.62811 -3.64517 0
M  V30 5039 N 487.64 -4.70822 -3.93955 0
M  V30 5040 C 489.011 -4.87603 -3.8294 0
M  V30 5041 C 491.066 -3.56495 -3.47585 0
M  V30 5042 C 489.769 -6.0684 -3.86184 0
M  V30 5043 C 491.795 -4.75155 -3.52111 0
M  V30 5044 C 491.157 -5.98765 -3.71026 0
M  V30 5045 H 487.256 -0.32603 -0.710794 0
M  V30 5046 H 489.84 -1.3258 -1.42586 0
M  V30 5047 H 488.011 -0.595974 -3.838 0
M  V30 5048 H 489.743 -0.808187 -3.96548 0
M  V30 5049 H 486.498 -2.82091 -3.80423 0
M  V30 5050 H 486.922 -5.43122 -4.04163 0
M  V30 5051 H 491.564 -2.61907 -3.31911 0
M  V30 5052 H 489.282 -7.01788 -4.00648 0
M  V30 5053 H 492.868 -4.71905 -3.40289 0
M  V30 5054 H 491.748 -6.89047 -3.74412 0
M  V30 5055 N 489.251 1.34841 -0.815825 0
M  V30 5056 C 490.497 1.98793 -0.401129 0
M  V30 5057 C 490.83 1.64548 1.03139 0
M  V30 5058 O 490.105 0.913487 1.71714 0
M  V30 5059 C 490.388 3.55143 -0.595409 0
M  V30 5060 C 490.241 3.99155 -2.07352 0
M  V30 5061 C 491.56 4.40092 -0.0268823 0
M  V30 5062 H 488.679 0.722146 -0.14722 0
M  V30 5063 H 491.321 1.59847 -1.02707 0
M  V30 5064 H 489.471 3.8845 -0.0625779 0
M  V30 5065 H 491.143 3.76216 -2.66945 0
M  V30 5066 H 489.386 3.49726 -2.56659 0
M  V30 5067 H 490.057 5.07971 -2.1603 0
M  V30 5068 H 492.533 4.13298 -0.482042 0
M  V30 5069 H 491.409 5.48562 -0.19267 0
M  V30 5070 H 491.67 4.29016 1.06759 0
M  V30 5071 N 490.729 0.570148 1.46925 0
M  V30 5072 C 491.677 -0.183181 2.31878 0
M  V30 5073 C 492.671 -0.896721 1.43719 0
M  V30 5074 O 493.877 -0.816536 1.60414 0
M  V30 5075 H 490.252 -0.077944 0.74795 0
M  V30 5076 H 492.223 0.552312 2.93244 0
M  V30 5077 C 490.972 -1.19172 3.2664 0
M  V30 5078 H 490.295 -0.652088 3.94446 0
M  V30 5079 H 491.735 -1.68946 3.88887 0
M  V30 5080 C 490.194 -2.24627 2.51086 0
M  V30 5081 O 490.724 -3.31773 2.26472 0
M  V30 5082 N 488.93 -1.98898 2.11867 0
M  V30 5083 H 488.477 -1.11777 2.32086 0
M  V30 5084 H 488.435 -2.6967 1.61634 0
M  V30 5085 N 492.207 -1.54576 0.307264 0
M  V30 5086 C 493.139 -2.21212 -0.599807 0
M  V30 5087 C 494.152 -1.20685 -1.09266 0
M  V30 5088 O 495.341 -1.47244 -1.00903 0
M  V30 5089 C 492.441 -2.84994 -1.83389 0
M  V30 5090 C 491.614 -4.11511 -1.48248 0
M  V30 5091 C 490.673 -4.59038 -2.57237 0
M  V30 5092 O 489.699 -5.24095 -2.22065 0
M  V30 5093 N 490.901 -4.31884 -3.87887 0
M  V30 5094 H 493.666 -2.99686 -0.0293075 0
M  V30 5095 H 491.227 -1.61379 0.129738 0
M  V30 5096 H 493.219 -3.1372 -2.5566 0
M  V30 5097 H 491.789 -2.10324 -2.31263 0
M  V30 5098 H 491.009 -3.89728 -0.592122 0
M  V30 5099 H 492.297 -4.93879 -1.22316 0
M  V30 5100 H 491.695 -3.79778 -4.19268 0
M  V30 5101 H 490.252 -4.65304 -4.56438 0
M  V30 5102 N 493.685 -0.035106 -1.57561 0
M  V30 5103 C 494.617 0.973604 -2.07494 0
M  V30 5104 C 495.63 1.28504 -0.999534 0
M  V30 5105 O 496.819 1.24864 -1.27559 0
M  V30 5106 C 493.919 2.29945 -2.48955 0
M  V30 5107 C 493.092 2.1723 -3.79644 0
M  V30 5108 C 492.151 3.328 -4.07592 0
M  V30 5109 O 491.177 3.09418 -4.77754 0
M  V30 5110 N 492.379 4.56779 -3.58236 0
M  V30 5111 H 495.144 0.547525 -2.94656 0
M  V30 5112 H 492.705 0.151515 -1.61189 0
M  V30 5113 H 494.697 3.06097 -2.64739 0
M  V30 5114 H 493.267 2.64173 -1.67126 0
M  V30 5115 H 492.487 1.25768 -3.73599 0
M  V30 5116 H 493.775 2.05945 -4.65257 0
M  V30 5117 H 493.173 4.78668 -3.01485 0
M  V30 5118 H 491.73 5.30079 -3.79288 0
M  V30 5119 N 495.163 1.55791 0.238111 0
M  V30 5120 C 496.579 1.48411 0.587045 0
M  V30 5121 C 496.779 0.72702 1.87927 0
M  V30 5122 O 495.835 0.259942 2.51158 0
M  V30 5123 C 497.148 2.92873 0.681623 0
M  V30 5124 C 498.696 3.03295 0.773363 0
M  V30 5125 C 499.171 4.49082 0.899428 0
M  V30 5126 N 500.662 4.53056 0.964075 0
M  V30 5127 C 501.397 5.63117 1.08104 0
M  V30 5128 N 500.893 6.82969 1.16299 0
M  V30 5129 N 502.686 5.50933 1.11488 0
M  V30 5130 H 494.837 2.0345 -0.610076 0
M  V30 5131 H 497.1 0.924034 -0.211813 0
M  V30 5132 H 496.806 3.51142 -0.19802 0
M  V30 5133 H 496.68 3.43851 1.55069 0
M  V30 5134 H 499.067 2.45101 1.64346 0
M  V30 5135 H 499.148 2.55513 -0.121034 0
M  V30 5136 H 498.792 5.07889 0.0338586 0
M  V30 5137 H 498.722 4.94553 1.809 0
M  V30 5138 H 501.213 3.66737 0.91173 0
M  V30 5139 H 501.526 7.62598 1.25155 0
M  V30 5140 H 499.871 6.85712 1.13241 0
M  V30 5141 H 503.062 4.56231 1.0474 0
M  V30 5142 H 503.235 6.36743 1.20259 0
M  V30 5143 N 496.642 -0.504142 1.49319 0
M  V30 5144 C 497.552 -1.63248 1.68486 0
M  V30 5145 C 498.568 -1.64488 0.567432 0
M  V30 5146 O 499.744 -1.82966 0.841749 0
M  V30 5147 C 496.809 -2.99627 1.74426 0
M  V30 5148 C 495.87 -3.09039 2.97982 0
M  V30 5149 C 495.103 -4.38913 3.0363 0
M  V30 5150 O 495.326 -5.27528 2.16958 0
M  V30 5151 O 494.26 -4.53231 3.96062 0
M  V30 5152 H 498.086 -1.50008 2.64067 0
M  V30 5153 H 495.671 -0.680086 1.33023 0
M  V30 5154 H 497.553 -3.80689 1.80705 0
M  V30 5155 H 496.228 -3.13136 0.820233 0
M  V30 5156 H 495.135 -2.27177 2.97223 0
M  V30 5157 H 496.468 -3.00456 3.89855 0
M  V30 5158 N 498.12 -1.38341 -0.754957 0
M  V30 5159 C 499.397 -1.24995 -1.50451 0
M  V30 5160 C 499.777 0.149244 -2.10572 0
M  V30 5161 O 499.125 1.15861 -1.96948 0
M  V30 5162 C 499.335 -2.35904 -2.57197 0
M  V30 5163 C 500.683 -2.74262 -3.24138 0
M  V30 5164 O 501.707 -2.35205 -2.67501 0
M  V30 5165 O 500.566 -3.4161 -4.26574 0
M  V30 5166 H 497.66 -0.48872 -0.667144 0
M  V30 5167 H 500.206 -1.50165 -0.790486 0
M  V30 5168 H 498.978 -3.2953 -2.11011 0
M  V30 5169 H 498.601 -2.12291 -3.36182 0
M  V30 5170 N 499.598 0.982988 -1.23187 0
M  V30 5171 C 500.847 1.71817 -1.05649 0
M  V30 5172 C 501.16 1.91315 0.407176 0
M  V30 5173 O 502.366 2.62256 0.702436 0
M  V30 5174 C 500.822 3.09188 -1.84203 0
M  V30 5175 C 500.43 2.97586 -3.34882 0
M  V30 5176 C 502.174 3.86684 -1.75146 0
M  V30 5177 C 500.081 4.30173 -4.05839 0
M  V30 5178 H 499.011 0.644258 -0.391724 0
M  V30 5179 H 501.662 1.09659 -1.4713 0
M  V30 5180 H 500.044 3.72087 -1.35527 0
M  V30 5181 H 501.218 2.43793 -3.91026 0
M  V30 5182 H 499.533 2.33567 -3.44725 0
M  V30 5183 H 502.13 4.84836 -2.25473 0
M  V30 5184 H 502.473 4.10136 -0.713737 0
M  V30 5185 H 503.006 3.30482 -2.21419 0
M  V30 5186 H 499.745 4.11918 -5.09906 0
M  V30 5187 H 499.265 4.83841 -3.54482 0
M  V30 5188 H 500.944 4.98873 -4.11989 0
M  V30 5189 N 501.076 1.04316 1.18135 0
M  V30 5190 C 501.986 0.646876 2.25505 0
M  V30 5191 C 503.002 -0.328008 1.7088 0
M  V30 5192 O 504.178 -0.182309 2.00573 0
M  V30 5193 C 501.243 0.0185664 3.46695 0
M  V30 5194 C 500.304 1.04277 4.16443 0
M  V30 5195 C 499.537 0.444352 5.31847 0
M  V30 5196 O 499.76 -0.748735 5.65465 0
M  V30 5197 O 498.694 1.17428 5.90334 0
M  V30 5198 H 502.52 1.54147 2.61672 0
M  V30 5199 H 500.105 0.814188 1.25265 0
M  V30 5200 H 501.987 -0.331068 4.20097 0
M  V30 5201 H 500.662 -0.849814 3.12346 0
M  V30 5202 H 499.569 1.44425 3.45098 0
M  V30 5203 H 500.902 1.882 4.54798 0
M  V30 5204 N 502.554 -1.34406 0.822964 0
M  V30 5205 C 503.97 -1.51275 0.508727 0
M  V30 5206 C 504.17 -1.76776 -0.967083 0
M  V30 5207 O 503.226 -1.81871 -1.75155 0
M  V30 5208 C 504.539 -2.67765 1.36829 0
M  V30 5209 C 506.087 -2.81647 1.36542 0
M  V30 5210 C 506.562 -4.01181 2.20947 0
M  V30 5211 N 508.053 -4.08388 2.18571 0
M  V30 5212 C 508.788 -5.00036 2.80627 0
M  V30 5213 N 508.284 -5.96906 3.51674 0
M  V30 5214 N 510.077 -4.92908 2.70181 0
M  V30 5215 H 502.228 -1.16113 1.77852 0
M  V30 5216 H 504.491 -0.56947 0.757897 0
M  V30 5217 H 504.197 -2.55551 2.41633 0
M  V30 5218 H 504.071 -3.62779 1.03303 0
M  V30 5219 H 506.458 -2.93303 0.325163 0
M  V30 5220 H 506.539 -1.87443 1.74066 0
M  V30 5221 H 506.183 -3.90286 3.25022 0
M  V30 5222 H 506.113 -4.94599 1.80774 0
M  V30 5223 H 508.604 -3.39051 1.66891 0
M  V30 5224 H 508.917 -6.63468 3.96271 0
M  V30 5225 H 507.262 -5.9703 3.5578 0
M  V30 5226 H 510.453 -4.1619 2.14251 0
M  V30 5227 H 510.626 -5.64137 3.18831 0
M  V30 5228 N 504.032 -0.577932 -1.46621 0
M  V30 5229 C 504.964 0.195801 -2.28362 0
M  V30 5230 C 505.977 0.859983 -1.38232 0
M  V30 5231 O 507.166 0.730349 -1.62875 0
M  V30 5232 C 504.266 1.29639 -3.13124 0
M  V30 5233 C 503.439 0.725049 -4.31349 0
M  V30 5234 C 502.498 1.71274 -4.97546 0
M  V30 5235 O 501.524 1.25067 -5.5529 0
M  V30 5236 N 502.726 3.04672 -4.94121 0
M  V30 5237 H 505.491 -0.505468 -2.95407 0
M  V30 5238 H 503.052 -0.415381 -1.56481 0
M  V30 5239 H 505.044 1.95631 -3.54275 0
M  V30 5240 H 503.614 1.90059 -2.48186 0
M  V30 5241 H 502.834 -0.112205 -3.9404 0
M  V30 5242 H 504.122 0.323034 -5.07774 0
M  V30 5243 H 503.52 3.4484 -4.48444 0
M  V30 5244 H 502.077 3.66166 -5.39227 0
M  V30 5245 N 505.51 1.54411 -0.315457 0
M  V30 5246 C 506.926 1.59556 0.037464 0
M  V30 5247 C 507.126 1.33217 1.5118 0
M  V30 5248 O 506.182 1.11264 2.26664 0
M  V30 5249 C 507.495 2.98372 -0.373477 0
M  V30 5250 C 509.043 3.11324 -0.323452 0
M  V30 5251 C 509.518 4.52472 -0.709433 0
M  V30 5252 N 511.009 4.58437 -0.662524 0
M  V30 5253 C 511.744 5.65751 -0.933474 0
M  V30 5254 N 511.24 6.81039 -1.27114 0
M  V30 5255 N 513.033 5.55489 -0.859573 0
M  V30 5256 H 505.184 1.6979 -1.27614 0
M  V30 5257 H 507.447 0.793732 -0.518356 0
M  V30 5258 H 507.153 3.22618 -1.40037 0
M  V30 5259 H 507.027 3.76264 0.265615 0
M  V30 5260 H 509.414 2.86818 0.694223 0
M  V30 5261 H 509.495 2.35555 -0.997367 0
M  V30 5262 H 509.139 4.7771 -1.72498 0
M  V30 5263 H 509.069 5.26598 -0.0132923 0
M  V30 5264 H 511.56 3.75636 -0.413065 0
M  V30 5265 H 511.873 7.58816 -1.46348 0
M  V30 5266 H 510.218 6.82555 -1.30932 0
M  V30 5267 H 513.409 4.64299 -0.595324 0
M  V30 5268 H 513.582 6.39036 -1.0741 0
M  V30 5269 N 506.988 0.0434614 1.5754 0
M  V30 5270 C 507.935 -0.93356 2.11077 0
M  V30 5271 C 508.905 -1.31383 1.01626 0
M  V30 5272 O 510.09 -1.40465 1.29129 0
M  V30 5273 C 507.23 -2.20578 2.65404 0
M  V30 5274 C 506.343 -1.88068 3.88914 0
M  V30 5275 C 505.478 -3.09691 4.31584 0
M  V30 5276 C 504.517 -2.73067 5.47815 0
M  V30 5277 N 503.654 -3.87359 5.85574 0
M  V30 5278 H 508.494 -0.470118 2.94268 0
M  V30 5279 H 506.031 -0.220434 1.45439 0
M  V30 5280 H 507.989 -2.95011 2.94999 0
M  V30 5281 H 506.619 -2.64513 1.85021 0
M  V30 5282 H 505.671 -1.03816 3.6596 0
M  V30 5283 H 506.983 -1.57104 4.73413 0
M  V30 5284 H 506.137 -3.92431 4.62691 0
M  V30 5285 H 504.876 -3.43827 3.45882 0
M  V30 5286 H 503.881 -1.88742 5.16388 0
M  V30 5287 H 505.106 -2.40131 6.35227 0
M  V30 5288 H 503.052 -4.21311 5.02825 0
M  V30 5289 H 502.969 -3.60068 6.64746 0
M  V30 5290 H 504.237 -4.70761 6.21292 0
M  V30 5291 N 508.466 -1.55915 -0.229846 0
M  V30 5292 C 509.396 -1.94754 -1.28815 0
M  V30 5293 C 510.377 -0.814657 -1.49323 0
M  V30 5294 O 511.562 -1.07631 -1.61645 0
M  V30 5295 C 508.692 -2.25705 -2.63959 0
M  V30 5296 C 507.646 -3.41406 -2.5812 0
M  V30 5297 C 506.972 -3.57941 -3.97218 0
M  V30 5298 C 508.272 -4.76616 -2.13623 0
M  V30 5299 H 509.966 -2.83404 -0.965547 0
M  V30 5300 H 507.512 -1.36353 -0.463028 0
M  V30 5301 H 509.465 -2.51467 -3.38146 0
M  V30 5302 H 508.189 -1.339 -2.9789 0
M  V30 5303 H 506.848 -3.1568 -1.86391 0
M  V30 5304 H 506.496 -2.63526 -4.28443 0
M  V30 5305 H 506.196 -4.35757 -3.94195 0
M  V30 5306 H 507.72 -3.86042 -4.73079 0
M  V30 5307 H 509.134 -5.01637 -2.77549 0
M  V30 5308 H 507.531 -5.57655 -2.21677 0
M  V30 5309 H 508.601 -4.7253 -1.08829 0
M  V30 5310 N 509.944 0.496216 -1.49584 0
M  V30 5311 C 510.874 1.60576 -1.69521 0
M  V30 5312 C 511.855 1.61169 -0.543933 0
M  V30 5313 O 513.04 1.77834 -0.78031 0
M  V30 5314 C 510.17 2.99038 -1.76616 0
M  V30 5315 C 509.124 3.13312 -2.91581 0
M  V30 5316 C 508.45 4.53172 -2.83794 0
M  V30 5317 C 509.75 2.92886 -4.32452 0
M  V30 5318 H 511.444 1.44146 -2.62416 0
M  V30 5319 H 508.99 0.692024 -1.26282 0
M  V30 5320 H 510.943 3.76564 -1.8915 0
M  V30 5321 H 509.667 3.16568 -0.80324 0
M  V30 5322 H 508.326 2.38213 -2.78658 0
M  V30 5323 H 507.974 4.67585 -1.854 0
M  V30 5324 H 507.674 4.63662 -3.60958 0
M  V30 5325 H 509.198 5.32752 -2.98342 0
M  V30 5326 H 510.612 3.60178 -4.46032 0
M  V30 5327 H 509.009 3.14844 -5.10875 0
M  V30 5328 H 510.079 1.88966 -4.46565 0
M  V30 5329 N 511.423 1.38739 0.74761 0
M  V30 5330 C 512.386 1.36241 1.84312 0
M  V30 5331 C 513.386 0.261811 1.58654 0
M  V30 5332 O 514.576 0.519031 1.66288 0
M  V30 5333 C 511.708 1.12253 3.21888 0
M  V30 5334 H 512.901 2.33712 1.87933 0
M  V30 5335 H 510.454 1.2412 0.949946 0
M  V30 5336 H 511.189 0.154133 3.23934 0
M  V30 5337 H 510.974 1.91943 3.41907 0
M  V30 5338 H 512.464 1.13215 4.0196 0
M  V30 5339 N 512.901 -0.976442 1.23707 0
M  V30 5340 C 513.848 -2.06952 1.02174 0
M  V30 5341 C 514.818 -1.65984 -0.0621034 0
M  V30 5342 O 516.003 -1.90584 0.0907906 0
M  V30 5343 C 513.143 -3.39425 0.62327 0
M  V30 5344 C 512.256 -3.9364 1.77966 0
M  V30 5345 C 511.391 -5.14343 1.3276 0
M  V30 5346 C 510.43 -5.60733 2.45449 0
M  V30 5347 N 509.567 -6.72662 2.01172 0
M  V30 5348 H 514.407 -2.24704 1.95734 0
M  V30 5349 H 511.944 -1.10143 0.975034 0
M  V30 5350 H 513.902 -4.15526 0.37332 0
M  V30 5351 H 512.532 -3.21624 -0.275329 0
M  V30 5352 H 511.584 -3.14258 2.14351 0
M  V30 5353 H 512.896 -4.24035 2.62671 0
M  V30 5354 H 512.05 -5.97789 1.03601 0
M  V30 5355 H 510.789 -4.8561 0.450975 0
M  V30 5356 H 509.794 -4.75865 2.75378 0
M  V30 5357 H 511.019 -5.91483 3.33654 0
M  V30 5358 H 508.965 -6.45681 1.15895 0
M  V30 5359 H 508.882 -7.02462 2.79434 0
M  V30 5360 H 510.15 -7.59572 1.75129 0
M  V30 5361 N 514.379 -1.04941 -1.1758 0
M  V30 5362 C 515.795 -0.770282 -1.39781 0
M  V30 5363 C 515.995 0.636417 -1.91186 0
M  V30 5364 O 515.051 1.39923 -2.10185 0
M  V30 5365 C 516.364 -1.82376 -2.3908 0
M  V30 5366 C 517.912 -1.84569 -2.52791 0
M  V30 5367 C 518.387 -2.88933 -3.55361 0
M  V30 5368 N 519.878 -2.8788 -3.62877 0
M  V30 5369 C 520.613 -3.65282 -4.41992 0
M  V30 5370 N 520.109 -4.52461 -5.24643 0
M  V30 5371 N 521.902 -3.53732 -4.36841 0
M  V30 5372 H 514.053 -1.95705 -0.825438 0
M  V30 5373 H 516.316 -0.847284 -0.425222 0
M  V30 5374 H 516.022 -2.83323 -2.08376 0
M  V30 5375 H 515.896 -1.66327 -3.38549 0
M  V30 5376 H 518.283 -0.842879 -2.82807 0
M  V30 5377 H 518.364 -2.04696 -1.53406 0
M  V30 5378 H 518.008 -3.89398 -3.26085 0
M  V30 5379 H 517.938 -2.66059 -4.54445 0
M  V30 5380 H 520.429 -2.24666 -3.03864 0
M  V30 5381 H 520.742 -5.08211 -5.82187 0
M  V30 5382 H 519.087 -4.56524 -5.24033 0
M  V30 5383 H 522.278 -2.85021 -3.71323 0
M  V30 5384 H 522.451 -4.14302 -4.98255 0
M  V30 5385 N 515.857 1.33968 -0.830081 0
M  V30 5386 C 516.804 2.29387 -0.255008 0
M  V30 5387 C 517.774 1.53923 0.624243 0
M  V30 5388 O 518.959 1.82262 0.564372 0
M  V30 5389 C 516.099 3.4034 0.571209 0
M  V30 5390 C 515.212 4.30729 -0.331083 0
M  V30 5391 C 514.347 5.2879 0.505389 0
M  V30 5392 C 513.386 6.10819 -0.395843 0
M  V30 5393 N 512.523 7.00948 0.401979 0
M  V30 5394 H 517.363 2.77972 -1.07404 0
M  V30 5395 H 514.9 1.36785 -0.541133 0
M  V30 5396 H 516.858 4.03361 1.06562 0
M  V30 5397 H 515.488 2.9297 1.35529 0
M  V30 5398 H 514.54 3.68507 -0.943759 0
M  V30 5399 H 515.852 4.88181 -1.02377 0
M  V30 5400 H 515.006 5.97297 1.06399 0
M  V30 5401 H 513.745 4.71894 1.23155 0
M  V30 5402 H 512.75 5.41238 -0.966529 0
M  V30 5403 H 513.975 6.69797 -1.12023 0
M  V30 5404 H 511.921 6.46512 1.11168 0
M  V30 5405 H 511.838 7.55643 -0.232167 0
M  V30 5406 H 513.106 7.73774 0.943102 0
M  V30 5407 N 517.335 0.585699 1.46312 0
M  V30 5408 C 518.746 0.159938 1.86014 0
M  V30 5409 C 519.097 -1.27775 1.48889 0
M  V30 5410 O 518.222 -1.96559 0.90519 0
M  V30 5411 C 518.817 0.283485 3.37612 0
M  V30 5412 C 517.376 -0.0874256 3.76298 0
M  V30 5413 C 516.523 0.618055 2.70325 0
M  V30 5414 H 519.474 0.793737 1.37425 0
M  V30 5415 H 519.495 -0.490348 3.77327 0
M  V30 5416 H 519.007 1.32995 3.64601 0
M  V30 5417 H 517.108 -1.13391 3.54927 0
M  V30 5418 H 517.221 0.290975 4.78216 0
M  V30 5419 H 515.585 0.057993 2.54634 0
M  V30 5420 H 516.368 1.66623 3.00153 0
M  V30 5421 N 518.813 -1.54241 0.323641 0
M  V30 5422 C 520.224 -1.85975 -0.164405 0
M  V30 5423 C 520.575 -1.24529 -1.51615 0
M  V30 5424 O 519.7 -0.551351 -2.09258 0
M  V30 5425 C 520.295 -3.37424 -0.305091 0
M  V30 5426 C 518.854 -3.69107 -0.737358 0
M  V30 5427 C 518.001 -2.76942 0.140884 0
M  V30 5428 H 520.952 -1.49088 0.543922 0
M  V30 5429 H 520.973 -3.63147 -1.13598 0
M  V30 5430 H 520.485 -3.82116 0.678876 0
M  V30 5431 H 518.586 -3.29947 -1.73107 0
M  V30 5432 H 518.699 -4.76035 -0.541053 0
M  V30 5433 H 517.063 -2.51795 -0.383572 0
M  V30 5434 H 517.846 -3.24461 1.12162 0
M  V30 5435 N 520.291 -0.0518155 -1.57515 0
M  V30 5436 C 521.519 0.631395 -1.9703 0
M  V30 5437 C 521.934 1.64341 -0.92938 0
M  V30 5438 O 521.291 1.82296 0.0863266 0
M  V30 5439 C 521.342 1.31774 -3.36627 0
M  V30 5440 O 521.063 0.346247 -4.3673 0
M  V30 5441 C 522.564 2.09065 -3.90905 0
M  V30 5442 H 519.784 0.172576 -0.648428 0
M  V30 5443 H 522.328 -0.118306 -2.04158 0
M  V30 5444 H 520.483 2.01867 -3.30649 0
M  V30 5445 H 520.897 0.836226 -5.17791 0
M  V30 5446 H 522.371 2.52508 -4.9086 0
M  V30 5447 H 522.848 2.93908 -3.26366 0
M  V30 5448 H 523.454 1.43882 -4.00223 0
M  V30 5449 N 521.769 1.56035 0.221574 0
M  V30 5450 C 522.732 1.91584 1.2581 0
M  V30 5451 C 523.732 0.794425 1.39805 0
M  V30 5452 O 524.922 1.06217 1.38071 0
M  V30 5453 C 522.054 2.16663 2.63192 0
M  V30 5454 H 523.247 2.8429 0.954935 0
M  V30 5455 H 520.8 1.49316 0.461988 0
M  V30 5456 H 521.535 1.26508 2.98607 0
M  V30 5457 H 521.32 2.98358 2.5441 0
M  V30 5458 H 522.81 2.45262 3.37988 0
M  V30 5459 N 523.247 -0.488276 1.49845 0
M  V30 5460 C 524.195 -1.60917 1.67954 0
M  V30 5461 C 525.189 -1.6038 0.54539 0
M  V30 5462 O 526.395 -1.64736 0.7254 0
M  V30 5463 H 522.77 -0.533658 0.529824 0
M  V30 5464 H 524.741 -1.428 2.62013 0
M  V30 5465 C 523.49 -2.98975 1.77509 0
M  V30 5466 H 522.813 -3.00099 2.6416 0
M  V30 5467 H 524.253 -3.76906 1.9421 0
M  V30 5468 C 522.712 -3.3282 0.522745 0
M  V30 5469 O 523.242 -4.00208 -0.345866 0
M  V30 5470 N 521.448 -2.8808 0.381882 0
M  V30 5471 H 520.995 -2.33415 1.08974 0
M  V30 5472 H 520.953 -3.11091 -0.454929 0
M  V30 5473 N 524.725 -1.39134 -0.740242 0
M  V30 5474 C 525.673 -1.3757 -1.87556 0
M  V30 5475 C 526.667 -0.259593 -1.67399 0
M  V30 5476 O 527.873 -0.429349 -1.74804 0
M  V30 5477 H 524.248 -0.42947 -0.6173 0
M  V30 5478 H 526.219 -2.33345 -1.85991 0
M  V30 5479 C 524.968 -1.23087 -3.25184 0
M  V30 5480 H 524.291 -2.08237 -3.41288 0
M  V30 5481 H 525.731 -1.26049 -4.0483 0
M  V30 5482 C 524.19 0.0611471 -3.36845 0
M  V30 5483 O 524.72 1.03328 -3.88183 0
M  V30 5484 N 522.926 0.122454 -2.90342 0
M  V30 5485 H 522.473 -0.669329 -2.48752 0
M  V30 5486 H 522.431 0.986463 -2.98523 0
M  V30 5487 N 526.204 0.969867 -1.24223 0
M  V30 5488 C 527.429 1.75289 -1.10853 0
M  V30 5489 C 527.854 1.85091 0.335079 0
M  V30 5490 O 527.212 1.32024 1.24255 0
M  V30 5491 C 527.26 3.15255 -1.75062 0
M  V30 5492 O 526.364 3.99589 -1.01992 0
M  V30 5493 H 525.705 0.538904 -0.387915 0
M  V30 5494 H 528.235 1.21675 -1.64488 0
M  V30 5495 H 528.245 3.65787 -1.80731 0
M  V30 5496 H 526.92 3.07436 -2.801 0
M  V30 5497 H 525.497 3.58077 -1.04094 0
M  V30 5498 N 527.682 1.05563 1.17022 0
M  V30 5499 C 528.614 0.617888 2.20714 0
M  V30 5500 C 529.627 -0.320303 1.59618 0
M  V30 5501 O 530.816 -0.112449 1.78145 0
M  V30 5502 C 527.916 -0.115333 3.38704 0
M  V30 5503 C 527.089 0.834493 4.29366 0
M  V30 5504 C 526.148 0.141855 5.26009 0
M  V30 5505 O 525.174 0.777151 5.6387 0
M  V30 5506 N 526.376 -1.11934 5.69606 0
M  V30 5507 H 529.141 1.50981 2.58892 0
M  V30 5508 H 526.702 0.938008 1.31958 0
M  V30 5509 H 528.694 -0.588918 4.00392 0
M  V30 5510 H 527.264 -0.908967 2.99093 0
M  V30 5511 H 526.484 1.48762 3.65053 0
M  V30 5512 H 527.772 1.4791 4.86827 0
M  V30 5513 H 527.17 -1.65574 5.40927 0
M  V30 5514 H 525.727 -1.53692 6.33421 0
M  V30 5515 N 529.16 -1.33526 0.837174 0
M  V30 5516 C 530.123 -2.27551 0.274421 0
M  V30 5517 C 531.123 -1.50886 -0.555881 0
M  V30 5518 O 532.313 -1.70227 -0.369918 0
M  V30 5519 C 529.445 -3.35332 -0.613605 0
M  V30 5520 H 530.638 -2.78837 1.10408 0
M  V30 5521 H 528.191 -1.439 0.610126 0
M  V30 5522 H 528.926 -2.89285 -1.46577 0
M  V30 5523 H 528.711 -3.92095 -0.0195341 0
M  V30 5524 H 530.201 -4.05433 -1.00068 0
M  V30 5525 N 530.638 -0.59345 -1.46 0
M  V30 5526 C 532.049 -0.169801 -1.85926 0
M  V30 5527 C 532.4 1.26984 -1.49565 0
M  V30 5528 O 531.525 1.96076 -0.915602 0
M  V30 5529 C 532.12 -0.301385 -3.37457 0
M  V30 5530 C 530.679 0.0674684 -3.7634 0
M  V30 5531 C 529.826 -0.632383 -2.69993 0
M  V30 5532 H 532.777 -0.801014 -1.37002 0
M  V30 5533 H 532.798 0.470331 -3.77582 0
M  V30 5534 H 532.31 -1.34927 -3.63891 0
M  V30 5535 H 530.411 1.11507 -3.55523 0
M  V30 5536 H 530.524 -0.316332 -4.78055 0
M  V30 5537 H 528.888 -0.0714961 -2.546 0
M  V30 5538 H 529.671 -1.68212 -2.99265 0
M  V30 5539 N 532.116 1.54067 -0.331816 0
M  V30 5540 C 533.341 2.05599 0.272705 0
M  V30 5541 C 533.766 1.2059 1.44359 0
M  V30 5542 O 533.124 0.216907 1.79998 0
M  V30 5543 C 533.172 3.54188 0.677021 0
M  V30 5544 O 532.276 3.72082 1.77844 0
M  V30 5545 H 531.617 0.662286 0.0476801 0
M  V30 5546 H 534.147 1.98826 -0.482624 0
M  V30 5547 H 534.157 3.96608 0.957415 0
M  V30 5548 H 532.832 4.15513 -0.179325 0
M  V30 5549 H 531.409 3.41566 1.49622 0
M  V30 5550 N 533.594 0.0601682 1.57485 0
M  V30 5551 C 534.822 -0.620937 1.97363 0
M  V30 5552 C 535.237 -1.63846 0.938082 0
M  V30 5553 O 534.594 -1.82339 -0.0766578 0
M  V30 5554 C 534.645 -1.29987 3.37321 0
M  V30 5555 O 534.366 -0.323081 4.36907 0
M  V30 5556 C 535.867 -2.06989 3.92008 0
M  V30 5557 H 533.087 -0.169135 0.649334 0
M  V30 5558 H 535.631 0.129132 2.04092 0
M  V30 5559 H 533.786 -2.0011 3.31715 0
M  V30 5560 H 534.2 -0.808754 5.18227 0
M  V30 5561 H 535.674 -2.49901 4.92192 0
M  V30 5562 H 536.151 -2.92173 3.2792 0
M  V30 5563 H 536.757 -1.41757 4.0098 0
M  V30 5564 N 535.072 -1.5615 -0.213296 0
M  V30 5565 C 536.02 -1.93953 -1.28394 0
M  V30 5566 C 537.014 -0.822592 -1.48087 0
M  V30 5567 O 538.22 -1.00748 -1.49164 0
M  V30 5568 H 534.595 -0.61648 -0.430646 0
M  V30 5569 H 536.566 -2.83275 -0.937977 0
M  V30 5570 C 535.315 -2.27969 -2.62537 0
M  V30 5571 H 534.638 -3.13432 -2.48194 0
M  V30 5572 H 536.078 -2.58297 -3.36242 0
M  V30 5573 C 534.537 -1.10775 -3.18167 0
M  V30 5574 O 535.067 -0.373201 -3.99963 0
M  V30 5575 N 533.273 -0.889377 -2.76656 0
M  V30 5576 H 532.82 -1.48843 -2.10246 0
M  V30 5577 H 532.778 -0.107 -3.14218 0
M  V30 5578 N 536.55 0.480323 -1.50102 0
M  V30 5579 C 537.775 1.26126 -1.64642 0
M  V30 5580 C 538.2 1.85257 -0.325823 0
M  V30 5581 O 537.558 1.66854 0.709194 0
M  V30 5582 C 537.606 2.35243 -2.73301 0
M  V30 5583 O 536.71 3.39646 -2.33911 0
M  V30 5584 H 536.051 0.371463 -0.550374 0
M  V30 5585 H 538.581 0.572696 -1.96421 0
M  V30 5586 H 538.591 2.80695 -2.96098 0
M  V30 5587 H 537.266 1.91574 -3.6915 0
M  V30 5588 H 535.843 2.99969 -2.21525 0
M  V30 5589 N 538.028 1.39524 0.732853 0
M  V30 5590 C 538.938 1.40695 1.87729 0
M  V30 5591 C 539.954 0.301496 1.71368 0
M  V30 5592 O 541.13 0.543313 1.93933 0
M  V30 5593 C 538.195 1.25098 3.23344 0
M  V30 5594 C 537.256 2.45634 3.52083 0
M  V30 5595 C 536.489 2.30772 4.81228 0
M  V30 5596 O 536.712 1.31233 5.55098 0
M  V30 5597 O 535.646 3.19799 5.09914 0
M  V30 5598 H 539.472 2.37168 1.89697 0
M  V30 5599 H 537.057 1.20663 0.880959 0
M  V30 5600 H 538.939 1.18541 4.04383 0
M  V30 5601 H 537.614 0.317209 3.22142 0
M  V30 5602 H 536.521 2.57767 2.71122 0
M  V30 5603 H 537.854 3.37712 3.58066 0
M  V30 5604 N 539.506 -0.963266 1.24736 0
M  V30 5605 C 540.917 -1.52145 1.08207 0
M  V30 5606 C 541.268 -1.93142 -0.345061 0
M  V30 5607 O 540.393 -1.77769 -1.23399 0
M  V30 5608 C 540.988 -2.76486 1.95808 0
M  V30 5609 C 539.547 -3.28646 1.8349 0
M  V30 5610 C 538.694 -2.01529 1.90476 0
M  V30 5611 H 541.645 -0.781083 1.38148 0
M  V30 5612 H 541.666 -3.49986 1.49297 0
M  V30 5613 H 541.178 -2.46617 2.99669 0
M  V30 5614 H 539.279 -3.63357 0.824787 0
M  V30 5615 H 539.392 -3.97246 2.67829 0
M  V30 5616 H 537.756 -2.16442 1.34258 0
M  V30 5617 H 538.539 -1.7402 2.95926 0
M  V30 5618 N 540.985 -1.06182 -1.16461 0
M  V30 5619 C 541.932 -0.671613 -2.20812 0
M  V30 5620 C 542.902 0.331186 -1.62765 0
M  V30 5621 O 544.087 0.22033 -1.89524 0
M  V30 5622 C 541.227 -0.063029 -3.45042 0
M  V30 5623 C 540.34 -1.11587 -4.1734 0
M  V30 5624 C 539.475 -0.473546 -5.29085 0
M  V30 5625 C 538.514 -1.51 -5.93182 0
M  V30 5626 N 537.651 -0.891118 -6.96422 0
M  V30 5627 H 542.491 -1.56589 -2.53542 0
M  V30 5628 H 540.028 -0.782951 -1.24532 0
M  V30 5629 H 541.986 0.307344 -4.16066 0
M  V30 5630 H 540.616 0.794663 -3.12866 0
M  V30 5631 H 539.668 -1.60396 -3.44931 0
M  V30 5632 H 540.98 -1.90221 -4.61104 0
M  V30 5633 H 540.134 -0.0501432 -6.06679 0
M  V30 5634 H 538.873 0.344687 -4.8648 0
M  V30 5635 H 537.878 -1.94331 -5.14311 0
M  V30 5636 H 539.103 -2.33031 -6.37866 0
M  V30 5637 H 537.049 -0.0935753 -6.55933 0
M  V30 5638 H 536.966 -1.61486 -7.38551 0
M  V30 5639 H 538.234 -0.492822 -7.77941 0
M  V30 5640 N 542.463 1.3308 -0.844243 0
M  V30 5641 C 543.395 2.27954 -0.238671 0
M  V30 5642 C 544.408 1.51978 0.583665 0
M  V30 5643 O 545.597 1.73731 0.409857 0
M  V30 5644 C 542.697 3.31963 0.682185 0
M  V30 5645 C 541.87 4.37281 -0.101998 0
M  V30 5646 C 540.929 5.20928 0.743022 0
M  V30 5647 O 539.955 5.68914 0.180285 0
M  V30 5648 N 541.157 5.42738 2.0595 0
M  V30 5649 H 543.922 2.8056 -1.05386 0
M  V30 5650 H 541.483 1.4583 -0.70322 0
M  V30 5651 H 543.475 3.84828 1.25259 0
M  V30 5652 H 542.045 2.79594 1.39808 0
M  V30 5653 H 541.265 3.84843 -0.853802 0
M  V30 5654 H 542.553 5.04746 -0.641015 0
M  V30 5655 H 541.951 5.05463 2.54016 0
M  V30 5656 H 540.508 5.98639 2.57827 0
M  V30 5657 N 543.941 0.601185 1.45683 0
M  V30 5658 C 545.357 0.264315 1.57396 0
M  V30 5659 C 545.557 -1.23324 1.59353 0
M  V30 5660 O 544.613 -2.01594 1.52039 0
M  V30 5661 C 545.926 0.929839 2.85962 0
M  V30 5662 C 547.474 0.905156 2.99626 0
M  V30 5663 C 547.949 1.55057 4.30954 0
M  V30 5664 N 549.44 1.51576 4.37697 0
M  V30 5665 C 550.175 1.98436 5.37969 0
M  V30 5666 N 549.671 2.53352 6.44813 0
M  V30 5667 N 551.464 1.89242 5.29286 0
M  V30 5668 H 543.615 1.57363 1.42656 0
M  V30 5669 H 545.878 0.658831 0.681649 0
M  V30 5670 H 545.584 1.98404 2.90394 0
M  V30 5671 H 545.458 0.449224 3.74515 0
M  V30 5672 H 547.845 -0.14048 2.94765 0
M  V30 5673 H 547.926 1.42397 2.12501 0
M  V30 5674 H 547.57 2.5955 4.36573 0
M  V30 5675 H 547.5 1.00682 5.16886 0
M  V30 5676 H 549.991 1.11452 3.61091 0
M  V30 5677 H 550.304 2.86918 7.17564 0
M  V30 5678 H 548.649 2.57388 6.45582 0
M  V30 5679 H 551.84 1.46083 4.44722 0
M  V30 5680 H 552.013 2.26075 6.07284 0
M  V30 5681 N 545.419 -1.53889 0.339982 0
M  V30 5682 C 546.366 -2.24902 -0.518452 0
M  V30 5683 C 547.336 -1.24593 -1.09844 0
M  V30 5684 O 548.521 -1.53317 -1.13572 0
M  V30 5685 C 545.661 -3.02262 -1.66529 0
M  V30 5686 C 544.774 -4.17418 -1.11295 0
M  V30 5687 C 543.909 -4.82273 -2.2268 0
M  V30 5688 C 542.948 -5.89503 -1.6478 0
M  V30 5689 N 542.085 -6.48153 -2.69893 0
M  V30 5690 H 546.925 -2.97853 0.0936579 0
M  V30 5691 H 544.462 -1.46986 0.0579924 0
M  V30 5692 H 546.42 -3.45371 -2.3404 0
M  V30 5693 H 545.05 -2.31614 -2.24844 0
M  V30 5694 H 544.102 -3.78976 -0.328886 0
M  V30 5695 H 545.414 -4.94554 -0.649414 0
M  V30 5696 H 544.568 -5.28435 -2.98063 0
M  V30 5697 H 543.307 -4.04552 -2.72376 0
M  V30 5698 H 542.312 -5.42728 -0.879004 0
M  V30 5699 H 543.537 -6.6913 -1.1594 0
M  V30 5700 H 541.483 -5.73298 -3.1885 0
M  V30 5701 H 541.4 -7.20752 -2.28151 0
M  V30 5702 H 542.668 -6.98968 -3.45056 0
M  V30 5703 N 546.897 -0.0685191 -1.57451 0
M  V30 5704 C 547.845 0.917577 -2.13736 0
M  V30 5705 C 548.839 1.31049 -1.07344 0
M  V30 5706 O 550.045 1.28811 -1.25728 0
M  V30 5707 H 546.42 0.313835 -0.683382 0
M  V30 5708 H 548.391 0.417903 -2.95459 0
M  V30 5709 C 547.14 2.17686 -2.71123 0
M  V30 5710 H 546.463 1.88336 -3.52661 0
M  V30 5711 H 547.903 2.84803 -3.14107 0
M  V30 5712 C 546.362 2.9332 -1.65726 0
M  V30 5713 O 546.892 3.86901 -1.08031 0
M  V30 5714 N 545.098 2.56367 -1.36837 0
M  V30 5715 H 544.645 1.80341 -1.83943 0
M  V30 5716 H 544.603 3.07276 -0.665501 0
M  V30 5717 N 548.375 1.56261 0.205012 0
M  V30 5718 C 549.322 1.93754 1.25411 0
M  V30 5719 C 550.292 0.796826 1.45739 0
M  V30 5720 O 551.477 1.05414 1.59036 0
M  V30 5721 C 548.617 2.27383 2.59598 0
M  V30 5722 C 547.73 3.5447 2.46931 0
M  V30 5723 C 546.865 3.77468 3.73753 0
M  V30 5724 C 545.904 4.98014 3.55877 0
M  V30 5725 N 545.041 5.17316 4.74688 0
M  V30 5726 H 549.881 2.83203 0.92737 0
M  V30 5727 H 547.418 1.40158 0.446574 0
M  V30 5728 H 549.376 2.44895 3.37761 0
M  V30 5729 H 548.006 1.41088 2.90335 0
M  V30 5730 H 547.058 3.45061 1.60116 0
M  V30 5731 H 548.37 4.42789 2.29651 0
M  V30 5732 H 547.524 3.95165 4.60358 0
M  V30 5733 H 546.263 2.87461 3.93976 0
M  V30 5734 H 545.268 4.80249 2.67657 0
M  V30 5735 H 546.493 5.8952 3.37109 0
M  V30 5736 H 544.439 4.30255 4.95194 0
M  V30 5737 H 544.356 5.99796 4.60197 0
M  V30 5738 H 545.624 5.39463 5.62672 0
M  V30 5739 N 549.853 -0.472356 1.50355 0
M  V30 5740 C 550.816 -1.5529 1.68576 0
M  V30 5741 C 551.816 -1.50863 0.556511 0
M  V30 5742 O 553.006 -1.53505 0.823516 0
M  V30 5743 C 550.138 -2.94921 1.70981 0
M  V30 5744 H 551.331 -1.40451 2.64978 0
M  V30 5745 H 548.884 -0.698645 1.39816 0
M  V30 5746 H 549.619 -3.15204 0.762675 0
M  V30 5747 H 549.404 -2.99541 2.53017 0
M  V30 5748 H 550.894 -3.73372 1.87037 0
M  V30 5749 N 551.331 -1.39911 -0.725443 0
M  V30 5750 C 552.577 -1.37858 -1.48738 0
M  V30 5751 C 552.91 0.0224187 -1.94187 0
M  V30 5752 O 552.185 0.989204 -1.67466 0
M  V30 5753 C 552.468 -2.3594 -2.72038 0
M  V30 5754 C 552.321 -3.85023 -2.32546 0
M  V30 5755 C 553.64 -2.31704 -3.74167 0
M  V30 5756 H 550.759 -0.502074 -0.539528 0
M  V30 5757 H 553.401 -1.70974 -0.828728 0
M  V30 5758 H 551.551 -2.0783 -3.28236 0
M  V30 5759 H 553.223 -4.2392 -1.81905 0
M  V30 5760 H 551.466 -4.01334 -1.64661 0
M  V30 5761 H 552.137 -4.49152 -3.20884 0
M  V30 5762 H 554.613 -2.5658 -3.27576 0
M  V30 5763 H 553.489 -3.02395 -4.58092 0
M  V30 5764 H 553.75 -1.3253 -4.21768 0
M  V30 5765 N 552.809 0.956637 -1.25245 0
M  V30 5766 C 553.757 2.0743 -1.0524 0
M  V30 5767 C 554.751 1.69392 0.0160725 0
M  V30 5768 O 555.957 1.7946 -0.139382 0
M  V30 5769 H 552.332 0.678921 -0.323373 0
M  V30 5770 H 554.303 2.2146 -1.99995 0
M  V30 5771 C 553.052 3.40872 -0.685702 0
M  V30 5772 H 552.375 3.70607 -1.49968 0
M  V30 5773 H 553.815 4.19939 -0.585415 0
M  V30 5774 C 552.274 3.31367 0.608082 0
M  V30 5775 O 552.804 3.66214 1.65076 0
M  V30 5776 N 551.01 2.84486 0.592955 0
M  V30 5777 H 550.557 2.56326 -0.25592 0
M  V30 5778 H 550.515 2.78509 1.45877 0
M  V30 5779 N 554.287 1.06798 1.15896 0
M  V30 5780 C 555.535 0.786211 1.8618 0
M  V30 5781 C 555.856 -0.689547 1.82401 0
M  V30 5782 O 555.126 -1.49913 1.26107 0
M  V30 5783 H 553.706 0.287843 0.689315 0
M  V30 5784 H 556.368 1.35055 1.40521 0
M  V30 5785 H 555.464 1.1157 2.91477 0
M  V30 5786 N 555.766 -1.3263 0.851289 0
M  V30 5787 C 556.729 -2.27247 0.298541 0
M  V30 5788 C 557.729 -1.51467 -0.539847 0
M  V30 5789 O 558.919 -1.7061 -0.351843 0
M  V30 5790 C 556.051 -3.35964 -0.578004 0
M  V30 5791 H 557.244 -2.7765 1.13359 0
M  V30 5792 H 554.797 -1.43245 0.625354 0
M  V30 5793 H 555.532 -2.90823 -1.435 0
M  V30 5794 H 555.317 -3.92094 0.0220539 0
M  V30 5795 H 556.807 -4.06472 -0.957626 0
M  V30 5796 N 557.244 -0.608902 -1.45362 0
M  V30 5797 C 558.154 0.110969 -2.34337 0
M  V30 5798 C 559.17 0.859007 -1.51318 0
M  V30 5799 O 560.346 0.816296 -1.84116 0
M  V30 5800 C 557.411 1.09494 -3.28956 0
M  V30 5801 C 556.472 0.348718 -4.27881 0
M  V30 5802 C 555.705 1.28582 -5.17979 0
M  V30 5803 O 555.928 2.52369 -5.11533 0
M  V30 5804 O 554.862 0.782172 -5.96796 0
M  V30 5805 H 558.688 -0.620258 -2.97299 0
M  V30 5806 H 556.273 -0.36916 -1.44767 0
M  V30 5807 H 558.155 1.66163 -3.87257 0
M  V30 5808 H 556.83 1.80717 -2.68557 0
M  V30 5809 H 555.737 -0.260465 -3.73192 0
M  V30 5810 H 557.07 -0.323049 -4.91139 0
M  V30 5811 N 558.722 1.53707 -0.348139 0
M  V30 5812 C 559.67 2.26671 0.521808 0
M  V30 5813 C 560.664 1.28988 1.09811 0
M  V30 5814 O 561.87 1.4668 1.04332 0
M  V30 5815 H 558.245 0.728387 0.186968 0
M  V30 5816 H 560.216 2.98176 -0.115563 0
M  V30 5817 C 558.965 3.05591 1.6586 0
M  V30 5818 H 558.288 3.80589 1.22443 0
M  V30 5819 H 559.728 3.59851 2.24239 0
M  V30 5820 C 558.187 2.15366 2.59073 0
M  V30 5821 O 558.717 1.7528 3.61441 0
M  V30 5822 N 556.923 1.80352 2.27863 0
M  V30 5823 H 556.47 2.13149 1.44656 0
M  V30 5824 H 556.428 1.20268 2.90488 0
M  V30 5825 N 560.2 0.0768682 1.57412 0
M  V30 5826 C 561.477 -0.632359 1.85096 0
M  V30 5827 C 561.857 -1.87479 0.9703 0
M  V30 5828 O 561.205 -2.28469 0.0379062 0
M  V30 5829 C 561.415 -0.965174 3.35388 0
M  V30 5830 C 562.763 -1.33648 4.03018 0
M  V30 5831 O 563.787 -1.05675 3.40164 0
M  V30 5832 O 562.646 -1.85959 5.13889 0
M  V30 5833 H 559.74 -0.314574 0.764835 0
M  V30 5834 H 562.286 0.108184 1.69355 0
M  V30 5835 H 561.058 -0.0829745 3.91212 0
M  V30 5836 H 560.681 -1.76231 3.5641 0
M  V30 5837 N 561.678 -1.56367 -0.196722 0
M  V30 5838 C 563.089 -1.70462 -0.761545 0
M  V30 5839 C 563.44 -0.683161 -1.83922 0
M  V30 5840 O 562.565 0.160753 -2.15802 0
M  V30 5841 C 563.16 -3.09057 -1.38814 0
M  V30 5842 C 561.719 -3.24922 -1.90007 0
M  V30 5843 C 560.866 -2.66412 -0.769399 0
M  V30 5844 H 563.817 -1.58675 0.0283263 0
M  V30 5845 H 563.838 -3.06296 -2.2575 0
M  V30 5846 H 563.35 -3.83378 -0.603559 0
M  V30 5847 H 561.451 -2.55514 -2.71189 0
M  V30 5848 H 561.564 -4.3241 -2.06297 0
M  V30 5849 H 559.928 -2.25546 -1.18326 0
M  V30 5850 H 560.711 -3.433 0.00291773 0
M  V30 5851 N 563.156 0.464375 -1.50603 0
M  V30 5852 C 564.403 1.21596 -1.61928 0
M  V30 5853 C 564.731 1.91804 -0.322737 0
M  V30 5854 O 563.986 1.83065 0.691776 0
M  V30 5855 C 564.285 2.278 -2.75394 0
M  V30 5856 C 563.951 1.74797 -4.1564 0
M  V30 5857 C 562.613 1.60063 -4.53799 0
M  V30 5858 C 564.965 1.35548 -5.03266 0
M  V30 5859 C 562.293 1.04514 -5.77316 0
M  V30 5860 C 564.645 0.814381 -6.27336 0
M  V30 5861 C 563.309 0.653726 -6.64291 0
M  V30 5862 H 562.579 0.444951 -0.592536 0
M  V30 5863 H 565.226 0.510964 -1.84557 0
M  V30 5864 H 563.531 3.04233 -2.46879 0
M  V30 5865 H 565.228 2.85723 -2.81359 0
M  V30 5866 H 561.818 1.87234 -3.8554 0
M  V30 5867 H 566.002 1.45763 -4.74412 0
M  V30 5868 H 561.258 0.908186 -6.04617 0
M  V30 5869 H 565.432 0.501626 -6.94591 0
M  V30 5870 H 563.059 0.22114 -7.59878 0
M  V30 5871 N 564.634 1.40294 0.718013 0
M  V30 5872 C 565.88 1.38645 1.48005 0
M  V30 5873 C 566.213 -0.0121202 1.94196 0
M  V30 5874 O 565.488 -0.980309 1.67989 0
M  V30 5875 C 565.771 2.37379 2.70782 0
M  V30 5876 C 565.624 3.8625 2.30501 0
M  V30 5877 C 566.943 2.33685 3.72933 0
M  V30 5878 H 564.062 0.504928 0.536858 0
M  V30 5879 H 566.704 1.71411 0.819649 0
M  V30 5880 H 564.854 2.09568 3.27129 0
M  V30 5881 H 566.526 4.24879 1.79655 0
M  V30 5882 H 564.769 4.02202 1.6253 0
M  V30 5883 H 565.44 4.50847 3.18498 0
M  V30 5884 H 567.916 2.58314 3.2621 0
M  V30 5885 H 566.792 3.0482 4.56482 0
M  V30 5886 H 567.053 1.34765 4.21059 0
M  V30 5887 N 566.112 -0.949982 1.2575 0
M  V30 5888 C 567.528 -1.22191 1.02672 0
M  V30 5889 C 567.728 -1.99898 -0.253588 0
M  V30 5890 O 566.784 -2.33329 -0.965076 0
M  V30 5891 C 568.097 -1.99175 2.25277 0
M  V30 5892 C 569.645 -2.12201 2.30087 0
M  V30 5893 C 570.12 -2.92586 3.5236 0
M  V30 5894 N 571.611 -3.00163 3.52784 0
M  V30 5895 C 572.346 -3.62766 4.44059 0
M  V30 5896 N 571.842 -4.26943 5.45611 0
M  V30 5897 N 573.635 -3.59953 4.3173 0
M  V30 5898 H 565.786 -0.430258 2.07996 0
M  V30 5899 H 568.049 -0.252844 0.91366 0
M  V30 5900 H 567.755 -1.49479 3.18354 0
M  V30 5901 H 567.629 -2.99868 2.28821 0
M  V30 5902 H 570.016 -2.61093 1.3753 0
M  V30 5903 H 570.097 -1.10799 2.30559 0
M  V30 5904 H 569.741 -2.44383 4.45241 0
M  V30 5905 H 569.671 -3.94224 3.49134 0
M  V30 5906 H 572.162 -2.54529 2.79327 0
M  V30 5907 H 572.475 -4.72583 6.11461 0
M  V30 5908 H 570.82 -4.25557 5.49478 0
M  V30 5909 H 574.011 -3.09003 3.51617 0
M  V30 5910 H 574.184 -4.08455 5.03059 0
M  V30 5911 N 567.59 -1.07411 -1.15328 0
M  V30 5912 C 569.001 -0.820261 -1.67716 0
M  V30 5913 C 569.352 0.654539 -1.8496 0
M  V30 5914 O 568.477 1.50664 -1.55337 0
M  V30 5915 C 569.072 -1.48242 -3.04647 0
M  V30 5916 C 567.631 -1.27606 -3.5411 0
M  V30 5917 C 566.778 -1.5517 -2.29821 0
M  V30 5918 H 569.729 -1.23608 -0.995332 0
M  V30 5919 H 569.75 -0.903984 -3.69606 0
M  V30 5920 H 569.262 -2.55578 -2.92064 0
M  V30 5921 H 567.363 -0.222948 -3.71932 0
M  V30 5922 H 567.476 -1.99667 -4.35511 0
M  V30 5923 H 565.84 -0.972747 -2.35393 0
M  V30 5924 H 566.623 -2.63689 -2.19824 0
M  V30 5925 N 569.068 1.32177 -0.85831 0
M  V30 5926 C 570.016 2.30729 -0.294442 0
M  V30 5927 C 571.01 1.59009 0.584165 0
M  V30 5928 O 572.216 1.73713 0.471562 0
M  V30 5929 H 568.591 0.748097 -0.0765171 0
M  V30 5930 H 570.562 2.75774 -1.1398 0
M  V30 5931 C 569.311 3.44098 0.499208 0
M  V30 5932 H 568.634 3.99449 -0.167579 0
M  V30 5933 H 570.074 4.15202 0.859273 0
M  V30 5934 C 568.533 2.91684 1.68588 0
M  V30 5935 O 569.063 2.89481 2.78503 0
M  V30 5936 N 567.269 2.48036 1.51415 0
M  V30 5937 H 566.816 2.50027 0.620006 0
M  V30 5938 H 566.774 2.13322 2.30957 0
M  V30 5939 N 570.547 0.616602 1.45037 0
M  V30 5940 C 571.477 -0.0840787 2.33349 0
M  V30 5941 C 572.458 -0.849641 1.4736 0
M  V30 5942 O 573.643 -0.818407 1.76113 0
M  V30 5943 C 570.773 -1.07604 3.3021 0
M  V30 5944 C 569.727 -0.423096 4.25904 0
M  V30 5945 C 569.053 -1.52394 5.12523 0
M  V30 5946 C 570.353 0.661457 5.18095 0
M  V30 5947 H 572.047 0.653333 2.92185 0
M  V30 5948 H 569.593 0.315634 1.40498 0
M  V30 5949 H 571.546 -1.57485 3.90866 0
M  V30 5950 H 570.27 -1.84416 2.69552 0
M  V30 5951 H 568.929 0.05493 3.66559 0
M  V30 5952 H 568.577 -2.28257 4.48227 0
M  V30 5953 H 568.277 -1.09251 5.77354 0
M  V30 5954 H 569.801 -2.02485 5.76049 0
M  V30 5955 H 571.215 0.246353 5.7277 0
M  V30 5956 H 569.612 1.01517 5.91451 0
M  V30 5957 H 570.682 1.53446 4.59981 0
M  V30 5958 N 572.025 -1.5352 0.356285 0
M  V30 5959 C 573.436 -1.86282 -0.12492 0
M  V30 5960 C 573.787 -1.27717 -1.48939 0
M  V30 5961 O 572.912 -0.595614 -2.08042 0
M  V30 5962 C 573.507 -3.37995 -0.23345 0
M  V30 5963 C 572.066 -3.70588 -0.658899 0
M  V30 5964 C 571.213 -2.76581 0.199596 0
M  V30 5965 H 574.164 -1.47901 0.575423 0
M  V30 5966 H 574.185 -3.65475 -1.0587 0
M  V30 5967 H 573.697 -3.8059 0.759776 0
M  V30 5968 H 571.798 -3.33544 -1.66069 0
M  V30 5969 H 571.911 -4.77076 -0.439957 0
M  V30 5970 H 570.275 -2.52552 -0.330076 0
M  V30 5971 H 571.058 -3.22008 1.19019 0
M  V30 5972 N 573.503 -0.0852151 -1.57369 0
M  V30 5973 C 574.435 0.907099 -2.10486 0
M  V30 5974 C 575.448 1.25259 -1.03991 0
M  V30 5975 O 576.637 1.20743 -1.31467 0
M  V30 5976 C 573.737 2.21908 -2.56145 0
M  V30 5977 C 572.91 2.05042 -3.86363 0
M  V30 5978 C 571.969 3.19664 -4.17973 0
M  V30 5979 O 570.995 2.94062 -4.87356 0
M  V30 5980 N 572.197 4.45151 -3.72587 0
M  V30 5981 H 574.962 0.453505 -2.96249 0
M  V30 5982 H 572.523 0.100157 -1.6159 0
M  V30 5983 H 574.515 2.97519 -2.74343 0
M  V30 5984 H 573.085 2.58723 -1.75446 0
M  V30 5985 H 572.305 1.13819 -3.77411 0
M  V30 5986 H 573.593 1.91039 -4.71574 0
M  V30 5987 H 572.991 4.68834 -3.16561 0
M  V30 5988 H 571.548 5.17744 -3.9596 0
M  V30 5989 N 574.981 1.5647 0.188427 0
M  V30 5990 C 575.911 1.98101 1.23606 0
M  V30 5991 C 576.892 0.853961 1.47111 0
M  V30 5992 O 578.077 1.11879 1.58735 0
M  V30 5993 C 575.207 2.32624 2.57882 0
M  V30 5994 C 574.161 3.48129 2.48978 0
M  V30 5995 C 573.487 3.68347 3.87588 0
M  V30 5996 C 574.787 4.82112 2.00911 0
M  V30 5997 H 576.481 2.85864 0.890068 0
M  V30 5998 H 574.027 1.37532 0.426714 0
M  V30 5999 H 575.98 2.60343 3.3136 0
M  V30 6000 H 574.704 1.41751 2.94235 0
M  V30 6001 H 573.363 3.20511 1.77956 0
M  V30 6002 H 573.011 2.74793 4.21305 0
M  V30 6003 H 572.711 4.46055 3.82503 0
M  V30 6004 H 574.235 3.98449 4.62678 0
M  V30 6005 H 575.649 5.08819 2.64151 0
M  V30 6006 H 574.046 5.63337 2.06814 0
M  V30 6007 H 575.116 4.75249 0.96262 0
M  V30 6008 N 576.459 -0.456382 1.50847 0
M  V30 6009 C 577.389 -1.56025 1.73719 0
M  V30 6010 C 578.37 -1.5967 0.586473 0
M  V30 6011 O 579.555 -1.75702 0.827185 0
M  V30 6012 C 576.685 -2.94251 1.84483 0
M  V30 6013 C 575.639 -3.05471 2.99786 0
M  V30 6014 C 574.965 -4.45489 2.95709 0
M  V30 6015 C 576.265 -2.81318 4.40065 0
M  V30 6016 H 577.959 -1.37138 2.66146 0
M  V30 6017 H 575.505 -0.658299 1.28072 0
M  V30 6018 H 577.458 -3.71417 1.99067 0
M  V30 6019 H 576.182 -3.14328 0.886891 0
M  V30 6020 H 574.841 -2.30741 2.84876 0
M  V30 6021 H 574.489 -4.62505 1.97732 0
M  V30 6022 H 574.189 -4.53929 3.73125 0
M  V30 6023 H 575.713 -5.24655 3.12362 0
M  V30 6024 H 577.127 -3.48226 4.55425 0
M  V30 6025 H 575.524 -3.01188 5.19043 0
M  V30 6026 H 576.594 -1.7706 4.51418 0
M  V30 6027 N 577.937 -1.40673 -0.710563 0
M  V30 6028 C 579.165 -1.42547 -1.4996 0
M  V30 6029 C 579.58 -0.0265485 -1.88781 0
M  V30 6030 O 578.937 0.950694 -1.55782 0
M  V30 6031 C 578.988 -2.32071 -2.77173 0
M  V30 6032 O 578.709 -3.66518 -2.39992 0
M  V30 6033 C 580.21 -2.42591 -3.71032 0
M  V30 6034 H 577.43 -0.486025 -0.462623 0
M  V30 6035 H 579.974 -1.84783 -0.876102 0
M  V30 6036 H 578.129 -1.93184 -3.35795 0
M  V30 6037 H 578.543 -4.14115 -3.21884 0
M  V30 6038 H 580.017 -3.09429 -4.57119 0
M  V30 6039 H 580.494 -1.4525 -4.14486 0
M  V30 6040 H 581.1 -2.82051 -3.18319 0
M  V30 6041 N 579.415 0.9433 -1.26252 0
M  V30 6042 C 580.345 2.05902 -1.10122 0
M  V30 6043 C 581.326 1.70099 -0.00700552 0
M  V30 6044 O 582.511 1.93377 -0.178641 0
M  V30 6045 C 579.641 3.39516 -0.731175 0
M  V30 6046 C 578.595 3.89372 -1.77688 0
M  V30 6047 C 577.921 5.19613 -1.26122 0
M  V30 6048 C 579.221 4.14489 -3.17799 0
M  V30 6049 H 580.915 2.19655 -2.03451 0
M  V30 6050 H 578.461 1.05548 -0.979576 0
M  V30 6051 H 580.414 4.17031 -0.605215 0
M  V30 6052 H 579.138 3.25733 0.23782 0
M  V30 6053 H 577.797 3.14036 -1.89148 0
M  V30 6054 H 577.445 5.02208 -0.282128 0
M  V30 6055 H 577.145 5.53939 -1.96023 0
M  V30 6056 H 578.669 5.99713 -1.14789 0
M  V30 6057 H 580.083 4.82625 -3.09428 0
M  V30 6058 H 578.48 4.60094 -3.85271 0
M  V30 6059 H 579.55 3.20347 -3.64014 0
M  V30 6060 N 580.893 1.08022 1.14757 0
M  V30 6061 C 581.856 0.71048 2.1791 0
M  V30 6062 C 582.856 -0.252731 1.58801 0
M  V30 6063 O 584.046 -0.0327915 1.74169 0
M  V30 6064 C 581.178 0.0483203 3.40866 0
M  V30 6065 H 582.371 1.62384 2.52134 0
M  V30 6066 H 579.924 0.877595 1.29337 0
M  V30 6067 H 580.659 -0.876959 3.12218 0
M  V30 6068 H 580.444 0.741189 3.85031 0
M  V30 6069 H 581.934 -0.195471 4.17142 0
M  V30 6070 N 582.371 -1.3172 0.865308 0
M  V30 6071 C 583.281 -2.32394 0.320935 0
M  V30 6072 C 584.297 -1.64511 -0.566746 0
M  V30 6073 O 585.473 -1.95969 -0.464575 0
M  V30 6074 C 582.538 -3.43462 -0.472701 0
M  V30 6075 C 581.599 -4.27015 0.442385 0
M  V30 6076 C 580.832 -5.32779 -0.313469 0
M  V30 6077 O 581.055 -5.49158 -1.54214 0
M  V30 6078 O 579.989 -6.01015 0.326257 0
M  V30 6079 H 583.815 -2.80868 1.15528 0
M  V30 6080 H 581.4 -1.35535 0.628545 0
M  V30 6081 H 583.282 -4.11172 -0.922781 0
M  V30 6082 H 581.957 -2.97159 -1.28367 0
M  V30 6083 H 580.864 -3.62075 0.940866 0
M  V30 6084 H 582.197 -4.76871 1.21882 0
M  V30 6085 N 583.85 -0.624285 -1.44708 0
M  V30 6086 C 585.08 -0.132726 -2.06173 0
M  V30 6087 C 585.488 1.19513 -1.46674 0
M  V30 6088 O 584.831 1.74254 -0.581491 0
M  V30 6089 C 584.893 0.0636732 -3.59444 0
M  V30 6090 C 584.557 -1.18496 -4.4137 0
M  V30 6091 C 585.553 -2.10706 -4.75288 0
M  V30 6092 C 583.239 -1.41846 -4.81856 0
M  V30 6093 C 585.233 -3.24582 -5.48567 0
M  V30 6094 C 582.92 -2.5602 -5.54885 0
M  V30 6095 C 583.918 -3.47215 -5.88159 0
M  V30 6096 O 583.606 -4.59399 -6.59703 0
M  V30 6097 H 583.338 -0.0737313 -0.671967 0
M  V30 6098 H 585.892 -0.856789 -1.86677 0
M  V30 6099 H 584.122 0.842809 -3.77404 0
M  V30 6100 H 585.811 0.508924 -4.02697 0
M  V30 6101 H 586.577 -1.93898 -4.44554 0
M  V30 6102 H 582.456 -0.717556 -4.55381 0
M  V30 6103 H 586 -3.95785 -5.74456 0
M  V30 6104 H 581.897 -2.72774 -5.85034 0
M  V30 6105 H 582.665 -4.58293 -6.78166 0
M  V30 6106 N 585.328 1.53329 -0.364422 0
M  V30 6107 C 586.278 2.22472 0.499024 0
M  V30 6108 C 587.262 1.21952 1.0496 0
M  V30 6109 O 588.454 1.47405 0.979836 0
M  V30 6110 C 585.583 3.01659 1.6388 0
M  V30 6111 C 584.669 4.09555 1.10116 0
M  V30 6112 N 585.06 5.04988 0.286414 0
M  V30 6113 C 583.358 4.2424 1.37608 0
M  V30 6114 C 584.059 5.81699 -0.00781682 0
M  V30 6115 N 583.035 5.40394 0.589494 0
M  V30 6116 H 586.837 2.93611 -0.130284 0
M  V30 6117 H 584.351 1.61483 -0.172377 0
M  V30 6118 H 586.348 3.4971 2.26954 0
M  V30 6119 H 585.008 2.32051 2.27118 0
M  V30 6120 H 586.019 5.17847 -0.0742839 0
M  V30 6121 H 582.696 3.65858 2.01133 0
M  V30 6122 H 584.086 6.68587 -0.666394 0
M  V30 6123 N 586.806 0.0935595 1.57322 0
M  V30 6124 C 587.716 -0.880192 2.17462 0
M  V30 6125 C 588.732 -1.31135 1.14366 0
M  V30 6126 O 589.908 -1.37958 1.46729 0
M  V30 6127 C 586.973 -2.12184 2.74188 0
M  V30 6128 C 586.034 -1.74503 3.92234 0
M  V30 6129 C 585.267 -2.92748 4.46245 0
M  V30 6130 O 585.49 -4.07427 3.99198 0
M  V30 6131 O 584.424 -2.71303 5.37288 0
M  V30 6132 H 588.25 -0.398516 3.01074 0
M  V30 6133 H 585.835 -0.130707 1.48827 0
M  V30 6134 H 587.717 -2.84953 3.10451 0
M  V30 6135 H 586.392 -2.59407 1.93623 0
M  V30 6136 H 585.299 -0.989186 3.60785 0
M  V30 6137 H 586.632 -1.32044 4.74157 0
M  V30 6138 N 588.284 -1.56567 -0.180126 0
M  V30 6139 C 589.216 -1.92275 -1.24751 0
M  V30 6140 C 590.229 -0.814922 -1.40936 0
M  V30 6141 O 591.418 -1.09336 -1.41095 0
M  V30 6142 C 588.518 -2.15265 -2.61752 0
M  V30 6143 C 587.691 -3.46467 -2.66981 0
M  V30 6144 C 586.75 -3.58391 -3.85283 0
M  V30 6145 O 585.776 -4.31086 -3.7169 0
M  V30 6146 N 586.978 -2.92587 -5.01371 0
M  V30 6147 H 589.743 -2.84435 -0.944302 0
M  V30 6148 H 587.304 -1.57617 -0.369952 0
M  V30 6149 H 589.296 -2.20515 -3.39345 0
M  V30 6150 H 587.866 -1.29533 -2.845 0
M  V30 6151 H 587.086 -3.52953 -1.75549 0
M  V30 6152 H 588.374 -4.32819 -2.67479 0
M  V30 6153 H 587.772 -2.3338 -5.15316 0
M  V30 6154 H 586.329 -3.03444 -5.76858 0
M  V30 6155 N 589.762 0.448376 -1.51087 0
M  V30 6156 C 590.672 1.56882 -1.74428 0
M  V30 6157 C 591.688 1.62268 -0.62809 0
M  V30 6158 O 592.864 1.79716 -0.909075 0
M  V30 6159 C 589.929 2.92947 -1.85426 0
M  V30 6160 C 588.99 2.97766 -3.09247 0
M  V30 6161 C 588.223 4.27341 -3.19711 0
M  V30 6162 O 588.446 5.19112 -2.36387 0
M  V30 6163 O 587.38 4.38219 -4.12611 0
M  V30 6164 H 591.206 1.40104 -2.69452 0
M  V30 6165 H 588.791 0.630247 -1.35456 0
M  V30 6166 H 590.673 3.73719 -1.94709 0
M  V30 6167 H 589.348 3.09876 -0.935887 0
M  V30 6168 H 588.255 2.15989 -3.0545 0
M  V30 6169 H 589.588 2.8578 -4.00738 0
M  V30 6170 N 591.24 1.41047 0.703093 0
M  V30 6171 C 592.15 1.44645 1.84703 0
M  V30 6172 C 593.166 0.337778 1.7069 0
M  V30 6173 O 594.342 0.584327 1.92737 0
M  V30 6174 C 591.407 1.31928 3.20618 0
M  V30 6175 C 590.468 2.53047 3.46794 0
M  V30 6176 C 589.701 2.40927 4.76224 0
M  V30 6177 O 589.924 1.42978 5.5219 0
M  V30 6178 O 588.858 3.30543 5.03016 0
M  V30 6179 H 592.684 2.41139 1.84624 0
M  V30 6180 H 590.269 1.22504 0.855167 0
M  V30 6181 H 592.151 1.27092 4.01778 0
M  V30 6182 H 590.826 0.385469 3.21397 0
M  V30 6183 H 589.733 2.6346 2.65593 0
M  V30 6184 H 591.066 3.45231 3.50822 0
M  V30 6185 N 592.718 -0.936591 1.26751 0
M  V30 6186 C 593.967 -1.67778 1.11953 0
M  V30 6187 C 594.28 -1.92694 -0.33589 0
M  V30 6188 O 595.486 -2.64682 -0.604618 0
M  V30 6189 C 593.942 -3.02138 1.95551 0
M  V30 6190 C 593.55 -2.84953 3.45696 0
M  V30 6191 C 595.294 -3.79917 1.89377 0
M  V30 6192 C 593.201 -4.14814 4.21525 0
M  V30 6193 H 592.131 -0.629275 0.415366 0
M  V30 6194 H 594.782 -1.04122 1.51099 0
M  V30 6195 H 593.164 -3.668 1.49243 0
M  V30 6196 H 594.338 -2.29112 3.99805 0
M  V30 6197 H 592.653 -2.20612 3.53156 0
M  V30 6198 H 595.25 -4.76134 2.43312 0
M  V30 6199 H 595.593 -4.07204 0.865464 0
M  V30 6200 H 596.126 -3.22037 2.33532 0
M  V30 6201 H 592.865 -3.92709 5.24843 0
M  V30 6202 H 592.385 -4.70352 3.72195 0
M  V30 6203 H 594.064 -4.83239 4.3022 0
M  V30 6204 N 594.196 -1.08629 -1.14182 0
M  V30 6205 C 595.443 -0.817345 -1.85272 0
M  V30 6206 C 595.771 0.656917 -1.83071 0
M  V30 6207 O 595.026 1.49897 -1.25815 0
M  V30 6208 C 595.325 -1.28734 -3.3341 0
M  V30 6209 C 594.991 -2.76981 -3.55798 0
M  V30 6210 C 593.653 -3.17469 -3.61617 0
M  V30 6211 C 596.005 -3.72605 -3.64438 0
M  V30 6212 C 593.333 -4.52371 -3.736 0
M  V30 6213 C 595.685 -5.07286 -3.77947 0
M  V30 6214 C 594.349 -5.47376 -3.82016 0
M  V30 6215 H 593.619 -0.299088 -0.677958 0
M  V30 6216 H 596.266 -1.35962 -1.34857 0
M  V30 6217 H 594.571 -0.664702 -3.8612 0
M  V30 6218 H 596.268 -1.05598 -3.86846 0
M  V30 6219 H 592.858 -2.44644 -3.51919 0
M  V30 6220 H 597.042 -3.42443 -3.5923 0
M  V30 6221 H 592.298 -4.82882 -3.75013 0
M  V30 6222 H 596.472 -5.81243 -3.83575 0
M  V30 6223 H 594.099 -6.51906 -3.91054 0
M  V30 6224 N 595.674 1.31259 -0.872281 0
M  V30 6225 C 596.621 2.28459 -0.327857 0
M  V30 6226 C 597.591 1.55831 0.574957 0
M  V30 6227 O 598.776 1.83965 0.506101 0
M  V30 6228 C 595.916 3.41985 0.462644 0
M  V30 6229 C 595.029 4.29458 -0.467949 0
M  V30 6230 C 594.164 5.30131 0.336903 0
M  V30 6231 C 593.203 6.0925 -0.58997 0
M  V30 6232 N 592.34 7.01872 0.178775 0
M  V30 6233 H 597.18 2.74414 -1.16193 0
M  V30 6234 H 594.717 1.34994 -0.584376 0
M  V30 6235 H 596.675 4.06547 0.936759 0
M  V30 6236 H 595.305 2.97134 1.2614 0
M  V30 6237 H 594.357 3.65318 -1.06052 0
M  V30 6238 H 595.669 4.84677 -1.17856 0
M  V30 6239 H 594.823 6.0038 0.873427 0
M  V30 6240 H 593.562 4.75573 1.08079 0
M  V30 6241 H 592.567 5.37889 -1.13823 0
M  V30 6242 H 593.792 6.65894 -1.33275 0
M  V30 6243 H 591.738 6.49721 0.905435 0
M  V30 6244 H 591.655 7.54522 -0.472452 0
M  V30 6245 H 592.923 7.76382 0.696454 0
M  V30 6246 N 597.152 0.631951 1.44375 0
M  V30 6247 C 598.082 -0.0593243 2.33425 0
M  V30 6248 C 599.063 -0.833964 1.48253 0
M  V30 6249 O 600.248 -0.799682 1.76971 0
M  V30 6250 C 597.378 -1.04096 3.31333 0
M  V30 6251 C 596.332 -0.377899 4.26328 0
M  V30 6252 C 595.658 -1.4695 5.14111 0
M  V30 6253 C 596.958 0.716371 5.17364 0
M  V30 6254 H 598.652 0.684287 2.91475 0
M  V30 6255 H 596.198 0.330518 1.40156 0
M  V30 6256 H 598.151 -1.53331 3.92514 0
M  V30 6257 H 596.875 -1.81547 2.71493 0
M  V30 6258 H 595.534 0.0938054 3.6648 0
M  V30 6259 H 595.182 -2.2349 4.50623 0
M  V30 6260 H 594.882 -1.03121 5.78481 0
M  V30 6261 H 596.406 -1.96363 5.78164 0
M  V30 6262 H 597.82 0.307089 5.72477 0
M  V30 6263 H 596.217 1.07784 5.90341 0
M  V30 6264 H 597.287 1.58316 4.58327 0
M  V30 6265 N 598.631 -1.53133 0.372548 0
M  V30 6266 C 600.047 -1.59585 0.02178 0
M  V30 6267 C 600.247 -1.38736 -1.46132 0
M  V30 6268 O 599.303 -1.19599 -2.22379 0
M  V30 6269 C 600.616 -2.9678 0.483959 0
M  V30 6270 C 602.164 -3.09909 0.438775 0
M  V30 6271 C 602.639 -4.49527 0.876876 0
M  V30 6272 N 604.13 -4.55663 0.832214 0
M  V30 6273 C 604.865 -5.61896 1.14281 0
M  V30 6274 N 604.361 -6.75852 1.52303 0
M  V30 6275 N 606.154 -5.51916 1.06515 0
M  V30 6276 H 598.305 -1.64936 1.33827 0
M  V30 6277 H 600.568 -0.773947 0.547458 0
M  V30 6278 H 600.274 -3.17198 1.51915 0
M  V30 6279 H 600.148 -3.7699 -0.125784 0
M  V30 6280 H 602.535 -2.89197 -0.587294 0
M  V30 6281 H 602.616 -2.31691 1.0841 0
M  V30 6282 H 602.26 -4.70979 1.90109 0
M  V30 6283 H 602.19 -5.26186 0.208727 0
M  V30 6284 H 604.681 -3.73844 0.552195 0
M  V30 6285 H 604.994 -7.52862 1.7441 0
M  V30 6286 H 603.339 -6.77226 1.56175 0
M  V30 6287 H 606.53 -4.6177 0.767235 0
M  V30 6288 H 606.703 -6.34609 1.31053 0
M  V30 6289 N 600.109 -0.101901 -1.5727 0
M  V30 6290 C 601.039 0.851544 -2.17419 0
M  V30 6291 C 602.02 1.28942 -1.10941 0
M  V30 6292 O 603.205 1.35509 -1.39107 0
M  V30 6293 C 600.335 2.10816 -2.75996 0
M  V30 6294 C 599.289 1.80867 -3.87906 0
M  V30 6295 C 598.615 3.13413 -4.33216 0
M  V30 6296 C 599.915 1.0903 -5.10793 0
M  V30 6297 H 601.609 0.350381 -2.97343 0
M  V30 6298 H 599.155 0.16709 -1.43027 0
M  V30 6299 H 601.108 2.77959 -3.16729 0
M  V30 6300 H 599.832 2.63227 -1.93337 0
M  V30 6301 H 598.491 1.16119 -3.47724 0
M  V30 6302 H 598.139 3.63725 -3.47438 0
M  V30 6303 H 597.839 2.94155 -5.08671 0
M  V30 6304 H 599.363 3.81704 -4.76586 0
M  V30 6305 H 600.777 1.66295 -5.48652 0
M  V30 6306 H 599.174 0.99927 -5.91722 0
M  V30 6307 H 600.244 0.0741704 -4.84843 0
M  V30 6308 N 601.587 1.56661 0.17182 0
M  V30 6309 C 602.835 1.81606 0.886774 0
M  V30 6310 C 603.156 0.678818 1.82803 0
M  V30 6311 O 602.426 -0.301354 1.93568 0
M  V30 6312 H 601.006 0.669934 0.330451 0
M  V30 6313 H 603.668 1.94142 0.171757 0
M  V30 6314 H 602.764 2.75634 1.46398 0
M  V30 6315 N 603.065 -0.440357 1.51323 0
M  V30 6316 C 604.015 -1.53263 1.68803 0
M  V30 6317 C 604.999 -1.51494 0.542057 0
M  V30 6318 O 606.191 -1.57999 0.797839 0
M  V30 6319 C 603.32 -2.91479 1.8137 0
M  V30 6320 C 602.406 -2.98015 3.01742 0
M  V30 6321 N 602.797 -2.743 4.24962 0
M  V30 6322 C 601.095 -3.29173 3.00934 0
M  V30 6323 C 601.796 -2.86601 5.06197 0
M  V30 6324 N 600.772 -3.1814 4.40781 0
M  V30 6325 H 604.574 -1.33675 2.61741 0
M  V30 6326 H 602.088 -0.647616 1.48929 0
M  V30 6327 H 604.085 -3.70055 1.92002 0
M  V30 6328 H 602.745 -3.12089 0.896117 0
M  V30 6329 H 603.756 -2.49287 4.53957 0
M  V30 6330 H 600.433 -3.55577 2.18796 0
M  V30 6331 H 601.823 -2.72246 6.14274 0
M  V30 6332 N 604.543 -1.41418 -0.695603 0
M  V30 6333 C 605.473 -1.46035 -1.82197 0
M  V30 6334 C 606.454 -0.319025 -1.67082 0
M  V30 6335 O 607.639 -0.530462 -1.86815 0
M  V30 6336 C 604.769 -1.34179 -3.20333 0
M  V30 6337 C 603.723 -2.46123 -3.50154 0
M  V30 6338 C 603.049 -2.19332 -4.87645 0
M  V30 6339 C 604.349 -3.88463 -3.49133 0
M  V30 6340 H 606.043 -2.40303 -1.78591 0
M  V30 6341 H 603.589 -1.15663 -0.857797 0
M  V30 6342 H 605.542 -1.36021 -3.98844 0
M  V30 6343 H 604.266 -0.363952 -3.24566 0
M  V30 6344 H 602.925 -2.43563 -2.73994 0
M  V30 6345 H 602.573 -1.19891 -4.88503 0
M  V30 6346 H 602.273 -2.94344 -5.08562 0
M  V30 6347 H 603.797 -2.22889 -5.68465 0
M  V30 6348 H 605.211 -3.92738 -4.17648 0
M  V30 6349 H 603.608 -4.63158 -3.81582 0
M  V30 6350 H 604.678 -4.16617 -2.48109 0
M  V30 6351 N 606.021 0.929856 -1.27246 0
M  V30 6352 C 606.968 2.03017 -1.09785 0
M  V30 6353 C 607.938 1.661 0.000456744 0
M  V30 6354 O 609.123 1.90116 -0.161462 0
M  V30 6355 C 606.263 3.36878 -0.748816 0
M  V30 6356 C 605.376 3.86763 -1.92453 0
M  V30 6357 C 604.511 5.09061 -1.51758 0
M  V30 6358 C 603.55 5.51237 -2.66091 0
M  V30 6359 N 602.687 6.64732 -2.25999 0
M  V30 6360 H 607.527 2.17285 -2.03939 0
M  V30 6361 H 605.064 1.06448 -1.01524 0
M  V30 6362 H 607.022 4.13855 -0.527283 0
M  V30 6363 H 605.652 3.22424 0.155771 0
M  V30 6364 H 604.704 3.06086 -2.25867 0
M  V30 6365 H 606.016 4.13994 -2.78227 0
M  V30 6366 H 605.17 5.93532 -1.25716 0
M  V30 6367 H 603.909 4.83602 -0.630896 0
M  V30 6368 H 602.914 4.65316 -2.92849 0
M  V30 6369 H 604.139 5.78692 -3.55377 0
M  V30 6370 H 602.085 6.40935 -1.3978 0
M  V30 6371 H 602.002 6.91607 -3.05313 0
M  V30 6372 H 603.27 7.52549 -2.03199 0
M  V30 6373 N 607.499 1.09233 1.13605 0
M  V30 6374 C 608.446 0.729921 2.18954 0
M  V30 6375 C 609.416 -0.287916 1.63586 0
M  V30 6376 O 610.601 -0.170003 1.90041 0
M  V30 6377 C 607.741 0.154489 3.44754 0
M  V30 6378 C 606.854 1.22613 4.14234 0
M  V30 6379 C 605.989 0.613657 5.27644 0
M  V30 6380 C 605.028 1.66674 5.8897 0
M  V30 6381 N 604.165 1.07545 6.93814 0
M  V30 6382 H 609.005 1.63257 2.49302 0
M  V30 6383 H 606.542 0.815693 1.22413 0
M  V30 6384 H 608.5 -0.196923 4.16735 0
M  V30 6385 H 607.13 -0.711433 3.14863 0
M  V30 6386 H 606.182 1.69485 3.40557 0
M  V30 6387 H 607.494 2.0238 4.55899 0
M  V30 6388 H 606.648 0.210976 6.06333 0
M  V30 6389 H 605.387 -0.215584 4.87223 0
M  V30 6390 H 604.392 2.07899 5.08978 0
M  V30 6391 H 605.617 2.49861 6.31464 0
M  V30 6392 H 603.563 0.267451 6.55455 0
M  V30 6393 H 603.48 1.81011 7.3401 0
M  V30 6394 H 604.748 0.698906 7.7636 0
M  V30 6395 N 608.977 -1.30795 0.87923 0
M  V30 6396 C 609.887 -2.32041 0.345565 0
M  V30 6397 C 610.903 -1.65103 -0.549265 0
M  V30 6398 O 612.079 -1.9645 -0.443763 0
M  V30 6399 C 609.144 -3.43944 -0.436245 0
M  V30 6400 C 608.205 -4.26521 0.48765 0
M  V30 6401 C 607.438 -5.33081 -0.256943 0
M  V30 6402 O 607.661 -5.50762 -1.48381 0
M  V30 6403 O 606.595 -6.00635 0.389985 0
M  V30 6404 H 610.421 -2.79627 1.18501 0
M  V30 6405 H 608.006 -1.3486 0.642885 0
M  V30 6406 H 609.888 -4.12128 -0.879119 0
M  V30 6407 H 608.563 -2.98504 -1.25208 0
M  V30 6408 H 607.47 -3.61057 0.979216 0
M  V30 6409 H 608.803 -4.75551 1.26933 0
M  V30 6410 N 610.455 -0.639598 -1.44038 0
M  V30 6411 C 611.365 0.0612377 -2.3452 0
M  V30 6412 C 612.381 0.826717 -1.53106 0
M  V30 6413 O 613.557 0.777059 -1.85806 0
M  V30 6414 C 610.622 1.02492 -3.31204 0
M  V30 6415 C 609.683 0.25788 -4.28525 0
M  V30 6416 C 608.916 1.17566 -5.2059 0
M  V30 6417 O 609.139 2.41461 -5.16771 0
M  V30 6418 O 608.073 0.655407 -5.98321 0
M  V30 6419 H 611.899 -0.68318 -2.95916 0
M  V30 6420 H 609.484 -0.399784 -1.43952 0
M  V30 6421 H 611.366 1.57911 -3.90694 0
M  V30 6422 H 610.041 1.7498 -2.7233 0
M  V30 6423 H 608.948 -0.339566 -3.72556 0
M  V30 6424 H 610.281 -0.427154 -4.90343 0
M  V30 6425 N 611.933 1.52934 -0.380664 0
M  V30 6426 C 612.896 2.24809 0.446473 0
M  V30 6427 C 613.896 1.26133 0.997347 0
M  V30 6428 O 615.086 1.50297 0.880714 0
M  V30 6429 C 612.218 2.99649 1.62553 0
M  V30 6430 H 613.411 2.99343 -0.182677 0
M  V30 6431 H 610.964 1.55736 -0.132618 0
M  V30 6432 H 611.699 2.29395 2.29235 0
M  V30 6433 H 611.484 3.72066 1.23732 0
M  V30 6434 H 612.974 3.54246 2.21133 0
M  V30 6435 N 613.412 0.11024 1.57214 0
M  V30 6436 C 614.322 -0.857077 2.18383 0
M  V30 6437 C 615.338 -1.29915 1.1575 0
M  V30 6438 O 616.514 -1.36394 1.48184 0
M  V30 6439 C 613.579 -2.09264 2.76423 0
M  V30 6440 C 612.64 -1.70333 3.94063 0
M  V30 6441 C 611.873 -2.87999 4.49324 0
M  V30 6442 O 612.096 -4.0317 4.03497 0
M  V30 6443 O 611.03 -2.6559 5.40135 0
M  V30 6444 H 614.856 -0.366561 3.0148 0
M  V30 6445 H 612.441 -0.114914 1.48957 0
M  V30 6446 H 614.323 -2.81644 3.13456 0
M  V30 6447 H 612.998 -2.57339 1.96363 0
M  V30 6448 H 611.905 -0.950864 3.61814 0
M  V30 6449 H 613.238 -1.27007 4.75531 0
M  V30 6450 N 614.89 -1.56749 -0.16351 0
M  V30 6451 C 616.139 -1.81626 -0.877211 0
M  V30 6452 C 616.452 -0.688791 -1.83071 0
M  V30 6453 O 617.658 -0.822697 -2.58735 0
M  V30 6454 C 616.114 -3.21858 -1.61045 0
M  V30 6455 C 615.722 -4.42494 -0.700195 0
M  V30 6456 C 617.466 -3.56021 -2.31192 0
M  V30 6457 C 615.373 -5.73748 -1.43412 0
M  V30 6458 H 614.303 -0.67731 -0.331312 0
M  V30 6459 H 616.954 -1.83039 -0.13006 0
M  V30 6460 H 615.336 -3.14784 -2.40264 0
M  V30 6461 H 616.51 -4.60766 0.0555849 0
M  V30 6462 H 614.825 -4.1626 -0.10799 0
M  V30 6463 H 617.422 -4.51333 -2.8671 0
M  V30 6464 H 617.765 -2.81277 -3.06902 0
M  V30 6465 H 618.298 -3.64682 -1.58909 0
M  V30 6466 H 615.037 -6.51543 -0.719186 0
M  V30 6467 H 614.557 -5.5944 -2.16302 0
M  V30 6468 H 616.236 -6.15975 -1.9795 0
M  V30 6469 N 616.368 0.432326 -1.51554 0
M  V30 6470 C 617.3 1.54357 -1.6943 0
M  V30 6471 C 618.313 1.52311 -0.574897 0
M  V30 6472 O 619.502 1.56997 -0.849369 0
M  V30 6473 C 616.602 2.93273 -1.69836 0
M  V30 6474 C 615.775 3.19768 -2.98442 0
M  V30 6475 C 614.834 4.38433 -2.90969 0
M  V30 6476 O 613.86 4.36842 -3.64908 0
M  V30 6477 N 615.062 5.42276 -2.07163 0
M  V30 6478 H 617.827 1.39426 -2.65293 0
M  V30 6479 H 615.388 0.621331 -1.49503 0
M  V30 6480 H 617.38 3.70687 -1.62399 0
M  V30 6481 H 615.95 3.01777 -0.815456 0
M  V30 6482 H 615.17 2.30607 -3.19709 0
M  V30 6483 H 616.458 3.343 -3.83563 0
M  V30 6484 H 615.856 5.46407 -1.46477 0
M  V30 6485 H 614.413 6.18524 -2.05601 0
M  V30 6486 N 617.846 1.41785 0.688094 0
M  V30 6487 C 618.809 1.43936 1.78368 0
M  V30 6488 C 619.809 0.328866 1.57401 0
M  V30 6489 O 620.999 0.589093 1.63937 0
M  V30 6490 C 618.131 1.25804 3.16838 0
M  V30 6491 H 619.324 2.41472 1.77852 0
M  V30 6492 H 616.877 1.28037 0.896448 0
M  V30 6493 H 617.612 0.291386 3.22988 0
M  V30 6494 H 617.397 2.06272 3.33458 0
M  V30 6495 H 618.887 1.30162 3.96797 0
M  V30 6496 N 619.324 -0.923095 1.27737 0
M  V30 6497 C 620.234 -2.05765 1.12685 0
M  V30 6498 C 621.25 -1.73911 0.0557197 0
M  V30 6499 O 622.426 -1.99674 0.263137 0
M  V30 6500 C 619.491 -3.37804 0.780363 0
M  V30 6501 C 618.552 -3.83326 1.93286 0
M  V30 6502 C 617.785 -5.09064 1.60281 0
M  V30 6503 O 618.008 -5.6809 0.512828 0
M  V30 6504 O 616.942 -5.50071 2.44347 0
M  V30 6505 H 620.768 -2.21378 2.07907 0
M  V30 6506 H 618.353 -1.04299 1.06968 0
M  V30 6507 H 620.235 -4.17097 0.600668 0
M  V30 6508 H 618.91 -3.23387 -0.142291 0
M  V30 6509 H 617.817 -3.049 2.16764 0
M  V30 6510 H 619.15 -4.02292 2.83588 0
M  V30 6511 N 620.802 -1.09834 -1.13024 0
M  V30 6512 C 621.732 -0.763451 -2.20666 0
M  V30 6513 C 622.713 0.260778 -1.68089 0
M  V30 6514 O 623.898 0.127915 -1.93778 0
M  V30 6515 C 621.028 -0.187744 -3.46792 0
M  V30 6516 C 619.982 -1.14196 -4.12484 0
M  V30 6517 C 619.308 -0.427755 -5.32986 0
M  V30 6518 C 620.608 -2.48607 -4.59338 0
M  V30 6519 H 622.302 -1.66347 -2.48936 0
M  V30 6520 H 619.848 -0.801261 -1.19649 0
M  V30 6521 H 621.801 0.0586375 -4.21359 0
M  V30 6522 H 620.525 0.747485 -3.17931 0
M  V30 6523 H 619.184 -1.37369 -3.3989 0
M  V30 6524 H 618.832 0.511747 -5.0039 0
M  V30 6525 H 618.532 -1.06403 -5.77886 0
M  V30 6526 H 620.056 -0.189772 -6.10305 0
M  V30 6527 H 621.47 -2.29618 -5.25308 0
M  V30 6528 H 619.867 -3.08062 -5.14993 0
M  V30 6529 H 620.937 -3.09062 -3.73642 0
M  V30 6530 N 622.28 1.30327 -0.886154 0
M  V30 6531 C 623.19 2.31854 -0.357866 0
M  V30 6532 C 624.206 1.65392 0.540502 0
M  V30 6533 O 625.382 1.96683 0.433339 0
M  V30 6534 C 622.447 3.44171 0.417999 0
M  V30 6535 C 621.508 4.26257 -0.510263 0
M  V30 6536 C 620.741 5.3321 0.228669 0
M  V30 6537 O 620.964 5.51542 1.45458 0
M  V30 6538 O 619.898 6.0042 -0.421832 0
M  V30 6539 H 623.724 2.78995 -1.19982 0
M  V30 6540 H 621.309 1.34518 -0.650028 0
M  V30 6541 H 623.191 4.12588 0.857251 0
M  V30 6542 H 621.866 2.99164 1.23623 0
M  V30 6543 H 620.773 3.60533 -0.99835 0
M  V30 6544 H 622.106 4.74871 -1.29454 0
M  V30 6545 N 623.758 0.647228 1.43697 0
M  V30 6546 C 625.174 0.314256 1.56476 0
M  V30 6547 C 625.374 -1.18191 1.63196 0
M  V30 6548 O 624.43 -1.96655 1.58376 0
M  V30 6549 C 625.743 1.02034 2.82859 0
M  V30 6550 C 627.291 1.00002 2.96595 0
M  V30 6551 C 627.766 1.68689 4.25803 0
M  V30 6552 N 629.257 1.65424 4.32654 0
M  V30 6553 C 629.992 2.1545 5.31384 0
M  V30 6554 N 629.488 2.73738 6.36427 0
M  V30 6555 N 631.281 2.05985 5.22998 0
M  V30 6556 H 623.432 1.61821 1.37578 0
M  V30 6557 H 625.695 0.680184 0.660344 0
M  V30 6558 H 625.401 2.07542 2.83935 0
M  V30 6559 H 625.275 0.568146 3.72897 0
M  V30 6560 H 627.662 -0.0466319 2.95063 0
M  V30 6561 H 627.743 1.49086 2.07863 0
M  V30 6562 H 627.387 2.73308 4.28095 0
M  V30 6563 H 627.317 1.17076 5.13421 0
M  V30 6564 H 629.808 1.22884 3.57363 0
M  V30 6565 H 630.121 3.09602 7.08072 0
M  V30 6566 H 628.466 2.77796 6.37067 0
M  V30 6567 H 631.657 1.60157 4.39849 0
M  V30 6568 H 631.83 2.45281 5.99784 0
M  V30 6569 N 625.236 -1.5273 0.388769 0
M  V30 6570 C 626.166 -2.29353 -0.438111 0
M  V30 6571 C 627.147 -1.32719 -1.06394 0
M  V30 6572 O 628.332 -1.61612 -1.07681 0
M  V30 6573 C 625.462 -3.09995 -1.56589 0
M  V30 6574 C 624.416 -4.14509 -1.06613 0
M  V30 6575 C 623.742 -4.83372 -2.28594 0
M  V30 6576 C 625.042 -5.22127 -0.134459 0
M  V30 6577 H 626.736 -2.98723 0.201206 0
M  V30 6578 H 624.282 -1.43665 0.0982089 0
M  V30 6579 H 626.235 -3.62357 -2.15118 0
M  V30 6580 H 624.959 -2.38357 -2.23279 0
M  V30 6581 H 623.618 -3.63128 -0.503383 0
M  V30 6582 H 623.266 -4.08283 -2.93792 0
M  V30 6583 H 622.966 -5.54012 -1.95817 0
M  V30 6584 H 624.49 -5.38538 -2.87766 0
M  V30 6585 H 625.904 -5.69851 -0.627914 0
M  V30 6586 H 624.301 -6.00011 0.103534 0
M  V30 6587 H 625.371 -4.77971 0.816798 0
M  V30 6588 N 626.714 -0.118576 -1.57153 0
M  V30 6589 C 627.624 0.845484 -2.18835 0
M  V30 6590 C 628.64 1.29299 -1.16438 0
M  V30 6591 O 629.816 1.35607 -1.48905 0
M  V30 6592 C 626.881 2.07795 -2.77529 0
M  V30 6593 C 625.942 1.6824 -3.9496 0
M  V30 6594 C 625.175 2.85612 -4.50845 0
M  V30 6595 O 625.398 4.01025 -4.05629 0
M  V30 6596 O 624.332 2.62721 -5.41536 0
M  V30 6597 H 628.158 0.350568 -3.0167 0
M  V30 6598 H 625.743 0.107013 -1.49016 0
M  V30 6599 H 627.625 2.79978 -3.14945 0
M  V30 6600 H 626.3 2.56294 -1.97725 0
M  V30 6601 H 625.207 0.931663 -3.62313 0
M  V30 6602 H 626.54 1.24484 -4.76198 0
M  V30 6603 N 628.193 1.56834 0.155195 0
M  V30 6604 C 629.609 1.51315 0.50755 0
M  V30 6605 C 629.809 0.825614 1.83809 0
M  V30 6606 O 628.865 0.39271 2.49427 0
M  V30 6607 C 630.178 2.96074 0.52542 0
M  V30 6608 C 631.726 3.06968 0.611505 0
M  V30 6609 C 632.201 4.53218 0.660115 0
M  V30 6610 N 633.692 4.5753 0.722564 0
M  V30 6611 C 634.427 5.68056 0.781023 0
M  V30 6612 N 633.923 6.88173 0.799327 0
M  V30 6613 N 635.716 5.56068 0.821278 0
M  V30 6614 H 627.867 1.9993 -0.717063 0
M  V30 6615 H 630.13 0.911507 -0.260496 0
M  V30 6616 H 629.836 3.49599 -0.383875 0
M  V30 6617 H 629.71 3.51587 1.36624 0
M  V30 6618 H 632.097 2.53468 1.51122 0
M  V30 6619 H 632.178 2.54513 -0.256306 0
M  V30 6620 H 631.822 5.07354 -0.23541 0
M  V30 6621 H 631.752 5.03447 1.5443 0
M  V30 6622 H 634.243 3.71054 0.716049 0
M  V30 6623 H 634.556 7.6816 0.845553 0
M  V30 6624 H 632.901 6.90751 0.767337 0
M  V30 6625 H 636.092 4.61142 0.804091 0
M  V30 6626 H 636.265 6.42223 0.863372 0
M  V30 6627 N 629.671 -0.424282 1.51781 0
M  V30 6628 C 630.917 -1.17434 1.6534 0
M  V30 6629 C 631.25 -1.90549 0.374806 0
M  V30 6630 O 630.525 -1.84145 -0.626179 0
M  V30 6631 C 630.808 -2.18093 2.86544 0
M  V30 6632 C 630.661 -1.48975 4.24413 0
M  V30 6633 C 631.98 -3.18934 3.03264 0
M  V30 6634 H 629.099 -0.425566 0.601716 0
M  V30 6635 H 631.741 -0.461921 1.84299 0
M  V30 6636 H 629.891 -2.78849 2.7051 0
M  V30 6637 H 631.563 -0.914551 4.52143 0
M  V30 6638 H 629.806 -0.791893 4.26511 0
M  V30 6639 H 630.477 -2.22347 5.05238 0
M  V30 6640 H 632.953 -2.68243 3.18096 0
M  V30 6641 H 631.829 -3.86645 3.89611 0
M  V30 6642 H 632.09 -3.85793 2.15908 0
M  V30 6643 N 631.149 -1.42148 -0.680565 0
M  V30 6644 C 632.565 -1.24947 -0.992995 0
M  V30 6645 C 632.765 -0.149527 -2.00944 0
M  V30 6646 O 631.821 0.481145 -2.47873 0
M  V30 6647 C 633.134 -2.60426 -1.5033 0
M  V30 6648 C 634.682 -2.67733 -1.62137 0
M  V30 6649 C 635.157 -4.03564 -2.16565 0
M  V30 6650 N 636.648 -4.05488 -2.23905 0
M  V30 6651 C 637.383 -5.07401 -2.67081 0
M  V30 6652 N 636.879 -6.19698 -3.09751 0
M  V30 6653 N 638.672 -4.94758 -2.66778 0
M  V30 6654 H 630.823 -2.12399 -0.0074788 0
M  V30 6655 H 633.086 -0.94571 -0.0658529 0
M  V30 6656 H 632.792 -3.41743 -0.830947 0
M  V30 6657 H 632.666 -2.83949 -2.483 0
M  V30 6658 H 635.053 -1.86765 -2.2848 0
M  V30 6659 H 635.134 -2.48004 -0.626713 0
M  V30 6660 H 634.778 -4.84987 -1.50833 0
M  V30 6661 H 634.708 -4.20641 -3.1681 0
M  V30 6662 H 637.199 -3.24415 -1.93812 0
M  V30 6663 H 637.512 -6.93318 -3.41365 0
M  V30 6664 H 635.857 -6.23212 -3.07623 0
M  V30 6665 H 639.048 -4.06105 -2.32801 0
M  V30 6666 H 639.221 -5.74317 -3.00107 0
M  V30 6667 N 632.627 0.916307 -1.28225 0
M  V30 6668 C 633.575 2.03977 -1.11786 0
M  V30 6669 C 634.569 1.69358 -0.0378265 0
M  V30 6670 O 635.775 1.78925 -0.196405 0
M  V30 6671 H 632.15 0.66829 -0.344809 0
M  V30 6672 H 634.121 2.14985 -2.06939 0
M  V30 6673 C 632.87 3.38518 -0.7938 0
M  V30 6674 H 632.193 3.65649 -1.61682 0
M  V30 6675 H 633.633 4.17864 -0.718719 0
M  V30 6676 C 632.092 3.33134 0.502353 0
M  V30 6677 O 632.622 3.71281 1.53341 0
M  V30 6678 N 630.828 2.86229 0.502147 0
M  V30 6679 H 630.375 2.55382 -0.337338 0
M  V30 6680 H 630.333 2.83009 1.36942 0
M  V30 6681 N 634.105 1.10431 1.1244 0
M  V30 6682 C 635.035 0.775143 2.20258 0
M  V30 6683 C 636.016 -0.25186 1.68225 0
M  V30 6684 O 637.201 -0.117637 1.93843 0
M  V30 6685 C 634.331 0.206133 3.46688 0
M  V30 6686 C 633.285 1.16382 4.11873 0
M  V30 6687 C 632.611 0.456014 5.32752 0
M  V30 6688 C 633.911 2.5104 4.58013 0
M  V30 6689 H 635.605 1.67665 2.4805 0
M  V30 6690 H 633.151 0.807595 1.19222 0
M  V30 6691 H 635.104 -0.036291 4.21384 0
M  V30 6692 H 633.828 -0.730614 3.18323 0
M  V30 6693 H 632.487 1.39169 3.39157 0
M  V30 6694 H 632.135 -0.485203 5.00654 0
M  V30 6695 H 631.835 1.09466 5.77314 0
M  V30 6696 H 633.359 0.222135 6.10196 0
M  V30 6697 H 634.773 2.32401 5.24083 0
M  V30 6698 H 633.17 3.10789 5.13352 0
M  V30 6699 H 634.24 3.11039 3.71998 0
M  V30 6700 N 635.583 -1.29855 0.893053 0
M  V30 6701 C 636.533 -2.25493 0.337211 0
M  V30 6702 C 637.517 -1.51606 -0.53894 0
M  V30 6703 O 638.709 -1.72828 -0.382043 0
M  V30 6704 C 635.838 -3.40467 -0.440117 0
M  V30 6705 C 634.924 -4.217 0.450578 0
M  V30 6706 N 635.315 -4.81312 1.55476 0
M  V30 6707 C 633.613 -4.45315 0.247154 0
M  V30 6708 C 634.314 -5.42241 2.10593 0
M  V30 6709 N 633.29 -5.25267 1.39982 0
M  V30 6710 H 637.092 -2.69137 1.18079 0
M  V30 6711 H 634.606 -1.44388 0.743359 0
M  V30 6712 H 636.603 -4.08038 -0.855021 0
M  V30 6713 H 635.263 -2.98361 -1.28104 0
M  V30 6714 H 636.274 -4.80291 1.93755 0
M  V30 6715 H 632.951 -4.13782 -0.555939 0
M  V30 6716 H 634.341 -5.99517 3.03362 0
M  V30 6717 N 637.061 -0.65484 -1.43351 0
M  V30 6718 C 638.31 -0.166215 -2.01014 0
M  V30 6719 C 638.623 1.22764 -1.52278 0
M  V30 6720 O 639.829 1.81156 -2.02224 0
M  V30 6721 C 638.285 -0.246341 -3.59056 0
M  V30 6722 C 637.893 -1.64299 -4.16785 0
M  V30 6723 C 639.637 0.184597 -4.24098 0
M  V30 6724 C 637.544 -1.67695 -5.67126 0
M  V30 6725 H 636.474 -0.0583769 -0.751737 0
M  V30 6726 H 639.125 -0.817111 -1.64303 0
M  V30 6727 H 637.507 0.472092 -3.93176 0
M  V30 6728 H 638.681 -2.3869 -3.94162 0
M  V30 6729 H 636.996 -2.02004 -3.6412 0
M  V30 6730 H 639.593 0.179088 -5.344 0
M  V30 6731 H 639.936 1.21632 -3.98135 0
M  V30 6732 H 640.469 -0.482141 -3.94867 0
M  V30 6733 H 637.208 -2.68783 -5.9786 0
M  V30 6734 H 636.728 -0.976313 -5.91801 0
M  V30 6735 H 638.407 -1.42142 -6.31193 0
M  V30 6736 N 638.539 1.52521 -0.396863 0
M  V30 6737 C 639.955 1.5953 -0.0471659 0
M  V30 6738 C 640.155 1.41044 1.43906 0
M  V30 6739 O 639.211 1.23122 2.20448 0
M  V30 6740 C 640.524 2.95972 -0.531113 0
M  V30 6741 C 642.072 3.09172 -0.488024 0
M  V30 6742 C 642.547 4.48075 -0.948281 0
M  V30 6743 N 644.038 4.54281 -0.9046 0
M  V30 6744 C 644.773 5.60007 -1.23205 0
M  V30 6745 N 644.269 6.73343 -1.63036 0
M  V30 6746 N 646.062 5.50151 -1.15282 0
M  V30 6747 H 638.213 1.62786 -1.36435 0
M  V30 6748 H 640.476 0.76514 -0.559701 0
M  V30 6749 H 640.182 3.14741 -1.56942 0
M  V30 6750 H 640.056 3.77143 0.0657922 0
M  V30 6751 H 642.443 2.90095 0.541211 0
M  V30 6752 H 642.524 2.29937 -1.12083 0
M  V30 6753 H 642.168 4.67894 -1.97578 0
M  V30 6754 H 642.098 5.25788 -0.292412 0
M  V30 6755 H 644.589 3.72918 -0.6116 0
M  V30 6756 H 644.902 7.49992 -1.86365 0
M  V30 6757 H 643.247 6.74655 -1.66929 0
M  V30 6758 H 646.438 4.6049 -0.840602 0
M  V30 6759 H 646.611 6.32444 -1.41133 0
M  V30 6760 N 640.017 0.126909 1.57088 0
M  V30 6761 C 640.927 -0.833867 2.1928 0
M  V30 6762 C 641.943 -1.2868 1.17122 0
M  V30 6763 O 643.119 -1.34815 1.49622 0
M  V30 6764 C 640.184 -2.0632 2.78627 0
M  V30 6765 C 639.245 -1.66143 3.95847 0
M  V30 6766 C 638.478 -2.83217 4.52354 0
M  V30 6767 O 638.701 -3.98868 4.0775 0
M  V30 6768 O 637.635 -2.59846 5.42922 0
M  V30 6769 H 641.461 -0.334564 3.01852 0
M  V30 6770 H 639.046 -0.0991091 1.49071 0
M  V30 6771 H 640.928 -2.78304 3.16425 0
M  V30 6772 H 639.603 -2.55242 1.99082 0
M  V30 6773 H 638.51 -0.912435 3.62802 0
M  V30 6774 H 639.843 -1.21957 4.76852 0
M  V30 6775 N 641.495 -1.56914 -0.146875 0
M  V30 6776 C 642.425 -2.01308 -1.1831 0
M  V30 6777 C 643.406 -0.892664 -1.44795 0
M  V30 6778 O 644.591 -1.16048 -1.55713 0
M  V30 6779 C 641.721 -2.3938 -2.51624 0
M  V30 6780 C 640.675 -3.54608 -2.3966 0
M  V30 6781 C 640.001 -3.78493 -3.77686 0
M  V30 6782 C 641.301 -4.87269 -1.88058 0
M  V30 6783 H 642.995 -2.88123 -0.813964 0
M  V30 6784 H 640.541 -1.38615 -0.3901 0
M  V30 6785 H 642.494 -2.69037 -3.24341 0
M  V30 6786 H 641.218 -1.49502 -2.90373 0
M  V30 6787 H 639.877 -3.25116 -1.69396 0
M  V30 6788 H 639.525 -2.85866 -4.13871 0
M  V30 6789 H 639.225 -4.56039 -3.70543 0
M  V30 6790 H 640.749 -4.10576 -4.51951 0
M  V30 6791 H 642.163 -5.15644 -2.50568 0
M  V30 6792 H 640.56 -5.68622 -1.91805 0
M  V30 6793 H 641.63 -4.77634 -0.836277 0
M  V30 6794 N 642.974 0.416227 -1.52004 0
M  V30 6795 C 643.921 1.50666 -1.74838 0
M  V30 6796 C 644.891 1.55245 -0.590599 0
M  V30 6797 O 646.076 1.71928 -0.827374 0
M  V30 6798 C 643.216 2.88185 -1.89851 0
M  V30 6799 C 642.329 2.92971 -3.17478 0
M  V30 6800 C 641.464 4.21745 -3.22962 0
M  V30 6801 C 640.503 4.20478 -4.4482 0
M  V30 6802 N 639.64 5.40811 -4.47736 0
M  V30 6803 H 644.48 1.30498 -2.67907 0
M  V30 6804 H 642.017 0.633568 -1.32757 0
M  V30 6805 H 643.975 3.68007 -1.96537 0
M  V30 6806 H 642.605 3.06865 -1.00169 0
M  V30 6807 H 641.657 2.05684 -3.19997 0
M  V30 6808 H 642.969 2.87899 -4.07328 0
M  V30 6809 H 642.123 5.09954 -3.28682 0
M  V30 6810 H 640.862 4.29503 -2.31038 0
M  V30 6811 H 639.867 3.30659 -4.39254 0
M  V30 6812 H 641.092 4.14366 -5.38031 0
M  V30 6813 H 639.038 5.4925 -3.58692 0
M  V30 6814 H 638.955 5.37705 -5.31422 0
M  V30 6815 H 640.223 6.30993 -4.57676 0
M  V30 6816 N 644.452 1.42507 0.673017 0
M  V30 6817 C 645.868 1.25472 0.986355 0
M  V30 6818 C 646.068 0.160181 2.00862 0
M  V30 6819 O 645.124 -0.467993 2.48125 0
M  V30 6820 C 646.437 2.61219 1.48947 0
M  V30 6821 C 647.985 2.68589 1.60715 0
M  V30 6822 C 648.46 4.04707 2.14422 0
M  V30 6823 N 649.951 4.0667 2.21752 0
M  V30 6824 C 650.686 5.0881 2.64386 0
M  V30 6825 N 650.182 6.21332 3.0646 0
M  V30 6826 N 651.975 4.96166 2.64151 0
M  V30 6827 H 644.126 2.124 -0.00378532 0
M  V30 6828 H 646.389 0.946046 0.0608367 0
M  V30 6829 H 646.095 3.42179 0.812812 0
M  V30 6830 H 645.969 2.85261 2.46791 0
M  V30 6831 H 648.356 1.87974 2.27486 0
M  V30 6832 H 648.437 2.48333 0.613552 0
M  V30 6833 H 648.081 4.8578 1.48258 0
M  V30 6834 H 648.011 4.22315 3.14575 0
M  V30 6835 H 650.502 3.25438 1.92089 0
M  V30 6836 H 650.815 6.95118 3.37684 0
M  V30 6837 H 649.16 6.24835 3.04313 0
M  V30 6838 H 652.351 4.07334 2.30644 0
M  V30 6839 H 652.524 5.759 2.97057 0
M  V30 6840 N 645.93 -0.909495 1.28709 0
M  V30 6841 C 647.179 -1.65365 1.15487 0
M  V30 6842 C 647.492 -1.93364 -0.294941 0
M  V30 6843 O 648.698 -2.65905 -0.548338 0
M  V30 6844 C 647.154 -2.97923 2.01916 0
M  V30 6845 C 646.762 -2.77556 3.51663 0
M  V30 6846 C 648.506 -3.75814 1.97393 0
M  V30 6847 C 646.413 -4.0578 4.30229 0
M  V30 6848 H 645.343 -0.620323 0.42862 0
M  V30 6849 H 647.994 -1.00894 1.53273 0
M  V30 6850 H 646.376 -3.63552 1.5699 0
M  V30 6851 H 647.55 -2.2058 4.04575 0
M  V30 6852 H 645.865 -2.13072 3.57756 0
M  V30 6853 H 648.462 -4.70866 2.53357 0
M  V30 6854 H 648.805 -4.05277 0.951643 0
M  V30 6855 H 649.338 -3.1701 2.40311 0
M  V30 6856 H 646.077 -3.81488 5.33055 0
M  V30 6857 H 645.597 -4.62351 3.82089 0
M  V30 6858 H 647.276 -4.74004 4.40374 0
M  V30 6859 N 647.408 -1.11026 -1.11852 0
M  V30 6860 C 648.356 -0.759643 -2.19846 0
M  V30 6861 C 649.35 0.246964 -1.6759 0
M  V30 6862 O 650.556 0.106693 -1.79684 0
M  V30 6863 H 646.931 -0.22775 -0.716683 0
M  V30 6864 H 648.902 -1.6792 -2.46669 0
M  V30 6865 C 647.651 -0.214364 -3.47039 0
M  V30 6866 H 646.974 -0.980175 -3.87599 0
M  V30 6867 H 648.414 -0.00717047 -4.23999 0
M  V30 6868 C 646.873 1.05436 -3.19976 0
M  V30 6869 O 647.403 2.13483 -3.40276 0
M  V30 6870 N 645.609 0.975436 -2.7374 0
M  V30 6871 H 645.156 0.0960853 -2.57421 0
M  V30 6872 H 645.114 1.82501 -2.5601 0
M  V30 6873 N 648.886 1.2938 -0.899927 0
M  V30 6874 C 649.834 2.29675 -0.367698 0
M  V30 6875 C 650.828 1.60787 0.533282 0
M  V30 6876 O 652.034 1.75126 0.416058 0
M  V30 6877 H 648.409 0.745284 -0.100279 0
M  V30 6878 H 650.38 2.72008 -1.22696 0
M  V30 6879 C 649.129 3.45512 0.389483 0
M  V30 6880 H 648.452 3.98713 -0.294575 0
M  V30 6881 H 649.892 4.17725 0.726744 0
M  V30 6882 C 648.351 2.969 1.59223 0
M  V30 6883 O 648.881 2.98195 2.69152 0
M  V30 6884 N 647.087 2.52728 1.43447 0
M  V30 6885 H 646.634 2.51873 0.540148 0
M  V30 6886 H 646.592 2.20561 2.24054 0
M  V30 6887 N 650.364 0.662433 1.43002 0
M  V30 6888 C 651.274 -0.0239199 2.34588 0
M  V30 6889 C 652.29 -0.802255 1.54402 0
M  V30 6890 O 653.466 -0.747401 1.87018 0
M  V30 6891 C 650.531 -0.972098 3.32793 0
M  V30 6892 C 649.592 -0.189673 4.28881 0
M  V30 6893 C 648.825 -1.09269 5.22395 0
M  V30 6894 O 649.048 -2.33209 5.20547 0
M  V30 6895 O 647.982 -0.560136 5.99288 0
M  V30 6896 H 651.808 0.730171 2.94792 0
M  V30 6897 H 649.393 0.422635 1.43297 0
M  V30 6898 H 651.275 -1.51676 3.93157 0
M  V30 6899 H 649.95 -1.70626 2.75079 0
M  V30 6900 H 648.857 0.398794 3.71968 0
M  V30 6901 H 650.19 0.50511 4.89601 0
M  V30 6902 N 651.842 -1.52309 0.404946 0
M  V30 6903 C 653.119 -1.94237 -0.230544 0
M  V30 6904 C 653.499 -1.34154 -1.6299 0
M  V30 6905 O 652.847 -0.515713 -2.22604 0
M  V30 6906 C 653.057 -3.48166 -0.241106 0
M  V30 6907 C 654.405 -4.22074 -0.462488 0
M  V30 6908 O 655.429 -3.54754 -0.320644 0
M  V30 6909 O 654.288 -5.41443 -0.741708 0
M  V30 6910 H 651.382 -0.813766 -0.147358 0
M  V30 6911 H 653.928 -1.6333 0.460587 0
M  V30 6912 H 652.7 -3.84269 0.738467 0
M  V30 6913 H 652.323 -3.85422 -0.97651 0
M  V30 6914 N 653.32 -0.135238 -1.57019 0
M  V30 6915 C 654.268 0.826099 -2.17436 0
M  V30 6916 C 655.262 1.26378 -1.12805 0
M  V30 6917 O 656.468 1.23363 -1.31079 0
M  V30 6918 H 652.843 0.284568 -0.696078 0
M  V30 6919 H 654.814 0.292212 -2.96966 0
M  V30 6920 C 653.563 2.05991 -2.80112 0
M  V30 6921 H 652.886 1.73209 -3.60331 0
M  V30 6922 H 654.326 2.71225 -3.25903 0
M  V30 6923 C 652.785 2.86027 -1.78017 0
M  V30 6924 O 653.315 3.81971 -1.24344 0
M  V30 6925 N 651.521 2.50332 -1.47588 0
M  V30 6926 H 651.068 1.72377 -1.91426 0
M  V30 6927 H 651.026 3.04177 -0.795228 0
M  V30 6928 N 654.798 1.5699 0.138552 0
M  V30 6929 C 656.023 1.88344 0.86841 0
M  V30 6930 C 656.448 0.725159 1.7356 0
M  V30 6931 O 655.806 -0.324992 1.78363 0
M  V30 6932 C 655.854 3.18334 1.69398 0
M  V30 6933 O 654.958 3.02863 2.79907 0
M  V30 6934 H 654.299 0.618577 0.241367 0
M  V30 6935 H 656.829 2.04207 0.126826 0
M  V30 6936 H 656.839 3.50567 2.08726 0
M  V30 6937 H 655.514 4.02238 1.05725 0
M  V30 6938 H 654.091 2.82056 2.43924 0
M  V30 6939 N 656.276 -0.40816 1.52223 0
M  V30 6940 C 657.208 -1.51642 1.71864 0
M  V30 6941 C 658.221 -1.51378 0.599056 0
M  V30 6942 O 659.41 -1.55626 0.874239 0
M  V30 6943 C 656.51 -2.90534 1.74481 0
M  V30 6944 C 655.683 -3.14979 3.03491 0
M  V30 6945 C 654.742 -4.33749 2.97907 0
M  V30 6946 O 653.768 -4.30982 3.71811 0
M  V30 6947 N 654.97 -5.38912 2.15764 0
M  V30 6948 H 657.735 -1.35188 2.67478 0
M  V30 6949 H 655.296 -0.597468 1.50472 0
M  V30 6950 H 657.288 -3.68056 1.68275 0
M  V30 6951 H 655.858 -3.00441 0.863363 0
M  V30 6952 H 655.078 -2.25492 3.23337 0
M  V30 6953 H 656.366 -3.28156 3.88833 0
M  V30 6954 H 655.764 -5.44008 1.55152 0
M  V30 6955 H 654.321 -6.15174 2.15415 0
M  V30 6956 N 657.755 -1.42862 -0.66545 0
M  V30 6957 C 659.002 -1.4383 -1.42546 0
M  V30 6958 C 659.33 -0.0581114 -1.94413 0
M  V30 6959 O 658.585 0.935002 -1.71919 0
M  V30 6960 C 658.884 -2.4175 -2.63233 0
M  V30 6961 C 658.55 -3.87915 -2.29854 0
M  V30 6962 C 657.212 -4.27726 -2.20463 0
M  V30 6963 C 659.564 -4.80074 -2.02924 0
M  V30 6964 C 656.892 -5.57666 -1.82279 0
M  V30 6965 C 659.244 -6.10366 -1.66242 0
M  V30 6966 C 657.908 -6.49167 -1.55367 0
M  V30 6967 H 657.178 -0.52631 -0.521612 0
M  V30 6968 H 659.825 -1.75863 -0.757914 0
M  V30 6969 H 658.13 -2.03077 -3.35063 0
M  V30 6970 H 659.827 -2.39759 -3.21429 0
M  V30 6971 H 656.417 -3.564 -2.3807 0
M  V30 6972 H 660.601 -4.50097 -2.09108 0
M  V30 6973 H 655.857 -5.8658 -1.72436 0
M  V30 6974 H 660.031 -6.81258 -1.44432 0
M  V30 6975 H 657.658 -7.49761 -1.2555 0
M  V30 6976 N 659.233 0.902656 -1.29189 0
M  V30 6977 C 660.18 2.00643 -1.14066 0
M  V30 6978 C 661.15 1.66064 -0.0347756 0
M  V30 6979 O 662.335 1.8973 -0.201752 0
M  V30 6980 C 659.475 3.35214 -0.820104 0
M  V30 6981 C 658.588 3.82594 -2.00614 0
M  V30 6982 C 657.723 5.05727 -1.62522 0
M  V30 6983 C 656.762 5.45469 -2.77724 0
M  V30 6984 N 655.899 6.59789 -2.40048 0
M  V30 6985 H 660.739 2.1291 -2.08502 0
M  V30 6986 H 658.276 1.04271 -1.03759 0
M  V30 6987 H 660.234 4.12643 -0.614949 0
M  V30 6988 H 658.864 3.22682 0.0873452 0
M  V30 6989 H 657.916 3.01226 -2.32308 0
M  V30 6990 H 659.228 4.07999 -2.86946 0
M  V30 6991 H 658.382 5.90732 -1.38277 0
M  V30 6992 H 657.121 4.82155 -0.733333 0
M  V30 6993 H 656.126 4.59 -3.02653 0
M  V30 6994 H 657.351 5.71024 -3.67572 0
M  V30 6995 H 655.297 6.37826 -1.53343 0
M  V30 6996 H 655.214 6.84975 -3.19914 0
M  V30 6997 H 656.482 7.4807 -2.19116 0
M  V30 6998 N 660.711 1.11618 1.11262 0
M  V30 6999 C 661.988 0.777876 1.79467 0
M  V30 7000 C 662.368 -0.733774 1.97937 0
M  V30 7001 O 661.716 -1.66443 1.56554 0
M  V30 7002 C 661.926 1.5431 3.13032 0
M  V30 7003 C 663.274 1.72357 3.88044 0
M  V30 7004 O 664.298 1.5075 3.22727 0
M  V30 7005 O 663.157 2.08276 5.05256 0
M  V30 7006 H 660.251 0.282018 0.777428 0
M  V30 7007 H 662.797 1.21971 1.17988 0
M  V30 7008 H 661.569 2.57132 2.94956 0
M  V30 7009 H 661.192 1.09495 3.82226 0
M  V30 7010 N 662.189 -1.289 0.906776 0
M  V30 7011 C 663.139 -2.25122 0.361109 0
M  V30 7012 C 664.123 -1.52169 -0.52283 0
M  V30 7013 O 665.315 -1.73223 -0.363691 0
M  V30 7014 C 662.444 -3.40915 -0.403982 0
M  V30 7015 C 661.53 -4.21198 0.495279 0
M  V30 7016 N 661.921 -4.79636 1.60572 0
M  V30 7017 C 660.219 -4.45027 0.294372 0
M  V30 7018 C 660.92 -5.39977 2.16332 0
M  V30 7019 N 659.896 -5.23753 1.45546 0
M  V30 7020 H 663.698 -2.67869 1.20927 0
M  V30 7021 H 661.212 -1.43592 0.758632 0
M  V30 7022 H 663.209 -4.08922 -0.811695 0
M  V30 7023 H 661.869 -2.99703 -1.24932 0
M  V30 7024 H 662.88 -4.78209 1.98838 0
M  V30 7025 H 659.557 -4.14348 -0.512021 0
M  V30 7026 H 660.947 -5.96266 3.09704 0
M  V30 7027 N 663.667 -0.670007 -1.42649 0
M  V30 7028 C 665.078 -0.268118 -1.84765 0
M  V30 7029 C 665.429 1.18877 -1.56086 0
M  V30 7030 O 664.554 1.90947 -1.01825 0
M  V30 7031 C 665.149 -0.47984 -3.35385 0
M  V30 7032 C 663.708 -0.132116 -3.76168 0
M  V30 7033 C 662.855 -0.774611 -2.66261 0
M  V30 7034 H 665.806 -0.872509 -1.32563 0
M  V30 7035 H 665.827 0.269522 -3.79544 0
M  V30 7036 H 665.339 -1.54026 -3.56227 0
M  V30 7037 H 663.44 0.92505 -3.60934 0
M  V30 7038 H 663.553 -0.569294 -4.75706 0
M  V30 7039 H 661.917 -0.206353 -2.53863 0
M  V30 7040 H 662.7 -1.83839 -2.89928 0
M  V30 7041 N 665.145 1.52092 -0.413018 0
M  V30 7042 C 666.373 2.06274 0.160881 0
M  V30 7043 C 666.788 1.28273 1.38533 0
M  V30 7044 O 666.145 0.33563 1.79387 0
M  V30 7045 C 666.196 3.57921 0.507443 0
M  V30 7046 O 665.917 4.32971 -0.668388 0
M  V30 7047 C 667.418 4.28533 1.13465 0
M  V30 7048 H 664.638 0.67074 0.0186759 0
M  V30 7049 H 667.182 1.95951 -0.585092 0
M  V30 7050 H 665.337 3.68238 1.20331 0
M  V30 7051 H 665.751 5.23135 -0.378169 0
M  V30 7052 H 667.225 5.35804 1.32732 0
M  V30 7053 H 667.702 3.85258 2.10886 0
M  V30 7054 H 668.308 4.22595 0.478876 0
M  V30 7055 N 666.623 0.143563 1.56945 0
M  V30 7056 C 667.553 -0.7936 2.196 0
M  V30 7057 C 668.534 -1.25955 1.14321 0
M  V30 7058 O 669.719 -1.31773 1.42651 0
M  V30 7059 C 666.849 -2.03424 2.81489 0
M  V30 7060 C 665.803 -1.70519 3.92565 0
M  V30 7061 C 665.129 -3.01817 4.41373 0
M  V30 7062 C 666.429 -0.95449 5.13504 0
M  V30 7063 H 668.123 -0.271423 2.98167 0
M  V30 7064 H 665.669 -0.12911 1.4342 0
M  V30 7065 H 667.622 -2.69463 3.23987 0
M  V30 7066 H 666.346 -2.58008 2.00248 0
M  V30 7067 H 665.005 -1.06859 3.5068 0
M  V30 7068 H 664.653 -3.54386 3.56959 0
M  V30 7069 H 664.353 -2.80565 5.16292 0
M  V30 7070 H 665.877 -3.68934 4.86539 0
M  V30 7071 H 667.291 -1.5169 5.52868 0
M  V30 7072 H 665.688 -0.842035 5.94163 0
M  V30 7073 H 666.758 0.0544033 4.84869 0
M  V30 7074 N 668.101 -1.57061 -0.130224 0
M  V30 7075 C 669.049 -2.00486 -1.17933 0
M  V30 7076 C 670.043 -0.899933 -1.43519 0
M  V30 7077 O 671.249 -1.08514 -1.43613 0
M  V30 7078 H 667.624 -0.638441 -0.397363 0
M  V30 7079 H 669.595 -2.87848 -0.786501 0
M  V30 7080 C 668.344 -2.41565 -2.50084 0
M  V30 7081 H 667.667 -3.26148 -2.31231 0
M  V30 7082 H 669.107 -2.75757 -3.22078 0
M  V30 7083 C 667.566 -1.27485 -3.11848 0
M  V30 7084 O 668.096 -0.584688 -3.97422 0
M  V30 7085 N 666.302 -1.03478 -2.71552 0
M  V30 7086 H 665.849 -1.59779 -2.02061 0
M  V30 7087 H 665.807 -0.27341 -3.13209 0
M  V30 7088 N 669.579 0.400081 -1.52437 0
M  V30 7089 C 670.489 1.51253 -1.79331 0
M  V30 7090 C 671.505 1.60188 -0.679396 0
M  V30 7091 O 672.681 1.76733 -0.965791 0
M  V30 7092 C 669.746 2.869 -1.94652 0
M  V30 7093 C 668.807 2.87777 -3.18564 0
M  V30 7094 C 668.04 4.16954 -3.33145 0
M  V30 7095 O 668.263 5.11329 -2.52783 0
M  V30 7096 O 667.197 4.2487 -4.26343 0
M  V30 7097 H 671.023 1.31461 -2.73773 0
M  V30 7098 H 668.608 0.586834 -1.37392 0
M  V30 7099 H 670.49 3.67336 -2.065 0
M  V30 7100 H 669.165 3.06741 -1.034 0
M  V30 7101 H 668.072 2.06162 -3.12167 0
M  V30 7102 H 669.405 2.72886 -4.09627 0
M  V30 7103 N 671.057 1.43213 0.657864 0
M  V30 7104 C 672.473 1.26511 0.972992 0
M  V30 7105 C 672.673 0.181477 2.00681 0
M  V30 7106 O 671.729 -0.441649 2.48608 0
M  V30 7107 C 673.042 2.62784 1.46168 0
M  V30 7108 C 674.59 2.70278 1.57857 0
M  V30 7109 C 675.065 4.06958 2.10117 0
M  V30 7110 N 676.556 4.08999 2.17426 0
M  V30 7111 C 677.291 5.11585 2.58975 0
M  V30 7112 N 676.787 6.24548 2.99853 0
M  V30 7113 N 678.58 4.9894 2.58873 0
M  V30 7114 H 670.731 2.12384 -0.0263129 0
M  V30 7115 H 672.994 0.946638 0.0507992 0
M  V30 7116 H 672.7 3.43022 0.776474 0
M  V30 7117 H 672.574 2.87863 2.43751 0
M  V30 7118 H 674.961 1.90376 2.25479 0
M  V30 7119 H 675.042 2.4897 0.587179 0
M  V30 7120 H 674.686 4.87325 1.43098 0
M  V30 7121 H 674.616 4.25628 3.10078 0
M  V30 7122 H 677.107 3.27457 1.88627 0
M  V30 7123 H 677.42 6.98661 3.30292 0
M  V30 7124 H 675.765 6.28027 2.97669 0
M  V30 7125 H 678.956 4.09757 2.26311 0
M  V30 7126 H 679.129 5.79019 2.90932 0
M  V30 7127 N 672.536 -0.895792 1.29666 0
M  V30 7128 C 673.766 -1.67757 1.20586 0
M  V30 7129 C 674.174 -1.87729 -0.235432 0
M  V30 7130 O 673.517 -1.41706 -1.16898 0
M  V30 7131 C 673.579 -3.08117 1.85215 0
M  V30 7132 C 673.243 -3.1136 3.3452 0
M  V30 7133 C 674.24 -2.91217 4.30684 0
M  V30 7134 C 671.925 -3.33302 3.75786 0
M  V30 7135 C 673.919 -2.92955 5.66089 0
M  V30 7136 C 671.606 -3.3467 5.11311 0
M  V30 7137 C 672.604 -3.14519 6.06273 0
M  V30 7138 O 672.292 -3.15684 7.39323 0
M  V30 7139 H 672.024 -0.530601 0.418854 0
M  V30 7140 H 674.578 -1.12831 1.71634 0
M  V30 7141 H 672.808 -3.64661 1.28683 0
M  V30 7142 H 674.497 -3.68399 1.70403 0
M  V30 7143 H 675.263 -2.74074 4.00136 0
M  V30 7144 H 671.142 -3.48025 3.02324 0
M  V30 7145 H 674.686 -2.77145 6.40185 0
M  V30 7146 H 670.583 -3.51346 5.41504 0
M  V30 7147 H 671.351 -3.31924 7.48177 0
M  V30 7148 N 674.014 -1.12206 -1.10668 0
M  V30 7149 C 674.944 -0.810086 -2.18997 0
M  V30 7150 C 675.925 0.225065 -1.68604 0
M  V30 7151 O 677.11 0.086783 -1.94006 0
M  V30 7152 C 674.24 -0.261262 -3.46316 0
M  V30 7153 C 673.194 -1.2292 -4.09969 0
M  V30 7154 C 672.52 -0.540713 -5.31959 0
M  V30 7155 C 673.82 -2.58295 -4.53962 0
M  V30 7156 H 675.514 -1.7159 -2.45352 0
M  V30 7157 H 673.06 -0.82646 -1.17922 0
M  V30 7158 H 675.013 -0.0307522 -4.21389 0
M  V30 7159 H 673.737 0.679879 -3.19445 0
M  V30 7160 H 672.396 -1.44548 -3.369 0
M  V30 7161 H 672.044 0.405492 -5.01363 0
M  V30 7162 H 671.744 -1.18637 -5.75499 0
M  V30 7163 H 673.268 -0.319184 -6.09765 0
M  V30 7164 H 674.682 -2.40709 -5.20319 0
M  V30 7165 H 673.079 -3.18916 -5.08343 0
M  V30 7166 H 674.149 -3.16918 -3.67002 0
M  V30 7167 N 675.492 1.28418 -0.913599 0
M  V30 7168 C 676.422 2.29713 -0.418847 0
M  V30 7169 C 677.403 1.62165 0.513469 0
M  V30 7170 O 678.588 1.89576 0.421235 0
M  V30 7171 C 675.718 3.45612 0.342042 0
M  V30 7172 C 674.672 4.25056 -0.501123 0
M  V30 7173 C 673.998 5.3329 0.388097 0
M  V30 7174 C 675.298 4.91814 -1.75831 0
M  V30 7175 H 676.992 2.71346 -1.26538 0
M  V30 7176 H 674.538 1.30446 -0.609903 0
M  V30 7177 H 676.491 4.15562 0.699 0
M  V30 7178 H 675.215 3.02858 1.22248 0
M  V30 7179 H 673.874 3.56833 -0.840598 0
M  V30 7180 H 673.522 4.8678 1.26707 0
M  V30 7181 H 673.222 5.87347 -0.172459 0
M  V30 7182 H 674.746 6.06088 0.74094 0
M  V30 7183 H 676.16 5.54126 -1.47026 0
M  V30 7184 H 674.557 5.55866 -2.26126 0
M  V30 7185 H 675.627 4.16313 -2.4862 0
M  V30 7186 N 676.97 0.677563 1.42291 0
M  V30 7187 C 677.9 0.014968 2.33495 0
M  V30 7188 C 678.881 -0.786376 1.50831 0
M  V30 7189 O 680.066 -0.742975 1.79426 0
M  V30 7190 C 677.196 -0.935023 3.34477 0
M  V30 7191 C 676.15 -0.242074 4.27315 0
M  V30 7192 C 675.476 -1.30519 5.18526 0
M  V30 7193 C 676.776 0.880604 5.14823 0
M  V30 7194 H 678.47 0.776671 2.89151 0
M  V30 7195 H 676.016 0.37494 1.39033 0
M  V30 7196 H 677.969 -1.40766 3.97194 0
M  V30 7197 H 676.693 -1.72818 2.77131 0
M  V30 7198 H 675.352 0.210351 3.65996 0
M  V30 7199 H 675 -2.09041 4.57505 0
M  V30 7200 H 674.7 -0.846652 5.81468 0
M  V30 7201 H 676.224 -1.7787 5.84119 0
M  V30 7202 H 677.638 0.489062 5.7121 0
M  V30 7203 H 676.035 1.26511 5.86613 0
M  V30 7204 H 677.105 1.72818 4.53059 0
M  V30 7205 N 678.448 -1.51871 0.421078 0
M  V30 7206 C 679.398 -2.24171 -0.416111 0
M  V30 7207 C 680.382 -1.25763 -1.00362 0
M  V30 7208 O 681.574 -1.5094 -0.924452 0
M  V30 7209 C 678.703 -3.07533 -1.52571 0
M  V30 7210 C 677.789 -4.1336 -0.948399 0
M  V30 7211 N 678.18 -5.05704 -0.0987933 0
M  V30 7212 C 676.478 -4.29055 -1.21768 0
M  V30 7213 C 677.179 -5.8127 0.223705 0
M  V30 7214 N 676.155 -5.4221 -0.388524 0
M  V30 7215 H 679.957 -2.92925 0.239166 0
M  V30 7216 H 677.471 -1.60732 0.232191 0
M  V30 7217 H 679.468 -3.57893 -2.13819 0
M  V30 7218 H 678.128 -2.4032 -2.18349 0
M  V30 7219 H 679.139 -5.17214 0.266428 0
M  V30 7220 H 675.816 -3.73071 -1.87416 0
M  V30 7221 H 677.206 -6.65653 0.914076 0
M  V30 7222 N 679.926 -0.151884 -1.56866 0
M  V30 7223 C 680.856 0.781943 -2.20018 0
M  V30 7224 C 681.837 1.25347 -1.14987 0
M  V30 7225 O 683.022 1.31015 -1.43348 0
M  V30 7226 C 680.152 2.01928 -2.82564 0
M  V30 7227 C 679.106 1.68434 -3.93464 0
M  V30 7228 C 678.432 2.99472 -4.42968 0
M  V30 7229 C 679.732 0.927244 -5.14003 0
M  V30 7230 H 681.426 0.255607 -2.98307 0
M  V30 7231 H 678.972 0.121502 -1.43486 0
M  V30 7232 H 680.925 2.67741 -3.25411 0
M  V30 7233 H 679.649 2.56943 -2.01614 0
M  V30 7234 H 678.308 1.04998 -3.51242 0
M  V30 7235 H 677.956 3.52488 -3.58834 0
M  V30 7236 H 677.656 2.77823 -5.17772 0
M  V30 7237 H 679.18 3.66348 -4.88489 0
M  V30 7238 H 680.594 1.48756 -5.53665 0
M  V30 7239 H 678.991 0.810513 -5.94601 0
M  V30 7240 H 680.061 -0.0801163 -4.84834 0
M  V30 7241 N 681.404 1.57128 0.121893 0
M  V30 7242 C 682.334 2.03165 1.15092 0
M  V30 7243 C 683.315 0.915587 1.43356 0
M  V30 7244 O 684.5 1.1851 1.53847 0
M  V30 7245 C 681.63 2.43352 2.47784 0
M  V30 7246 C 680.584 3.58376 2.33989 0
M  V30 7247 C 679.91 3.84454 3.71617 0
M  V30 7248 C 681.21 4.90199 1.80283 0
M  V30 7249 H 682.904 2.89382 0.768023 0
M  V30 7250 H 680.45 1.39218 0.367998 0
M  V30 7251 H 682.403 2.74163 3.20019 0
M  V30 7252 H 681.127 1.54103 2.87958 0
M  V30 7253 H 679.786 3.2777 1.64202 0
M  V30 7254 H 679.434 2.92414 4.09271 0
M  V30 7255 H 679.134 4.61877 3.6324 0
M  V30 7256 H 680.658 4.17714 4.45362 0
M  V30 7257 H 682.072 5.19565 2.42333 0
M  V30 7258 H 680.469 5.71601 1.82735 0
M  V30 7259 H 681.539 4.78904 0.760184 0
M  V30 7260 N 682.882 -0.391992 1.52647 0
M  V30 7261 C 684.13 -1.13507 1.67214 0
M  V30 7262 C 684.451 -1.90575 0.41304 0
M  V30 7263 O 683.721 -1.87348 -0.572498 0
M  V30 7264 H 682.301 -0.422013 0.616372 0
M  V30 7265 H 684.963 -0.44502 1.89751 0
M  V30 7266 H 684.059 -1.83964 2.52118 0
M  V30 7267 N 684.36 -1.4356 -0.65026 0
M  V30 7268 C 685.776 -1.27025 -0.966269 0
M  V30 7269 C 685.976 -0.192117 -2.00582 0
M  V30 7270 O 685.032 0.428459 -2.48838 0
M  V30 7271 C 686.345 -2.63556 -1.44772 0
M  V30 7272 C 687.893 -2.71111 -1.56421 0
M  V30 7273 C 688.368 -4.08067 -2.07956 0
M  V30 7274 N 689.859 -4.10146 -2.15254 0
M  V30 7275 C 690.594 -5.12952 -2.56258 0
M  V30 7276 N 690.09 -6.26129 -2.96537 0
M  V30 7277 N 691.883 -5.00306 -2.56224 0
M  V30 7278 H 684.034 -2.12367 0.0375758 0
M  V30 7279 H 686.297 -0.946894 -0.0457782 0
M  V30 7280 H 686.003 -3.43429 -0.758271 0
M  V30 7281 H 685.877 -2.89152 -2.42221 0
M  V30 7282 H 688.264 -1.91569 -2.24467 0
M  V30 7283 H 688.345 -2.49277 -0.573967 0
M  V30 7284 H 687.989 -4.88077 -1.40511 0
M  V30 7285 H 687.919 -4.27266 -3.07817 0
M  V30 7286 H 690.41 -3.28453 -1.86887 0
M  V30 7287 H 690.723 -7.00403 -3.26582 0
M  V30 7288 H 689.068 -6.29597 -2.94334 0
M  V30 7289 H 692.259 -4.10952 -2.24135 0
M  V30 7290 H 692.432 -5.80553 -2.87857 0
M  V30 7291 N 685.838 0.888903 -1.30139 0
M  V30 7292 C 687.086 1.63713 -1.18501 0
M  V30 7293 C 687.407 1.9324 0.261399 0
M  V30 7294 O 686.677 1.56608 1.17689 0
M  V30 7295 H 685.257 0.606861 -0.435579 0
M  V30 7296 H 687.919 1.06525 -1.63213 0
M  V30 7297 H 687.015 2.58894 -1.743 0
M  V30 7298 N 687.317 1.12792 1.10072 0
M  V30 7299 C 688.565 0.883796 1.81751 0
M  V30 7300 C 688.886 -0.591891 1.858 0
M  V30 7301 O 688.156 -1.43017 1.33876 0
M  V30 7302 H 686.736 0.323978 0.673088 0
M  V30 7303 H 689.398 1.42314 1.33164 0
M  V30 7304 H 688.494 1.26863 2.85153 0
M  V30 7305 N 688.795 -1.27931 0.920396 0
M  V30 7306 C 690.042 -1.94689 0.557007 0
M  V30 7307 C 690.37 -1.724 -0.900476 0
M  V30 7308 O 689.625 -1.04194 -1.65657 0
M  V30 7309 C 689.924 -3.47853 0.820558 0
M  V30 7310 C 689.59 -3.90252 2.25863 0
M  V30 7311 C 688.252 -4.01539 2.65179 0
M  V30 7312 C 690.604 -4.11853 3.19415 0
M  V30 7313 C 687.932 -4.3181 3.97187 0
M  V30 7314 C 690.284 -4.43606 4.50995 0
M  V30 7315 C 688.948 -4.53105 4.90155 0
M  V30 7316 H 688.218 -0.712416 0.203823 0
M  V30 7317 H 690.865 -1.52142 1.16298 0
M  V30 7318 H 689.17 -3.91578 0.131844 0
M  V30 7319 H 690.867 -3.97634 0.51847 0
M  V30 7320 H 687.457 -3.81999 1.94358 0
M  V30 7321 H 691.641 -4.0258 2.90246 0
M  V30 7322 H 686.897 -4.37371 4.2722 0
M  V30 7323 H 691.071 -4.59268 5.23494 0
M  V30 7324 H 688.698 -4.76315 5.92476 0
M  V30 7325 N 690.273 -0.685099 -1.4193 0
M  V30 7326 C 691.498 -0.218842 -2.06242 0
M  V30 7327 C 691.923 1.11923 -1.51178 0
M  V30 7328 O 691.281 1.69837 -0.634446 0
M  V30 7329 C 691.329 -0.175592 -3.60172 0
M  V30 7330 O 690.433 0.852776 -4.03487 0
M  V30 7331 H 689.774 -0.109531 -0.654904 0
M  V30 7332 H 692.304 -0.937013 -1.81882 0
M  V30 7333 H 692.314 -0.00291151 -4.08 0
M  V30 7334 H 690.989 -1.15222 -3.99621 0
M  V30 7335 H 689.566 0.650301 -3.67186 0
M  V30 7336 N 691.751 1.51645 -0.429126 0
M  V30 7337 C 692.661 2.31288 0.392809 0
M  V30 7338 C 693.677 1.39852 1.03525 0
M  V30 7339 O 694.853 1.72926 1.03241 0
M  V30 7340 C 691.918 3.13347 1.48372 0
M  V30 7341 C 690.979 4.20551 0.862268 0
M  V30 7342 C 690.212 4.98688 1.9012 0
M  V30 7343 O 690.435 4.77359 3.12225 0
M  V30 7344 O 689.369 5.83005 1.4963 0
M  V30 7345 H 693.195 3.02609 -0.257138 0
M  V30 7346 H 690.78 1.48163 -0.191851 0
M  V30 7347 H 692.662 3.64387 2.1166 0
M  V30 7348 H 691.337 2.44799 2.1179 0
M  V30 7349 H 690.244 3.73609 0.191568 0
M  V30 7350 H 691.577 4.91449 0.271704 0
M  V30 7351 N 693.229 0.160201 1.56784 0
M  V30 7352 C 694.475 -0.48831 1.96833 0
M  V30 7353 C 694.808 -1.63641 1.04571 0
M  V30 7354 O 694.083 -1.94289 0.0906481 0
M  V30 7355 C 694.366 -0.981908 3.46454 0
M  V30 7356 C 694.219 0.165607 4.49495 0
M  V30 7357 C 695.538 -1.85931 3.98896 0
M  V30 7358 H 692.657 -0.176027 0.71567 0
M  V30 7359 H 695.299 0.244093 1.88426 0
M  V30 7360 H 693.449 -1.60602 3.5375 0
M  V30 7361 H 695.121 0.802372 4.54268 0
M  V30 7362 H 693.364 0.822789 4.25926 0
M  V30 7363 H 694.035 -0.221699 5.51555 0
M  V30 7364 H 696.511 -1.33327 3.94161 0
M  V30 7365 H 695.387 -2.17373 5.04024 0
M  V30 7366 H 695.648 -2.80106 3.42042 0
M  V30 7367 N 694.707 -1.5719 -0.113559 0
M  V30 7368 C 695.937 -1.89053 -0.833212 0
M  V30 7369 C 696.345 -0.750139 -1.73694 0
M  V30 7370 O 695.688 0.287808 -1.81431 0
M  V30 7371 C 695.75 -3.15986 -1.71443 0
M  V30 7372 C 695.414 -4.46271 -0.984449 0
M  V30 7373 C 696.411 -5.18897 -0.322741 0
M  V30 7374 C 694.096 -4.92963 -0.964011 0
M  V30 7375 C 696.09 -6.3644 0.349646 0
M  V30 7376 C 693.777 -6.10422 -0.287828 0
M  V30 7377 C 694.775 -6.82009 0.36784 0
M  V30 7378 O 694.463 -7.97233 1.03322 0
M  V30 7379 H 694.195 -0.630225 -0.244526 0
M  V30 7380 H 696.749 -2.05152 -0.100847 0
M  V30 7381 H 694.979 -2.95984 -2.48858 0
M  V30 7382 H 696.668 -3.33826 -2.309 0
M  V30 7383 H 697.434 -4.83875 -0.330114 0
M  V30 7384 H 693.313 -4.37143 -1.46379 0
M  V30 7385 H 696.857 -6.92254 0.861996 0
M  V30 7386 H 692.754 -6.449 -0.278237 0
M  V30 7387 H 693.522 -8.13105 0.938247 0
M  V30 7388 N 696.185 0.383891 -1.52853 0
M  V30 7389 C 697.132 1.46924 -1.77995 0
M  V30 7390 C 698.102 1.53958 -0.623396 0
M  V30 7391 O 699.287 1.70134 -0.863657 0
M  V30 7392 C 696.427 2.84093 -1.95921 0
M  V30 7393 C 695.54 2.86171 -3.23621 0
M  V30 7394 C 694.675 4.14799 -3.31836 0
M  V30 7395 C 693.714 4.10948 -4.53639 0
M  V30 7396 N 692.851 5.31192 -4.59107 0
M  V30 7397 H 697.691 1.24786 -2.70615 0
M  V30 7398 H 695.228 0.605265 -1.34071 0
M  V30 7399 H 697.186 3.63755 -2.04299 0
M  V30 7400 H 695.816 3.04671 -1.06656 0
M  V30 7401 H 694.868 1.9885 -3.24288 0
M  V30 7402 H 696.18 2.79194 -4.13343 0
M  V30 7403 H 695.334 5.02867 -3.39425 0
M  V30 7404 H 694.073 4.24505 -2.40097 0
M  V30 7405 H 693.078 3.21268 -4.46169 0
M  V30 7406 H 694.303 4.0286 -5.467 0
M  V30 7407 H 692.249 5.41518 -3.70262 0
M  V30 7408 H 692.166 5.26311 -5.42708 0
M  V30 7409 H 693.434 6.21143 -4.70958 0
M  V30 7410 N 697.663 1.43903 0.642637 0
M  V30 7411 C 698.626 1.49538 1.73698 0
M  V30 7412 C 699.626 0.378776 1.56275 0
M  V30 7413 O 700.816 0.64095 1.6198 0
M  V30 7414 C 697.948 1.35821 3.12675 0
M  V30 7415 H 699.141 2.47008 1.70079 0
M  V30 7416 H 696.694 1.30824 0.85526 0
M  V30 7417 H 697.429 0.393994 3.21898 0
M  V30 7418 H 697.214 2.16776 3.26727 0
M  V30 7419 H 698.704 1.4272 3.92455 0
M  V30 7420 N 699.141 -0.881989 1.30609 0
M  V30 7421 C 700.388 -1.63405 1.19604 0
M  V30 7422 C 700.716 -1.92905 -0.248574 0
M  V30 7423 O 699.971 -1.55062 -1.19391 0
M  V30 7424 C 700.27 -2.97999 1.97311 0
M  V30 7425 C 699.936 -2.88039 3.46907 0
M  V30 7426 C 698.598 -2.85029 3.877 0
M  V30 7427 C 700.95 -2.75948 4.42156 0
M  V30 7428 C 698.278 -2.67772 5.2203 0
M  V30 7429 C 700.63 -2.60228 5.76597 0
M  V30 7430 C 699.294 -2.55595 6.16626 0
M  V30 7431 H 698.564 -0.597941 0.437662 0
M  V30 7432 H 701.211 -1.02524 1.61744 0
M  V30 7433 H 699.516 -3.62847 1.47815 0
M  V30 7434 H 701.213 -3.55156 1.86186 0
M  V30 7435 H 697.803 -2.91192 3.14492 0
M  V30 7436 H 701.987 -2.77337 4.1158 0
M  V30 7437 H 697.243 -2.62601 5.52133 0
M  V30 7438 H 701.417 -2.49847 6.50038 0
M  V30 7439 H 699.044 -2.41981 7.20659 0
M  V30 7440 N 700.619 -1.13374 -1.09472 0
M  V30 7441 C 701.896 -0.806329 -1.78207 0
M  V30 7442 C 702.276 0.702191 -1.99079 0
M  V30 7443 O 701.624 1.63931 -1.59182 0
M  V30 7444 C 701.834 -1.59271 -3.10538 0
M  V30 7445 C 703.182 -1.78509 -3.85253 0
M  V30 7446 O 704.206 -1.55866 -3.20288 0
M  V30 7447 O 703.065 -2.16287 -5.01879 0
M  V30 7448 H 700.159 -0.29435 -0.772843 0
M  V30 7449 H 702.705 -1.23833 -1.16033 0
M  V30 7450 H 701.477 -2.61792 -2.90828 0
M  V30 7451 H 701.1 -1.15562 -3.80436 0
M  V30 7452 N 702.098 1.27442 -0.927168 0
M  V30 7453 C 703.028 2.29256 -0.443188 0
M  V30 7454 C 704.009 1.62701 0.49624 0
M  V30 7455 O 705.194 1.90013 0.401105 0
M  V30 7456 C 702.324 3.45955 0.305366 0
M  V30 7457 C 701.278 4.24501 -0.546178 0
M  V30 7458 C 700.604 5.33671 0.331512 0
M  V30 7459 C 701.904 4.89921 -1.81037 0
M  V30 7460 H 703.598 2.69988 -1.29409 0
M  V30 7461 H 701.144 1.29792 -0.623705 0
M  V30 7462 H 703.097 4.1628 0.654885 0
M  V30 7463 H 701.821 3.04138 1.19029 0
M  V30 7464 H 700.48 3.55921 -0.878398 0
M  V30 7465 H 700.128 4.88096 1.21537 0
M  V30 7466 H 699.828 5.87131 -0.234746 0
M  V30 7467 H 701.352 6.0684 0.676614 0
M  V30 7468 H 702.766 5.52536 -1.52895 0
M  V30 7469 H 701.163 5.53436 -2.32009 0
M  V30 7470 H 702.233 4.13652 -2.53021 0
M  V30 7471 N 703.576 0.692616 1.41565 0
M  V30 7472 C 704.806 0.230943 2.05305 0
M  V30 7473 C 705.214 -1.12379 1.52209 0
M  V30 7474 O 704.557 -1.71281 0.663968 0
M  V30 7475 C 704.619 0.107894 3.59338 0
M  V30 7476 C 704.283 1.39419 4.35214 0
M  V30 7477 C 705.28 2.33143 4.64694 0
M  V30 7478 C 702.965 1.64674 4.74539 0
M  V30 7479 C 704.959 3.50385 5.32456 0
M  V30 7480 C 702.646 2.82202 5.42038 0
M  V30 7481 C 703.644 3.74881 5.70923 0
M  V30 7482 O 703.332 4.90351 6.37033 0
M  V30 7483 H 703.064 0.105708 0.667684 0
M  V30 7484 H 705.618 0.94488 1.82376 0
M  V30 7485 H 703.848 -0.661785 3.80995 0
M  V30 7486 H 705.537 -0.316213 4.04666 0
M  V30 7487 H 706.303 2.14887 4.34797 0
M  V30 7488 H 702.182 0.934007 4.51439 0
M  V30 7489 H 705.726 4.22743 5.54918 0
M  V30 7490 H 701.623 3.00376 5.71353 0
M  V30 7491 H 702.391 4.90128 6.55528 0
M  V30 7492 N 705.054 -1.51416 0.437162 0
M  V30 7493 C 705.964 -2.31493 -0.380537 0
M  V30 7494 C 706.98 -1.40399 -1.02782 0
M  V30 7495 O 708.156 -1.73471 -1.02323 0
M  V30 7496 C 705.221 -3.1413 -1.46709 0
M  V30 7497 C 704.282 -4.21003 -0.839953 0
M  V30 7498 C 703.515 -4.9969 -1.87473 0
M  V30 7499 O 703.738 -4.79008 -3.09689 0
M  V30 7500 O 702.672 -5.8379 -1.46536 0
M  V30 7501 H 706.498 -3.02469 0.273183 0
M  V30 7502 H 704.083 -1.48059 0.199706 0
M  V30 7503 H 705.965 -3.65505 -2.09724 0
M  V30 7504 H 704.64 -2.45919 -2.10489 0
M  V30 7505 H 703.547 -3.73706 -0.171752 0
M  V30 7506 H 704.88 -4.91587 -0.245638 0
M  V30 7507 N 706.532 -0.168513 -1.56696 0
M  V30 7508 C 707.464 0.794249 -2.14998 0
M  V30 7509 C 708.477 1.1957 -1.10485 0
M  V30 7510 O 709.666 1.13604 -1.37682 0
M  V30 7511 C 706.766 2.08018 -2.67547 0
M  V30 7512 C 705.939 1.84274 -3.96689 0
M  V30 7513 C 704.998 2.97059 -4.3433 0
M  V30 7514 O 704.024 2.67815 -5.02259 0
M  V30 7515 N 705.226 4.24775 -3.9566 0
M  V30 7516 H 707.991 0.295832 -2.98236 0
M  V30 7517 H 705.552 0.0143611 -1.61894 0
M  V30 7518 H 707.544 2.82559 -2.89729 0
M  V30 7519 H 706.114 2.49059 -1.88914 0
M  V30 7520 H 705.334 0.936528 -3.82914 0
M  V30 7521 H 706.622 1.65773 -4.81037 0
M  V30 7522 H 706.02 4.51395 -3.40968 0
M  V30 7523 H 704.577 4.96027 -4.22848 0
M  V30 7524 N 708.01 1.57248 0.105221 0
M  V30 7525 C 709.426 1.52853 0.459153 0
M  V30 7526 C 709.626 0.883674 1.8109 0
M  V30 7527 O 708.682 0.471864 2.48052 0
M  V30 7528 C 709.995 2.97596 0.43096 0
M  V30 7529 C 711.543 3.08758 0.513536 0
M  V30 7530 C 712.018 4.55089 0.515593 0
M  V30 7531 N 713.509 4.59597 0.576639 0
M  V30 7532 C 714.244 5.70253 0.599904 0
M  V30 7533 N 713.74 6.90368 0.579985 0
M  V30 7534 N 715.533 5.58399 0.643953 0
M  V30 7535 H 707.684 1.97547 -0.780306 0
M  V30 7536 H 709.947 0.902758 -0.289363 0
M  V30 7537 H 709.653 3.48201 -0.494903 0
M  V30 7538 H 709.527 3.55756 1.2537 0
M  V30 7539 H 711.914 2.58148 1.42982 0
M  V30 7540 H 711.995 2.53568 -0.337148 0
M  V30 7541 H 711.639 5.06348 -0.396701 0
M  V30 7542 H 711.569 5.08105 1.38335 0
M  V30 7543 H 714.06 3.73144 0.597639 0
M  V30 7544 H 714.373 7.70462 0.600741 0
M  V30 7545 H 712.718 6.92843 0.547191 0
M  V30 7546 H 715.909 4.63467 0.656975 0
M  V30 7547 H 716.082 6.44644 0.658616 0
M  V30 7548 N 709.488 -0.375779 1.53054 0
M  V30 7549 C 710.718 -1.1387 1.72386 0
M  V30 7550 C 711.126 -1.8382 0.447966 0
M  V30 7551 O 710.469 -1.74027 -0.588244 0
M  V30 7552 C 710.531 -2.22047 2.82728 0
M  V30 7553 C 710.195 -1.71951 4.23417 0
M  V30 7554 C 711.192 -1.18909 5.06119 0
M  V30 7555 C 708.877 -1.77773 4.69789 0
M  V30 7556 C 710.871 -0.723529 6.3328 0
M  V30 7557 C 708.558 -1.30829 5.96931 0
M  V30 7558 C 709.556 -0.782077 6.78508 0
M  V30 7559 O 709.244 -0.319529 8.03265 0
M  V30 7560 H 708.976 -0.346835 0.580242 0
M  V30 7561 H 711.53 -0.443748 2.00549 0
M  V30 7562 H 709.76 -2.95006 2.50017 0
M  V30 7563 H 711.449 -2.83654 2.90336 0
M  V30 7564 H 712.215 -1.13758 4.7147 0
M  V30 7565 H 708.094 -2.17673 4.06373 0
M  V30 7566 H 711.638 -0.312126 6.96901 0
M  V30 7567 H 707.535 -1.3567 6.31081 0
M  V30 7568 H 708.303 -0.439796 8.17318 0
M  V30 7569 N 710.966 -1.44241 -0.634997 0
M  V30 7570 C 711.929 -1.50457 -1.72903 0
M  V30 7571 C 712.929 -0.387058 -1.56072 0
M  V30 7572 O 714.119 -0.649531 -1.61638 0
M  V30 7573 C 711.251 -1.37477 -3.1195 0
M  V30 7574 H 712.444 -2.47907 -1.68767 0
M  V30 7575 H 709.997 -1.31276 -0.84831 0
M  V30 7576 H 710.732 -0.41106 -3.21684 0
M  V30 7577 H 710.517 -2.18506 -3.25573 0
M  V30 7578 H 712.007 -1.44799 -3.91692 0
M  V30 7579 N 712.444 0.87505 -1.31075 0
M  V30 7580 C 713.407 1.96333 -1.18263 0
M  V30 7581 C 714.407 1.60416 -0.111106 0
M  V30 7582 O 715.597 1.7044 -0.359987 0
M  V30 7583 C 712.729 3.31036 -0.81414 0
M  V30 7584 H 713.922 2.09125 -2.14958 0
M  V30 7585 H 711.475 1.06271 -1.14614 0
M  V30 7586 H 712.21 3.23944 0.151875 0
M  V30 7587 H 711.995 3.58476 -1.58862 0
M  V30 7588 H 713.485 4.10842 -0.748249 0
M  V30 7589 N 713.922 1.13953 1.08869 0
M  V30 7590 C 715.168 0.906151 1.8143 0
M  V30 7591 C 715.501 -0.566089 1.85766 0
M  V30 7592 O 714.776 -1.41915 1.33006 0
M  V30 7593 C 715.059 1.50183 3.27287 0
M  V30 7594 C 714.912 3.04359 3.31189 0
M  V30 7595 C 716.231 1.17477 4.24131 0
M  V30 7596 H 713.35 0.330624 0.658678 0
M  V30 7597 H 715.992 1.40873 1.27495 0
M  V30 7598 H 714.142 1.07442 3.73348 0
M  V30 7599 H 715.814 3.55896 2.93488 0
M  V30 7600 H 714.057 3.39053 2.70602 0
M  V30 7601 H 714.728 3.41141 4.33966 0
M  V30 7602 H 717.204 1.5442 3.86385 0
M  V30 7603 H 716.08 1.61795 5.24513 0
M  V30 7604 H 716.341 0.0893312 4.4201 0
M  V30 7605 N 715.4 -1.26948 0.933913 0
M  V30 7606 C 716.347 -2.26635 0.436484 0
M  V30 7607 C 717.317 -1.58397 -0.499953 0
M  V30 7608 O 718.502 -1.86171 -0.417753 0
M  V30 7609 C 715.642 -3.43803 -0.298951 0
M  V30 7610 C 714.755 -4.26736 0.672316 0
M  V30 7611 C 713.89 -5.31134 -0.0835872 0
M  V30 7612 C 712.929 -6.05742 0.879979 0
M  V30 7613 N 712.066 -7.01926 0.156301 0
M  V30 7614 H 716.906 -2.68558 1.29154 0
M  V30 7615 H 714.443 -1.32052 0.648118 0
M  V30 7616 H 716.401 -4.10554 -0.741723 0
M  V30 7617 H 715.031 -3.02814 -1.1182 0
M  V30 7618 H 714.083 -3.59842 1.23361 0
M  V30 7619 H 715.395 -4.78502 1.40846 0
M  V30 7620 H 714.549 -6.03863 -0.585984 0
M  V30 7621 H 713.288 -4.80188 -0.852661 0
M  V30 7622 H 712.293 -5.31846 1.39357 0
M  V30 7623 H 713.518 -6.58777 1.64894 0
M  V30 7624 H 711.464 -6.53301 -0.594413 0
M  V30 7625 H 711.381 -7.51409 0.831906 0
M  V30 7626 H 712.649 -7.78821 -0.325239 0
M  V30 7627 N 716.879 -0.700114 -1.41195 0
M  V30 7628 C 718.128 -0.230082 -2.00383 0
M  V30 7629 C 718.441 1.17857 -1.56106 0
M  V30 7630 O 719.647 1.74631 -2.07885 0
M  V30 7631 C 718.103 -0.360447 -3.5809 0
M  V30 7632 C 717.711 -1.77475 -4.11347 0
M  V30 7633 C 719.455 0.0495799 -4.24471 0
M  V30 7634 C 717.362 -1.85653 -5.61504 0
M  V30 7635 H 716.292 -0.0822633 -0.749499 0
M  V30 7636 H 718.943 -0.868969 -1.6162 0
M  V30 7637 H 717.325 0.346768 -3.94479 0
M  V30 7638 H 718.499 -2.51109 -3.86369 0
M  V30 7639 H 716.814 -2.13486 -3.57509 0
M  V30 7640 H 719.411 0.00898219 -5.34699 0
M  V30 7641 H 719.754 1.08904 -4.01803 0
M  V30 7642 H 720.287 -0.607521 -3.93134 0
M  V30 7643 H 717.026 -2.87667 -5.89006 0
M  V30 7644 H 716.546 -1.1641 -5.88395 0
M  V30 7645 H 718.225 -1.62151 -6.26351 0
M  V30 7646 N 718.357 1.51182 -0.445186 0
M  V30 7647 C 719.307 2.24804 0.380394 0
M  V30 7648 C 720.291 1.27344 0.983482 0
M  V30 7649 O 721.483 1.52392 0.900322 0
M  V30 7650 C 718.612 3.09922 1.4766 0
M  V30 7651 C 717.698 4.14816 0.882517 0
M  V30 7652 N 718.089 5.05797 0.0183278 0
M  V30 7653 C 716.387 4.30938 1.14927 0
M  V30 7654 C 717.088 5.8084 -0.316152 0
M  V30 7655 N 716.064 5.42759 0.302214 0
M  V30 7656 H 719.866 2.92508 -0.285737 0
M  V30 7657 H 717.38 1.60342 -0.257733 0
M  V30 7658 H 719.377 3.61249 2.08098 0
M  V30 7659 H 718.037 2.43763 2.14498 0
M  V30 7660 H 719.048 5.16725 -0.348679 0
M  V30 7661 H 715.725 3.76005 1.81457 0
M  V30 7662 H 717.115 6.64115 -1.01986 0
M  V30 7663 N 719.835 0.176821 1.56605 0
M  V30 7664 C 720.767 -0.782836 2.15417 0
M  V30 7665 C 721.78 -1.18982 1.11117 0
M  V30 7666 O 722.969 -1.12872 1.38283 0
M  V30 7667 C 720.069 -2.06596 2.68647 0
M  V30 7668 C 719.242 -1.82167 3.9766 0
M  V30 7669 C 718.301 -2.94751 4.35899 0
M  V30 7670 O 717.327 -2.65148 5.03672 0
M  V30 7671 N 718.529 -4.2267 3.97907 0
M  V30 7672 H 721.294 -0.280012 2.98389 0
M  V30 7673 H 718.855 -0.00577529 1.61899 0
M  V30 7674 H 720.847 -2.81018 2.91223 0
M  V30 7675 H 719.417 -2.48054 1.90232 0
M  V30 7676 H 718.637 -0.916208 3.83405 0
M  V30 7677 H 719.925 -1.6322 4.81909 0
M  V30 7678 H 719.323 -4.4958 3.43357 0
M  V30 7679 H 717.88 -4.93778 4.25472 0
M  V30 7680 N 721.313 -1.57302 -0.09688 0
M  V30 7681 C 722.243 -2.0497 -1.11846 0
M  V30 7682 C 723.224 -0.938278 -1.41882 0
M  V30 7683 O 724.409 -1.20943 -1.51942 0
M  V30 7684 C 721.539 -2.47264 -2.43881 0
M  V30 7685 C 720.493 -3.62053 -2.28257 0
M  V30 7686 C 719.819 -3.90318 -3.65453 0
M  V30 7687 C 721.119 -4.93005 -1.72461 0
M  V30 7688 H 722.813 -2.90567 -0.721888 0
M  V30 7689 H 720.359 -1.39786 -0.345803 0
M  V30 7690 H 722.312 -2.7922 -3.15617 0
M  V30 7691 H 721.036 -1.58664 -2.8547 0
M  V30 7692 H 719.695 -3.30341 -1.58967 0
M  V30 7693 H 719.343 -2.98889 -4.04567 0
M  V30 7694 H 719.043 -4.67597 -3.55846 0
M  V30 7695 H 720.567 -4.24747 -4.3866 0
M  V30 7696 H 721.981 -5.23354 -2.34036 0
M  V30 7697 H 720.378 -5.74436 -1.73618 0
M  V30 7698 H 721.448 -4.80053 -0.683898 0
M  V30 7699 N 722.791 0.367657 -1.53252 0
M  V30 7700 C 723.739 1.47061 -1.8021 0
M  V30 7701 C 724.733 1.55539 -0.671112 0
M  V30 7702 O 725.939 1.58451 -0.854014 0
M  V30 7703 H 722.314 0.489868 -0.570555 0
M  V30 7704 H 724.285 1.21527 -2.72532 0
M  V30 7705 C 723.034 2.83924 -2.00706 0
M  V30 7706 H 722.357 2.78158 -2.87172 0
M  V30 7707 H 723.797 3.60281 -2.23547 0
M  V30 7708 C 722.256 3.27613 -0.785568 0
M  V30 7709 O 722.786 4.01691 0.0267459 0
M  V30 7710 N 720.992 2.84134 -0.609597 0
M  V30 7711 H 720.539 2.24017 -1.27178 0
M  V30 7712 H 720.497 3.13723 0.206281 0
M  V30 7713 N 724.269 1.44576 0.627338 0
M  V30 7714 C 725.216 1.51734 1.73912 0
M  V30 7715 C 726.186 0.364745 1.62046 0
M  V30 7716 O 727.371 0.575503 1.81914 0
M  V30 7717 C 724.511 1.47116 3.12171 0
M  V30 7718 C 723.624 2.72778 3.34986 0
M  V30 7719 C 722.759 2.59968 4.63239 0
M  V30 7720 C 721.798 3.80776 4.79245 0
M  V30 7721 N 720.935 3.66618 5.98778 0
M  V30 7722 H 725.775 2.46722 1.6713 0
M  V30 7723 H 723.312 1.22444 0.815224 0
M  V30 7724 H 725.27 1.42429 3.92135 0
M  V30 7725 H 723.9 0.556928 3.17959 0
M  V30 7726 H 722.952 2.87637 2.48936 0
M  V30 7727 H 724.264 3.62441 3.42692 0
M  V30 7728 H 723.418 2.53135 5.51369 0
M  V30 7729 H 722.157 1.67872 4.57898 0
M  V30 7730 H 721.162 3.87989 3.89544 0
M  V30 7731 H 722.387 4.73913 4.86398 0
M  V30 7732 H 720.333 2.77277 5.9452 0
M  V30 7733 H 720.25 4.499 6.07557 0
M  V30 7734 H 721.518 3.63684 6.89459 0
M  V30 7735 N 725.747 -0.868086 1.31537 0
M  V30 7736 C 726.972 -1.65926 1.24432 0
M  V30 7737 C 727.397 -1.87169 -0.186936 0
M  V30 7738 O 726.755 -1.4148 -1.13371 0
M  V30 7739 C 726.803 -3.00347 1.9956 0
M  V30 7740 O 725.907 -3.90221 1.33422 0
M  V30 7741 H 725.248 -0.506375 0.429512 0
M  V30 7742 H 727.778 -1.0822 1.73637 0
M  V30 7743 H 727.788 -3.50269 2.09226 0
M  V30 7744 H 726.463 -2.84205 3.03645 0
M  V30 7745 H 725.04 -3.48672 1.32219 0
M  V30 7746 N 727.225 -1.14528 -1.08264 0
M  V30 7747 C 728.471 -0.925721 -1.81113 0
M  V30 7748 C 728.826 0.54185 -1.84612 0
M  V30 7749 O 728.119 1.39628 -1.31205 0
M  V30 7750 C 728.313 -1.46226 -3.26117 0
M  V30 7751 C 728.142 -2.98047 -3.36746 0
M  V30 7752 C 726.912 -3.66508 -3.4785 0
M  V30 7753 C 729.11 -3.95903 -3.28277 0
M  V30 7754 N 727.092 -5.06227 -3.47285 0
M  V30 7755 C 728.463 -5.21883 -3.34721 0
M  V30 7756 C 730.518 -3.88002 -3.12024 0
M  V30 7757 C 729.221 -6.40886 -3.26585 0
M  V30 7758 C 731.247 -5.06553 -3.05219 0
M  V30 7759 C 730.609 -6.31403 -3.12266 0
M  V30 7760 H 726.708 -0.392294 -0.676483 0
M  V30 7761 H 729.292 -1.45567 -1.293 0
M  V30 7762 H 727.463 -0.959076 -3.76373 0
M  V30 7763 H 729.195 -1.18247 -3.8704 0
M  V30 7764 H 725.95 -3.17067 -3.51804 0
M  V30 7765 H 726.374 -5.79172 -3.50555 0
M  V30 7766 H 731.016 -2.9235 -3.05436 0
M  V30 7767 H 728.734 -7.36781 -3.31934 0
M  V30 7768 H 732.32 -5.02191 -2.93761 0
M  V30 7769 H 731.2 -7.21596 -3.07032 0
M  V30 7770 N 728.703 1.26451 -0.940633 0
M  V30 7771 C 730.119 1.4608 -0.642859 0
M  V30 7772 C 730.319 1.84765 0.803998 0
M  V30 7773 O 729.375 1.96902 1.58069 0
M  V30 7774 C 730.688 2.54359 -1.60381 0
M  V30 7775 C 732.236 2.6821 -1.61345 0
M  V30 7776 C 732.711 3.79659 -2.56169 0
M  V30 7777 N 734.202 3.87051 -2.54452 0
M  V30 7778 C 734.937 4.72739 -3.24507 0
M  V30 7779 N 734.433 5.6282 -4.03987 0
M  V30 7780 N 736.226 4.66581 -3.13462 0
M  V30 7781 H 728.377 0.996289 -1.87584 0
M  V30 7782 H 730.64 0.498921 -0.80609 0
M  V30 7783 H 730.346 2.32758 -2.6366 0
M  V30 7784 H 730.22 3.52005 -1.35545 0
M  V30 7785 H 732.607 2.89184 -0.587913 0
M  V30 7786 H 732.688 1.7101 -1.90235 0
M  V30 7787 H 732.332 3.59438 -3.58841 0
M  V30 7788 H 732.262 4.76315 -2.2457 0
M  V30 7789 H 734.753 3.22649 -1.96739 0
M  V30 7790 H 735.066 6.25095 -4.54396 0
M  V30 7791 H 733.411 5.62574 -4.08088 0
M  V30 7792 H 736.602 3.9521 -2.50852 0
M  V30 7793 H 736.775 5.33141 -3.68327 0
M  V30 7794 N 730.181 0.707592 1.40822 0
M  V30 7795 C 731.458 0.171172 1.9485 0
M  V30 7796 C 731.838 -1.32143 1.64625 0
M  V30 7797 O 731.186 -2.07372 0.959647 0
M  V30 7798 C 731.396 0.475334 3.45748 0
M  V30 7799 C 732.744 0.409625 4.22619 0
M  V30 7800 O 733.768 0.410934 3.53822 0
M  V30 7801 O 732.627 0.380185 5.45176 0
M  V30 7802 H 729.721 0.022015 0.826707 0
M  V30 7803 H 732.267 0.784577 1.50474 0
M  V30 7804 H 731.039 1.50801 3.61075 0
M  V30 7805 H 730.662 -0.168439 3.97243 0
M  V30 7806 N 731.66 -1.50943 0.453197 0
M  V30 7807 C 732.57 -2.31884 -0.355963 0
M  V30 7808 C 733.586 -1.41481 -1.01287 0
M  V30 7809 O 734.762 -1.74546 -1.00477 0
M  V30 7810 C 731.827 -3.15668 -1.43369 0
M  V30 7811 C 730.888 -4.2187 -0.795253 0
M  V30 7812 C 730.121 -5.0165 -1.82162 0
M  V30 7813 O 730.344 -4.82266 -3.04592 0
M  V30 7814 O 729.278 -5.85311 -1.40336 0
M  V30 7815 H 733.104 -3.02162 0.305248 0
M  V30 7816 H 730.689 -1.47839 0.215398 0
M  V30 7817 H 732.571 -3.67709 -2.05836 0
M  V30 7818 H 731.246 -2.48137 -2.07869 0
M  V30 7819 H 730.153 -3.73867 -0.132106 0
M  V30 7820 H 731.486 -4.9182 -0.193484 0
M  V30 7821 N 733.138 -0.185124 -1.56509 0
M  V30 7822 C 734.085 0.739729 -2.18624 0
M  V30 7823 C 735.055 1.217 -1.13042 0
M  V30 7824 O 736.24 1.28268 -1.41251 0
M  V30 7825 C 733.38 1.95787 -2.84186 0
M  V30 7826 C 732.493 1.52289 -4.04267 0
M  V30 7827 C 731.628 2.69576 -4.57714 0
M  V30 7828 C 730.667 2.22636 -5.70175 0
M  V30 7829 N 729.804 3.33065 -6.18071 0
M  V30 7830 H 734.644 0.203269 -2.97306 0
M  V30 7831 H 732.181 0.0885946 -1.46833 0
M  V30 7832 H 734.139 2.67253 -3.20361 0
M  V30 7833 H 732.769 2.4678 -2.08085 0
M  V30 7834 H 731.821 0.704458 -3.7382 0
M  V30 7835 H 733.133 1.13843 -4.85635 0
M  V30 7836 H 732.287 3.4918 -4.96143 0
M  V30 7837 H 731.026 3.1129 -3.75433 0
M  V30 7838 H 730.031 1.41483 -5.31284 0
M  V30 7839 H 731.256 1.81964 -6.54267 0
M  V30 7840 H 729.202 3.74328 -5.38715 0
M  V30 7841 H 729.119 2.98756 -6.94464 0
M  V30 7842 H 730.387 4.12912 -6.61153 0
M  V30 7843 N 734.616 1.57351 0.0885366 0
M  V30 7844 C 735.563 2.02523 1.10693 0
M  V30 7845 C 736.533 0.902736 1.39427 0
M  V30 7846 O 737.718 1.16921 1.50779 0
M  V30 7847 C 734.858 2.46013 2.42016 0
M  V30 7848 C 733.971 3.7181 2.19957 0
M  V30 7849 C 733.106 4.04152 3.44724 0
M  V30 7850 C 732.145 5.2304 3.17956 0
M  V30 7851 N 731.282 5.51102 4.35007 0
M  V30 7852 H 736.122 2.89302 0.714742 0
M  V30 7853 H 733.659 1.43084 0.341378 0
M  V30 7854 H 735.617 2.69274 3.18665 0
M  V30 7855 H 734.247 1.62235 2.79069 0
M  V30 7856 H 733.299 3.55987 1.34079 0
M  V30 7857 H 734.611 4.58604 1.96173 0
M  V30 7858 H 733.765 4.28225 4.29777 0
M  V30 7859 H 732.504 3.15893 3.71568 0
M  V30 7860 H 731.509 4.98781 2.31296 0
M  V30 7861 H 732.734 6.12902 2.92451 0
M  V30 7862 H 730.68 4.65802 4.61914 0
M  V30 7863 H 730.597 6.3228 4.14437 0
M  V30 7864 H 731.865 5.79714 5.21106 0
M  V30 7865 N 736.094 -0.359525 1.53444 0
M  V30 7866 C 737.004 -1.46445 1.83278 0
M  V30 7867 C 738.02 -1.5833 0.721629 0
M  V30 7868 O 739.196 -1.7411 1.01231 0
M  V30 7869 C 736.261 -2.81638 2.02191 0
M  V30 7870 C 735.322 -2.7923 3.26082 0
M  V30 7871 C 734.555 -4.07974 3.44082 0
M  V30 7872 O 734.778 -5.04447 2.66251 0
M  V30 7873 O 733.712 -4.13417 4.37458 0
M  V30 7874 H 737.538 -1.24156 2.77162 0
M  V30 7875 H 735.123 -0.550201 1.389 0
M  V30 7876 H 737.005 -3.61732 2.16167 0
M  V30 7877 H 735.68 -3.03892 1.11496 0
M  V30 7878 H 734.587 -1.97813 3.17523 0
M  V30 7879 H 735.92 -2.6193 4.16718 0
M  V30 7880 N 737.572 -1.44907 -0.619662 0
M  V30 7881 C 738.52 -1.52971 -1.75222 0
M  V30 7882 C 739.514 -0.400531 -1.64597 0
M  V30 7883 O 740.72 -0.575952 -1.70537 0
M  V30 7884 H 737.095 -0.480241 -0.578682 0
M  V30 7885 H 739.066 -2.48269 -1.65545 0
M  V30 7886 C 737.815 -1.50204 -3.13583 0
M  V30 7887 H 737.138 -2.36412 -3.22412 0
M  V30 7888 H 738.578 -1.59905 -3.92691 0
M  V30 7889 C 737.037 -0.22455 -3.36151 0
M  V30 7890 O 737.567 0.700574 -3.95544 0
M  V30 7891 N 735.773 -0.124052 -2.90335 0
M  V30 7892 H 735.32 -0.87774 -2.42185 0
M  V30 7893 H 735.278 0.729914 -3.0581 0
M  V30 7894 N 739.05 0.861098 -1.31996 0
M  V30 7895 C 740.28 1.64501 -1.24992 0
M  V30 7896 C 740.688 1.88288 0.185576 0
M  V30 7897 O 740.031 1.44756 1.131 0
M  V30 7898 C 740.093 3.03098 -1.93319 0
M  V30 7899 C 739.757 3.02381 -3.42658 0
M  V30 7900 C 740.754 2.79696 -4.38254 0
M  V30 7901 C 738.439 3.23221 -3.84491 0
M  V30 7902 C 740.433 2.77843 -5.73657 0
M  V30 7903 C 738.12 3.20996 -5.20005 0
M  V30 7904 C 739.118 2.98335 -6.14398 0
M  V30 7905 O 738.806 2.95971 -7.47433 0
M  V30 7906 H 738.538 0.519309 -0.432775 0
M  V30 7907 H 741.092 1.08241 -1.74565 0
M  V30 7908 H 739.322 3.61121 -1.38306 0
M  V30 7909 H 741.011 3.63751 -1.8011 0
M  V30 7910 H 741.777 2.63368 -4.07262 0
M  V30 7911 H 737.656 3.39887 -3.11445 0
M  V30 7912 H 741.2 2.60074 -6.47308 0
M  V30 7913 H 737.097 3.36865 -5.50629 0
M  V30 7914 H 737.865 3.1197 -7.56714 0
M  V30 7915 N 740.528 1.15101 1.07655 0
M  V30 7916 C 741.478 0.813448 2.12995 0
M  V30 7917 C 742.462 -0.200899 1.59641 0
M  V30 7918 O 743.654 -0.00209918 1.77 0
M  V30 7919 C 740.783 0.301078 3.41977 0
M  V30 7920 C 739.869 1.3454 4.02194 0
M  V30 7921 N 740.26 2.55181 4.36711 0
M  V30 7922 C 738.558 1.19742 4.29625 0
M  V30 7923 C 739.259 3.22094 4.84387 0
M  V30 7924 N 738.235 2.49486 4.82968 0
M  V30 7925 H 742.037 1.73105 2.37511 0
M  V30 7926 H 739.551 1.03601 1.25063 0
M  V30 7927 H 741.548 0.040914 4.1688 0
M  V30 7928 H 740.208 -0.610629 3.18907 0
M  V30 7929 H 741.219 2.92349 4.27496 0
M  V30 7930 H 737.896 0.345353 4.16069 0
M  V30 7931 H 739.286 4.24996 5.20411 0
M  V30 7932 N 742.006 -1.2595 0.947325 0
M  V30 7933 C 742.953 -2.26159 0.460497 0
M  V30 7934 C 743.923 -1.58919 -0.483125 0
M  V30 7935 O 745.108 -1.86603 -0.397983 0
M  V30 7936 C 742.248 -3.441 -0.26247 0
M  V30 7937 C 741.361 -4.25999 0.717539 0
M  V30 7938 C 740.496 -5.31193 -0.0272486 0
M  V30 7939 C 739.535 -6.04774 0.944177 0
M  V30 7940 N 738.672 -7.01721 0.230741 0
M  V30 7941 H 743.512 -2.67173 1.31995 0
M  V30 7942 H 741.049 -1.31358 0.662088 0
M  V30 7943 H 743.007 -4.11317 -0.698137 0
M  V30 7944 H 741.637 -3.03983 -1.08602 0
M  V30 7945 H 740.689 -3.58513 1.27171 0
M  V30 7946 H 742.001 -4.76981 1.45913 0
M  V30 7947 H 741.155 -6.04451 -0.521903 0
M  V30 7948 H 739.894 -4.81066 -0.801682 0
M  V30 7949 H 738.899 -5.30338 1.4499 0
M  V30 7950 H 740.124 -6.56991 1.71872 0
M  V30 7951 H 738.07 -6.53895 -0.525088 0
M  V30 7952 H 737.987 -7.50484 0.911556 0
M  V30 7953 H 739.255 -7.79122 -0.242616 0
M  V30 7954 N 743.484 -0.715051 -1.40445 0
M  V30 7955 C 744.434 -0.038591 -2.27967 0
M  V30 7956 C 745.418 0.733099 -1.43229 0
M  V30 7957 O 746.61 0.605388 -1.66325 0
M  V30 7958 C 743.739 0.882801 -3.31755 0
M  V30 7959 C 742.825 0.106325 -4.23967 0
M  V30 7960 N 743.216 -0.910143 -4.97544 0
M  V30 7961 C 741.514 0.33896 -4.4471 0
M  V30 7962 C 742.215 -1.37665 -5.65175 0
M  V30 7963 N 741.191 -0.698905 -5.39088 0
M  V30 7964 H 744.993 -0.81765 -2.82297 0
M  V30 7965 H 742.507 -0.547591 -1.5289 0
M  V30 7966 H 744.504 1.38273 -3.93302 0
M  V30 7967 H 743.164 1.66124 -2.78985 0
M  V30 7968 H 744.175 -1.29097 -5.01552 0
M  V30 7969 H 740.852 1.09377 -4.02918 0
M  V30 7970 H 742.242 -2.22122 -6.34123 0
M  V30 7971 N 744.962 1.50701 -0.461195 0
M  V30 7972 C 745.925 2.2686 0.326679 0
M  V30 7973 C 746.925 1.31243 0.929085 0
M  V30 7974 O 748.115 1.54754 0.799807 0
M  V30 7975 C 745.247 3.07844 1.46441 0
M  V30 7976 H 746.44 2.97954 -0.341095 0
M  V30 7977 H 743.993 1.54814 -0.214984 0
M  V30 7978 H 744.728 2.41223 2.16753 0
M  V30 7979 H 744.513 3.78101 1.03836 0
M  V30 7980 H 746.003 3.65469 2.02044 0
M  V30 7981 N 746.441 0.193421 1.56409 0
M  V30 7982 C 747.681 -0.447977 1.9943 0
M  V30 7983 C 748.045 -1.58915 1.07751 0
M  V30 7984 O 749.246 -2.29462 1.40002 0
M  V30 7985 C 747.517 -0.89793 3.45936 0
M  V30 7986 S 749.076 -1.5374 4.10986 0
M  V30 7987 H 745.894 -0.143316 0.696406 0
M  V30 7988 H 748.496 0.296093 1.93245 0
M  V30 7989 H 747.2 -0.0572927 4.1036 0
M  V30 7990 H 746.731 -1.67551 3.55936 0
M  V30 7991 H 748.746 -2.82612 4.07854 0
M  V30 7992 N 747.919 -1.57396 -0.0801906 0
M  V30 7993 C 749.335 -1.53564 -0.434778 0
M  V30 7994 C 749.535 -0.912372 -1.79661 0
M  V30 7995 O 748.591 -0.511268 -2.4727 0
M  V30 7996 C 749.904 -2.98244 -0.383561 0
M  V30 7997 C 751.452 -3.09536 -0.46435 0
M  V30 7998 C 751.927 -4.55851 -0.443128 0
M  V30 7999 N 753.418 -4.60456 -0.503448 0
M  V30 8000 C 754.153 -5.71135 -0.509106 0
M  V30 8001 N 753.649 -6.91203 -0.47008 0
M  V30 8002 N 755.442 -5.59353 -0.555035 0
M  V30 8003 H 747.593 -1.96281 0.811635 0
M  V30 8004 H 749.856 -0.898041 0.303689 0
M  V30 8005 H 749.562 -3.47369 0.550236 0
M  V30 8006 H 749.436 -3.57705 -1.19694 0
M  V30 8007 H 751.823 -2.6039 -1.38857 0
M  V30 8008 H 751.904 -2.53 0.377445 0
M  V30 8009 H 751.548 -5.05653 0.477207 0
M  V30 8010 H 751.478 -5.10242 -1.30234 0
M  V30 8011 H 753.969 -3.74048 -0.538199 0
M  V30 8012 H 754.282 -7.7132 -0.478091 0
M  V30 8013 H 752.627 -6.93625 -0.436897 0
M  V30 8014 H 755.818 -4.64453 -0.583158 0
M  V30 8015 H 755.991 -6.4561 -0.555976 0
M  V30 8016 N 749.397 0.351382 -1.53633 0
M  V30 8017 C 750.307 1.45471 -1.84052 0
M  V30 8018 C 751.323 1.57945 -0.730015 0
M  V30 8019 O 752.499 1.73571 -1.02153 0
M  V30 8020 C 749.564 2.80562 -2.03681 0
M  V30 8021 C 748.625 2.77497 -3.27558 0
M  V30 8022 C 747.858 4.06144 -3.46241 0
M  V30 8023 O 748.081 5.03028 -2.68922 0
M  V30 8024 O 747.015 4.11092 -4.39645 0
M  V30 8025 H 750.841 1.22684 -2.77817 0
M  V30 8026 H 748.426 0.542827 -1.3919 0
M  V30 8027 H 750.308 3.6058 -2.18082 0
M  V30 8028 H 748.983 3.03296 -1.13106 0
M  V30 8029 H 747.89 1.96126 -3.18568 0
M  V30 8030 H 749.223 2.59716 -4.18101 0
M  V30 8031 N 750.875 1.45233 0.611969 0
M  V30 8032 C 752.105 1.52318 1.39581 0
M  V30 8033 C 752.513 0.153093 1.8858 0
M  V30 8034 O 751.856 -0.854792 1.62601 0
M  V30 8035 C 751.918 2.4426 2.63775 0
M  V30 8036 C 751.582 3.91079 2.36445 0
M  V30 8037 C 752.579 4.81099 1.97079 0
M  V30 8038 C 750.264 4.35958 2.49492 0
M  V30 8039 C 752.258 6.14002 1.71115 0
M  V30 8040 C 749.945 5.68903 2.23142 0
M  V30 8041 C 750.943 6.57744 1.84015 0
M  V30 8042 O 750.631 7.88226 1.5797 0
M  V30 8043 H 750.363 0.518428 0.43383 0
M  V30 8044 H 752.917 1.91067 0.753837 0
M  V30 8045 H 751.147 2.00474 3.30677 0
M  V30 8046 H 752.836 2.42077 3.25812 0
M  V30 8047 H 753.602 4.47692 1.86539 0
M  V30 8048 H 749.481 3.67053 2.78914 0
M  V30 8049 H 753.025 6.83305 1.405 0
M  V30 8050 H 748.922 6.01866 2.33297 0
M  V30 8051 H 749.69 8.00211 1.72058 0
M  V30 8052 N 752.353 -0.854086 1.3245 0
M  V30 8053 C 753.769 -1.14238 1.11453 0
M  V30 8054 C 753.969 -2.01228 -0.10461 0
M  V30 8055 O 753.025 -2.39845 -0.789339 0
M  V30 8056 C 754.338 -1.81916 2.39431 0
M  V30 8057 C 755.886 -1.94549 2.45193 0
M  V30 8058 C 756.361 -2.65642 3.73093 0
M  V30 8059 N 757.852 -2.73167 3.74078 0
M  V30 8060 C 758.587 -3.28828 4.69744 0
M  V30 8061 N 758.083 -3.85295 5.75778 0
M  V30 8062 N 759.876 -3.26936 4.57241 0
M  V30 8063 H 752.027 -0.274786 2.10615 0
M  V30 8064 H 754.29 -0.184375 0.929898 0
M  V30 8065 H 753.996 -1.25452 3.28565 0
M  V30 8066 H 753.87 -2.82068 2.50434 0
M  V30 8067 H 756.257 -2.50172 1.56518 0
M  V30 8068 H 756.338 -0.933914 2.38142 0
M  V30 8069 H 755.982 -2.10683 4.62142 0
M  V30 8070 H 755.912 -3.6724 3.77415 0
M  V30 8071 H 758.403 -2.33108 2.97438 0
M  V30 8072 H 758.716 -4.25925 6.44832 0
M  V30 8073 H 757.061 -3.83625 5.79531 0
M  V30 8074 H 760.252 -2.8207 3.7357 0
M  V30 8075 H 760.425 -3.70014 5.31971 0
M  V30 8076 N 753.831 -1.1567 -1.07043 0
M  V30 8077 C 755.08 -0.928039 -1.79082 0
M  V30 8078 C 755.393 0.545968 -1.87826 0
M  V30 8079 O 756.599 0.892308 -2.56418 0
M  V30 8080 C 755.055 -1.61103 -3.21829 0
M  V30 8081 C 754.663 -3.12228 -3.21275 0
M  V30 8082 C 756.407 -1.46404 -3.98455 0
M  V30 8083 C 754.314 -3.733 -4.58695 0
M  V30 8084 H 753.244 -0.34357 -0.671175 0
M  V30 8085 H 755.895 -1.38718 -1.20123 0
M  V30 8086 H 754.277 -1.07958 -3.81 0
M  V30 8087 H 755.451 -3.72155 -2.71731 0
M  V30 8088 H 753.766 -3.26725 -2.58147 0
M  V30 8089 H 756.363 -1.8942 -5.00024 0
M  V30 8090 H 756.706 -0.41195 -4.14257 0
M  V30 8091 H 757.239 -1.96663 -3.45787 0
M  V30 8092 H 753.978 -4.78423 -4.48098 0
M  V30 8093 H 753.498 -3.18157 -5.08465 0
M  V30 8094 H 755.177 -3.7441 -5.27661 0
M  V30 8095 N 755.309 1.25446 -0.953992 0
M  V30 8096 C 756.259 2.23627 -0.444413 0
M  V30 8097 C 757.243 1.54004 0.465993 0
M  V30 8098 O 758.435 1.74454 0.29915 0
M  V30 8099 C 755.564 3.42179 0.277175 0
M  V30 8100 C 754.65 4.1907 -0.651263 0
M  V30 8101 N 755.041 4.73346 -1.78262 0
M  V30 8102 C 753.339 4.43628 -0.459338 0
M  V30 8103 C 754.04 5.31576 -2.36224 0
M  V30 8104 N 753.016 5.17991 -1.64884 0
M  V30 8105 H 756.818 2.63197 -1.30785 0
M  V30 8106 H 754.332 1.40677 -0.811402 0
M  V30 8107 H 756.329 4.11653 0.659367 0
M  V30 8108 H 754.989 3.04134 1.13723 0
M  V30 8109 H 756 4.705 -2.1645 0
M  V30 8110 H 752.677 4.15963 0.357885 0
M  V30 8111 H 754.067 5.84361 -3.3162 0
M  V30 8112 N 756.787 0.722489 1.40064 0
M  V30 8113 C 757.734 0.0743738 2.3068 0
M  V30 8114 C 758.704 -0.743004 1.48555 0
M  V30 8115 O 759.889 -0.705536 1.77276 0
M  V30 8116 C 757.029 -0.836292 3.34814 0
M  V30 8117 C 756.142 -0.00764663 4.31999 0
M  V30 8118 C 755.277 -0.918428 5.232 0
M  V30 8119 C 754.316 -0.0842838 6.12042 0
M  V30 8120 N 753.453 -0.950316 6.95639 0
M  V30 8121 H 758.293 0.852794 2.85537 0
M  V30 8122 H 755.83 0.432222 1.40607 0
M  V30 8123 H 757.788 -1.3786 3.93765 0
M  V30 8124 H 756.418 -1.58082 2.81443 0
M  V30 8125 H 755.47 0.651928 3.74772 0
M  V30 8126 H 756.782 0.63786 4.94705 0
M  V30 8127 H 755.936 -1.52902 5.87116 0
M  V30 8128 H 754.675 -1.59774 4.60786 0
M  V30 8129 H 753.68 0.5392 5.4715 0
M  V30 8130 H 754.905 0.591628 6.76518 0
M  V30 8131 H 752.851 -1.61515 6.35806 0
M  V30 8132 H 752.768 -0.361004 7.55138 0
M  V30 8133 H 754.036 -1.54687 7.63997 0
M  V30 8134 N 758.265 -1.50454 0.469181 0
M  V30 8135 C 759.175 -2.32248 -0.331349 0
M  V30 8136 C 760.191 -1.42548 -0.997807 0
M  V30 8137 O 761.367 -1.75602 -0.9862 0
M  V30 8138 C 758.432 -3.17171 -1.40012 0
M  V30 8139 C 757.493 -4.2269 -0.750463 0
M  V30 8140 C 756.726 -5.03554 -1.76831 0
M  V30 8141 O 756.949 -4.85469 -2.99459 0
M  V30 8142 O 755.883 -5.86767 -1.3412 0
M  V30 8143 H 759.709 -3.01821 0.337279 0
M  V30 8144 H 757.294 -1.47602 0.231066 0
M  V30 8145 H 759.176 -3.69871 -2.01924 0
M  V30 8146 H 757.851 -2.50328 -2.05226 0
M  V30 8147 H 756.758 -3.73986 -0.0924446 0
M  V30 8148 H 758.091 -4.91997 -0.14131 0
M  V30 8149 N 759.743 -0.201713 -1.56304 0
M  V30 8150 C 760.673 0.71155 -2.22394 0
M  V30 8151 C 761.654 1.21625 -1.18917 0
M  V30 8152 O 762.839 1.26388 -1.47444 0
M  V30 8153 C 759.969 1.92837 -2.88845 0
M  V30 8154 C 758.923 1.55831 -3.98623 0
M  V30 8155 C 758.249 2.85228 -4.52271 0
M  V30 8156 C 759.549 0.763249 -5.16693 0
M  V30 8157 H 761.243 0.160573 -2.98969 0
M  V30 8158 H 758.789 0.0757916 -1.438 0
M  V30 8159 H 760.742 2.57253 -3.33764 0
M  V30 8160 H 759.466 2.50398 -2.09686 0
M  V30 8161 H 758.125 0.9377 -3.54405 0
M  V30 8162 H 757.773 3.40893 -3.69866 0
M  V30 8163 H 757.473 2.6121 -5.26349 0
M  V30 8164 H 758.997 3.50622 -4.99897 0
M  V30 8165 H 760.411 1.31066 -5.58117 0
M  V30 8166 H 758.808 0.620935 -5.96879 0
M  V30 8167 H 759.878 -0.234322 -4.84334 0
M  V30 8168 N 761.222 1.57436 0.0718424 0
M  V30 8169 C 762.499 1.78312 0.804006 0
M  V30 8170 C 762.879 0.789273 1.9579 0
M  V30 8171 O 762.227 -0.177605 2.27809 0
M  V30 8172 C 762.437 3.24798 1.277 0
M  V30 8173 C 763.785 3.88627 1.71039 0
M  V30 8174 O 764.809 3.28689 1.37266 0
M  V30 8175 O 763.668 4.94073 2.33567 0
M  V30 8176 H 760.762 0.73178 0.385262 0
M  V30 8177 H 763.308 1.69621 0.0519219 0
M  V30 8178 H 762.08 3.88688 0.45134 0
M  V30 8179 H 761.703 3.38213 2.0904 0
M  V30 8180 N 762.7 -0.34323 1.53817 0
M  V30 8181 C 763.65 -1.42217 1.78208 0
M  V30 8182 C 764.634 -1.4774 0.637304 0
M  V30 8183 O 765.826 -1.52605 0.896705 0
M  V30 8184 C 762.955 -2.79354 1.9954 0
M  V30 8185 C 762.041 -2.78222 3.20084 0
M  V30 8186 N 762.432 -2.46719 4.41547 0
M  V30 8187 C 760.73 -3.09368 3.21259 0
M  V30 8188 C 761.431 -2.53828 5.23399 0
M  V30 8189 N 760.407 -2.89464 4.60121 0
M  V30 8190 H 764.209 -1.16759 2.69712 0
M  V30 8191 H 761.723 -0.551592 1.52746 0
M  V30 8192 H 763.72 -3.57095 2.15148 0
M  V30 8193 H 762.38 -3.05759 1.09278 0
M  V30 8194 H 763.391 -2.19912 4.68891 0
M  V30 8195 H 760.068 -3.40942 2.40966 0
M  V30 8196 H 761.458 -2.32629 6.30344 0
M  V30 8197 N 764.178 -1.45556 -0.604258 0
M  V30 8198 C 765.589 -1.44171 -1.18624 0
M  V30 8199 C 765.94 -0.171081 -1.95453 0
M  V30 8200 O 765.065 0.727156 -2.03817 0
M  V30 8201 C 765.66 -2.61193 -2.15786 0
M  V30 8202 C 764.219 -2.62918 -2.69353 0
M  V30 8203 C 763.366 -2.36479 -1.4482 0
M  V30 8204 H 766.317 -1.53747 -0.393381 0
M  V30 8205 H 766.338 -2.35481 -2.98879 0
M  V30 8206 H 765.85 -3.53656 -1.59841 0
M  V30 8207 H 763.951 -1.7447 -3.29228 0
M  V30 8208 H 764.064 -3.6224 -3.13559 0
M  V30 8209 H 762.428 -1.86103 -1.73891 0
M  V30 8210 H 763.211 -3.31091 -0.907376 0
M  V30 8211 N 765.656 0.84705 -1.32902 0
M  V30 8212 C 767.072 1.13645 -1.12058 0
M  V30 8213 C 767.272 2.01281 0.093937 0
M  V30 8214 O 766.328 2.4026 0.776608 0
M  V30 8215 C 767.641 1.80644 -2.40392 0
M  V30 8216 C 769.189 1.93246 -2.46221 0
M  V30 8217 C 769.664 2.6366 -3.74496 0
M  V30 8218 N 771.155 2.71179 -3.75521 0
M  V30 8219 C 771.89 3.26332 -4.71482 0
M  V30 8220 N 771.386 3.82236 -5.77813 0
M  V30 8221 N 773.179 3.24507 -4.58968 0
M  V30 8222 H 765.33 0.263612 -2.10758 0
M  V30 8223 H 767.593 0.17944 -0.930863 0
M  V30 8224 H 767.299 1.23708 -3.29225 0
M  V30 8225 H 767.173 2.80736 -2.51926 0
M  V30 8226 H 769.56 2.49338 -1.57843 0
M  V30 8227 H 769.641 0.921272 -2.38634 0
M  V30 8228 H 769.285 2.08229 -4.63253 0
M  V30 8229 H 769.215 3.65234 -3.79357 0
M  V30 8230 H 771.706 2.31527 -2.9867 0
M  V30 8231 H 772.019 4.22499 -6.47082 0
M  V30 8232 H 770.364 3.80546 -5.81558 0
M  V30 8233 H 773.555 2.80085 -3.7506 0
M  V30 8234 H 773.728 3.67188 -5.33926 0
M  V30 8235 N 767.134 1.16236 1.06428 0
M  V30 8236 C 768.383 0.937523 1.78587 0
M  V30 8237 C 768.696 -0.536 1.88113 0
M  V30 8238 O 769.902 -0.878697 2.56887 0
M  V30 8239 C 768.358 1.62808 3.2097 0
M  V30 8240 C 767.966 3.13927 3.19615 0
M  V30 8241 C 769.71 1.48515 3.97673 0
M  V30 8242 C 767.617 3.75727 4.56709 0
M  V30 8243 H 766.547 0.347125 0.669343 0
M  V30 8244 H 769.198 1.39353 1.19385 0
M  V30 8245 H 767.58 1.09977 3.80422 0
M  V30 8246 H 768.754 3.7359 2.69753 0
M  V30 8247 H 767.069 3.28089 2.56411 0
M  V30 8248 H 769.666 1.92069 4.99013 0
M  V30 8249 H 770.009 0.433913 4.14032 0
M  V30 8250 H 770.542 1.98494 3.44739 0
M  V30 8251 H 767.281 4.80793 4.45554 0
M  V30 8252 H 766.801 3.20849 5.0677 0
M  V30 8253 H 768.48 3.77203 5.25668 0
M  V30 8254 N 768.612 -1.24939 0.960631 0
M  V30 8255 C 769.858 -1.93104 0.61958 0
M  V30 8256 C 770.191 -1.74991 -0.84212 0
M  V30 8257 O 769.466 -1.09867 -1.60498 0
M  V30 8258 C 769.749 -3.46326 0.986422 0
M  V30 8259 C 769.602 -3.73638 2.50429 0
M  V30 8260 C 770.921 -4.37067 0.515827 0
M  V30 8261 H 768.04 -0.701311 0.226566 0
M  V30 8262 H 770.682 -1.47442 1.19836 0
M  V30 8263 H 768.832 -3.85348 0.493907 0
M  V30 8264 H 770.504 -3.44217 3.07103 0
M  V30 8265 H 768.747 -3.19035 2.93937 0
M  V30 8266 H 769.418 -4.80815 2.71147 0
M  V30 8267 H 771.894 -4.05381 0.938389 0
M  V30 8268 H 770.77 -5.43022 0.80114 0
M  V30 8269 H 771.031 -4.38224 -0.584171 0
M  V30 8270 N 770.09 -0.729906 -1.39679 0
M  V30 8271 C 771.037 -0.0866063 -2.30637 0
M  V30 8272 C 772.007 0.735115 -1.48947 0
M  V30 8273 O 773.192 0.696125 -1.77648 0
M  V30 8274 C 770.332 0.818524 -3.35252 0
M  V30 8275 C 769.445 -0.0152635 -4.31997 0
M  V30 8276 C 768.58 0.890669 -5.2368 0
M  V30 8277 C 767.619 0.0518246 -6.12078 0
M  V30 8278 N 766.756 0.913411 -6.96133 0
M  V30 8279 H 771.596 -0.867925 -2.85081 0
M  V30 8280 H 769.133 -0.439673 -1.40376 0
M  V30 8281 H 771.091 1.3577 -3.9449 0
M  V30 8282 H 769.721 1.56587 -2.82277 0
M  V30 8283 H 768.773 -0.671794 -3.74421 0
M  V30 8284 H 770.085 -0.664086 -4.9436 0
M  V30 8285 H 769.239 1.49787 -5.87919 0
M  V30 8286 H 767.978 1.57328 -4.61627 0
M  V30 8287 H 766.983 -0.568209 -5.46856 0
M  V30 8288 H 768.208 -0.627497 -6.76195 0
M  V30 8289 H 766.154 1.58141 -6.36653 0
M  V30 8290 H 766.071 0.320952 -7.55318 0
M  V30 8291 H 767.339 1.50633 -7.64807 0
M  V30 8292 N 771.568 1.50203 -0.477153 0
M  V30 8293 C 772.498 2.31517 0.303646 0
M  V30 8294 C 773.479 1.38696 0.984753 0
M  V30 8295 O 774.664 1.67615 0.980758 0
M  V30 8296 C 771.794 3.18598 1.38249 0
M  V30 8297 C 770.748 4.2002 0.822645 0
M  V30 8298 C 770.074 4.95878 2.00024 0
M  V30 8299 C 771.374 5.22023 -0.170185 0
M  V30 8300 H 773.068 2.97042 -0.375027 0
M  V30 8301 H 770.614 1.42848 -0.181802 0
M  V30 8302 H 772.567 3.74282 1.93625 0
M  V30 8303 H 771.291 2.5097 2.09002 0
M  V30 8304 H 769.95 3.65445 0.290813 0
M  V30 8305 H 769.598 4.24717 2.69489 0
M  V30 8306 H 769.298 5.64487 1.63183 0
M  V30 8307 H 770.822 5.54399 2.55878 0
M  V30 8308 H 772.236 5.72543 0.294606 0
M  V30 8309 H 770.633 5.98386 -0.453181 0
M  V30 8310 H 771.703 4.72396 -1.09408 0
M  V30 8311 N 773.046 0.209999 1.56195 0
M  V30 8312 C 774.276 -0.429373 2.02089 0
M  V30 8313 C 774.684 -1.54703 1.0892 0
M  V30 8314 O 774.027 -1.83485 0.0889535 0
M  V30 8315 C 774.089 -1.03266 3.44349 0
M  V30 8316 C 773.753 -0.0518873 4.56971 0
M  V30 8317 C 774.75 0.744249 5.14545 0
M  V30 8318 C 772.435 0.0635185 5.0226 0
M  V30 8319 C 774.429 1.64261 6.15871 0
M  V30 8320 C 772.116 0.965423 6.03426 0
M  V30 8321 C 773.114 1.75352 6.60106 0
M  V30 8322 O 772.802 2.64029 7.59305 0
M  V30 8323 H 772.534 -0.110604 0.66689 0
M  V30 8324 H 775.088 0.320436 2.02885 0
M  V30 8325 H 773.318 -1.83134 3.40586 0
M  V30 8326 H 775.007 -1.57823 3.73961 0
M  V30 8327 H 775.773 0.665476 4.80413 0
M  V30 8328 H 771.652 -0.539762 4.57829 0
M  V30 8329 H 775.196 2.25819 6.60039 0
M  V30 8330 H 771.093 1.04526 6.36981 0
M  V30 8331 H 771.861 2.57974 7.76783 0
M  V30 8332 N 774.524 -1.57472 -0.0634922 0
M  V30 8333 C 775.801 -1.78736 -0.794538 0
M  V30 8334 C 776.181 -0.799645 -1.95369 0
M  V30 8335 O 775.529 0.165521 -2.279 0
M  V30 8336 C 775.739 -3.25471 -1.25975 0
M  V30 8337 C 777.087 -3.89528 -1.68976 0
M  V30 8338 O 778.111 -3.29412 -1.35521 0
M  V30 8339 O 776.97 -4.95305 -2.30944 0
M  V30 8340 H 774.064 -0.733813 -0.381376 0
M  V30 8341 H 776.61 -1.69646 -0.0429258 0
M  V30 8342 H 775.382 -3.88922 -0.430721 0
M  V30 8343 H 775.005 -3.39317 -2.07243 0
M  V30 8344 N 776.003 0.335068 -1.53997 0
M  V30 8345 C 777.233 1.0926 -1.75345 0
M  V30 8346 C 777.641 1.82568 -0.496545 0
M  V30 8347 O 776.984 1.75525 0.541897 0
M  V30 8348 C 777.046 2.14473 -2.88516 0
M  V30 8349 C 776.71 1.60665 -4.27827 0
M  V30 8350 C 777.707 1.05448 -5.09094 0
M  V30 8351 C 775.392 1.65255 -4.74337 0
M  V30 8352 C 777.386 0.555372 -6.34976 0
M  V30 8353 C 775.073 1.14956 -6.0019 0
M  V30 8354 C 776.071 0.601907 -6.80343 0
M  V30 8355 O 775.759 0.106445 -8.0383 0
M  V30 8356 H 775.491 0.331329 -0.589234 0
M  V30 8357 H 778.045 0.39042 -2.01655 0
M  V30 8358 H 776.275 2.88274 -2.5775 0
M  V30 8359 H 777.964 2.75857 -2.97755 0
M  V30 8360 H 778.73 1.01218 -4.74321 0
M  V30 8361 H 774.609 2.06822 -4.12002 0
M  V30 8362 H 778.153 0.127245 -6.97484 0
M  V30 8363 H 774.05 1.18891 -6.34457 0
M  V30 8364 H 774.818 0.222944 -8.18196 0
M  V30 8365 N 777.481 1.45874 0.596531 0
M  V30 8366 C 778.728 1.50467 1.35521 0
M  V30 8367 C 779.056 0.150802 1.93915 0
M  V30 8368 O 778.311 -0.851913 1.76184 0
M  V30 8369 C 778.61 2.54034 2.51399 0
M  V30 8370 C 778.276 3.9844 2.11085 0
M  V30 8371 C 776.938 4.37758 1.99804 0
M  V30 8372 C 779.29 4.89209 1.79788 0
M  V30 8373 C 776.618 5.65727 1.55465 0
M  V30 8374 C 778.97 6.17602 1.36931 0
M  V30 8375 C 777.634 6.5584 1.24218 0
M  V30 8376 H 776.904 0.550597 0.495907 0
M  V30 8377 H 779.551 1.79279 0.673145 0
M  V30 8378 H 777.856 2.18832 3.24992 0
M  V30 8379 H 779.553 2.54822 3.09624 0
M  V30 8380 H 776.143 3.67353 2.20794 0
M  V30 8381 H 780.327 4.59562 1.87395 0
M  V30 8382 H 775.583 5.94139 1.44253 0
M  V30 8383 H 779.757 6.87373 1.11764 0
M  V30 8384 H 777.384 7.54897 0.896353 0
M  V30 8385 N 778.959 -0.83999 1.33349 0
M  V30 8386 C 780.184 -1.63249 1.27924 0
M  V30 8387 C 780.609 -1.87523 -0.147193 0
M  V30 8388 O 779.967 -1.43853 -1.10345 0
M  V30 8389 C 780.015 -2.96046 2.05886 0
M  V30 8390 O 779.119 -3.87303 1.4167 0
M  V30 8391 H 778.46 -0.49715 0.440157 0
M  V30 8392 H 780.99 -1.04512 1.75893 0
M  V30 8393 H 781 -3.45752 2.16609 0
M  V30 8394 H 779.675 -2.77701 3.09605 0
M  V30 8395 H 778.252 -3.45789 1.39585 0
M  V30 8396 N 780.437 -1.16799 -1.0581 0
M  V30 8397 C 781.367 -0.902241 -2.15364 0
M  V30 8398 C 782.348 0.153351 -1.69407 0
M  V30 8399 O 783.533 0.00442032 -1.94199 0
M  V30 8400 C 780.663 -0.407911 -3.44896 0
M  V30 8401 C 779.617 -1.40197 -4.04387 0
M  V30 8402 C 778.943 -0.765848 -5.29187 0
M  V30 8403 C 780.243 -2.77316 -4.42598 0
M  V30 8404 H 781.937 -1.81841 -2.37853 0
M  V30 8405 H 779.483 -0.875731 -1.14311 0
M  V30 8406 H 781.436 -0.20945 -4.20879 0
M  V30 8407 H 780.16 0.54378 -3.22041 0
M  V30 8408 H 778.819 -1.58707 -3.30466 0
M  V30 8409 H 778.467 0.192482 -5.02632 0
M  V30 8410 H 778.167 -1.42939 -5.69949 0
M  V30 8411 H 779.691 -0.577519 -6.07863 0
M  V30 8412 H 781.105 -2.62561 -5.09642 0
M  V30 8413 H 779.502 -3.4019 -4.94359 0
M  V30 8414 H 780.572 -3.32199 -3.53231 0
M  V30 8415 N 781.915 1.24427 -0.967243 0
M  V30 8416 C 783.192 1.87831 -0.545776 0
M  V30 8417 C 783.572 1.87126 0.977099 0
M  V30 8418 O 782.92 1.34357 1.84826 0
M  V30 8419 C 783.13 3.29967 -1.13679 0
M  V30 8420 C 784.478 4.06654 -1.22139 0
M  V30 8421 O 785.502 3.39136 -1.08926 0
M  V30 8422 O 784.361 5.27455 -1.43017 0
M  V30 8423 H 781.455 0.806745 -0.181912 0
M  V30 8424 H 784.001 1.32403 -1.06148 0
M  V30 8425 H 782.773 3.24977 -2.17958 0
M  V30 8426 H 782.396 3.92969 -0.605093 0
M  V30 8427 N 783.393 0.737304 1.3929 0
M  V30 8428 C 784.621 0.296573 2.04763 0
M  V30 8429 C 785.036 -1.06941 1.55592 0
M  V30 8430 O 784.393 -1.67619 0.721822 0
M  V30 8431 C 784.444 0.291906 3.6032 0
M  V30 8432 O 784.165 1.60397 4.07682 0
M  V30 8433 C 785.666 -0.164708 4.42994 0
M  V30 8434 H 782.886 0.129251 0.658434 0
M  V30 8435 H 785.43 1.0016 1.78293 0
M  V30 8436 H 783.585 -0.364251 3.85684 0
M  V30 8437 H 783.999 1.51909 5.0202 0
M  V30 8438 H 785.473 -0.116814 5.51876 0
M  V30 8439 H 785.95 -1.21022 4.22197 0
M  V30 8440 H 786.556 0.461968 4.22784 0
M  V30 8441 N 784.871 -1.49948 0.485112 0
M  V30 8442 C 786.148 -1.95186 -0.12726 0
M  V30 8443 C 786.528 -1.42605 -1.5565 0
M  V30 8444 O 785.876 -0.632986 -2.19558 0
M  V30 8445 C 786.086 -3.48955 -0.0562117 0
M  V30 8446 C 787.434 -4.23932 -0.238106 0
M  V30 8447 O 788.458 -3.55955 -0.132145 0
M  V30 8448 O 787.317 -5.44614 -0.453658 0
M  V30 8449 H 784.411 -0.820433 -0.104014 0
M  V30 8450 H 786.957 -1.60659 0.546517 0
M  V30 8451 H 785.729 -3.79814 0.941122 0
M  V30 8452 H 785.352 -3.90056 -0.770834 0
M  V30 8453 N 786.349 -0.21828 -1.56081 0
M  V30 8454 C 787.577 0.419258 -2.02608 0
M  V30 8455 C 787.992 1.53578 -1.09814 0
M  V30 8456 O 787.349 1.82185 -0.107149 0
M  V30 8457 C 787.4 0.953955 -3.48686 0
M  V30 8458 O 787.121 -0.11805 -4.37941 0
M  V30 8459 C 788.622 1.66506 -4.10841 0
M  V30 8460 H 785.842 0.10296 -0.663054 0
M  V30 8461 H 788.386 -0.333776 -2.01758 0
M  V30 8462 H 786.541 1.65727 -3.50162 0
M  V30 8463 H 786.955 0.283359 -5.23734 0
M  V30 8464 H 788.429 1.99123 -5.14834 0
M  V30 8465 H 788.906 2.57705 -3.55647 0
M  V30 8466 H 789.512 1.00703 -4.13206 0
M  V30 8467 N 787.827 1.57504 0.0551401 0
M  V30 8468 C 789.074 1.88055 0.751104 0
M  V30 8469 C 789.402 0.812231 1.76729 0
M  V30 8470 O 788.657 -0.189918 1.94776 0
M  V30 8471 C 788.956 3.25311 1.48013 0
M  V30 8472 C 788.622 4.46858 0.602375 0
M  V30 8473 C 787.284 4.79847 0.360536 0
M  V30 8474 C 789.636 5.212 -0.00524047 0
M  V30 8475 C 786.964 5.84582 -0.498127 0
M  V30 8476 C 789.316 6.26844 -0.851453 0
M  V30 8477 C 787.98 6.58324 -1.103 0
M  V30 8478 H 787.25 0.688142 0.274848 0
M  V30 8479 H 789.897 1.91497 0.0114795 0
M  V30 8480 H 788.202 3.17737 2.29239 0
M  V30 8481 H 789.899 3.46189 2.02371 0
M  V30 8482 H 786.489 4.21049 0.801007 0
M  V30 8483 H 790.673 4.96013 0.168682 0
M  V30 8484 H 785.929 6.07361 -0.701594 0
M  V30 8485 H 790.103 6.83603 -1.32893 0
M  V30 8486 H 787.73 7.39304 -1.77011 0
M  V30 8487 N 789.305 -0.326896 1.54172 0
M  V30 8488 C 790.545 -1.07349 1.73941 0
M  V30 8489 C 790.909 -1.85355 0.50075 0
M  V30 8490 O 792.11 -2.62562 0.575731 0
M  V30 8491 C 790.381 -1.97636 2.97783 0
M  V30 8492 S 791.94 -2.79292 3.3844 0
M  V30 8493 H 788.758 -0.362459 0.611673 0
M  V30 8494 H 791.36 -0.349884 1.92344 0
M  V30 8495 H 790.064 -1.39158 3.86087 0
M  V30 8496 H 789.595 -2.74406 2.81895 0
M  V30 8497 H 791.61 -4.00106 2.93478 0
M  V30 8498 N 790.784 -1.46188 -0.588786 0
M  V30 8499 C 792.012 -1.54743 -1.37339 0
M  V30 8500 C 792.427 -0.186446 -1.87877 0
M  V30 8501 O 791.784 0.815247 -1.63279 0
M  V30 8502 C 791.835 -2.54727 -2.56508 0
M  V30 8503 O 791.556 -3.85539 -2.08066 0
M  V30 8504 C 793.057 -2.73163 -3.49137 0
M  V30 8505 H 790.277 -0.523484 -0.419768 0
M  V30 8506 H 792.821 -1.91543 -0.716345 0
M  V30 8507 H 790.976 -2.20948 -3.18215 0
M  V30 8508 H 791.39 -4.39905 -2.85629 0
M  V30 8509 H 792.864 -3.47057 -4.2925 0
M  V30 8510 H 793.341 -1.79856 -4.00685 0
M  V30 8511 H 793.947 -3.08014 -2.9327 0
M  V30 8512 N 792.262 0.832906 -1.33792 0
M  V30 8513 C 793.508 1.59089 -1.25772 0
M  V30 8514 C 793.841 1.93414 0.174601 0
M  V30 8515 O 793.116 1.59195 1.11746 0
M  V30 8516 C 793.399 2.89699 -2.13885 0
M  V30 8517 C 793.252 2.62017 -3.65605 0
M  V30 8518 C 794.571 3.91182 -2.01654 0
M  V30 8519 H 791.69 0.577232 -0.458227 0
M  V30 8520 H 794.332 0.960227 -1.6395 0
M  V30 8521 H 792.482 3.4352 -1.81456 0
M  V30 8522 H 794.154 2.14582 -4.08353 0
M  V30 8523 H 792.397 1.95621 -3.87189 0
M  V30 8524 H 793.068 3.55112 -4.2261 0
M  V30 8525 H 795.544 3.46684 -2.30107 0
M  V30 8526 H 794.42 4.80391 -2.65548 0
M  V30 8527 H 794.681 4.30861 -0.990536 0
M  V30 8528 N 793.74 1.17359 1.05189 0
M  V30 8529 C 794.67 0.91365 2.14883 0
M  V30 8530 C 795.651 -0.144365 1.69486 0
M  V30 8531 O 796.836 0.00587861 1.94199 0
M  V30 8532 C 793.966 0.426196 3.44675 0
M  V30 8533 C 792.92 1.4234 4.03638 0
M  V30 8534 C 792.246 0.793902 5.28773 0
M  V30 8535 C 793.546 2.7966 4.41121 0
M  V30 8536 H 795.24 1.831 2.36885 0
M  V30 8537 H 792.786 0.881781 1.13845 0
M  V30 8538 H 794.739 0.231767 4.20762 0
M  V30 8539 H 793.463 -0.526693 3.22325 0
M  V30 8540 H 792.122 1.60457 3.2962 0
M  V30 8541 H 791.77 -0.165824 5.02727 0
M  V30 8542 H 791.47 1.45959 5.69183 0
M  V30 8543 H 792.994 0.609747 6.07548 0
M  V30 8544 H 794.408 2.6526 5.08242 0
M  V30 8545 H 792.805 3.42807 4.92548 0
M  V30 8546 H 793.875 3.34068 3.51464 0
M  V30 8547 N 795.218 -1.23913 0.973828 0
M  V30 8548 C 796.128 -2.28838 0.516735 0
M  V30 8549 C 797.144 -1.68723 -0.425282 0
M  V30 8550 O 798.32 -1.99201 -0.296819 0
M  V30 8551 C 795.385 -3.46233 -0.179914 0
M  V30 8552 C 794.446 -4.21729 0.80269 0
M  V30 8553 C 793.679 -5.33518 0.139191 0
M  V30 8554 O 793.902 -5.60252 -1.07118 0
M  V30 8555 O 792.836 -5.96088 0.834447 0
M  V30 8556 H 796.662 -2.70067 1.38916 0
M  V30 8557 H 794.247 -1.2972 0.74115 0
M  V30 8558 H 796.129 -4.17514 -0.570991 0
M  V30 8559 H 794.804 -3.06969 -1.02721 0
M  V30 8560 H 793.711 -3.52799 1.24434 0
M  V30 8561 H 795.044 -4.64825 1.61859 0
M  V30 8562 N 796.696 -0.74468 -1.38897 0
M  V30 8563 C 797.926 -0.306982 -2.04307 0
M  V30 8564 C 798.334 1.06652 -1.56275 0
M  V30 8565 O 797.677 1.68699 -0.72708 0
M  V30 8566 C 797.739 -0.241186 -3.5869 0
M  V30 8567 C 797.403 -1.55476 -4.2974 0
M  V30 8568 C 798.4 -2.50229 -4.55721 0
M  V30 8569 C 796.085 -1.82173 -4.68101 0
M  V30 8570 C 798.079 -3.69905 -5.19085 0
M  V30 8571 C 795.766 -3.02125 -5.31191 0
M  V30 8572 C 796.764 -3.95812 -5.56616 0
M  V30 8573 O 796.452 -5.13656 -6.18395 0
M  V30 8574 H 796.184 -0.130416 -0.663301 0
M  V30 8575 H 798.738 -1.01192 -1.78744 0
M  V30 8576 H 796.968 0.519925 -3.83189 0
M  V30 8577 H 798.657 0.165806 -4.05561 0
M  V30 8578 H 799.423 -2.30877 -4.26522 0
M  V30 8579 H 795.302 -1.10091 -4.47662 0
M  V30 8580 H 798.846 -4.43047 -5.38846 0
M  V30 8581 H 794.743 -3.21374 -5.59811 0
M  V30 8582 H 795.511 -5.14119 -6.36886 0
M  V30 8583 N 798.174 1.49689 -0.493057 0
M  V30 8584 C 799.414 2.04332 0.0527374 0
M  V30 8585 C 799.778 1.36522 1.35003 0
M  V30 8586 O 800.979 1.81842 1.97957 0
M  V30 8587 C 799.25 3.56782 0.210044 0
M  V30 8588 S 800.809 4.32998 0.711232 0
M  V30 8589 H 797.627 0.710978 0.00554853 0
M  V30 8590 H 800.229 1.83835 -0.665213 0
M  V30 8591 H 798.933 4.03681 -0.739566 0
M  V30 8592 H 798.464 3.81671 0.953468 0
M  V30 8593 H 800.479 4.54916 1.98156 0
M  V30 8594 N 799.652 0.226554 1.55963 0
M  V30 8595 C 800.562 -0.692725 2.24139 0
M  V30 8596 C 801.578 -1.20971 1.25068 0
M  V30 8597 O 802.754 -1.25027 1.57893 0
M  V30 8598 C 799.819 -1.88183 2.91184 0
M  V30 8599 C 798.88 -1.40633 4.05612 0
M  V30 8600 C 798.113 -2.53875 4.6945 0
M  V30 8601 O 798.336 -3.72129 4.32292 0
M  V30 8602 O 797.27 -2.24792 5.58348 0
M  V30 8603 H 801.096 -0.141921 3.03368 0
M  V30 8604 H 798.681 -0.0041049 1.49399 0
M  V30 8605 H 800.563 -2.57617 3.33484 0
M  V30 8606 H 799.238 -2.42064 2.14911 0
M  V30 8607 H 798.145 -0.67986 3.67871 0
M  V30 8608 H 799.478 -0.913838 4.83642 0
M  V30 8609 N 801.13 -1.57531 -0.0467866 0
M  V30 8610 C 802.378 -1.88078 -0.739656 0
M  V30 8611 C 802.699 -0.821936 -1.76831 0
M  V30 8612 O 801.969 0.146582 -1.95351 0
M  V30 8613 H 800.549 -0.694075 -0.276169 0
M  V30 8614 H 803.211 -1.94893 -0.0169391 0
M  V30 8615 H 802.307 -2.86396 -1.24031 0
M  V30 8616 N 802.608 0.318715 -1.54344 0
M  V30 8617 C 803.556 1.41254 -1.84798 0
M  V30 8618 C 804.55 1.53325 -0.720256 0
M  V30 8619 O 805.756 1.55653 -0.903992 0
M  V30 8620 H 802.131 0.471468 -0.585851 0
M  V30 8621 H 804.102 1.12795 -2.7626 0
M  V30 8622 C 802.851 2.77395 -2.09637 0
M  V30 8623 H 802.174 2.68881 -2.95876 0
M  V30 8624 H 803.614 3.52987 -2.34896 0
M  V30 8625 C 802.073 3.24948 -0.889398 0
M  V30 8626 O 802.603 4.01573 -0.101063 0
M  V30 8627 N 800.809 2.82051 -0.699684 0
M  V30 8628 H 800.356 2.19858 -1.3424 0
M  V30 8629 H 800.314 3.1422 0.106368 0
M  V30 8630 N 804.086 1.46499 0.581025 0
M  V30 8631 C 805.363 1.42372 1.34125 0
M  V30 8632 C 805.743 0.108073 2.10823 0
M  V30 8633 O 805.091 -0.910366 2.09582 0
M  V30 8634 C 805.301 2.65445 2.26583 0
M  V30 8635 C 806.649 3.11664 2.88359 0
M  V30 8636 O 807.673 2.66006 2.36896 0
M  V30 8637 O 806.532 3.90974 3.81839 0
M  V30 8638 H 803.626 0.566262 0.602724 0
M  V30 8639 H 806.172 1.58667 0.601903 0
M  V30 8640 H 804.944 3.52756 1.69348 0
M  V30 8641 H 804.567 2.51618 3.07854 0
M  V30 8642 N 805.565 -0.825799 1.34232 0
M  V30 8643 C 806.495 -1.95151 1.28212 0
M  V30 8644 C 807.476 -1.69345 0.160123 0
M  V30 8645 O 808.661 -1.90983 0.352019 0
M  V30 8646 C 805.791 -3.31554 1.03388 0
M  V30 8647 C 804.745 -3.71793 2.12023 0
M  V30 8648 C 804.071 -5.06147 1.72392 0
M  V30 8649 C 805.371 -3.84193 3.53826 0
M  V30 8650 H 807.065 -2.00445 2.22401 0
M  V30 8651 H 804.611 -0.962996 1.07063 0
M  V30 8652 H 806.564 -4.09889 0.978225 0
M  V30 8653 H 805.288 -3.26551 0.0564142 0
M  V30 8654 H 803.947 -2.95731 2.16654 0
M  V30 8655 H 803.595 -4.97628 0.733137 0
M  V30 8656 H 803.295 -5.34041 2.451 0
M  V30 8657 H 804.819 -5.86943 1.68317 0
M  V30 8658 H 806.233 -4.52806 3.51624 0
M  V30 8659 H 804.63 -4.23538 4.2513 0
M  V30 8660 H 805.7 -2.86272 3.91377 0
M  V30 8661 N 807.043 -1.17915 -1.04565 0
M  V30 8662 C 808.32 -0.881187 -1.74627 0
M  V30 8663 C 808.7 0.617123 -2.01878 0
M  V30 8664 O 808.048 1.57032 -1.65991 0
M  V30 8665 C 808.258 -1.72299 -3.03503 0
M  V30 8666 C 809.606 -1.94688 -3.77335 0
M  V30 8667 O 810.63 -1.6931 -3.13389 0
M  V30 8668 O 809.489 -2.37379 -4.92253 0
M  V30 8669 H 806.583 -0.326864 -0.759664 0
M  V30 8670 H 809.129 -1.28642 -1.10676 0
M  V30 8671 H 807.901 -2.73891 -2.79462 0
M  V30 8672 H 807.524 -1.31593 -3.75192 0
M  V30 8673 N 808.521 1.23394 -0.980386 0
M  V30 8674 C 809.768 1.91809 -0.649261 0
M  V30 8675 C 810.096 1.765 0.817197 0
M  V30 8676 O 809.351 1.11979 1.60497 0
M  V30 8677 C 809.65 3.43542 -0.985588 0
M  V30 8678 C 809.316 3.79031 -2.44225 0
M  V30 8679 C 807.978 3.88429 -2.84035 0
M  V30 8680 C 810.33 3.96145 -3.38702 0
M  V30 8681 C 807.658 4.12368 -4.17336 0
M  V30 8682 C 810.01 4.21583 -4.71646 0
M  V30 8683 C 808.674 4.29203 -5.11215 0
M  V30 8684 H 807.944 0.70188 -0.237581 0
M  V30 8685 H 810.591 1.4642 -1.23424 0
M  V30 8686 H 808.896 3.90503 -0.318521 0
M  V30 8687 H 810.593 3.94708 -0.707596 0
M  V30 8688 H 807.183 3.7229 -2.12362 0
M  V30 8689 H 811.367 3.88274 -3.09123 0
M  V30 8690 H 806.623 4.1649 -4.47601 0
M  V30 8691 H 810.797 4.33769 -5.4481 0
M  V30 8692 H 808.424 4.47505 -6.14527 0
M  V30 8693 N 809.999 0.752036 1.385 0
M  V30 8694 C 811.229 0.317812 2.04141 0
M  V30 8695 C 811.637 -1.05822 1.56839 0
M  V30 8696 O 810.98 -1.68311 0.736016 0
M  V30 8697 C 811.042 0.260205 3.58557 0
M  V30 8698 C 810.706 1.57753 4.28909 0
M  V30 8699 C 811.703 2.52642 4.54387 0
M  V30 8700 C 809.388 1.84653 4.67128 0
M  V30 8701 C 811.382 3.72653 5.17116 0
M  V30 8702 C 809.069 3.04938 5.29581 0
M  V30 8703 C 810.067 3.98759 5.54509 0
M  V30 8704 O 809.755 5.16929 6.15662 0
M  V30 8705 H 809.487 0.133931 0.6626 0
M  V30 8706 H 812.041 1.02138 1.78205 0
M  V30 8707 H 810.271 -0.499596 3.83459 0
M  V30 8708 H 811.96 -0.144295 4.05643 0
M  V30 8709 H 812.726 2.33135 4.25292 0
M  V30 8710 H 808.605 1.12464 4.47071 0
M  V30 8711 H 812.149 4.45898 5.36489 0
M  V30 8712 H 808.046 3.24339 5.58099 0
M  V30 8713 H 808.814 5.1749 6.3415 0
M  V30 8714 N 811.477 -1.49425 0.500989 0
M  V30 8715 C 812.407 -2.31971 -0.266775 0
M  V30 8716 C 813.388 -1.40245 -0.962563 0
M  V30 8717 O 814.573 -1.69154 -0.953968 0
M  V30 8718 C 811.703 -3.20757 -1.33163 0
M  V30 8719 C 810.657 -4.21275 -0.75572 0
M  V30 8720 C 809.983 -4.98997 -1.92109 0
M  V30 8721 C 811.283 -5.21686 0.253213 0
M  V30 8722 H 812.977 -2.96408 0.422237 0
M  V30 8723 H 810.523 -1.4254 0.204505 0
M  V30 8724 H 812.476 -3.77315 -1.87646 0
M  V30 8725 H 811.2 -2.54263 -2.04983 0
M  V30 8726 H 809.859 -3.65861 -0.232637 0
M  V30 8727 H 809.507 -4.28951 -2.62698 0
M  V30 8728 H 809.207 -5.67011 -1.54182 0
M  V30 8729 H 810.731 -5.584 -2.47026 0
M  V30 8730 H 812.145 -5.72939 -0.203483 0
M  V30 8731 H 810.542 -5.9759 0.548322 0
M  V30 8732 H 811.612 -4.70596 1.16909 0
M  V30 8733 N 812.955 -0.234822 -1.55841 0
M  V30 8734 C 813.902 0.6698 -2.20867 0
M  V30 8735 C 814.872 1.18042 -1.16856 0
M  V30 8736 O 816.057 1.23709 -1.45261 0
M  V30 8737 C 813.197 1.86646 -2.90271 0
M  V30 8738 C 812.31 1.39351 -4.08908 0
M  V30 8739 C 811.445 2.54878 -4.66059 0
M  V30 8740 C 810.484 2.04384 -5.76969 0
M  V30 8741 N 809.621 3.13233 -6.28355 0
M  V30 8742 H 814.461 0.10858 -2.97802 0
M  V30 8743 H 811.998 0.041836 -1.4704 0
M  V30 8744 H 813.956 2.56926 -3.28702 0
M  V30 8745 H 812.586 2.40035 -2.15831 0
M  V30 8746 H 811.638 0.585173 -3.75872 0
M  V30 8747 H 812.95 0.983356 -4.89011 0
M  V30 8748 H 812.104 3.33219 -5.07001 0
M  V30 8749 H 810.843 2.99188 -3.85146 0
M  V30 8750 H 809.848 1.24509 -5.35516 0
M  V30 8751 H 811.073 1.61057 -6.59725 0
M  V30 8752 H 809.019 3.57 -5.50352 0
M  V30 8753 H 808.936 2.76511 -7.03618 0
M  V30 8754 H 810.204 3.91669 -6.73955 0
M  V30 8755 N 814.433 1.57553 0.0384317 0
M  V30 8756 C 815.365 2.02726 1.06934 0
M  V30 8757 C 816.378 0.938502 1.33026 0
M  V30 8758 O 817.567 1.21595 1.30678 0
M  V30 8759 C 814.667 2.37958 2.41308 0
M  V30 8760 C 813.84 3.69098 2.34703 0
M  V30 8761 C 812.899 3.91623 3.51451 0
M  V30 8762 O 811.925 4.628 3.31368 0
M  V30 8763 N 813.127 3.36538 4.72993 0
M  V30 8764 H 815.892 2.91781 0.684381 0
M  V30 8765 H 813.453 1.60307 0.226542 0
M  V30 8766 H 815.445 2.50172 3.18113 0
M  V30 8767 H 814.015 1.54621 2.71682 0
M  V30 8768 H 813.235 3.67325 1.43059 0
M  V30 8769 H 814.523 4.55144 2.27424 0
M  V30 8770 H 813.921 2.78828 4.92211 0
M  V30 8771 H 812.478 3.54148 5.47195 0
M  V30 8772 N 815.911 -0.310526 1.54511 0
M  V30 8773 C 816.861 -1.38405 1.81185 0
M  V30 8774 C 817.845 -1.46355 0.668499 0
M  V30 8775 O 819.037 -1.50668 0.928873 0
M  V30 8776 C 816.166 -2.75059 2.0542 0
M  V30 8777 C 815.252 -2.7137 3.25913 0
M  V30 8778 N 815.643 -2.37298 4.4668 0
M  V30 8779 C 813.941 -3.02484 3.27749 0
M  V30 8780 C 814.642 -2.42669 5.28665 0
M  V30 8781 N 813.618 -2.79639 4.66158 0
M  V30 8782 H 817.42 -1.11012 2.72128 0
M  V30 8783 H 814.934 -0.519068 1.53881 0
M  V30 8784 H 816.931 -3.52451 2.22674 0
M  V30 8785 H 815.591 -3.03372 1.15739 0
M  V30 8786 H 816.602 -2.09917 4.73451 0
M  V30 8787 H 813.279 -3.35754 2.48144 0
M  V30 8788 H 814.669 -2.19206 6.35136 0
M  V30 8789 N 817.389 -1.46805 -0.573248 0
M  V30 8790 C 818.336 -1.58084 -1.68161 0
M  V30 8791 C 819.306 -0.424636 -1.6058 0
M  V30 8792 O 820.491 -0.642623 -1.79652 0
M  V30 8793 C 817.631 -1.58601 -3.06496 0
M  V30 8794 C 816.744 -2.85023 -3.24632 0
M  V30 8795 C 815.879 -2.76981 -4.53271 0
M  V30 8796 C 814.918 -3.983 -4.64783 0
M  V30 8797 N 814.055 -3.88589 -5.84759 0
M  V30 8798 H 818.895 -2.52755 -1.57858 0
M  V30 8799 H 816.432 -1.25385 -0.769218 0
M  V30 8800 H 818.39 -1.56885 -3.86579 0
M  V30 8801 H 817.02 -0.674553 -3.15673 0
M  V30 8802 H 816.072 -2.96678 -2.38089 0
M  V30 8803 H 817.384 -3.7491 -3.29004 0
M  V30 8804 H 816.538 -2.73424 -5.41594 0
M  V30 8805 H 815.277 -1.84751 -4.51352 0
M  V30 8806 H 814.282 -4.02179 -3.74876 0
M  V30 8807 H 815.507 -4.91639 -4.68474 0
M  V30 8808 H 813.453 -2.99151 -5.83819 0
M  V30 8809 H 813.37 -4.7214 -5.90441 0
M  V30 8810 H 814.638 -3.89022 -6.75486 0
M  V30 8811 N 818.867 0.818669 -1.34668 0
M  V30 8812 C 819.797 1.94468 -1.29245 0
M  V30 8813 C 820.778 1.69257 -0.169101 0
M  V30 8814 O 821.963 1.90794 -0.362143 0
M  V30 8815 C 819.093 3.31001 -1.05145 0
M  V30 8816 C 818.047 3.70663 -2.13992 0
M  V30 8817 C 817.373 5.05226 -1.75074 0
M  V30 8818 C 818.673 3.82312 -3.55858 0
M  V30 8819 H 820.367 1.99263 -2.2346 0
M  V30 8820 H 817.913 0.957304 -1.07572 0
M  V30 8821 H 819.866 4.09364 -0.999949 0
M  V30 8822 H 818.59 3.26517 -0.0737312 0
M  V30 8823 H 817.249 2.94578 -2.18219 0
M  V30 8824 H 816.897 4.97233 -0.759518 0
M  V30 8825 H 816.597 5.32734 -2.47928 0
M  V30 8826 H 818.121 5.86042 -1.71427 0
M  V30 8827 H 819.535 4.50935 -3.5402 0
M  V30 8828 H 817.932 4.21278 -4.2737 0
M  V30 8829 H 819.002 2.84193 -3.9289 0
M  V30 8830 N 820.346 1.18468 1.03938 0
M  V30 8831 C 821.279 0.856251 2.11527 0
M  V30 8832 C 822.257 -0.182323 1.61575 0
M  V30 8833 O 823.441 -0.061 1.88401 0
M  V30 8834 C 820.568 0.279562 3.37544 0
M  V30 8835 C 819.614 1.29552 4.06348 0
M  V30 8836 S 820.447 2.85191 4.5324 0
M  V30 8837 C 821.603 2.29037 5.82489 0
M  V30 8838 H 821.836 1.76742 2.39059 0
M  V30 8839 H 819.369 1.01068 1.16725 0
M  V30 8840 H 821.327 -0.0466579 4.10473 0
M  V30 8841 H 819.988 -0.60975 3.08125 0
M  V30 8842 H 819.181 0.840922 4.96935 0
M  V30 8843 H 818.783 1.56804 3.39541 0
M  V30 8844 H 821.075 1.67376 6.565 0
M  V30 8845 H 822.018 3.17929 6.32714 0
M  V30 8846 H 822.426 1.72009 5.37655 0
M  V30 8847 N 821.824 -1.22873 0.986916 0
M  V30 8848 C 823.049 -1.96028 0.677341 0
M  V30 8849 C 823.474 -1.72487 -0.750319 0
M  V30 8850 O 822.832 -1.00036 -1.51203 0
M  V30 8851 C 822.88 -3.46983 0.981593 0
M  V30 8852 O 821.984 -4.12328 0.0770729 0
M  V30 8853 H 821.325 -0.613458 0.254096 0
M  V30 8854 H 823.855 -1.56132 1.32227 0
M  V30 8855 H 823.865 -3.9747 0.920969 0
M  V30 8856 H 822.54 -3.63442 2.02194 0
M  V30 8857 H 821.117 -3.72402 0.192666 0
M  V30 8858 N 823.302 -0.75937 -1.38099 0
M  V30 8859 C 824.212 -0.13774 -2.34195 0
M  V30 8860 C 825.228 0.693985 -1.59561 0
M  V30 8861 O 826.404 0.616792 -1.91723 0
M  V30 8862 C 823.469 0.740535 -3.38699 0
M  V30 8863 C 822.53 -0.106225 -4.29169 0
M  V30 8864 C 821.763 0.730225 -5.28681 0
M  V30 8865 O 821.986 1.96796 -5.35376 0
M  V30 8866 O 820.92 0.145969 -6.01723 0
M  V30 8867 H 824.746 -0.931512 -2.89061 0
M  V30 8868 H 822.331 -0.520345 -1.40046 0
M  V30 8869 H 824.213 1.24232 -4.02672 0
M  V30 8870 H 822.888 1.51271 -2.8618 0
M  V30 8871 H 821.795 -0.654088 -3.68337 0
M  V30 8872 H 823.128 -0.841186 -4.84959 0
M  V30 8873 N 824.78 1.49157 -0.508906 0
M  V30 8874 C 825.727 2.2927 0.265288 0
M  V30 8875 C 826.697 1.3603 0.953162 0
M  V30 8876 O 827.882 1.64989 0.958291 0
M  V30 8877 C 825.022 3.18897 1.31904 0
M  V30 8878 C 824.135 4.27201 0.642144 0
M  V30 8879 C 823.27 5.04033 1.67701 0
M  V30 8880 C 822.309 6.04165 0.982422 0
M  V30 8881 N 821.446 6.74133 1.96186 0
M  V30 8882 H 826.286 2.94967 -0.424107 0
M  V30 8883 H 823.823 1.45431 -0.220991 0
M  V30 8884 H 825.781 3.69242 1.94206 0
M  V30 8885 H 824.411 2.55168 1.97709 0
M  V30 8886 H 823.463 3.80283 -0.0943395 0
M  V30 8887 H 824.775 4.98708 0.0957507 0
M  V30 8888 H 823.929 5.58287 2.37487 0
M  V30 8889 H 822.668 4.32317 2.25728 0
M  V30 8890 H 821.673 5.49135 0.270378 0
M  V30 8891 H 822.898 6.7787 0.408554 0
M  V30 8892 H 820.844 6.05183 2.53159 0
M  V30 8893 H 820.761 7.41643 1.46634 0
M  V30 8894 H 822.029 7.32987 2.65236 0
M  V30 8895 N 826.258 0.243083 1.55714 0
M  V30 8896 C 827.168 -0.668913 2.24862 0
M  V30 8897 C 828.184 -1.19638 1.26344 0
M  V30 8898 O 829.36 -1.23345 1.5921 0
M  V30 8899 C 826.425 -1.85084 2.93163 0
M  V30 8900 C 825.486 -1.36323 4.07081 0
M  V30 8901 C 824.719 -2.48882 4.72116 0
M  V30 8902 O 824.942 -3.67523 4.36214 0
M  V30 8903 O 823.876 -2.18857 5.60701 0
M  V30 8904 H 827.702 -0.109737 3.03502 0
M  V30 8905 H 825.287 0.0117411 1.49395 0
M  V30 8906 H 827.169 -2.54065 3.36197 0
M  V30 8907 H 825.844 -2.39771 2.17466 0
M  V30 8908 H 824.751 -0.640804 3.68571 0
M  V30 8909 H 826.084 -0.86249 4.84584 0
M  V30 8910 N 827.736 -1.57571 -0.0300757 0
M  V30 8911 C 828.699 -2.05468 -1.01565 0
M  V30 8912 C 829.699 -0.958628 -1.29101 0
M  V30 8913 O 830.889 -1.22228 -1.24121 0
M  V30 8914 C 828.021 -2.47077 -2.34874 0
M  V30 8915 H 829.214 -2.93797 -0.601936 0
M  V30 8916 H 826.767 -1.53828 -0.276878 0
M  V30 8917 H 827.502 -1.61901 -2.80996 0
M  V30 8918 H 827.287 -3.27097 -2.16218 0
M  V30 8919 H 828.777 -2.84564 -3.05635 0
M  V30 8920 N 829.214 0.302327 -1.54673 0
M  V30 8921 C 830.63 0.647911 -1.45857 0
M  V30 8922 C 830.83 1.90773 -0.64869 0
M  V30 8923 O 829.886 2.52018 -0.155865 0
M  V30 8924 C 831.199 0.802144 -2.89804 0
M  V30 8925 C 832.747 0.898114 -2.99838 0
M  V30 8926 C 833.222 1.08436 -4.44978 0
M  V30 8927 N 834.713 1.15059 -4.48682 0
M  V30 8928 C 835.448 1.31296 -5.58166 0
M  V30 8929 N 834.944 1.4444 -6.77576 0
M  V30 8930 N 836.737 1.34174 -5.45851 0
M  V30 8931 H 828.888 -0.525428 -2.05798 0
M  V30 8932 H 831.151 -0.173423 -0.932002 0
M  V30 8933 H 830.857 -0.0526531 -3.51661 0
M  V30 8934 H 830.731 1.69155 -3.37145 0
M  V30 8935 H 833.118 1.7434 -2.38096 0
M  V30 8936 H 833.199 -0.0152752 -2.55795 0
M  V30 8937 H 832.843 0.243843 -5.07314 0
M  V30 8938 H 832.773 2.01195 -4.8665 0
M  V30 8939 H 835.264 1.0626 -3.62653 0
M  V30 8940 H 835.577 1.56582 -7.56771 0
M  V30 8941 H 833.922 1.41499 -6.80443 0
M  V30 8942 H 837.113 1.23516 -4.5151 0
M  V30 8943 H 837.286 1.46485 -6.31226 0
M  V30 8944 N 830.692 1.47107 0.565454 0
M  V30 8945 C 831.917 1.57153 1.35343 0
M  V30 8946 C 832.342 0.219247 1.86818 0
M  V30 8947 O 831.7 -0.803539 1.62521 0
M  V30 8948 C 831.748 2.59387 2.50501 0
M  V30 8949 O 830.852 2.14086 3.52478 0
M  V30 8950 H 830.193 0.528209 0.402357 0
M  V30 8951 H 832.723 1.92821 0.684189 0
M  V30 8952 H 832.733 2.79546 2.97184 0
M  V30 8953 H 831.408 3.57579 2.12391 0
M  V30 8954 H 829.985 2.03991 3.12157 0
M  V30 8955 N 832.17 -0.811516 1.35101 0
M  V30 8956 C 833.419 -1.56343 1.27435 0
M  V30 8957 C 833.732 -1.95019 -0.150696 0
M  V30 8958 O 834.938 -2.6924 -0.349586 0
M  V30 8959 C 833.394 -2.82124 2.23459 0
M  V30 8960 C 833.002 -2.50706 3.71283 0
M  V30 8961 C 834.746 -3.60137 2.24726 0
M  V30 8962 C 832.653 -3.72748 4.59143 0
M  V30 8963 H 831.583 -0.58682 0.473453 0
M  V30 8964 H 834.234 -0.892465 1.60335 0
M  V30 8965 H 832.616 -3.50905 1.83525 0
M  V30 8966 H 833.79 -1.89962 4.19823 0
M  V30 8967 H 832.105 -1.85947 3.72576 0
M  V30 8968 H 834.702 -4.50775 2.87587 0
M  V30 8969 H 835.045 -3.97101 1.24965 0
M  V30 8970 H 835.578 -2.98311 2.63164 0
M  V30 8971 H 832.317 -3.40896 5.59884 0
M  V30 8972 H 831.837 -4.32735 4.15332 0
M  V30 8973 H 833.516 -4.40033 4.74321 0
M  V30 8974 N 833.648 -1.19017 -1.03309 0
M  V30 8975 C 834.894 -0.991681 -1.769 0
M  V30 8976 C 835.227 0.476813 -1.88255 0
M  V30 8977 O 834.502 1.35407 -1.39625 0
M  V30 8978 C 834.785 -1.65627 -3.19749 0
M  V30 8979 C 834.638 -3.19813 -3.1629 0
M  V30 8980 C 835.957 -1.37579 -4.18043 0
M  V30 8981 H 833.076 -0.361674 -0.642153 0
M  V30 8982 H 835.718 -1.46795 -1.20628 0
M  V30 8983 H 833.868 -1.25132 -3.67796 0
M  V30 8984 H 835.54 -3.69494 -2.76174 0
M  V30 8985 H 833.783 -3.51578 -2.54117 0
M  V30 8986 H 834.454 -3.61457 -4.17196 0
M  V30 8987 H 836.93 -1.72679 -3.78578 0
M  V30 8988 H 835.806 -1.86636 -5.16196 0
M  V30 8989 H 836.067 -0.300118 -4.4108 0
M  V30 8990 N 835.127 1.22348 -0.993418 0
M  V30 8991 C 836.06 2.22898 -0.489073 0
M  V30 8992 C 837.038 1.56222 0.450927 0
M  V30 8993 O 838.222 1.84705 0.376351 0
M  V30 8994 C 835.349 3.37448 0.290946 0
M  V30 8995 C 834.395 4.22328 -0.595123 0
M  V30 8996 S 835.228 4.94677 -2.05072 0
M  V30 8997 C 836.384 6.12667 -1.28021 0
M  V30 8998 H 836.617 2.65333 -1.34111 0
M  V30 8999 H 834.15 1.32032 -0.800429 0
M  V30 9000 H 836.108 4.03867 0.734944 0
M  V30 9001 H 834.769 2.93519 1.11826 0
M  V30 9002 H 833.962 5.04 0.00507413 0
M  V30 9003 H 833.564 3.61043 -0.975906 0
M  V30 9004 H 835.856 6.75279 -0.548129 0
M  V30 9005 H 836.799 6.771 -2.07223 0
M  V30 9006 H 837.207 5.58898 -0.793272 0
M  V30 9007 N 836.605 0.766683 1.37694 0
M  V30 9008 C 837.537 0.107798 2.28946 0
M  V30 9009 C 838.55 -0.669701 1.48387 0
M  V30 9010 O 839.739 -0.508629 1.711 0
M  V30 9011 C 836.839 -0.871084 3.27514 0
M  V30 9012 C 836.012 -0.148471 4.37148 0
M  V30 9013 C 835.071 -1.03998 5.1582 0
M  V30 9014 O 834.097 -0.505639 5.6695 0
M  V30 9015 N 835.299 -2.36679 5.3006 0
M  V30 9016 H 838.064 0.89154 2.86132 0
M  V30 9017 H 835.625 0.618593 1.49616 0
M  V30 9018 H 837.617 -1.47081 3.77027 0
M  V30 9019 H 836.187 -1.55582 2.71133 0
M  V30 9020 H 835.407 0.632117 3.89099 0
M  V30 9021 H 836.695 0.351045 5.07588 0
M  V30 9022 H 836.093 -2.82532 4.90094 0
M  V30 9023 H 834.65 -2.9167 5.82899 0
M  V30 9024 N 838.083 -1.48885 0.516809 0
M  V30 9025 C 839.332 -2.01686 -0.0239899 0
M  V30 9026 C 839.645 -1.40029 -1.3657 0
M  V30 9027 O 840.851 -1.84249 -1.9941 0
M  V30 9028 C 839.307 -3.59779 -0.0931825 0
M  V30 9029 C 838.915 -4.30416 1.24283 0
M  V30 9030 C 840.659 -4.20471 -0.583507 0
M  V30 9031 C 838.566 -5.80408 1.13494 0
M  V30 9032 H 837.496 -0.753892 -0.0127376 0
M  V30 9033 H 840.147 -1.71273 0.65861 0
M  V30 9034 H 838.529 -3.86976 -0.840577 0
M  V30 9035 H 839.703 -4.14905 2.00476 0
M  V30 9036 H 838.018 -3.81539 1.66785 0
M  V30 9037 H 840.615 -5.30333 -0.681987 0
M  V30 9038 H 840.958 -3.84898 -1.58617 0
M  V30 9039 H 841.491 -3.97654 0.107814 0
M  V30 9040 H 838.23 -6.20532 2.11235 0
M  V30 9041 H 837.75 -5.98368 0.414167 0
M  V30 9042 H 839.429 -6.41781 0.820162 0
M  V30 9043 N 839.561 -0.251338 -1.55583 0
M  V30 9044 C 840.807 0.37272 -1.99346 0
M  V30 9045 C 841.14 1.57266 -1.13934 0
M  V30 9046 O 840.415 1.9343 -0.20377 0
M  V30 9047 C 840.698 0.778245 -3.5159 0
M  V30 9048 C 840.551 -0.427394 -4.47765 0
M  V30 9049 C 841.87 1.62358 -4.09057 0
M  V30 9050 H 838.989 0.134002 -0.724715 0
M  V30 9051 H 841.631 -0.353536 -1.86682 0
M  V30 9052 H 839.781 1.39704 -3.62512 0
M  V30 9053 H 841.453 -1.06586 -4.48818 0
M  V30 9054 H 839.696 -1.06972 -4.20404 0
M  V30 9055 H 840.367 -0.10025 -5.51909 0
M  V30 9056 H 842.843 1.1012 -4.01264 0
M  V30 9057 H 841.719 1.87617 -5.1584 0
M  V30 9058 H 841.98 2.59688 -3.57791 0
M  V30 9059 N 841.039 1.57585 0.0217189 0
M  V30 9060 C 841.987 2.08134 1.03842 0
M  V30 9061 C 842.981 0.996662 1.36978 0
M  V30 9062 O 844.187 1.18149 1.35797 0
M  V30 9063 H 840.562 0.664298 0.352438 0
M  V30 9064 H 842.533 2.92583 0.58634 0
M  V30 9065 C 841.282 2.58218 2.32849 0
M  V30 9066 H 840.605 3.41302 2.08214 0
M  V30 9067 H 842.045 2.97289 3.02316 0
M  V30 9068 C 840.504 1.48664 3.02325 0
M  V30 9069 O 841.034 0.857075 3.9245 0
M  V30 9070 N 839.24 1.21938 2.63779 0
M  V30 9071 H 838.787 1.73319 1.90574 0
M  V30 9072 H 838.745 0.488523 3.10581 0
M  V30 9073 N 842.517 -0.29412 1.54831 0
M  V30 9074 C 843.48 -1.3461 1.85507 0
M  V30 9075 C 844.48 -1.43359 0.728343 0
M  V30 9076 O 845.67 -1.42875 0.996609 0
M  V30 9077 C 842.802 -2.73012 2.0415 0
M  V30 9078 H 843.995 -1.08651 2.79526 0
M  V30 9079 H 841.548 -0.531138 1.46999 0
M  V30 9080 H 842.283 -3.04183 1.12441 0
M  V30 9081 H 842.068 -2.68051 2.86166 0
M  V30 9082 H 843.558 -3.49061 2.29229 0
M  V30 9083 N 843.995 -1.47404 -0.557645 0
M  V30 9084 C 844.925 -1.62736 -1.67449 0
M  V30 9085 C 845.906 -0.476824 -1.6328 0
M  V30 9086 O 847.091 -0.706108 -1.80908 0
M  V30 9087 C 844.221 -1.641 -3.06086 0
M  V30 9088 C 843.175 -2.78377 -3.25101 0
M  V30 9089 C 842.501 -2.64812 -4.6452 0
M  V30 9090 C 843.801 -4.19971 -3.10518 0
M  V30 9091 H 845.495 -2.56232 -1.54873 0
M  V30 9092 H 843.041 -1.23312 -0.743649 0
M  V30 9093 H 844.994 -1.73417 -3.84063 0
M  V30 9094 H 843.718 -0.671652 -3.19619 0
M  V30 9095 H 842.377 -2.6857 -2.49531 0
M  V30 9096 H 842.025 -1.65906 -4.74852 0
M  V30 9097 H 841.725 -3.41477 -4.78191 0
M  V30 9098 H 843.249 -2.76057 -5.44633 0
M  V30 9099 H 844.663 -4.30757 -3.78313 0
M  V30 9100 H 843.06 -4.97419 -3.35699 0
M  V30 9101 H 844.13 -4.38369 -2.0727 0
M  V30 9102 N 845.473 0.80434 -1.35529 0
M  V30 9103 C 846.889 1.10023 -1.15616 0
M  V30 9104 C 847.089 2.01478 0.0298535 0
M  V30 9105 O 846.145 2.42609 0.699778 0
M  V30 9106 C 847.458 1.72905 -2.46017 0
M  V30 9107 C 849.006 1.85315 -2.52245 0
M  V30 9108 C 849.481 2.51612 -3.82695 0
M  V30 9109 N 850.972 2.59095 -3.83958 0
M  V30 9110 C 851.707 3.11167 -4.81625 0
M  V30 9111 N 851.203 3.63659 -5.89681 0
M  V30 9112 N 852.996 3.09741 -4.6906 0
M  V30 9113 H 845.147 0.196428 -2.1149 0
M  V30 9114 H 847.41 0.149735 -0.9361 0
M  V30 9115 H 847.116 1.13171 -3.32994 0
M  V30 9116 H 846.99 2.72579 -2.6073 0
M  V30 9117 H 849.377 2.44191 -1.65695 0
M  V30 9118 H 849.458 0.844886 -2.41444 0
M  V30 9119 H 849.102 1.93385 -4.69643 0
M  V30 9120 H 849.032 3.5298 -3.90785 0
M  V30 9121 H 851.523 2.21908 -3.05884 0
M  V30 9122 H 851.836 4.01699 -6.60195 0
M  V30 9123 H 850.181 3.61852 -5.9337 0
M  V30 9124 H 853.372 2.68011 -3.83781 0
M  V30 9125 H 853.545 3.50016 -5.45338 0
M  V30 9126 N 846.951 1.19563 1.02676 0
M  V30 9127 C 848.181 1.0234 1.79472 0
M  V30 9128 C 848.589 -0.430891 1.84228 0
M  V30 9129 O 847.932 -1.31106 1.28674 0
M  V30 9130 C 847.994 1.51901 3.25832 0
M  V30 9131 C 847.658 3.00045 3.44706 0
M  V30 9132 C 848.655 3.9779 3.34752 0
M  V30 9133 C 846.34 3.38784 3.70851 0
M  V30 9134 C 848.334 5.32267 3.50672 0
M  V30 9135 C 846.021 4.73419 3.86416 0
M  V30 9136 C 847.019 5.69969 3.7633 0
M  V30 9137 O 846.707 7.02165 3.91432 0
M  V30 9138 H 846.439 0.360936 0.571578 0
M  V30 9139 H 848.993 1.58863 1.30198 0
M  V30 9140 H 847.223 0.897546 3.7614 0
M  V30 9141 H 848.912 1.30853 3.84229 0
M  V30 9142 H 849.678 3.69207 3.14502 0
M  V30 9143 H 845.557 2.64183 3.77794 0
M  V30 9144 H 849.101 6.07612 3.42715 0
M  V30 9145 H 844.998 5.01697 4.06165 0
M  V30 9146 H 845.766 7.09268 4.08511 0
M  V30 9147 N 848.429 -1.21819 0.999893 0
M  V30 9148 C 849.359 -2.26282 0.576096 0
M  V30 9149 C 850.34 -1.65317 -0.400537 0
M  V30 9150 O 851.525 -1.92028 -0.28964 0
M  V30 9151 C 848.655 -3.47147 -0.103145 0
M  V30 9152 C 847.609 -4.20594 0.792745 0
M  V30 9153 C 846.935 -5.34696 -0.0198026 0
M  V30 9154 C 848.235 -4.78533 2.09293 0
M  V30 9155 H 849.929 -2.61984 1.4493 0
M  V30 9156 H 847.475 -1.25935 0.698316 0
M  V30 9157 H 849.428 -4.1939 -0.411068 0
M  V30 9158 H 848.152 -3.1056 -1.01094 0
M  V30 9159 H 846.811 -3.50194 1.08442 0
M  V30 9160 H 846.459 -4.94352 -0.928729 0
M  V30 9161 H 846.159 -5.84764 0.576661 0
M  V30 9162 H 847.683 -6.09752 -0.321659 0
M  V30 9163 H 849.097 -5.42682 1.8485 0
M  V30 9164 H 847.494 -5.38968 2.63881 0
M  V30 9165 H 848.564 -3.98197 2.76708 0
M  V30 9166 N 849.908 -0.773975 -1.37286 0
M  V30 9167 C 850.856 -0.149581 -2.32119 0
M  V30 9168 C 851.85 0.682457 -1.55045 0
M  V30 9169 O 853.056 0.579269 -1.70424 0
M  V30 9170 H 849.431 -0.0295857 -0.751418 0
M  V30 9171 H 851.402 -0.965117 -2.82362 0
M  V30 9172 C 850.151 0.713409 -3.40302 0
M  V30 9173 H 849.474 0.0825416 -3.99715 0
M  V30 9174 H 850.914 1.11723 -4.09016 0
M  V30 9175 C 849.373 1.86498 -2.80571 0
M  V30 9176 O 849.903 2.9606 -2.71498 0
M  V30 9177 N 848.109 1.66629 -2.38082 0
M  V30 9178 H 847.656 0.775145 -2.45661 0
M  V30 9179 H 847.614 2.43845 -1.98461 0
M  V30 9180 N 851.386 1.48609 -0.524698 0
M  V30 9181 C 852.296 2.33318 0.244923 0
M  V30 9182 C 853.312 1.46153 0.944214 0
M  V30 9183 O 854.488 1.79141 0.920347 0
M  V30 9184 C 851.553 3.22149 1.28144 0
M  V30 9185 C 850.614 4.25184 0.593068 0
M  V30 9186 C 849.847 5.0977 1.5802 0
M  V30 9187 O 850.07 4.96249 2.81235 0
M  V30 9188 O 849.004 5.9134 1.1225 0
M  V30 9189 H 852.83 3.00362 -0.449066 0
M  V30 9190 H 850.415 1.46643 -0.285689 0
M  V30 9191 H 852.297 3.77111 1.88057 0
M  V30 9192 H 850.972 2.57772 1.95793 0
M  V30 9193 H 849.879 3.74071 -0.0464214 0
M  V30 9194 H 851.212 4.92183 -0.0413893 0
M  V30 9195 N 852.864 0.259585 1.55447 0
M  V30 9196 C 854.113 -0.362163 1.98422 0
M  V30 9197 C 854.426 -1.58135 1.1512 0
M  V30 9198 O 855.632 -2.27506 1.48166 0
M  V30 9199 C 854.088 -0.695722 3.53111 0
M  V30 9200 C 853.696 0.502784 4.4517 0
M  V30 9201 C 855.44 -1.28096 4.04712 0
M  V30 9202 C 853.347 0.144674 5.91223 0
M  V30 9203 H 852.277 -0.139092 0.74106 0
M  V30 9204 H 854.928 0.361798 1.79898 0
M  V30 9205 H 853.31 -1.47816 3.67378 0
M  V30 9206 H 854.484 1.27994 4.42667 0
M  V30 9207 H 852.799 1.0038 4.0412 0
M  V30 9208 H 855.396 -1.56243 5.11363 0
M  V30 9209 H 855.739 -2.20969 3.52815 0
M  V30 9210 H 856.272 -0.561146 3.93822 0
M  V30 9211 H 853.011 1.04087 6.47183 0
M  V30 9212 H 852.531 -0.596023 5.96831 0
M  V30 9213 H 854.21 -0.268651 6.46442 0
M  V30 9214 N 854.342 -1.57594 -0.0133615 0
M  V30 9215 C 855.289 -2.07574 -1.00905 0
M  V30 9216 C 856.259 -0.968231 -1.34961 0
M  V30 9217 O 857.444 -1.23981 -1.45028 0
M  V30 9218 C 854.584 -2.5728 -2.30002 0
M  V30 9219 C 853.697 -3.81881 -2.01967 0
M  V30 9220 C 852.832 -4.20139 -3.25049 0
M  V30 9221 C 851.871 -5.37614 -2.92639 0
M  V30 9222 N 851.008 -5.71229 -4.08218 0
M  V30 9223 H 855.848 -2.92382 -0.575899 0
M  V30 9224 H 853.385 -1.4455 -0.272722 0
M  V30 9225 H 855.343 -2.84171 -3.05454 0
M  V30 9226 H 853.973 -1.75365 -2.71011 0
M  V30 9227 H 853.025 -3.61979 -1.16942 0
M  V30 9228 H 854.337 -4.67441 -1.74069 0
M  V30 9229 H 853.491 -4.48242 -4.08857 0
M  V30 9230 H 852.23 -3.33262 -3.56073 0
M  V30 9231 H 851.235 -5.09248 -2.07235 0
M  V30 9232 H 852.46 -6.26157 -2.62876 0
M  V30 9233 H 850.406 -4.8731 -4.39164 0
M  V30 9234 H 850.323 -6.51333 -3.83799 0
M  V30 9235 H 851.591 -6.03917 -4.92854 0
M  V30 9236 N 855.82 0.285905 -1.54985 0
M  V30 9237 C 857.231 0.857869 -1.65824 0
M  V30 9238 C 857.582 1.87531 -0.576763 0
M  V30 9239 O 856.707 2.14528 0.284016 0
M  V30 9240 C 857.302 1.56277 -3.00604 0
M  V30 9241 C 855.861 2.08294 -3.13513 0
M  V30 9242 C 855.008 0.920633 -2.61571 0
M  V30 9243 H 857.959 0.0625463 -1.58577 0
M  V30 9244 H 857.98 2.42912 -2.92872 0
M  V30 9245 H 857.492 0.822017 -3.79295 0
M  V30 9246 H 855.593 2.8537 -2.39572 0
M  V30 9247 H 855.706 2.3071 -4.19892 0
M  V30 9248 H 854.07 1.31043 -2.18403 0
M  V30 9249 H 854.853 0.193594 -3.42754 0
M  V30 9250 N 857.298 1.47698 0.54982 0
M  V30 9251 C 858.709 1.48474 1.13191 0
M  V30 9252 C 859.06 0.243504 1.94683 0
M  V30 9253 O 858.185 -0.651009 2.06375 0
M  V30 9254 C 858.78 2.69022 2.05944 0
M  V30 9255 C 857.339 2.72733 2.5941 0
M  V30 9256 C 856.486 2.41691 1.35944 0
M  V30 9257 H 859.437 1.55101 0.336048 0
M  V30 9258 H 859.458 2.46412 2.89934 0
M  V30 9259 H 858.97 3.59345 1.46605 0
M  V30 9260 H 857.071 1.86568 3.22526 0
M  V30 9261 H 857.184 3.73628 2.99899 0
M  V30 9262 H 855.548 1.92428 1.66864 0
M  V30 9263 H 856.331 3.34231 0.783869 0
M  V30 9264 N 858.776 -0.797141 1.35954 0
M  V30 9265 C 860.025 -1.54983 1.29086 0
M  V30 9266 C 860.338 -1.95167 -0.130003 0
M  V30 9267 O 861.544 -2.69596 -0.32101 0
M  V30 9268 C 860 -2.79738 2.26439 0
M  V30 9269 C 859.608 -2.46753 3.73921 0
M  V30 9270 C 861.352 -3.57733 2.28533 0
M  V30 9271 C 859.259 -3.67858 4.63071 0
M  V30 9272 H 858.189 -0.581766 0.479651 0
M  V30 9273 H 860.84 -0.87541 1.61273 0
M  V30 9274 H 859.222 -3.48939 1.87236 0
M  V30 9275 H 860.396 -1.85499 4.21814 0
M  V30 9276 H 858.711 -1.81985 3.74527 0
M  V30 9277 H 861.308 -4.47699 2.92351 0
M  V30 9278 H 861.651 -3.95754 1.29169 0
M  V30 9279 H 862.184 -2.95504 2.66313 0
M  V30 9280 H 858.923 -3.34939 5.63468 0
M  V30 9281 H 858.443 -4.28305 4.19898 0
M  V30 9282 H 860.122 -4.34977 4.78961 0
M  V30 9283 N 860.254 -1.20106 -1.0204 0
M  V30 9284 C 861.503 -1.00316 -1.74985 0
M  V30 9285 C 861.816 0.465814 -1.89972 0
M  V30 9286 O 863.022 0.782749 -2.59972 0
M  V30 9287 C 861.478 -1.74608 -3.14706 0
M  V30 9288 C 861.086 -3.25573 -3.07744 0
M  V30 9289 C 862.83 -1.63172 -3.91887 0
M  V30 9290 C 860.737 -3.92419 -4.42449 0
M  V30 9291 H 859.667 -0.371728 -0.655999 0
M  V30 9292 H 862.318 -1.43688 -1.14131 0
M  V30 9293 H 860.7 -1.24021 -3.76078 0
M  V30 9294 H 861.874 -3.83345 -2.55702 0
M  V30 9295 H 860.189 -3.3738 -2.44057 0
M  V30 9296 H 862.786 -2.10457 -4.9154 0
M  V30 9297 H 863.129 -0.58728 -4.12137 0
M  V30 9298 H 863.662 -2.11152 -3.37135 0
M  V30 9299 H 860.401 -4.96998 -4.27403 0
M  V30 9300 H 859.921 -3.39436 -4.94513 0
M  V30 9301 H 861.6 -3.96453 -5.11306 0
M  V30 9302 N 861.732 1.21287 -1.00634 0
M  V30 9303 C 862.682 2.21541 -0.53886 0
M  V30 9304 C 863.666 1.55842 0.400256 0
M  V30 9305 O 864.858 1.75566 0.224889 0
M  V30 9306 C 861.987 3.43047 0.131796 0
M  V30 9307 C 861.073 4.1593 -0.828419 0
M  V30 9308 N 861.464 4.65359 -1.98178 0
M  V30 9309 C 859.762 4.41281 -0.647083 0
M  V30 9310 C 860.463 5.21079 -2.58557 0
M  V30 9311 N 859.439 5.10531 -1.86705 0
M  V30 9312 H 863.241 2.57413 -1.41831 0
M  V30 9313 H 860.755 1.37109 -0.870338 0
M  V30 9314 H 862.752 4.14079 0.484178 0
M  V30 9315 H 861.412 3.08683 1.00721 0
M  V30 9316 H 862.423 4.60896 -2.3621 0
M  V30 9317 H 859.1 4.17107 0.181139 0
M  V30 9318 H 860.49 5.6977 -3.56107 0
M  V30 9319 N 863.21 0.781244 1.36873 0
M  V30 9320 C 864.44 0.361042 2.03421 0
M  V30 9321 C 864.848 -1.02471 1.59048 0
M  V30 9322 O 864.191 -1.66712 0.771552 0
M  V30 9323 C 864.253 0.336202 3.57924 0
M  V30 9324 C 863.917 1.66815 4.25467 0
M  V30 9325 C 864.914 2.62224 4.48926 0
M  V30 9326 C 862.599 1.9452 4.63106 0
M  V30 9327 C 864.593 3.83538 5.09095 0
M  V30 9328 C 862.28 3.16103 5.22994 0
M  V30 9329 C 863.278 4.10431 5.45926 0
M  V30 9330 O 862.966 5.29871 6.04559 0
M  V30 9331 H 862.698 0.147956 0.65961 0
M  V30 9332 H 865.252 1.05895 1.75998 0
M  V30 9333 H 863.482 -0.418147 3.84433 0
M  V30 9334 H 865.171 -0.0582199 4.05858 0
M  V30 9335 H 865.937 2.42104 4.20251 0
M  V30 9336 H 861.816 1.21921 4.44585 0
M  V30 9337 H 865.36 4.57178 5.2691 0
M  V30 9338 H 861.257 3.36104 5.51094 0
M  V30 9339 H 862.025 5.30825 6.23031 0
M  V30 9340 N 864.689 -1.48329 0.532571 0
M  V30 9341 C 865.966 -1.95492 -0.0650985 0
M  V30 9342 C 866.346 -1.47485 -1.51034 0
M  V30 9343 O 865.694 -0.702516 -2.17433 0
M  V30 9344 C 865.904 -3.48957 0.0548341 0
M  V30 9345 C 867.252 -4.24475 -0.103115 0
M  V30 9346 O 868.276 -3.56195 -0.0188343 0
M  V30 9347 O 867.135 -5.45781 -0.280164 0
M  V30 9348 H 864.229 -0.823327 -0.0778603 0
M  V30 9349 H 866.775 -1.58839 0.597353 0
M  V30 9350 H 865.547 -3.76628 1.06148 0
M  V30 9351 H 865.17 -3.92311 -0.64635 0
M  V30 9352 N 866.167 -0.267825 -1.55308 0
M  V30 9353 C 867.097 0.616585 -2.25212 0
M  V30 9354 C 868.078 1.16472 -1.23969 0
M  V30 9355 O 869.263 1.20021 -1.52672 0
M  V30 9356 C 866.393 1.80412 -2.96764 0
M  V30 9357 C 865.347 1.38784 -4.04874 0
M  V30 9358 C 864.673 2.65789 -4.63961 0
M  V30 9359 C 865.973 0.543415 -5.19465 0
M  V30 9360 H 867.667 0.0336257 -2.99381 0
M  V30 9361 H 865.213 0.0147328 -1.43992 0
M  V30 9362 H 867.166 2.42866 -3.44375 0
M  V30 9363 H 865.89 2.4128 -2.20118 0
M  V30 9364 H 864.549 0.786541 -3.58063 0
M  V30 9365 H 864.197 3.24899 -3.83992 0
M  V30 9366 H 863.897 2.38651 -5.36954 0
M  V30 9367 H 865.421 3.29104 -5.14318 0
M  V30 9368 H 866.835 1.07277 -5.63174 0
M  V30 9369 H 865.232 0.367219 -5.98975 0
M  V30 9370 H 866.302 -0.439534 -4.82904 0
M  V30 9371 N 867.645 1.57599 0.00500368 0
M  V30 9372 C 868.592 2.08106 0.998025 0
M  V30 9373 C 869.562 0.975374 1.34446 0
M  V30 9374 O 870.747 1.24749 1.44369 0
M  V30 9375 C 867.887 2.58496 2.28635 0
M  V30 9376 C 867 3.82947 1.99939 0
M  V30 9377 C 866.135 4.21857 3.22816 0
M  V30 9378 C 865.174 5.39159 2.89783 0
M  V30 9379 N 864.311 5.73386 4.05183 0
M  V30 9380 H 869.151 2.92684 0.560385 0
M  V30 9381 H 866.688 1.44692 0.265053 0
M  V30 9382 H 868.646 2.85787 3.03943 0
M  V30 9383 H 867.276 1.768 2.70077 0
M  V30 9384 H 866.328 3.62594 1.1502 0
M  V30 9385 H 867.64 4.68358 1.71588 0
M  V30 9386 H 866.794 4.50404 4.06474 0
M  V30 9387 H 865.533 3.35145 3.54301 0
M  V30 9388 H 864.538 5.1034 2.04532 0
M  V30 9389 H 865.763 6.27543 2.59551 0
M  V30 9390 H 863.709 4.89632 4.36574 0
M  V30 9391 H 863.626 6.53359 3.80339 0
M  V30 9392 H 864.894 6.06522 4.89644 0
M  V30 9393 N 869.123 -0.277682 1.55134 0
M  V30 9394 C 870.534 -0.849063 1.66276 0
M  V30 9395 C 870.885 -1.87223 0.5867 0
M  V30 9396 O 870.01 -2.14676 -0.272635 0
M  V30 9397 C 870.605 -1.54681 3.01429 0
M  V30 9398 C 869.164 -2.06628 3.14614 0
M  V30 9399 C 868.311 -0.906748 2.62056 0
M  V30 9400 H 871.262 -0.0541357 1.58608 0
M  V30 9401 H 871.283 -2.41356 2.94156 0
M  V30 9402 H 870.795 -0.80189 3.79725 0
M  V30 9403 H 868.896 -2.84095 2.41082 0
M  V30 9404 H 869.009 -2.2848 4.2111 0
M  V30 9405 H 867.373 -1.29882 2.19095 0
M  V30 9406 H 868.156 -0.175414 3.42852 0
M  V30 9407 N 870.601 -1.47988 -0.541979 0
M  V30 9408 C 871.849 -1.55086 -1.29587 0
M  V30 9409 C 872.17 -0.221304 -1.9374 0
M  V30 9410 O 871.44 0.756128 -1.80719 0
M  V30 9411 H 870.02 -0.571307 -0.481266 0
M  V30 9412 H 872.682 -1.8438 -0.631675 0
M  V30 9413 H 871.778 -2.32556 -2.08144 0
M  V30 9414 N 872.079 0.78992 -1.36375 0
M  V30 9415 C 873.027 1.92394 -1.30719 0
M  V30 9416 C 874.021 1.68226 -0.199076 0
M  V30 9417 O 875.227 1.76239 -0.366051 0
M  V30 9418 H 871.602 0.632382 -0.406936 0
M  V30 9419 H 873.573 1.94282 -2.26488 0
M  V30 9420 C 872.322 3.2941 -1.11284 0
M  V30 9421 H 871.645 3.48573 -1.95798 0
M  V30 9422 H 873.085 4.09111 -1.11373 0
M  V30 9423 C 871.544 3.36405 0.182543 0
M  V30 9424 O 872.074 3.84206 1.17255 0
M  V30 9425 N 870.28 2.89712 0.227046 0
M  V30 9426 H 869.827 2.51004 -0.579217 0
M  V30 9427 H 869.785 2.94773 1.09344 0
M  V30 9428 N 873.557 1.20646 1.01402 0
M  V30 9429 C 874.806 1.01242 1.7445 0
M  V30 9430 C 875.119 -0.455732 1.90217 0
M  V30 9431 O 876.325 -0.768951 2.60383 0
M  V30 9432 C 874.781 1.76275 3.13776 0
M  V30 9433 C 874.389 3.27201 3.06013 0
M  V30 9434 C 876.133 1.65248 3.91016 0
M  V30 9435 C 874.04 3.9476 4.40362 0
M  V30 9436 H 872.97 0.375202 0.654018 0
M  V30 9437 H 875.621 1.44292 1.13367 0
M  V30 9438 H 874.003 1.26013 3.75415 0
M  V30 9439 H 875.177 3.84695 2.53665 0
M  V30 9440 H 873.492 3.38669 2.42265 0
M  V30 9441 H 876.089 2.13061 4.90417 0
M  V30 9442 H 876.432 0.609128 4.1182 0
M  V30 9443 H 876.965 2.12937 3.3601 0
M  V30 9444 H 873.704 4.99258 4.24761 0
M  V30 9445 H 873.224 3.42054 4.92706 0
M  V30 9446 H 874.903 3.99159 5.09196 0
M  V30 9447 N 875.035 -1.20752 1.01276 0
M  V30 9448 C 875.965 -2.25658 0.600064 0
M  V30 9449 C 876.946 -1.65733 -0.38298 0
M  V30 9450 O 878.131 -1.92324 -0.269256 0
M  V30 9451 C 875.261 -3.47237 -0.0663197 0
M  V30 9452 C 874.215 -4.1973 0.83731 0
M  V30 9453 C 873.541 -5.34687 0.0369102 0
M  V30 9454 C 874.841 -4.76286 2.14357 0
M  V30 9455 H 876.535 -2.60432 1.477 0
M  V30 9456 H 874.081 -1.25187 0.711634 0
M  V30 9457 H 876.034 -4.19803 -0.366563 0
M  V30 9458 H 874.758 -3.11615 -0.977944 0
M  V30 9459 H 873.417 -3.49024 1.1215 0
M  V30 9460 H 873.065 -4.95309 -0.876244 0
M  V30 9461 H 872.765 -5.84119 0.63865 0
M  V30 9462 H 874.289 -6.10059 -0.256968 0
M  V30 9463 H 875.703 -5.40691 1.90595 0
M  V30 9464 H 874.1 -5.36139 2.69583 0
M  V30 9465 H 875.17 -3.9524 2.80916 0
M  V30 9466 N 876.513 -0.788492 -1.36457 0
M  V30 9467 C 877.443 -0.200468 -2.32638 0
M  V30 9468 C 878.424 0.664031 -1.56603 0
M  V30 9469 O 879.609 0.598045 -1.84762 0
M  V30 9470 C 876.739 0.666274 -3.40849 0
M  V30 9471 C 875.693 -0.0982574 -4.27887 0
M  V30 9472 C 875.019 0.889018 -5.27258 0
M  V30 9473 C 876.319 -1.28692 -5.06197 0
M  V30 9474 H 878.013 -1.00399 -2.82065 0
M  V30 9475 H 875.559 -0.484237 -1.35614 0
M  V30 9476 H 877.512 1.08757 -4.07124 0
M  V30 9477 H 876.236 1.50249 -2.89987 0
M  V30 9478 H 874.895 -0.500525 -3.63167 0
M  V30 9479 H 874.543 1.72024 -4.7267 0
M  V30 9480 H 874.243 0.381909 -5.86358 0
M  V30 9481 H 875.767 1.30891 -5.96406 0
M  V30 9482 H 877.181 -0.941429 -5.65517 0
M  V30 9483 H 875.578 -1.72726 -5.74705 0
M  V30 9484 H 876.648 -2.08273 -4.37893 0
M  V30 9485 N 877.991 1.48044 -0.54043 0
M  V30 9486 C 879.237 2.02797 -0.0101718 0
M  V30 9487 C 879.57 1.41565 1.32939 0
M  V30 9488 O 878.845 0.565139 1.86109 0
M  V30 9489 C 879.128 3.59959 0.100758 0
M  V30 9490 C 878.981 4.31654 -1.26471 0
M  V30 9491 C 880.3 4.32347 0.822455 0
M  V30 9492 H 877.419 0.736982 -0.00517052 0
M  V30 9493 H 880.061 1.76656 -0.69948 0
M  V30 9494 H 878.211 3.82363 0.687824 0
M  V30 9495 H 879.883 4.20639 -1.89369 0
M  V30 9496 H 878.126 3.92663 -1.84386 0
M  V30 9497 H 878.797 5.401 -1.13998 0
M  V30 9498 H 881.273 4.14835 0.324164 0
M  V30 9499 H 880.149 5.41978 0.868993 0
M  V30 9500 H 880.41 4.00369 1.87501 0
M  V30 9501 N 879.47 0.276058 1.55163 0
M  V30 9502 C 880.747 -0.392292 1.91626 0
M  V30 9503 C 881.127 -1.73646 1.20043 0
M  V30 9504 O 880.475 -2.26139 0.327606 0
M  V30 9505 C 880.685 -0.531641 3.44927 0
M  V30 9506 C 882.033 -0.8141 4.16722 0
M  V30 9507 O 883.057 -0.616413 3.50826 0
M  V30 9508 O 881.916 -1.19224 5.33337 0
M  V30 9509 H 879.01 -0.214945 0.798579 0
M  V30 9510 H 881.556 0.32228 1.66612 0
M  V30 9511 H 880.328 0.414282 3.89101 0
M  V30 9512 H 879.951 -1.29564 3.75897 0
M  V30 9513 N 880.948 -1.576 0.00335426 0
M  V30 9514 C 882.196 -1.90336 -0.679446 0
M  V30 9515 C 882.517 -0.877777 -1.74127 0
M  V30 9516 O 881.787 0.0843585 -1.95718 0
M  V30 9517 H 880.367 -0.702509 -0.253948 0
M  V30 9518 H 883.029 -1.94848 0.0450731 0
M  V30 9519 H 882.125 -2.90197 -1.14857 0
M  V30 9520 N 882.426 0.269451 -1.5528 0
M  V30 9521 C 883.654 1.01872 -1.80082 0
M  V30 9522 C 884.069 1.79802 -0.575917 0
M  V30 9523 O 883.426 1.76735 0.455081 0
M  V30 9524 C 883.477 1.9745 -3.02813 0
M  V30 9525 O 883.198 1.22677 -4.20573 0
M  V30 9526 C 884.699 2.8416 -3.40247 0
M  V30 9527 H 881.919 0.300781 -0.59981 0
M  V30 9528 H 884.463 0.29916 -2.023 0
M  V30 9529 H 882.618 2.64864 -2.82712 0
M  V30 9530 H 883.032 1.87129 -4.89982 0
M  V30 9531 H 884.506 3.47014 -4.29284 0
M  V30 9532 H 884.983 3.54113 -2.59809 0
M  V30 9533 H 885.589 2.22232 -3.6262 0
M  V30 9534 N 883.904 1.48273 0.534124 0
M  V30 9535 C 884.867 1.6201 1.62127 0
M  V30 9536 C 885.867 0.493653 1.53035 0
M  V30 9537 O 887.057 0.759337 1.56779 0
M  V30 9538 C 884.189 1.5864 3.01739 0
M  V30 9539 H 885.382 2.58944 1.51288 0
M  V30 9540 H 882.935 1.36808 0.755861 0
M  V30 9541 H 883.67 0.631685 3.18088 0
M  V30 9542 H 883.455 2.40415 3.09747 0
M  V30 9543 H 884.945 1.71438 3.80787 0
M  V30 9544 N 885.382 -0.782676 1.36792 0
M  V30 9545 C 886.622 -1.55396 1.32784 0
M  V30 9546 C 886.986 -1.91789 -0.0900272 0
M  V30 9547 O 888.187 -2.6759 -0.254725 0
M  V30 9548 C 886.458 -2.79227 2.23085 0
M  V30 9549 S 888.017 -3.69404 2.36825 0
M  V30 9550 H 884.835 -0.532139 0.471539 0
M  V30 9551 H 887.437 -0.921285 1.72431 0
M  V30 9552 H 886.141 -2.50553 3.25041 0
M  V30 9553 H 885.672 -3.47462 1.84482 0
M  V30 9554 H 887.687 -4.70683 1.57074 0
M  V30 9555 N 886.86 -1.21182 -1.00761 0
M  V30 9556 C 888.108 -1.02543 -1.74153 0
M  V30 9557 C 888.429 0.442372 -1.89916 0
M  V30 9558 O 887.699 1.31927 -1.44818 0
M  V30 9559 H 886.279 -0.37644 -0.645214 0
M  V30 9560 H 888.941 -1.52446 -1.21434 0
M  V30 9561 H 888.037 -1.49122 -2.7417 0
M  V30 9562 N 888.338 1.20213 -1.01915 0
M  V30 9563 C 889.248 2.26763 -0.601311 0
M  V30 9564 C 890.264 1.70185 0.362369 0
M  V30 9565 O 891.44 2.00165 0.222682 0
M  V30 9566 C 888.505 3.46662 0.0512879 0
M  V30 9567 C 887.566 4.18459 -0.958659 0
M  V30 9568 C 886.799 5.32634 -0.337107 0
M  V30 9569 O 887.022 5.63841 0.86251 0
M  V30 9570 O 885.956 5.9258 -1.05511 0
M  V30 9571 H 889.782 2.64725 -1.48844 0
M  V30 9572 H 887.367 1.2688 -0.788784 0
M  V30 9573 H 889.249 4.19345 0.41564 0
M  V30 9574 H 887.924 3.1057 0.912572 0
M  V30 9575 H 886.831 3.47937 -1.37442 0
M  V30 9576 H 888.164 4.58498 -1.78999 0
M  V30 9577 N 889.816 0.795718 1.36037 0
M  V30 9578 C 891.065 0.367575 1.98322 0
M  V30 9579 C 891.378 -1.06823 1.63854 0
M  V30 9580 O 892.584 -1.59895 2.19421 0
M  V30 9581 C 891.04 0.606272 3.54757 0
M  V30 9582 C 890.648 2.0539 3.98144 0
M  V30 9583 C 892.392 0.242947 4.23804 0
M  V30 9584 C 890.299 2.23893 5.47381 0
M  V30 9585 H 889.229 0.133699 0.742052 0
M  V30 9586 H 891.88 0.978242 1.5525 0
M  V30 9587 H 890.262 -0.0741957 3.9593 0
M  V30 9588 H 891.436 2.77129 3.68152 0
M  V30 9589 H 889.751 2.37607 3.41953 0
M  V30 9590 H 892.348 0.359382 5.33491 0
M  V30 9591 H 892.691 -0.809661 4.08351 0
M  V30 9592 H 893.224 0.876899 3.88015 0
M  V30 9593 H 889.963 3.27559 5.6779 0
M  V30 9594 H 889.483 1.56666 5.78978 0
M  V30 9595 H 891.162 2.04914 6.13693 0
M  V30 9596 N 891.294 -1.47756 0.548274 0
M  V30 9597 C 892.241 -2.29893 -0.204408 0
M  V30 9598 C 893.211 -1.38509 -0.916761 0
M  V30 9599 O 894.396 -1.67472 -0.91421 0
M  V30 9600 C 891.536 -3.22282 -1.23403 0
M  V30 9601 C 890.649 -4.28753 -0.528654 0
M  V30 9602 C 889.784 -5.08303 -1.54279 0
M  V30 9603 C 888.823 -6.06557 -0.821893 0
M  V30 9604 N 887.96 -6.79098 -1.78243 0
M  V30 9605 H 892.8 -2.93739 0.502163 0
M  V30 9606 H 890.337 -1.44793 0.259471 0
M  V30 9607 H 892.295 -3.74262 -1.84348 0
M  V30 9608 H 890.925 -2.6032 -1.90875 0
M  V30 9609 H 889.977 -3.79899 0.195132 0
M  V30 9610 H 891.289 -4.98787 0.0365066 0
M  V30 9611 H 890.443 -5.64388 -2.22602 0
M  V30 9612 H 889.182 -4.3815 -2.14186 0
M  V30 9613 H 888.187 -5.49659 -0.12469 0
M  V30 9614 H 889.412 -6.78715 -0.228685 0
M  V30 9615 H 887.358 -6.11682 -2.37025 0
M  V30 9616 H 887.275 -7.4527 -1.26919 0
M  V30 9617 H 888.543 -7.39762 -2.45709 0
M  V30 9618 N 892.772 -0.284283 -1.55015 0
M  V30 9619 C 894.021 0.33055 -1.98973 0
M  V30 9620 C 894.334 1.56284 -1.17621 0
M  V30 9621 O 895.54 2.2512 -1.51767 0
M  V30 9622 C 893.996 0.639457 -3.54174 0
M  V30 9623 C 893.604 -0.573543 -4.44313 0
M  V30 9624 C 895.348 1.21641 -4.06699 0
M  V30 9625 C 893.255 -0.238715 -5.90918 0
M  V30 9626 H 892.185 0.127285 -0.743179 0
M  V30 9627 H 894.836 -0.390372 -1.793 0
M  V30 9628 H 893.218 1.41953 -3.69683 0
M  V30 9629 H 894.392 -1.3502 -4.40575 0
M  V30 9630 H 892.707 -1.06797 -4.02472 0
M  V30 9631 H 895.304 1.48088 -5.13784 0
M  V30 9632 H 895.647 2.15328 -3.56286 0
M  V30 9633 H 896.18 0.498422 -3.94665 0
M  V30 9634 H 892.919 -1.1437 -6.45445 0
M  V30 9635 H 892.439 0.500997 -5.97704 0
M  V30 9636 H 894.118 0.165774 -6.46788 0
M  V30 9637 N 894.251 1.57596 -0.0117121 0
M  V30 9638 C 895.479 1.9536 0.681334 0
M  V30 9639 C 895.894 0.887255 1.66653 0
M  V30 9640 O 895.251 -0.132692 1.82017 0
M  V30 9641 C 895.302 3.33165 1.40298 0
M  V30 9642 O 895.023 4.35707 0.45728 0
M  V30 9643 C 896.524 3.85458 2.18946 0
M  V30 9644 H 893.744 0.643826 0.189023 0
M  V30 9645 H 896.288 2.04392 -0.066311 0
M  V30 9646 H 894.443 3.25404 2.10216 0
M  V30 9647 H 894.857 5.15495 0.96773 0
M  V30 9648 H 896.331 4.84275 2.64918 0
M  V30 9649 H 896.808 3.18781 3.02118 0
M  V30 9650 H 897.414 3.96431 1.5402 0
M  V30 9651 N 895.729 -0.261212 1.5542 0
M  V30 9652 C 897.006 -1.01321 1.67312 0
M  V30 9653 C 897.386 -2.0388 0.547356 0
M  V30 9654 O 896.734 -2.24003 -0.451083 0
M  V30 9655 C 896.944 -1.65943 3.07024 0
M  V30 9656 C 898.292 -2.16666 3.65159 0
M  V30 9657 O 899.316 -1.75909 3.09733 0
M  V30 9658 O 898.175 -2.91455 4.62294 0
M  V30 9659 H 895.269 -0.470714 0.679968 0
M  V30 9660 H 897.815 -0.256133 1.67756 0
M  V30 9661 H 896.587 -0.916868 3.80407 0
M  V30 9662 H 896.21 -2.48308 3.1053 0
M  V30 9663 N 897.207 -1.48554 -0.526253 0
M  V30 9664 C 898.454 -1.56761 -1.28188 0
M  V30 9665 C 898.782 -0.24315 -1.92974 0
M  V30 9666 O 898.037 0.766883 -1.80048 0
M  V30 9667 C 898.336 -2.65739 -2.38993 0
M  V30 9668 C 898.002 -4.08057 -1.91834 0
M  V30 9669 C 896.664 -4.46792 -1.78691 0
M  V30 9670 C 899.016 -4.9723 -1.56242 0
M  V30 9671 C 896.344 -5.72501 -1.28296 0
M  V30 9672 C 898.696 -6.23432 -1.07309 0
M  V30 9673 C 897.36 -6.6102 -0.927853 0
M  V30 9674 H 896.63 -0.573631 -0.469072 0
M  V30 9675 H 899.277 -1.82287 -0.586842 0
M  V30 9676 H 897.582 -2.34088 -3.14181 0
M  V30 9677 H 899.279 -2.69304 -2.97113 0
M  V30 9678 H 895.869 -3.77469 -2.03016 0
M  V30 9679 H 900.053 -4.67979 -1.65255 0
M  V30 9680 H 895.309 -6.00345 -1.15742 0
M  V30 9681 H 899.483 -6.91923 -0.788412 0
M  V30 9682 H 897.11 -7.58314 -0.535162 0
M  V30 9683 N 898.685 0.775411 -1.37205 0
M  V30 9684 C 899.933 1.53081 -1.3195 0
M  V30 9685 C 900.254 1.9476 0.0966864 0
M  V30 9686 O 899.524 1.66019 1.03993 0
M  V30 9687 H 898.104 0.567762 -0.485444 0
M  V30 9688 H 900.766 0.92309 -1.71654 0
M  V30 9689 H 899.862 2.4319 -1.95614 0
M  V30 9690 N 900.163 1.21714 1.00117 0
M  V30 9691 C 901.093 1.00397 2.10815 0
M  V30 9692 C 902.074 -0.0723502 1.69946 0
M  V30 9693 O 903.259 0.0882398 1.93999 0
M  V30 9694 C 900.389 0.572001 3.42557 0
M  V30 9695 C 899.343 1.59331 3.97237 0
M  V30 9696 C 898.669 1.01746 5.2493 0
M  V30 9697 C 899.969 2.98117 4.28863 0
M  V30 9698 H 901.663 1.92983 2.28906 0
M  V30 9699 H 899.209 0.929273 1.10002 0
M  V30 9700 H 901.162 0.410018 4.19401 0
M  V30 9701 H 899.886 -0.38951 3.24269 0
M  V30 9702 H 898.545 1.74293 3.22518 0
M  V30 9703 H 898.193 0.0475491 5.02978 0
M  V30 9704 H 897.893 1.69969 5.62481 0
M  V30 9705 H 899.417 0.866881 6.04415 0
M  V30 9706 H 900.831 2.86578 4.96534 0
M  V30 9707 H 899.228 3.63389 4.77565 0
M  V30 9708 H 900.298 3.48674 3.36979 0
M  V30 9709 N 901.641 -1.19671 1.02551 0
M  V30 9710 C 902.866 -1.93774 0.739363 0
M  V30 9711 C 903.291 -1.74787 -0.695064 0
M  V30 9712 O 902.649 -1.04796 -1.47944 0
M  V30 9713 C 902.697 -3.43684 1.09149 0
M  V30 9714 O 901.801 -4.11874 0.208213 0
M  V30 9715 H 901.142 -0.605064 0.273484 0
M  V30 9716 H 903.672 -1.51846 1.37128 0
M  V30 9717 H 903.682 -3.94339 1.04695 0
M  V30 9718 H 902.357 -3.56826 2.13654 0
M  V30 9719 H 900.934 -3.716 0.311045 0
M  V30 9720 N 903.119 -0.802921 -1.35613 0
M  V30 9721 C 904.066 -0.20874 -2.29854 0
M  V30 9722 C 905.036 0.655128 -1.52634 0
M  V30 9723 O 906.221 0.600979 -1.81088 0
M  V30 9724 C 903.361 0.639663 -3.3912 0
M  V30 9725 C 902.474 -0.244234 -4.31309 0
M  V30 9726 C 901.609 0.611825 -5.27665 0
M  V30 9727 C 900.648 -0.272698 -6.11492 0
M  V30 9728 N 899.785 0.543122 -6.99996 0
M  V30 9729 H 904.625 -1.01782 -2.80079 0
M  V30 9730 H 902.162 -0.513465 -1.37848 0
M  V30 9731 H 904.12 1.14668 -4.01132 0
M  V30 9732 H 902.75 1.41404 -2.9018 0
M  V30 9733 H 901.802 -0.869322 -3.70334 0
M  V30 9734 H 903.114 -0.925202 -4.90144 0
M  V30 9735 H 902.268 1.18412 -5.95032 0
M  V30 9736 H 901.007 1.32637 -4.69317 0
M  V30 9737 H 900.012 -0.857287 -5.43075 0
M  V30 9738 H 901.237 -0.985051 -6.71918 0
M  V30 9739 H 899.183 1.24171 -6.44141 0
M  V30 9740 H 899.1 -0.0798767 -7.55958 0
M  V30 9741 H 900.368 1.09881 -7.71717 0
M  V30 9742 N 904.597 1.47463 -0.556102 0
M  V30 9743 C 905.846 2.01678 -0.029492 0
M  V30 9744 C 906.159 1.436 1.32809 0
M  V30 9745 O 907.365 1.89472 1.94455 0
M  V30 9746 C 905.821 3.599 -0.00223937 0
M  V30 9747 C 905.429 4.26969 -1.35651 0
M  V30 9748 C 907.173 4.2187 0.471822 0
M  V30 9749 C 905.08 5.77194 -1.28843 0
M  V30 9750 H 904.01 0.753965 -0.00725504 0
M  V30 9751 H 906.661 1.69467 -0.703789 0
M  V30 9752 H 905.043 3.89068 0.737682 0
M  V30 9753 H 906.217 4.09444 -2.11406 0
M  V30 9754 H 904.532 3.76983 -1.76842 0
M  V30 9755 H 907.129 5.31955 0.541139 0
M  V30 9756 H 907.472 3.88968 1.48356 0
M  V30 9757 H 908.005 3.97228 -0.213207 0
M  V30 9758 H 904.744 6.14713 -2.27613 0
M  V30 9759 H 904.264 5.9706 -0.572668 0
M  V30 9760 H 905.943 6.3938 -0.990031 0
M  V30 9761 N 906.075 0.2925 1.54862 0
M  V30 9762 C 907.008 -0.629155 2.19356 0
M  V30 9763 C 907.986 -1.13927 1.16014 0
M  V30 9764 O 909.17 -1.20904 1.44618 0
M  V30 9765 C 906.297 -1.8599 2.83064 0
M  V30 9766 C 905.343 -1.48376 3.99859 0
M  V30 9767 S 906.176 -0.546976 5.32699 0
M  V30 9768 C 907.332 -1.7857 5.99886 0
M  V30 9769 H 907.565 -0.0812166 2.97189 0
M  V30 9770 H 905.098 0.0766721 1.5421 0
M  V30 9771 H 907.056 -2.56623 3.20398 0
M  V30 9772 H 905.717 -2.37899 2.05092 0
M  V30 9773 H 904.91 -2.40002 4.43187 0
M  V30 9774 H 904.512 -0.857447 3.64038 0
M  V30 9775 H 906.804 -2.7274 6.20177 0
M  V30 9776 H 907.747 -1.39513 6.9422 0
M  V30 9777 H 908.155 -1.95856 5.29434 0
M  V30 9778 N 907.553 -1.57587 0.0200696 0
M  V30 9779 C 908.83 -1.82696 -0.698677 0
M  V30 9780 C 909.21 -0.902082 -1.90855 0
M  V30 9781 O 908.558 0.0444834 -2.28457 0
M  V30 9782 C 908.768 -3.31691 -1.08546 0
M  V30 9783 C 910.116 -3.97938 -1.4809 0
M  V30 9784 O 911.14 -3.36133 -1.17869 0
M  V30 9785 O 909.999 -5.06851 -2.04364 0
M  V30 9786 H 907.093 -0.752997 -0.341942 0
M  V30 9787 H 909.639 -1.69635 0.04706 0
M  V30 9788 H 908.411 -3.90659 -0.223956 0
M  V30 9789 H 908.034 -3.49825 -1.88965 0
M  V30 9790 N 909.032 0.252966 -1.55557 0
M  V30 9791 C 910.309 1.00432 -1.67847 0
M  V30 9792 C 910.689 2.03587 -0.55816 0
M  V30 9793 O 910.037 2.24239 0.439197 0
M  V30 9794 C 910.247 1.64313 -3.079 0
M  V30 9795 C 911.595 2.14726 -3.66303 0
M  V30 9796 O 912.619 1.74264 -3.10661 0
M  V30 9797 O 911.478 2.89 -4.63833 0
M  V30 9798 H 908.572 0.467102 -0.682455 0
M  V30 9799 H 911.118 0.247233 -1.67889 0
M  V30 9800 H 909.89 0.896681 -3.80888 0
M  V30 9801 H 909.513 2.46657 -3.11843 0
M  V30 9802 N 910.51 1.48831 0.518367 0
M  V30 9803 C 911.787 1.47933 1.27966 0
M  V30 9804 C 912.167 0.197393 2.10175 0
M  V30 9805 O 911.515 -0.820656 2.13255 0
M  V30 9806 C 911.725 2.74816 2.15121 0
M  V30 9807 C 913.073 3.23613 2.74881 0
M  V30 9808 O 914.097 2.75814 2.254 0
M  V30 9809 O 912.956 4.06818 3.64913 0
M  V30 9810 H 910.05 0.591316 0.578164 0
M  V30 9811 H 912.596 1.61077 0.534065 0
M  V30 9812 H 911.368 3.59621 1.54234 0
M  V30 9813 H 910.991 2.64449 2.96905 0
M  V30 9814 N 911.988 -0.768124 1.37614 0
M  V30 9815 C 913.213 -1.56239 1.36397 0
M  V30 9816 C 913.638 -1.8804 -0.0475839 0
M  V30 9817 O 912.996 -1.495 -1.02564 0
M  V30 9818 C 913.044 -2.84716 2.21289 0
M  V30 9819 O 912.148 -3.79249 1.62001 0
M  V30 9820 H 911.489 -0.473119 0.465891 0
M  V30 9821 H 914.019 -0.950415 1.81186 0
M  V30 9822 H 914.029 -3.33784 2.34632 0
M  V30 9823 H 912.704 -2.60899 3.2389 0
M  V30 9824 H 911.281 -3.37904 1.57719 0
M  V30 9825 N 913.466 -1.22244 -0.994698 0
M  V30 9826 C 914.696 -1.07062 -1.76695 0
M  V30 9827 C 915.104 0.381895 -1.85306 0
M  V30 9828 O 914.447 1.27648 -1.32105 0
M  V30 9829 C 914.509 -1.60487 -3.2169 0
M  V30 9830 C 914.173 -3.09079 -3.36629 0
M  V30 9831 C 915.17 -4.06526 -3.24088 0
M  V30 9832 C 912.855 -3.48497 -3.61739 0
M  V30 9833 C 914.849 -5.41377 -3.36437 0
M  V30 9834 C 912.536 -4.83498 -3.73729 0
M  V30 9835 C 913.534 -5.79747 -3.61086 0
M  V30 9836 O 913.222 -7.12297 -3.72678 0
M  V30 9837 H 912.954 -0.375963 -0.561807 0
M  V30 9838 H 915.508 -1.62259 -1.25941 0
M  V30 9839 H 913.738 -0.996957 -3.73628 0
M  V30 9840 H 915.427 -1.40994 -3.80625 0
M  V30 9841 H 916.193 -3.77415 -3.04602 0
M  V30 9842 H 912.072 -2.74106 -3.70657 0
M  V30 9843 H 915.616 -6.16485 -3.26485 0
M  V30 9844 H 911.513 -5.1229 -3.92721 0
M  V30 9845 H 912.281 -7.1985 -3.89562 0
M  V30 9846 N 914.944 1.19125 -1.03184 0
M  V30 9847 C 916.192 1.8851 -0.728587 0
M  V30 9848 C 916.513 1.80195 0.74531 0
M  V30 9849 O 915.783 1.21437 1.5372 0
M  V30 9850 H 914.363 0.69784 -0.266511 0
M  V30 9851 H 917.025 1.44607 -1.3067 0
M  V30 9852 H 916.121 2.9477 -1.02554 0
M  V30 9853 N 916.422 0.810101 1.35185 0
M  V30 9854 C 917.668 0.392698 1.98962 0
M  V30 9855 C 918.001 -1.03835 1.64109 0
M  V30 9856 O 917.276 -1.721 0.9062 0
M  V30 9857 C 917.559 0.580349 3.55393 0
M  V30 9858 C 917.412 2.05658 4.00031 0
M  V30 9859 C 918.731 0.00822618 4.40099 0
M  V30 9860 H 915.85 0.144157 0.722764 0
M  V30 9861 H 918.492 1.02029 1.60281 0
M  V30 9862 H 916.642 0.0461106 3.88473 0
M  V30 9863 H 918.314 2.65348 3.77344 0
M  V30 9864 H 916.557 2.55174 3.50811 0
M  V30 9865 H 917.228 2.13875 5.08883 0
M  V30 9866 H 919.704 0.464517 4.13499 0
M  V30 9867 H 918.58 0.169414 5.48638 0
M  V30 9868 H 918.841 -1.08576 4.2856 0
M  V30 9869 N 917.9 -1.47166 0.563914 0
M  V30 9870 C 919.177 -1.95586 -0.0236172 0
M  V30 9871 C 919.557 -1.50655 -1.47872 0
M  V30 9872 O 918.905 -0.748479 -2.15894 0
M  V30 9873 C 919.115 -3.48762 0.128841 0
M  V30 9874 C 920.463 -4.24598 -0.0130544 0
M  V30 9875 O 921.487 -3.56155 0.0567242 0
M  V30 9876 O 920.346 -5.46253 -0.164332 0
M  V30 9877 H 917.44 -0.824793 -0.0603789 0
M  V30 9878 H 919.986 -1.57536 0.63091 0
M  V30 9879 H 918.758 -3.74291 1.14113 0
M  V30 9880 H 918.381 -3.93594 -0.56299 0
M  V30 9881 N 919.378 -0.300708 -1.54705 0
M  V30 9882 C 920.626 0.308044 -1.99739 0
M  V30 9883 C 920.947 1.54433 -1.19061 0
M  V30 9884 O 920.217 1.93794 -0.286507 0
M  V30 9885 H 918.797 0.116811 -0.73781 0
M  V30 9886 H 921.459 -0.41197 -1.90496 0
M  V30 9887 H 920.555 0.580287 -3.06658 0
M  V30 9888 N 920.856 1.57574 -0.0284266 0
M  V30 9889 C 921.789 2.05684 0.988401 0
M  V30 9890 C 922.767 0.952468 1.31783 0
M  V30 9891 O 923.951 1.22274 1.43462 0
M  V30 9892 C 921.078 2.47832 2.30862 0
M  V30 9893 C 920.124 3.69282 2.13384 0
M  V30 9894 S 920.957 5.15962 1.43331 0
M  V30 9895 C 922.113 5.61404 2.76723 0
M  V30 9896 H 922.346 2.9161 0.578873 0
M  V30 9897 H 919.879 1.53309 0.183244 0
M  V30 9898 H 921.837 2.7278 3.06759 0
M  V30 9899 H 920.498 1.62253 2.68947 0
M  V30 9900 H 919.691 3.96618 3.10983 0
M  V30 9901 H 919.293 3.44482 1.45629 0
M  V30 9902 H 921.585 5.65601 3.72963 0
M  V30 9903 H 922.528 6.60956 2.54053 0
M  V30 9904 H 922.936 4.89051 2.81939 0
M  V30 9905 N 922.334 -0.244713 1.55689 0
M  V30 9906 C 923.611 -0.995407 1.68378 0
M  V30 9907 C 923.991 -2.03288 0.568949 0
M  V30 9908 O 923.339 -2.24469 -0.427299 0
M  V30 9909 C 923.549 -1.62678 3.08767 0
M  V30 9910 C 924.897 -2.1278 3.67437 0
M  V30 9911 O 925.921 -1.72614 3.11581 0
M  V30 9912 O 924.78 -2.86536 4.65359 0
M  V30 9913 H 921.874 -0.463476 0.684923 0
M  V30 9914 H 924.42 -0.238326 1.68018 0
M  V30 9915 H 923.192 -0.876469 3.81358 0
M  V30 9916 H 922.815 -2.45 3.13146 0
M  V30 9917 N 923.813 -1.49104 -0.510467 0
M  V30 9918 C 924.743 -1.67981 -1.62187 0
M  V30 9919 C 925.724 -0.528529 -1.6168 0
M  V30 9920 O 926.909 -0.763305 -1.7857 0
M  V30 9921 C 924.039 -1.73755 -3.0071 0
M  V30 9922 C 922.993 -2.88579 -3.1608 0
M  V30 9923 C 922.319 -2.79457 -4.5586 0
M  V30 9924 C 923.619 -4.29638 -2.97 0
M  V30 9925 H 925.313 -2.61029 -1.46643 0
M  V30 9926 H 922.859 -1.25615 -0.704042 0
M  V30 9927 H 924.812 -1.85548 -3.78352 0
M  V30 9928 H 923.536 -0.772996 -3.17321 0
M  V30 9929 H 922.195 -2.76372 -2.40861 0
M  V30 9930 H 921.843 -1.80929 -4.69333 0
M  V30 9931 H 921.543 -3.56518 -4.67086 0
M  V30 9932 H 923.067 -2.93245 -5.35574 0
M  V30 9933 H 924.481 -4.42575 -3.64418 0
M  V30 9934 H 922.878 -5.07847 -3.19704 0
M  V30 9935 H 923.948 -4.44741 -1.93219 0
M  V30 9936 N 925.291 0.760815 -1.38019 0
M  V30 9937 C 926.519 1.55001 -1.37048 0
M  V30 9938 C 926.934 1.88754 0.0415261 0
M  V30 9939 O 926.291 1.52254 1.00624 0
M  V30 9940 C 926.342 2.8536 -2.21928 0
M  V30 9941 O 926.063 2.53049 -3.57628 0
M  V30 9942 C 927.564 3.79536 -2.29057 0
M  V30 9943 H 924.784 0.479844 -0.469032 0
M  V30 9944 H 927.328 0.942148 -1.81504 0
M  V30 9945 H 925.483 3.42542 -1.80953 0
M  V30 9946 H 925.897 3.36604 -4.02241 0
M  V30 9947 H 927.371 4.67977 -2.92749 0
M  V30 9948 H 927.848 4.19453 -1.30213 0
M  V30 9949 H 928.454 3.28281 -2.70392 0
M  V30 9950 N 926.769 1.22769 0.988202 0
M  V30 9951 C 927.994 1.08239 1.76915 0
M  V30 9952 C 928.419 -0.362519 1.84574 0
M  V30 9953 O 927.777 -1.26202 1.30165 0
M  V30 9954 C 927.825 1.70363 3.17819 0
M  V30 9955 O 926.929 0.960484 4.01059 0
M  V30 9956 H 926.27 0.379872 0.544604 0
M  V30 9957 H 928.8 1.62663 1.24104 0
M  V30 9958 H 928.81 1.7528 3.6843 0
M  V30 9959 H 927.485 2.75505 3.1156 0
M  V30 9960 H 926.062 0.987667 3.59582 0
M  V30 9961 N 928.247 -1.18576 1.03814 0
M  V30 9962 C 929.179 -2.21607 0.585055 0
M  V30 9963 C 930.192 -1.59125 -0.343963 0
M  V30 9964 O 931.381 -1.77959 -0.138882 0
M  V30 9965 C 928.481 -3.38495 -0.165602 0
M  V30 9966 C 927.654 -4.30557 0.770662 0
M  V30 9967 C 926.713 -5.26161 0.0637534 0
M  V30 9968 O 925.739 -5.64961 0.693359 0
M  V30 9969 N 926.941 -5.67882 -1.20377 0
M  V30 9970 H 929.706 -2.61104 1.47121 0
M  V30 9971 H 927.267 -1.33336 0.918316 0
M  V30 9972 H 929.259 -3.99474 -0.648292 0
M  V30 9973 H 927.829 -2.97711 -0.953268 0
M  V30 9974 H 927.049 -3.67221 1.43326 0
M  V30 9975 H 928.337 -4.88969 1.40667 0
M  V30 9976 H 927.735 -5.38409 -1.73586 0
M  V30 9977 H 926.292 -6.31069 -1.63079 0
M  V30 9978 N 929.725 -0.817259 -1.34754 0
M  V30 9979 C 930.973 -0.401852 -1.98065 0
M  V30 9980 C 931.294 1.03718 -1.65129 0
M  V30 9981 O 930.564 1.71921 -0.939141 0
M  V30 9982 H 929.144 -0.145603 -0.732672 0
M  V30 9983 H 931.806 -1.04545 -1.64488 0
M  V30 9984 H 930.902 -0.516241 -3.07801 0
M  V30 9985 N 931.203 1.46865 -0.571711 0
M  V30 9986 C 932.166 2.28658 0.157499 0
M  V30 9987 C 933.166 1.37773 0.829172 0
M  V30 9988 O 934.356 1.6026 0.682811 0
M  V30 9989 C 931.488 3.17859 1.23202 0
M  V30 9990 H 932.681 2.94603 -0.561171 0
M  V30 9991 H 930.234 1.52793 -0.329229 0
M  V30 9992 H 930.969 2.56637 1.98262 0
M  V30 9993 H 930.754 3.84762 0.755031 0
M  V30 9994 H 932.244 3.7945 1.74378 0
M  V30 9995 N 932.681 0.308908 1.54543 0
M  V30 9996 C 933.929 -0.297447 1.99899 0
M  V30 9997 C 934.25 -1.53799 1.19878 0
M  V30 9998 O 933.52 -1.93639 0.29678 0
M  V30 9999 H 932.1 -0.112897 0.738419 0
M  V30 10000 H 934.762 0.422067 1.90275 0
M  V30 10001 H 933.858 -0.564016 3.06961 0
M  V30 10002 N 934.159 -1.57557 0.0367827 0
M  V30 10003 C 935.387 -1.96419 -0.650168 0
M  V30 10004 C 935.802 -0.913656 -1.6522 0
M  V30 10005 O 935.159 0.103718 -1.82205 0
M  V30 10006 C 935.21 -3.35355 -1.3498 0
M  V30 10007 O 934.931 -4.36379 -0.387905 0
M  V30 10008 C 936.432 -3.88892 -2.12786 0
M  V30 10009 H 933.652 -0.646751 -0.178756 0
M  V30 10010 H 936.196 -2.04261 0.0988197 0
M  V30 10011 H 934.351 -3.28708 -2.05012 0
M  V30 10012 H 934.765 -5.16969 -0.885596 0
M  V30 10013 H 936.239 -4.88428 -2.5718 0
M  V30 10014 H 936.716 -3.23547 -2.97008 0
M  V30 10015 H 937.322 -3.98831 -1.47694 0
M  V30 10016 N 935.637 0.236453 -1.55816 0
M  V30 10017 C 936.867 0.978873 -1.81939 0
M  V30 10018 C 937.275 1.79041 -0.611647 0
M  V30 10019 O 936.618 1.78616 0.429172 0
M  V30 10020 C 936.68 1.9569 -3.01572 0
M  V30 10021 C 936.344 1.33131 -4.37178 0
M  V30 10022 C 937.341 0.728585 -5.1477 0
M  V30 10023 C 935.026 1.34755 -4.83887 0
M  V30 10024 C 937.02 0.150427 -6.37222 0
M  V30 10025 C 934.707 0.765539 -6.06286 0
M  V30 10026 C 935.705 0.168017 -6.82793 0
M  V30 10027 O 935.393 -0.404976 -8.02879 0
M  V30 10028 H 935.125 0.293186 -0.609113 0
M  V30 10029 H 937.679 0.261384 -2.0373 0
M  V30 10030 H 935.909 2.71298 -2.75562 0
M  V30 10031 H 937.598 2.56362 -3.14695 0
M  V30 10032 H 938.364 0.708477 -4.79797 0
M  V30 10033 H 934.243 1.80202 -4.24321 0
M  V30 10034 H 937.787 -0.316586 -6.96881 0
M  V30 10035 H 933.684 0.78301 -6.40733 0
M  V30 10036 H 934.452 -0.29785 -8.17958 0
M  V30 10037 N 937.115 1.49373 0.502552 0
M  V30 10038 C 938.361 1.5999 1.25597 0
M  V30 10039 C 938.716 0.282287 1.90318 0
M  V30 10040 O 938.009 -0.71735 1.77664 0
M  V30 10041 C 938.203 2.69508 2.34735 0
M  V30 10042 C 938.032 4.11791 1.80716 0
M  V30 10043 C 936.802 4.78598 1.62087 0
M  V30 10044 C 939 4.97074 1.31991 0
M  V30 10045 N 936.982 6.05201 1.02981 0
M  V30 10046 C 938.353 6.14144 0.850098 0
M  V30 10047 C 940.408 4.83086 1.20549 0
M  V30 10048 C 939.111 7.18766 0.277192 0
M  V30 10049 C 941.137 5.87855 0.64656 0
M  V30 10050 C 940.499 7.04152 0.186968 0
M  V30 10051 H 936.598 0.639822 0.449613 0
M  V30 10052 H 939.182 1.86371 0.563361 0
M  V30 10053 H 937.353 2.44902 3.01459 0
M  V30 10054 H 939.085 2.69656 3.01774 0
M  V30 10055 H 935.84 4.35372 1.8641 0
M  V30 10056 H 936.264 6.72793 0.753601 0
M  V30 10057 H 940.906 3.93489 1.54681 0
M  V30 10058 H 938.624 8.08064 -0.0763971 0
M  V30 10059 H 942.21 5.79091 0.560832 0
M  V30 10060 H 941.09 7.83836 -0.238784 0
M  V30 10061 N 938.594 -0.753485 1.38421 0
M  V30 10062 C 939.824 -1.54049 1.37669 0
M  V30 10063 C 940.232 -1.89167 -0.0353656 0
M  V30 10064 O 939.575 -1.53285 -1.01239 0
M  V30 10065 C 939.637 -2.86777 2.16793 0
M  V30 10066 C 939.301 -2.74196 3.65603 0
M  V30 10067 C 940.298 -2.43985 4.59094 0
M  V30 10068 C 937.983 -2.91645 4.0896 0
M  V30 10069 C 939.977 -2.31379 5.93921 0
M  V30 10070 C 937.664 -2.78658 5.43868 0
M  V30 10071 C 938.662 -2.48568 6.36163 0
M  V30 10072 O 938.35 -2.3564 7.68589 0
M  V30 10073 H 938.082 -0.483276 0.472673 0
M  V30 10074 H 940.636 -0.940267 1.82615 0
M  V30 10075 H 938.866 -3.48988 1.66565 0
M  V30 10076 H 940.555 -3.48289 2.08446 0
M  V30 10077 H 941.321 -2.30172 4.26902 0
M  V30 10078 H 937.2 -3.14063 3.37469 0
M  V30 10079 H 940.744 -2.07813 6.65927 0
M  V30 10080 H 936.641 -2.92044 5.75656 0
M  V30 10081 H 937.409 -2.50851 7.79112 0
M  V30 10082 N 940.072 -1.23292 -0.981677 0
M  V30 10083 C 941.002 -1.03738 -2.09191 0
M  V30 10084 C 941.983 0.0453041 -1.7004 0
M  V30 10085 O 943.168 -0.119092 -1.93834 0
M  V30 10086 C 940.298 -0.626426 -3.41604 0
M  V30 10087 C 939.252 -1.65631 -3.94652 0
M  V30 10088 C 938.578 -1.10084 -5.23245 0
M  V30 10089 C 939.878 -3.04903 -4.24066 0
M  V30 10090 H 941.572 -1.966 -2.25807 0
M  V30 10091 H 939.118 -0.946656 -1.0851 0
M  V30 10092 H 941.071 -0.476689 -4.18695 0
M  V30 10093 H 939.795 0.337873 -3.24848 0
M  V30 10094 H 938.454 -1.79402 -3.19704 0
M  V30 10095 H 938.102 -0.127562 -5.02838 0
M  V30 10096 H 937.802 -1.78896 -5.59705 0
M  V30 10097 H 939.326 -0.962928 -6.02959 0
M  V30 10098 H 940.74 -2.94441 -4.91912 0
M  V30 10099 H 939.137 -3.70941 -4.71724 0
M  V30 10100 H 940.207 -3.53991 -3.31389 0
M  V30 10101 N 941.55 1.18024 -1.04442 0
M  V30 10102 C 942.961 1.69749 -0.777312 0
M  V30 10103 C 943.312 1.83234 0.701399 0
M  V30 10104 O 942.437 1.51452 1.54568 0
M  V30 10105 C 943.032 3.08321 -1.40441 0
M  V30 10106 C 941.591 3.57243 -1.18553 0
M  V30 10107 C 940.738 2.33695 -1.49271 0
M  V30 10108 H 943.689 1.02647 -1.21035 0
M  V30 10109 H 943.71 3.71787 -0.809628 0
M  V30 10110 H 943.222 2.98474 -2.48062 0
M  V30 10111 H 941.323 3.72379 -0.128221 0
M  V30 10112 H 941.436 4.40451 -1.88519 0
M  V30 10113 H 939.8 2.37792 -0.912526 0
M  V30 10114 H 940.583 2.26464 -2.5801 0
M  V30 10115 N 943.028 0.824394 1.34319 0
M  V30 10116 C 944.439 0.471802 1.8064 0
M  V30 10117 C 944.79 -1.00793 1.6833 0
M  V30 10118 O 943.915 -1.78447 1.22416 0
M  V30 10119 C 944.51 0.849609 3.27974 0
M  V30 10120 C 943.069 0.549365 3.72369 0
M  V30 10121 C 942.216 1.06573 2.56003 0
M  V30 10122 H 945.167 1.01443 1.22045 0
M  V30 10123 H 945.188 0.153968 3.80188 0
M  V30 10124 H 944.7 1.92663 3.36902 0
M  V30 10125 H 942.801 -0.518182 3.68979 0
M  V30 10126 H 942.914 1.09446 4.66432 0
M  V30 10127 H 941.278 0.487214 2.49997 0
M  V30 10128 H 942.061 2.14923 2.677 0
M  V30 10129 N 944.506 -1.46559 0.579492 0
M  V30 10130 C 945.416 -2.34066 -0.15816 0
M  V30 10131 C 946.432 -1.49556 -0.88932 0
M  V30 10132 O 947.608 -1.82434 -0.853226 0
M  V30 10133 C 944.673 -3.26683 -1.161 0
M  V30 10134 C 943.734 -4.27092 -0.434855 0
M  V30 10135 C 942.967 -5.15283 -1.38992 0
M  V30 10136 O 943.19 -5.06345 -2.62623 0
M  V30 10137 O 942.124 -5.95099 -0.902253 0
M  V30 10138 H 945.95 -2.98488 0.560234 0
M  V30 10139 H 943.535 -1.45482 0.339918 0
M  V30 10140 H 945.417 -3.8383 -1.73932 0
M  V30 10141 H 944.092 -2.64862 -1.86091 0
M  V30 10142 H 942.999 -3.73641 0.185224 0
M  V30 10143 H 944.332 -4.9169 0.224031 0
M  V30 10144 N 945.984 -0.3171 -1.54377 0
M  V30 10145 C 947.224 0.288083 -2.0236 0
M  V30 10146 C 947.588 1.4985 -1.20038 0
M  V30 10147 O 948.789 2.17611 -1.57794 0
M  V30 10148 C 947.06 0.620192 -3.51978 0
M  V30 10149 S 948.619 1.20595 -4.21903 0
M  V30 10150 H 945.437 0.0875231 -0.705592 0
M  V30 10151 H 948.039 -0.448719 -1.90281 0
M  V30 10152 H 946.743 -0.268982 -4.09518 0
M  V30 10153 H 946.274 1.38736 -3.68125 0
M  V30 10154 H 948.289 2.49308 -4.29022 0
M  V30 10155 N 947.462 1.57535 -0.0451378 0
M  V30 10156 C 948.709 1.92451 0.629987 0
M  V30 10157 C 949.037 0.92298 1.71206 0
M  V30 10158 O 948.292 -0.0656626 1.9559 0
M  V30 10159 C 948.591 3.34065 1.27024 0
M  V30 10160 C 948.257 4.49785 0.316971 0
M  V30 10161 C 946.919 4.81169 0.0546406 0
M  V30 10162 C 949.271 5.20111 -0.336693 0
M  V30 10163 C 946.599 5.8023 -0.86889 0
M  V30 10164 C 948.951 6.2016 -1.24838 0
M  V30 10165 C 947.615 6.49976 -1.51944 0
M  V30 10166 H 946.885 0.704228 0.230529 0
M  V30 10167 H 949.532 1.91182 -0.110328 0
M  V30 10168 H 947.837 3.31672 2.08568 0
M  V30 10169 H 949.534 3.58359 1.79945 0
M  V30 10170 H 946.124 4.2529 0.531614 0
M  V30 10171 H 950.308 4.96082 -0.147105 0
M  V30 10172 H 945.564 6.0167 -1.08643 0
M  V30 10173 H 949.738 6.73767 -1.76098 0
M  V30 10174 H 947.365 7.26551 -2.2367 0
M  V30 10175 N 948.94 -0.228186 1.55939 0
M  V30 10176 C 950.186 -0.954964 1.78909 0
M  V30 10177 C 950.519 -1.8425 0.613648 0
M  V30 10178 O 949.794 -1.90604 -0.38737 0
M  V30 10179 C 950.077 -1.79957 3.1191 0
M  V30 10180 C 949.93 -0.938968 4.3989 0
M  V30 10181 C 951.249 -2.77859 3.41295 0
M  V30 10182 H 948.368 -0.345745 0.650868 0
M  V30 10183 H 951.01 -0.224244 1.88672 0
M  V30 10184 H 949.16 -2.42256 3.03717 0
M  V30 10185 H 950.832 -0.333225 4.60095 0
M  V30 10186 H 949.075 -0.244096 4.33113 0
M  V30 10187 H 949.746 -1.56416 5.29375 0
M  V30 10188 H 952.222 -2.25695 3.49572 0
M  V30 10189 H 951.098 -3.34062 4.35538 0
M  V30 10190 H 951.359 -3.55266 2.63132 0
M  V30 10191 N 950.418 -1.49637 -0.494624 0
M  V30 10192 C 951.664 -1.59681 -1.25019 0
M  V30 10193 C 951.997 -0.285511 -1.9209 0
M  V30 10194 O 951.272 0.711398 -1.81023 0
M  V30 10195 C 951.555 -2.76058 -2.31222 0
M  V30 10196 C 951.408 -4.17002 -1.68611 0
M  V30 10197 C 952.727 -2.88056 -3.32734 0
M  V30 10198 H 949.846 -0.581209 -0.453172 0
M  V30 10199 H 952.488 -1.81944 -0.547391 0
M  V30 10200 H 950.638 -2.57207 -2.91164 0
M  V30 10201 H 952.31 -4.47385 -1.12447 0
M  V30 10202 H 950.553 -4.22352 -0.989991 0
M  V30 10203 H 951.224 -4.94316 -2.45674 0
M  V30 10204 H 953.7 -3.05237 -2.82789 0
M  V30 10205 H 952.576 -3.71151 -4.04399 0
M  V30 10206 H 952.837 -1.97676 -3.95445 0
M  V30 10207 N 951.896 0.746133 -1.38819 0
M  V30 10208 C 953.144 1.50247 -1.35167 0
M  V30 10209 C 953.465 1.94921 0.0553531 0
M  V30 10210 O 952.735 1.68187 1.00449 0
M  V30 10211 H 951.315 0.557337 -0.497377 0
M  V30 10212 H 953.977 0.886472 -1.73573 0
M  V30 10213 H 953.073 2.38986 -2.00728 0
M  V30 10214 N 953.375 1.23811 0.975125 0
M  V30 10215 C 954.322 1.02394 2.06843 0
M  V30 10216 C 955.292 -0.060337 1.6599 0
M  V30 10217 O 956.477 0.0928187 1.90574 0
M  V30 10218 C 953.617 0.626882 3.39359 0
M  V30 10219 C 952.73 1.78385 3.9345 0
M  V30 10220 C 951.865 1.33307 5.14201 0
M  V30 10221 C 950.904 2.46045 5.60471 0
M  V30 10222 N 950.041 2.01888 6.72448 0
M  V30 10223 H 954.881 1.95973 2.24496 0
M  V30 10224 H 952.418 0.976206 1.10039 0
M  V30 10225 H 954.376 0.377742 4.15486 0
M  V30 10226 H 953.006 -0.271907 3.21653 0
M  V30 10227 H 952.058 2.14685 3.14029 0
M  V30 10228 H 953.37 2.63122 4.23755 0
M  V30 10229 H 952.524 1.04237 5.97678 0
M  V30 10230 H 951.263 0.456143 4.85562 0
M  V30 10231 H 950.268 2.75884 4.75571 0
M  V30 10232 H 951.493 3.34283 5.91127 0
M  V30 10233 H 949.439 1.16583 6.45558 0
M  V30 10234 H 949.356 2.80182 7.02164 0
M  V30 10235 H 950.624 1.75937 7.59386 0
M  V30 10236 N 954.853 -1.17469 1.05066 0
M  V30 10237 C 955.763 -2.25089 0.661222 0
M  V30 10238 C 956.779 -1.71086 -0.31712 0
M  V30 10239 O 957.955 -2.00685 -0.169534 0
M  V30 10240 C 955.02 -3.46676 0.0406415 0
M  V30 10241 C 954.081 -4.15771 1.06927 0
M  V30 10242 C 953.314 -5.31553 0.478208 0
M  V30 10243 O 953.537 -5.6593 -0.712714 0
M  V30 10244 O 952.471 -5.89574 1.21185 0
M  V30 10245 H 956.297 -2.60685 1.5581 0
M  V30 10246 H 953.882 -1.24744 0.822147 0
M  V30 10247 H 955.764 -4.203 -0.304312 0
M  V30 10248 H 954.439 -3.1288 -0.829909 0
M  V30 10249 H 953.346 -3.44171 1.46619 0
M  V30 10250 H 954.679 -4.53591 1.91092 0
M  V30 10251 N 956.331 -0.831506 -1.3388 0
M  V30 10252 C 957.742 -0.481375 -1.80388 0
M  V30 10253 C 958.093 0.998993 -1.68863 0
M  V30 10254 O 957.218 1.77795 -1.2336 0
M  V30 10255 C 957.813 -0.86699 -3.27519 0
M  V30 10256 C 956.372 -0.569105 -3.72073 0
M  V30 10257 C 955.519 -1.07929 -2.55434 0
M  V30 10258 H 958.47 -1.02089 -1.21505 0
M  V30 10259 H 958.491 -0.174128 -3.80101 0
M  V30 10260 H 958.003 -1.94447 -3.35875 0
M  V30 10261 H 956.104 0.498607 -3.69249 0
M  V30 10262 H 956.217 -1.11918 -4.65845 0
M  V30 10263 H 954.581 -0.500465 -2.49735 0
M  V30 10264 H 955.364 -2.16339 -2.66556 0
M  V30 10265 N 957.809 1.4625 -0.587256 0
M  V30 10266 C 959.22 1.85997 -0.161918 0
M  V30 10267 C 959.571 1.49025 1.27616 0
M  V30 10268 O 958.696 0.907282 1.96462 0
M  V30 10269 C 959.291 3.37582 -0.287077 0
M  V30 10270 C 957.85 3.76308 0.0834211 0
M  V30 10271 C 956.997 2.70259 -0.620932 0
M  V30 10272 H 959.948 1.3734 -0.795199 0
M  V30 10273 H 959.969 3.77379 0.486333 0
M  V30 10274 H 959.481 3.64459 -1.33383 0
M  V30 10275 H 957.582 3.55047 1.13013 0
M  V30 10276 H 957.695 4.78184 -0.296064 0
M  V30 10277 H 956.059 2.54628 -0.0607027 0
M  V30 10278 H 956.842 2.99975 -1.66942 0
M  V30 10279 N 959.287 0.325282 1.54207 0
M  V30 10280 C 960.234 -0.539889 2.24397 0
M  V30 10281 C 961.204 -1.11028 1.2354 0
M  V30 10282 O 962.389 -1.1503 1.52226 0
M  V30 10283 C 959.529 -1.69405 3.00659 0
M  V30 10284 C 958.642 -1.15273 4.16337 0
M  V30 10285 C 957.777 -2.27272 4.80126 0
M  V30 10286 C 956.816 -1.70397 5.87904 0
M  V30 10287 N 955.953 -2.76065 6.45548 0
M  V30 10288 H 960.793 0.0652318 2.97929 0
M  V30 10289 H 958.33 0.043964 1.47034 0
M  V30 10290 H 960.288 -2.37325 3.43122 0
M  V30 10291 H 958.918 -2.27043 2.29458 0
M  V30 10292 H 957.97 -0.365034 3.78645 0
M  V30 10293 H 959.282 -0.696576 4.93912 0
M  V30 10294 H 958.436 -3.03092 5.25566 0
M  V30 10295 H 957.175 -2.76224 4.01935 0
M  V30 10296 H 956.18 -0.930752 5.41864 0
M  V30 10297 H 957.405 -1.22319 6.67993 0
M  V30 10298 H 955.351 -3.24306 5.7023 0
M  V30 10299 H 955.268 -2.35018 7.18542 0
M  V30 10300 H 956.536 -3.5171 6.95644 0
M  V30 10301 N 960.765 -1.57509 0.0534917 0
M  V30 10302 C 962.014 -1.91959 -0.619244 0
M  V30 10303 C 962.327 -0.933882 -1.71866 0
M  V30 10304 O 963.533 -1.17052 -2.44972 0
M  V30 10305 C 961.989 -3.40938 -1.15278 0
M  V30 10306 C 961.597 -4.47919 -0.085348 0
M  V30 10307 C 963.341 -3.84419 -1.80063 0
M  V30 10308 C 961.248 -5.88014 -0.631897 0
M  V30 10309 H 960.178 -0.71642 -0.235072 0
M  V30 10310 H 962.829 -1.83089 0.122758 0
M  V30 10311 H 961.211 -3.44821 -1.94717 0
M  V30 10312 H 962.385 -4.55629 0.688374 0
M  V30 10313 H 960.7 -4.13793 0.465178 0
M  V30 10314 H 963.297 -4.86457 -2.21954 0
M  V30 10315 H 963.64 -3.20791 -2.65328 0
M  V30 10316 H 964.173 -3.83062 -1.07275 0
M  V30 10317 H 960.912 -6.55244 0.183175 0
M  V30 10318 H 960.432 -5.83861 -1.37355 0
M  V30 10319 H 962.111 -6.37336 -1.11407 0
M  V30 10320 N 962.243 0.219913 -1.56058 0
M  V30 10321 C 963.468 0.965073 -1.83579 0
M  V30 10322 C 963.893 1.77092 -0.634024 0
M  V30 10323 O 963.251 1.76434 0.417205 0
M  V30 10324 C 963.299 1.85705 -3.09105 0
M  V30 10325 O 962.403 2.95261 -2.87914 0
M  V30 10326 H 961.744 0.273173 -0.605204 0
M  V30 10327 H 964.274 0.23273 -2.03272 0
M  V30 10328 H 964.284 2.26655 -3.39252 0
M  V30 10329 H 962.959 1.26476 -3.96203 0
M  V30 10330 H 961.536 2.58246 -2.69005 0
M  V30 10331 N 963.721 1.49897 0.486681 0
M  V30 10332 C 964.669 1.68125 1.60738 0
M  V30 10333 C 965.663 0.547097 1.60322 0
M  V30 10334 O 966.869 0.727153 1.64659 0
M  V30 10335 H 963.244 0.530391 0.533094 0
M  V30 10336 H 965.215 2.62165 1.42521 0
M  V30 10337 C 963.964 1.77827 2.98786 0
M  V30 10338 H 963.287 2.6448 2.99818 0
M  V30 10339 H 964.727 1.94611 3.76699 0
M  V30 10340 C 963.186 0.526287 3.32764 0
M  V30 10341 O 963.716 -0.341607 4.00245 0
M  V30 10342 N 961.922 0.384947 2.88039 0
M  V30 10343 H 961.469 1.09222 2.33299 0
M  V30 10344 H 961.427 -0.451618 3.11139 0
M  V30 10345 N 965.199 -0.738761 1.39212 0
M  V30 10346 C 966.146 -1.85273 1.37631 0
M  V30 10347 C 967.116 -1.64407 0.236572 0
M  V30 10348 O 968.301 -1.85866 0.431104 0
M  V30 10349 C 965.441 -3.22745 1.22188 0
M  V30 10350 C 964.554 -3.55342 2.45674 0
M  V30 10351 C 963.689 -4.82195 2.22847 0
M  V30 10352 C 962.728 -5.07625 3.42029 0
M  V30 10353 N 961.865 -6.25679 3.18543 0
M  V30 10354 H 966.705 -1.85959 2.32859 0
M  V30 10355 H 964.242 -0.908716 1.15675 0
M  V30 10356 H 966.2 -4.02095 1.11245 0
M  V30 10357 H 964.83 -3.21347 0.30592 0
M  V30 10358 H 963.882 -2.70722 2.67233 0
M  V30 10359 H 965.194 -3.70054 3.34457 0
M  V30 10360 H 964.348 -5.69518 2.09126 0
M  V30 10361 H 963.087 -4.6965 1.31454 0
M  V30 10362 H 962.092 -4.18765 3.56253 0
M  V30 10363 H 963.317 -5.22058 4.34319 0
M  V30 10364 H 961.263 -6.14429 2.2981 0
M  V30 10365 H 961.18 -6.40961 4.0088 0
M  V30 10366 H 962.448 -7.15851 3.08508 0
M  V30 10367 N 966.677 -1.24326 -0.968545 0
M  V30 10368 C 967.923 -1.08406 -1.71394 0
M  V30 10369 C 968.256 0.376353 -1.90518 0
M  V30 10370 O 967.531 1.27816 -1.46606 0
M  V30 10371 C 967.814 -1.82344 -3.1052 0
M  V30 10372 C 967.667 -3.3613 -2.98893 0
M  V30 10373 C 968.986 -1.59545 -4.10163 0
M  V30 10374 H 966.105 -0.395205 -0.622079 0
M  V30 10375 H 968.747 -1.52983 -1.12677 0
M  V30 10376 H 966.897 -1.44452 -3.60646 0
M  V30 10377 H 968.569 -3.83614 -2.56199 0
M  V30 10378 H 966.812 -3.64553 -2.35124 0
M  V30 10379 H 967.483 -3.83064 -3.97449 0
M  V30 10380 H 969.959 -1.92504 -3.68892 0
M  V30 10381 H 968.835 -2.13736 -5.05577 0
M  V30 10382 H 969.096 -0.533503 -4.38869 0
M  V30 10383 N 968.156 1.1691 -1.05688 0
M  V30 10384 C 969.433 1.83266 -0.683601 0
M  V30 10385 C 969.813 1.93858 0.835602 0
M  V30 10386 O 969.161 1.47696 1.7435 0
M  V30 10387 C 969.371 3.20625 -1.37842 0
M  V30 10388 C 970.719 3.96473 -1.51967 0
M  V30 10389 O 971.743 3.30122 -1.33783 0
M  V30 10390 O 970.602 5.15393 -1.81749 0
M  V30 10391 H 967.696 0.791028 -0.241254 0
M  V30 10392 H 970.242 1.24165 -1.15677 0
M  V30 10393 H 969.014 3.07914 -2.41463 0
M  V30 10394 H 968.637 3.87398 -0.894921 0
M  V30 10395 N 969.634 0.838594 1.33437 0
M  V30 10396 C 970.88 0.434813 1.98084 0
M  V30 10397 C 971.213 -1.00331 1.66275 0
M  V30 10398 O 970.488 -1.70139 0.942501 0
M  V30 10399 C 970.771 0.655602 3.54082 0
M  V30 10400 C 970.624 2.14097 3.95578 0
M  V30 10401 C 971.943 0.101576 4.39983 0
M  V30 10402 H 969.062 0.159456 0.719544 0
M  V30 10403 H 971.704 1.05406 1.58081 0
M  V30 10404 H 969.854 0.128501 3.88287 0
M  V30 10405 H 971.526 2.73292 3.71631 0
M  V30 10406 H 969.769 2.62558 3.4532 0
M  V30 10407 H 970.44 2.24621 5.04231 0
M  V30 10408 H 972.916 0.552122 4.12421 0
M  V30 10409 H 971.792 0.28575 5.48156 0
M  V30 10410 H 972.053 -0.994616 4.30767 0
M  V30 10411 N 971.112 -1.45937 0.595003 0
M  V30 10412 C 972.358 -2.03184 0.0938125 0
M  V30 10413 C 972.713 -1.45675 -1.25684 0
M  V30 10414 O 972.006 -0.617122 -1.8139 0
M  V30 10415 C 972.2 -3.57396 -0.0173747 0
M  V30 10416 C 972.029 -4.29861 1.32096 0
M  V30 10417 C 970.799 -4.68285 1.89835 0
M  V30 10418 C 972.997 -4.6262 2.24693 0
M  V30 10419 N 970.979 -5.25554 3.17279 0
M  V30 10420 C 972.35 -5.20589 3.36729 0
M  V30 10421 C 974.405 -4.44555 2.24221 0
M  V30 10422 C 973.108 -5.62398 4.48443 0
M  V30 10423 C 975.134 -4.87388 3.34973 0
M  V30 10424 C 974.496 -5.45439 4.4573 0
M  V30 10425 H 970.595 -0.77816 0.0773994 0
M  V30 10426 H 973.179 -1.77926 0.790599 0
M  V30 10427 H 971.35 -3.82341 -0.683354 0
M  V30 10428 H 973.082 -4.01292 -0.524073 0
M  V30 10429 H 969.837 -4.51437 1.43185 0
M  V30 10430 H 970.261 -5.58699 3.8234 0
M  V30 10431 H 974.903 -3.98998 1.39857 0
M  V30 10432 H 972.621 -6.06927 5.3354 0
M  V30 10433 H 976.207 -4.75152 3.3574 0
M  V30 10434 H 975.087 -5.77975 5.30014 0
M  V30 10435 N 972.59 -0.333456 -1.54032 0
M  V30 10436 C 973.815 0.270517 -2.05628 0
M  V30 10437 C 974.24 1.44231 -1.20744 0
M  V30 10438 O 973.598 1.79975 -0.218822 0
M  V30 10439 C 973.646 0.673251 -3.54259 0
M  V30 10440 O 972.75 1.77448 -3.72271 0
M  V30 10441 H 972.091 0.0469753 -0.662336 0
M  V30 10442 H 974.621 -0.484739 -1.98775 0
M  V30 10443 H 974.631 0.953194 -3.96709 0
M  V30 10444 H 973.306 -0.183747 -4.15494 0
M  V30 10445 H 971.883 1.49259 -3.41725 0
M  V30 10446 N 974.068 1.57479 -0.061844 0
M  V30 10447 C 975.314 1.93395 0.610443 0
M  V30 10448 C 975.647 0.941334 1.6986 0
M  V30 10449 O 974.922 -0.0310262 1.94475 0
M  V30 10450 C 975.205 3.39636 1.19664 0
M  V30 10451 C 975.058 4.49651 0.115805 0
M  V30 10452 C 976.377 3.86488 2.10512 0
M  V30 10453 H 973.496 0.703262 0.220436 0
M  V30 10454 H 976.138 1.89583 -0.125785 0
M  V30 10455 H 974.288 3.43015 1.82409 0
M  V30 10456 H 975.96 4.58397 -0.516728 0
M  V30 10457 H 974.203 4.30237 -0.55483 0
M  V30 10458 H 974.874 5.49089 0.566176 0
M  V30 10459 H 977.35 3.85052 1.57715 0
M  V30 10460 H 976.226 4.89444 2.48466 0
M  V30 10461 H 976.487 3.23856 3.00948 0
M  V30 10462 N 975.546 -0.211634 1.56173 0
M  V30 10463 C 976.794 -0.932704 1.7929 0
M  V30 10464 C 977.115 -1.84472 0.632076 0
M  V30 10465 O 976.385 -1.92739 -0.350519 0
M  V30 10466 H 974.965 -0.347393 0.661307 0
M  V30 10467 H 977.627 -0.22111 1.93642 0
M  V30 10468 H 976.723 -1.53365 2.71819 0
M  V30 10469 N 977.024 -1.50153 -0.478725 0
M  V30 10470 C 978.27 -1.60998 -1.23318 0
M  V30 10471 C 978.603 -0.305868 -1.91776 0
M  V30 10472 O 977.878 0.692158 -1.81767 0
M  V30 10473 C 978.161 -2.78495 -2.28282 0
M  V30 10474 C 978.014 -4.18767 -1.64178 0
M  V30 10475 C 979.333 -2.91569 -3.2966 0
M  V30 10476 H 976.452 -0.585983 -0.446982 0
M  V30 10477 H 979.094 -1.82514 -0.528063 0
M  V30 10478 H 977.244 -2.60281 -2.8842 0
M  V30 10479 H 978.916 -4.48552 -1.07696 0
M  V30 10480 H 977.159 -4.23379 -0.94514 0
M  V30 10481 H 977.83 -4.96894 -2.40417 0
M  V30 10482 H 980.306 -3.08219 -2.79536 0
M  V30 10483 H 979.182 -3.75419 -4.0044 0
M  V30 10484 H 979.443 -2.01859 -3.93326 0
M  V30 10485 N 978.502 0.731368 -1.39602 0
M  V30 10486 C 979.751 1.48647 -1.36334 0
M  V30 10487 C 980.064 1.95565 0.0367383 0
M  V30 10488 O 981.27 2.7082 0.192017 0
M  V30 10489 C 979.726 2.68616 -2.39528 0
M  V30 10490 C 979.334 2.28632 -3.85268 0
M  V30 10491 C 981.078 3.46422 -2.45341 0
M  V30 10492 C 978.985 3.45345 -4.80095 0
M  V30 10493 H 977.915 0.558218 -0.506861 0
M  V30 10494 H 980.566 0.797467 -1.65266 0
M  V30 10495 H 978.948 3.39609 -2.03671 0
M  V30 10496 H 980.122 1.65162 -4.30184 0
M  V30 10497 H 978.437 1.63909 -3.82783 0
M  V30 10498 H 981.034 4.33241 -3.13379 0
M  V30 10499 H 981.377 3.8914 -1.47904 0
M  V30 10500 H 981.91 2.82461 -2.80108 0
M  V30 10501 H 978.649 3.07674 -5.78807 0
M  V30 10502 H 978.169 4.07784 -4.39855 0
M  V30 10503 H 979.848 4.1163 -4.99169 0
M  V30 10504 N 979.98 1.24838 0.961938 0
M  V30 10505 C 981.227 1.09151 1.70564 0
M  V30 10506 C 981.555 -0.368719 1.90973 0
M  V30 10507 O 980.81 -1.28854 1.47293 0
M  V30 10508 C 981.109 1.78289 3.09754 0
M  V30 10509 C 980.775 3.28216 3.09169 0
M  V30 10510 C 979.437 3.69118 3.08716 0
M  V30 10511 C 981.789 4.24035 3.03058 0
M  V30 10512 C 979.117 5.04263 2.99892 0
M  V30 10513 C 981.469 5.59195 2.95776 0
M  V30 10514 C 980.133 5.99436 2.93655 0
M  V30 10515 H 979.403 0.399414 0.624139 0
M  V30 10516 H 982.05 1.55016 1.12438 0
M  V30 10517 H 980.355 1.24835 3.7138 0
M  V30 10518 H 982.052 1.63612 3.66104 0
M  V30 10519 H 978.642 2.95667 3.10289 0
M  V30 10520 H 982.826 3.93431 3.02532 0
M  V30 10521 H 978.082 5.3463 2.96615 0
M  V30 10522 H 982.256 6.33142 2.90007 0
M  V30 10523 H 979.883 7.04116 2.86573 0
M  V30 10524 N 981.458 -1.16348 1.06306 0
M  V30 10525 C 982.705 -1.86881 0.779852 0
M  V30 10526 C 983.033 -1.8171 -0.693668 0
M  V30 10527 O 982.288 -1.22769 -1.52401 0
M  V30 10528 C 982.587 -3.35936 1.21991 0
M  V30 10529 C 982.253 -3.61307 2.69756 0
M  V30 10530 C 980.915 -3.6794 3.10119 0
M  V30 10531 C 983.267 -3.71871 3.65187 0
M  V30 10532 C 980.595 -3.82639 4.44752 0
M  V30 10533 C 982.947 -3.88091 4.99568 0
M  V30 10534 C 981.611 -3.92967 5.39568 0
M  V30 10535 H 980.881 -0.683847 0.285368 0
M  V30 10536 H 983.528 -1.37569 1.33218 0
M  V30 10537 H 981.833 -3.87381 0.586774 0
M  V30 10538 H 983.53 -3.88895 0.977821 0
M  V30 10539 H 980.12 -3.56777 2.37504 0
M  V30 10540 H 984.304 -3.66057 3.35136 0
M  V30 10541 H 979.56 -3.84666 4.75228 0
M  V30 10542 H 983.734 -3.95207 5.73397 0
M  V30 10543 H 981.361 -4.04109 6.43895 0
M  V30 10544 N 982.937 -0.845659 -1.3299 0
M  V30 10545 C 983.869 -0.241097 -2.27928 0
M  V30 10546 C 984.882 0.582048 -1.5204 0
M  V30 10547 O 986.071 0.408008 -1.73774 0
M  V30 10548 C 983.171 0.678652 -3.32035 0
M  V30 10549 C 982.344 -0.106652 -4.3727 0
M  V30 10550 C 981.403 0.737478 -5.21006 0
M  V30 10551 O 980.429 0.174231 -5.68933 0
M  V30 10552 N 981.631 2.05372 -5.42957 0
M  V30 10553 H 984.396 -1.05685 -2.80448 0
M  V30 10554 H 981.957 -0.704771 -1.45755 0
M  V30 10555 H 983.949 1.24849 -3.84961 0
M  V30 10556 H 982.519 1.3951 -2.79742 0
M  V30 10557 H 981.739 -0.857897 -3.84752 0
M  V30 10558 H 983.027 -0.646386 -5.04677 0
M  V30 10559 H 982.425 2.53478 -5.05733 0
M  V30 10560 H 980.982 2.5719 -5.98913 0
M  V30 10561 N 984.415 1.45619 -0.602734 0
M  V30 10562 C 985.655 2.0416 -0.0989764 0
M  V30 10563 C 986.019 1.4616 1.24504 0
M  V30 10564 O 987.22 1.96025 1.83923 0
M  V30 10565 C 985.491 3.57357 -0.0551869 0
M  V30 10566 S 987.05 4.3708 0.388086 0
M  V30 10567 H 983.868 0.709431 -0.0472054 0
M  V30 10568 H 986.47 1.78394 -0.799745 0
M  V30 10569 H 985.174 3.97083 -1.03697 0
M  V30 10570 H 984.705 3.87692 0.667727 0
M  V30 10571 H 986.72 4.68362 1.63865 0
M  V30 10572 N 985.893 0.34162 1.53853 0
M  V30 10573 C 986.823 -0.508431 2.27897 0
M  V30 10574 C 987.804 -1.10425 1.29384 0
M  V30 10575 O 988.989 -1.126 1.58224 0
M  V30 10576 C 986.119 -1.66048 3.05034 0
M  V30 10577 C 985.073 -1.19309 4.11035 0
M  V30 10578 C 984.399 -2.4335 4.76114 0
M  V30 10579 C 985.699 -0.294952 5.21467 0
M  V30 10580 H 987.393 0.109251 2.99201 0
M  V30 10581 H 984.939 0.0539847 1.43899 0
M  V30 10582 H 986.892 -2.26158 3.5557 0
M  V30 10583 H 985.616 -2.30503 2.31379 0
M  V30 10584 H 984.275 -0.614809 3.61408 0
M  V30 10585 H 983.923 -3.06208 3.99056 0
M  V30 10586 H 983.623 -2.1276 5.47729 0
M  V30 10587 H 985.147 -3.0419 5.29434 0
M  V30 10588 H 986.561 -0.80285 5.67651 0
M  V30 10589 H 984.958 -0.0810221 6.00045 0
M  V30 10590 H 986.028 0.669433 4.80257 0
M  V30 10591 N 987.371 -1.57444 0.0701946 0
M  V30 10592 C 988.601 -1.97467 -0.607476 0
M  V30 10593 C 989.009 -0.947232 -1.63781 0
M  V30 10594 O 988.352 0.074652 -1.83548 0
M  V30 10595 C 988.414 -3.33795 -1.33495 0
M  V30 10596 C 988.078 -4.54697 -0.458265 0
M  V30 10597 C 989.075 -5.19127 0.283488 0
M  V30 10598 C 986.76 -5.00833 -0.383612 0
M  V30 10599 C 988.754 -6.28043 1.08813 0
M  V30 10600 C 986.441 -6.09622 0.424705 0
M  V30 10601 C 987.439 -6.7309 1.15925 0
M  V30 10602 O 987.127 -7.79785 1.95423 0
M  V30 10603 H 986.859 -0.654405 -0.169501 0
M  V30 10604 H 989.413 -2.04931 0.138651 0
M  V30 10605 H 987.643 -3.22941 -2.12711 0
M  V30 10606 H 989.332 -3.58435 -1.9047 0
M  V30 10607 H 990.098 -4.84428 0.235397 0
M  V30 10608 H 985.977 -4.51211 -0.944968 0
M  V30 10609 H 989.521 -6.77513 1.66197 0
M  V30 10610 H 985.418 -6.43755 0.474366 0
M  V30 10611 H 986.186 -7.96655 1.87838 0
M  V30 10612 N 988.849 0.203349 -1.56283 0
M  V30 10613 C 990.097 0.923183 -1.79782 0
M  V30 10614 C 990.418 1.84134 -0.64185 0
M  V30 10615 O 989.688 1.92922 0.340292 0
M  V30 10616 H 988.268 0.343881 -0.66314 0
M  V30 10617 H 990.93 0.210837 -1.93756 0
M  V30 10618 H 990.026 1.51921 -2.72629 0
M  V30 10619 N 990.327 1.50405 0.470755 0
M  V30 10620 C 991.743 1.37838 0.804534 0
M  V30 10621 C 991.943 0.434743 1.96754 0
M  V30 10622 O 990.999 -0.122507 2.52203 0
M  V30 10623 C 992.312 2.79212 1.11629 0
M  V30 10624 C 993.86 2.88129 1.22272 0
M  V30 10625 C 994.335 4.30337 1.5676 0
M  V30 10626 N 995.826 4.3329 1.63751 0
M  V30 10627 C 996.561 5.4032 1.91942 0
M  V30 10628 N 996.057 6.57558 2.18151 0
M  V30 10629 N 997.85 5.27764 1.93446 0
M  V30 10630 H 990.001 2.10332 -0.295689 0
M  V30 10631 H 992.264 0.945429 -0.0697733 0
M  V30 10632 H 991.97 3.50103 0.334778 0
M  V30 10633 H 991.844 3.16475 2.0524 0
M  V30 10634 H 994.231 2.17457 1.9949 0
M  V30 10635 H 994.312 2.54409 0.2664 0
M  V30 10636 H 993.956 5.01547 0.800817 0
M  V30 10637 H 993.886 4.61545 2.53543 0
M  V30 10638 H 996.377 3.48752 1.45535 0
M  V30 10639 H 996.69 7.34935 2.38936 0
M  V30 10640 H 995.035 6.60732 2.15542 0
M  V30 10641 H 998.226 4.35169 1.72468 0
M  V30 10642 H 998.399 6.11264 2.15081 0
M  V30 10643 N 991.805 -0.723954 1.39988 0
M  V30 10644 C 992.752 -1.83803 1.39589 0
M  V30 10645 C 993.722 -1.64146 0.253996 0
M  V30 10646 O 994.907 -1.85398 0.450793 0
M  V30 10647 C 992.047 -3.21431 1.25604 0
M  V30 10648 C 991.16 -3.52717 2.49429 0
M  V30 10649 C 990.295 -4.79805 2.27949 0
M  V30 10650 C 989.334 -5.03968 3.47394 0
M  V30 10651 N 988.471 -6.22266 3.25161 0
M  V30 10652 H 993.311 -1.83479 2.34818 0
M  V30 10653 H 990.848 -0.896396 1.16633 0
M  V30 10654 H 992.806 -4.00892 1.15504 0
M  V30 10655 H 991.436 -3.21005 0.339986 0
M  V30 10656 H 990.488 -2.67872 2.7009 0
M  V30 10657 H 991.8 -3.66486 3.38363 0
M  V30 10658 H 990.954 -5.67268 2.15155 0
M  V30 10659 H 989.693 -4.68229 1.36428 0
M  V30 10660 H 988.698 -4.14963 3.60674 0
M  V30 10661 H 989.923 -5.17422 4.39831 0
M  V30 10662 H 987.869 -6.11957 2.36314 0
M  V30 10663 H 987.786 -6.36673 4.07656 0
M  V30 10664 H 989.054 -7.12539 3.16083 0
M  V30 10665 N 993.283 -1.25346 -0.955304 0
M  V30 10666 C 994.694 -1.09173 -1.51453 0
M  V30 10667 C 995.045 0.332755 -1.93358 0
M  V30 10668 O 994.17 1.22264 -1.78551 0
M  V30 10669 C 994.765 -1.97564 -2.75234 0
M  V30 10670 C 993.324 -1.85579 -3.27471 0
M  V30 10671 C 992.471 -1.91755 -2.00313 0
M  V30 10672 H 995.422 -1.38642 -0.772271 0
M  V30 10673 H 995.443 -1.51523 -3.49029 0
M  V30 10674 H 994.955 -3.01233 -2.44704 0
M  V30 10675 H 993.056 -0.847906 -3.62824 0
M  V30 10676 H 993.169 -2.70353 -3.95533 0
M  V30 10677 H 991.533 -1.35633 -2.15582 0
M  V30 10678 H 992.316 -2.97028 -1.72132 0
M  V30 10679 N 994.761 1.15782 -1.06922 0
M  V30 10680 C 996.008 1.86465 -0.789752 0
M  V30 10681 C 996.336 1.82075 0.684022 0
M  V30 10682 O 995.591 1.23576 1.51748 0
M  V30 10683 C 995.89 3.35284 -1.2377 0
M  V30 10684 C 995.556 3.59871 -2.71668 0
M  V30 10685 C 994.218 3.6629 -3.12066 0
M  V30 10686 C 996.57 3.69929 -3.67154 0
M  V30 10687 C 993.898 3.80275 -4.46775 0
M  V30 10688 C 996.25 3.85436 -5.01619 0
M  V30 10689 C 994.914 3.901 -5.41644 0
M  V30 10690 H 994.184 0.682324 -0.288991 0
M  V30 10691 H 996.831 1.36861 -1.33945 0
M  V30 10692 H 995.136 3.87065 -0.607309 0
M  V30 10693 H 996.833 3.88371 -0.998431 0
M  V30 10694 H 993.423 3.55512 -2.39393 0
M  V30 10695 H 997.607 3.64274 -3.37073 0
M  V30 10696 H 992.863 3.8214 -4.77262 0
M  V30 10697 H 997.037 3.92161 -5.75485 0
M  V30 10698 H 994.664 4.00688 -6.46029 0
M  V30 10699 N 996.239 0.8527 1.3254 0
M  V30 10700 C 997.487 0.454224 1.96929 0
M  V30 10701 C 997.808 -0.993034 1.67821 0
M  V30 10702 O 997.078 -1.69371 0.984393 0
M  V30 10703 H 995.658 0.164977 0.728554 0
M  V30 10704 H 998.32 1.0887 1.61658 0
M  V30 10705 H 997.416 0.597667 3.06324 0
M  V30 10706 N 997.718 -1.45297 0.610449 0
M  V30 10707 C 998.668 -2.27639 -0.128194 0
M  V30 10708 C 999.652 -1.37485 -0.835861 0
M  V30 10709 O 1000.84 -1.61454 -0.725378 0
M  V30 10710 C 997.973 -3.24413 -1.123 0
M  V30 10711 C 997.059 -4.22055 -0.416029 0
M  V30 10712 N 997.45 -5.02867 0.543921 0
M  V30 10713 C 995.748 -4.41041 -0.663208 0
M  V30 10714 C 996.449 -5.73728 0.959731 0
M  V30 10715 N 995.425 -5.42756 0.302873 0
M  V30 10716 H 999.227 -2.8752 0.609056 0
M  V30 10717 H 996.741 -1.56484 0.434338 0
M  V30 10718 H 998.738 -3.82139 -1.6666 0
M  V30 10719 H 997.398 -2.66092 -1.86078 0
M  V30 10720 H 998.409 -5.09649 0.920799 0
M  V30 10721 H 995.086 -3.93842 -1.38544 0
M  V30 10722 H 996.476 -6.48666 1.75163 0
M  V30 10723 N 999.196 -0.349774 -1.5367 0
M  V30 10724 C 1000.14 0.519396 -2.26727 0
M  V30 10725 C 1001.14 1.09673 -1.29105 0
M  V30 10726 O 1002.34 1.04176 -1.46791 0
M  V30 10727 H 998.719 0.186192 -0.728585 0
M  V30 10728 H 1000.69 -0.118736 -2.98164 0
M  V30 10729 C 999.439 1.65535 -3.05767 0
M  V30 10730 H 998.762 1.22038 -3.80719 0
M  V30 10731 H 1000.2 2.23856 -3.6009 0
M  V30 10732 C 998.661 2.58844 -2.15642 0
M  V30 10733 O 999.191 3.61254 -1.75665 0
M  V30 10734 N 997.397 2.27671 -1.80595 0
M  V30 10735 H 996.944 1.44429 -2.13302 0
M  V30 10736 H 996.902 2.90359 -1.20577 0
M  V30 10737 N 1000.67 1.57404 -0.0785433 0
M  V30 10738 C 1001.61 2.101 0.916013 0
M  V30 10739 C 1002.62 1.03459 1.25698 0
M  V30 10740 O 1003.81 1.30954 1.21299 0
M  V30 10741 C 1000.91 2.55202 2.22992 0
M  V30 10742 C 1000.08 3.85491 2.06678 0
M  V30 10743 C 999.14 4.16614 3.21433 0
M  V30 10744 O 998.166 4.86105 2.96126 0
M  V30 10745 N 999.368 3.70697 4.46726 0
M  V30 10746 H 1002.13 2.96054 0.466059 0
M  V30 10747 H 999.694 1.61546 0.107006 0
M  V30 10748 H 1001.69 2.7308 2.9868 0
M  V30 10749 H 1000.26 1.74348 2.59464 0
M  V30 10750 H 999.476 3.76925 1.15417 0
M  V30 10751 H 1000.76 4.70759 1.93036 0
M  V30 10752 H 1000.16 3.14571 4.70172 0
M  V30 10753 H 998.719 3.93762 5.19418 0
M  V30 10754 N 1002.15 -0.195058 1.56388 0
M  V30 10755 C 1003.38 -0.935745 1.85091 0
M  V30 10756 C 1003.8 -1.76061 0.662118 0
M  V30 10757 O 1003.16 -1.77076 -0.389083 0
M  V30 10758 C 1003.21 -1.80764 3.1202 0
M  V30 10759 O 1002.31 -2.90643 2.92575 0
M  V30 10760 H 1001.65 -0.26351 0.609474 0
M  V30 10761 H 1004.18 -0.200362 2.03617 0
M  V30 10762 H 1004.19 -2.21229 3.42815 0
M  V30 10763 H 1002.87 -1.20157 3.98165 0
M  V30 10764 H 1001.44 -2.53934 2.73079 0
M  V30 10765 N 1003.63 -1.50653 -0.462772 0
M  V30 10766 C 1004.56 -1.66286 -1.5774 0
M  V30 10767 C 1005.57 -0.544094 -1.53439 0
M  V30 10768 O 1006.76 -0.817566 -1.58676 0
M  V30 10769 C 1003.86 -1.63893 -2.96635 0
M  V30 10770 C 1003.04 -2.91939 -3.25716 0
M  V30 10771 C 1002.1 -2.82076 -4.44206 0
M  V30 10772 O 1001.12 -3.56032 -4.44106 0
M  V30 10773 N 1002.32 -1.96196 -5.4634 0
M  V30 10774 H 1005.09 -2.6243 -1.44742 0
M  V30 10775 H 1002.65 -1.48221 -0.651326 0
M  V30 10776 H 1004.64 -1.54897 -3.73884 0
M  V30 10777 H 1003.21 -0.75449 -3.03358 0
M  V30 10778 H 1002.43 -3.14998 -2.37002 0
M  V30 10779 H 1003.72 -3.7675 -3.4196 0
M  V30 10780 H 1003.12 -1.35439 -5.49247 0
M  V30 10781 H 1001.67 -1.93097 -6.2254 0
M  V30 10782 N 1005.11 0.71652 -1.4037 0
M  V30 10783 C 1006.04 1.84138 -1.36477 0
M  V30 10784 C 1007.05 1.6054 -0.27033 0
M  V30 10785 O 1008.24 1.70431 -0.530612 0
M  V30 10786 C 1005.34 3.20523 -1.10082 0
M  V30 10787 C 1004.52 3.71326 -2.31162 0
M  V30 10788 C 1003.57 4.86322 -2.00942 0
M  V30 10789 O 1002.6 4.99022 -2.73799 0
M  V30 10790 N 1003.8 5.72051 -0.986812 0
M  V30 10791 H 1006.57 1.87977 -2.3342 0
M  V30 10792 H 1004.13 0.89802 -1.34712 0
M  V30 10793 H 1006.12 3.95049 -0.878526 0
M  V30 10794 H 1004.69 3.11838 -0.21809 0
M  V30 10795 H 1003.91 2.87941 -2.69227 0
M  V30 10796 H 1005.2 4.02003 -3.11883 0
M  V30 10797 H 1004.6 5.64399 -0.383381 0
M  V30 10798 H 1003.15 6.46565 -0.824419 0
M  V30 10799 N 1006.59 1.25851 0.948643 0
M  V30 10800 C 1007.86 1.01717 1.67072 0
M  V30 10801 C 1008.24 -0.454749 2.06144 0
M  V30 10802 O 1007.59 -1.43345 1.77945 0
M  V30 10803 C 1007.8 1.95872 2.88852 0
M  V30 10804 C 1009.15 2.24057 3.60671 0
M  V30 10805 O 1010.17 1.93678 2.98944 0
M  V30 10806 O 1009.03 2.75745 4.71833 0
M  V30 10807 H 1006.13 0.386198 0.731287 0
M  V30 10808 H 1008.67 1.37031 1.00104 0
M  V30 10809 H 1007.44 2.95233 2.56814 0
M  V30 10810 H 1007.07 1.60992 3.63548 0
M  V30 10811 N 1008.06 -1.15214 1.07534 0
M  V30 10812 C 1009.31 -1.85388 0.794617 0
M  V30 10813 C 1009.63 -1.83331 -0.681838 0
M  V30 10814 O 1010.83 -2.49207 -1.0774 0
M  V30 10815 C 1009.29 -3.32747 1.37141 0
M  V30 10816 C 1008.9 -3.43244 2.87902 0
M  V30 10817 C 1010.64 -4.08093 1.16879 0
M  V30 10818 C 1008.55 -4.84762 3.38763 0
M  V30 10819 H 1007.48 -0.694499 0.293577 0
M  V30 10820 H 1010.13 -1.29944 1.29564 0
M  V30 10821 H 1008.51 -3.87874 0.798121 0
M  V30 10822 H 1009.68 -2.98214 3.51291 0
M  V30 10823 H 1008 -2.81345 3.06975 0
M  V30 10824 H 1010.6 -5.12535 1.52353 0
M  V30 10825 H 1010.94 -4.1616 0.107958 0
M  V30 10826 H 1011.47 -3.59241 1.70854 0
M  V30 10827 H 1008.21 -4.81879 4.4438 0
M  V30 10828 H 1007.73 -5.30366 2.80128 0
M  V30 10829 H 1009.41 -5.53624 3.34827 0
M  V30 10830 N 1009.54 -0.859717 -1.32086 0
M  V30 10831 C 1010.47 -0.323502 -2.31248 0
M  V30 10832 C 1011.45 0.580085 -1.59903 0
M  V30 10833 O 1012.64 0.499265 -1.87673 0
M  V30 10834 C 1009.77 0.484661 -3.43902 0
M  V30 10835 C 1008.72 -0.324933 -4.26765 0
M  V30 10836 C 1008.05 0.608281 -5.31229 0
M  V30 10837 C 1009.35 -1.55344 -4.98664 0
M  V30 10838 H 1011.04 -1.15209 -2.76346 0
M  V30 10839 H 1008.59 -0.555442 -1.32856 0
M  V30 10840 H 1010.54 0.870238 -4.12316 0
M  V30 10841 H 1009.27 1.34666 -2.97544 0
M  V30 10842 H 1007.92 -0.692328 -3.60003 0
M  V30 10843 H 1007.57 1.46727 -4.81124 0
M  V30 10844 H 1007.27 0.0705571 -5.87558 0
M  V30 10845 H 1008.8 0.990925 -6.02506 0
M  V30 10846 H 1010.21 -1.23987 -5.59732 0
M  V30 10847 H 1008.61 -2.02947 -5.64741 0
M  V30 10848 H 1009.68 -2.31192 -4.26237 0
M  V30 10849 N 1011.02 1.44971 -0.618145 0
M  V30 10850 C 1011.95 2.28815 0.132751 0
M  V30 10851 C 1012.97 1.40551 0.821535 0
M  V30 10852 O 1014.15 1.64827 0.685155 0
M  V30 10853 C 1011.25 3.1658 1.20955 0
M  V30 10854 C 1010.43 4.33184 0.605821 0
M  V30 10855 C 1009.49 5.0208 1.57488 0
M  V30 10856 O 1008.51 5.58528 1.09706 0
M  V30 10857 N 1009.71 5.02335 2.9093 0
M  V30 10858 H 1012.48 2.939 -0.58674 0
M  V30 10859 H 1010.04 1.55276 -0.458375 0
M  V30 10860 H 1012.03 3.59535 1.85787 0
M  V30 10861 H 1010.6 2.53333 1.83143 0
M  V30 10862 H 1009.82 3.93581 -0.220827 0
M  V30 10863 H 1011.11 5.08471 0.182883 0
M  V30 10864 H 1010.51 4.57783 3.32342 0
M  V30 10865 H 1009.07 5.49119 3.51157 0
M  V30 10866 N 1012.5 0.357919 1.53482 0
M  V30 10867 C 1013.41 -0.500273 2.29204 0
M  V30 10868 C 1014.42 -1.09936 1.3487 0
M  V30 10869 O 1015.6 -1.11195 1.67921 0
M  V30 10870 C 1012.67 -1.62828 3.06085 0
M  V30 10871 C 1011.73 -1.05751 4.16071 0
M  V30 10872 C 1010.96 -2.13176 4.89277 0
M  V30 10873 O 1011.18 -3.34153 4.62274 0
M  V30 10874 O 1010.12 -1.76663 5.7539 0
M  V30 10875 H 1013.94 0.115696 3.0348 0
M  V30 10876 H 1011.53 0.122527 1.48897 0
M  V30 10877 H 1013.41 -2.28427 3.54117 0
M  V30 10878 H 1012.08 -2.22979 2.34653 0
M  V30 10879 H 1010.99 -0.365642 3.72309 0
M  V30 10880 H 1012.32 -0.500661 4.89647 0
M  V30 10881 N 1013.98 -1.5736 0.0868897 0
M  V30 10882 C 1014.92 -2.14793 -0.892571 0
M  V30 10883 C 1015.92 -1.08866 -1.29787 0
M  V30 10884 O 1017.12 -1.27223 -1.27335 0
M  V30 10885 H 1013.5 -0.686998 -0.305838 0
M  V30 10886 H 1015.47 -2.95927 -0.383393 0
M  V30 10887 C 1014.22 -2.73646 -2.14507 0
M  V30 10888 H 1013.54 -3.54835 -1.84207 0
M  V30 10889 H 1014.98 -3.17409 -2.81118 0
M  V30 10890 C 1013.44 -1.69138 -2.91366 0
M  V30 10891 O 1013.97 -1.12539 -3.85614 0
M  V30 10892 N 1012.18 -1.3982 -2.54752 0
M  V30 10893 H 1011.72 -1.86035 -1.78182 0
M  V30 10894 H 1011.68 -0.701316 -3.06478 0
M  V30 10895 N 1015.45 0.186762 -1.56489 0
M  V30 10896 C 1016.68 0.921832 -1.85229 0
M  V30 10897 C 1017.1 1.76496 -0.670416 0
M  V30 10898 O 1016.45 1.78899 0.360758 0
M  V30 10899 C 1016.51 1.81121 -3.12854 0
M  V30 10900 O 1016.23 1.00211 -4.26485 0
M  V30 10901 C 1017.73 2.65725 -3.54831 0
M  V30 10902 H 1014.95 0.268563 -0.61491 0
M  V30 10903 H 1017.49 0.191505 -2.03601 0
M  V30 10904 H 1015.65 2.49506 -2.96354 0
M  V30 10905 H 1016.06 1.60893 -4.99213 0
M  V30 10906 H 1017.53 3.23771 -4.47075 0
M  V30 10907 H 1018.01 3.39843 -2.78215 0
M  V30 10908 H 1018.62 2.02698 -3.7389 0
M  V30 10909 N 1016.93 1.50896 0.454776 0
M  V30 10910 C 1018.18 1.61936 1.20248 0
M  V30 10911 C 1018.49 0.332983 1.92745 0
M  V30 10912 O 1019.7 0.322512 2.69578 0
M  V30 10913 C 1018.16 2.85916 2.18587 0
M  V30 10914 C 1017.76 4.21492 1.51818 0
M  V30 10915 C 1019.51 3.06307 2.93898 0
M  V30 10916 C 1017.42 5.3664 2.48539 0
M  V30 10917 H 1016.35 0.603098 0.452536 0
M  V30 10918 H 1019 1.77345 0.471257 0
M  V30 10919 H 1017.38 2.64101 2.95071 0
M  V30 10920 H 1018.55 4.53623 0.810123 0
M  V30 10921 H 1016.87 4.06837 0.887265 0
M  V30 10922 H 1019.46 3.89507 3.66317 0
M  V30 10923 H 1019.81 2.18683 3.54236 0
M  V30 10924 H 1020.34 3.2838 2.24525 0
M  V30 10925 H 1017.08 6.26469 1.92916 0
M  V30 10926 H 1016.6 5.08907 3.17449 0
M  V30 10927 H 1018.28 5.67881 3.10033 0
M  V30 10928 N 1018.41 -0.709066 1.40748 0
M  V30 10929 C 1019.34 -1.83583 1.4429 0
M  V30 10930 C 1020.32 -1.67378 0.303067 0
M  V30 10931 O 1021.51 -1.87312 0.512612 0
M  V30 10932 C 1018.64 -3.21599 1.31116 0
M  V30 10933 C 1017.59 -3.52486 2.4277 0
M  V30 10934 C 1016.92 -4.89716 2.14668 0
M  V30 10935 C 1018.22 -3.52824 3.85113 0
M  V30 10936 H 1019.91 -1.80876 2.38588 0
M  V30 10937 H 1017.46 -0.868795 1.14839 0
M  V30 10938 H 1019.41 -4.00123 1.32209 0
M  V30 10939 H 1018.13 -3.24898 0.332965 0
M  V30 10940 H 1016.79 -2.76305 2.40937 0
M  V30 10941 H 1016.44 -4.89625 1.15224 0
M  V30 10942 H 1016.14 -5.11347 2.89478 0
M  V30 10943 H 1017.66 -5.70566 2.17455 0
M  V30 10944 H 1019.08 -4.21377 3.88734 0
M  V30 10945 H 1017.48 -3.85984 4.59496 0
M  V30 10946 H 1018.55 -2.52073 4.14231 0
M  V30 10947 N 1019.89 -1.26353 -0.941956 0
M  V30 10948 C 1020.84 -1.07842 -2.04056 0
M  V30 10949 C 1021.81 0.0163064 -1.66092 0
M  V30 10950 O 1022.99 -0.143313 -1.90261 0
M  V30 10951 C 1020.13 -0.716636 -3.37577 0
M  V30 10952 C 1019.24 -1.88754 -3.88582 0
M  V30 10953 C 1018.38 -1.46893 -5.10486 0
M  V30 10954 C 1017.42 -2.60819 -5.53751 0
M  V30 10955 N 1016.56 -2.19646 -6.66858 0
M  V30 10956 H 1021.4 -2.01856 -2.19221 0
M  V30 10957 H 1018.93 -1.00504 -1.07412 0
M  V30 10958 H 1020.89 -0.487768 -4.14339 0
M  V30 10959 H 1019.52 0.18653 -3.22261 0
M  V30 10960 H 1018.57 -2.22936 -3.08227 0
M  V30 10961 H 1019.88 -2.74264 -4.1663 0
M  V30 10962 H 1019.04 -1.20047 -5.94705 0
M  V30 10963 H 1017.78 -0.584721 -4.84182 0
M  V30 10964 H 1016.78 -2.88396 -4.6809 0
M  V30 10965 H 1018.01 -3.49838 -5.82057 0
M  V30 10966 H 1015.95 -1.33657 -6.4224 0
M  V30 10967 H 1015.87 -2.987 -6.94489 0
M  V30 10968 H 1017.14 -1.96009 -7.54454 0
M  V30 10969 N 1021.37 1.14642 -1.08144 0
M  V30 10970 C 1022.33 2.17834 -0.712799 0
M  V30 10971 C 1023.33 1.58828 0.251041 0
M  V30 10972 O 1024.52 1.74173 0.0309381 0
M  V30 10973 C 1021.65 3.4086 -0.0519477 0
M  V30 10974 H 1022.85 2.51961 -1.62653 0
M  V30 10975 H 1020.4 1.29243 -0.878971 0
M  V30 10976 H 1021.13 3.12311 0.873636 0
M  V30 10977 H 1020.92 3.84952 -0.745286 0
M  V30 10978 H 1022.41 4.17163 0.191031 0
M  V30 10979 N 1022.85 0.866709 1.31628 0
M  V30 10980 C 1024.07 0.49039 2.01004 0
M  V30 10981 C 1024.49 -0.916244 1.65077 0
M  V30 10982 O 1023.85 -1.59975 0.8783 0
M  V30 10983 C 1023.9 0.634011 3.55897 0
M  V30 10984 O 1023.62 1.98525 3.90537 0
M  V30 10985 C 1025.12 0.258277 4.42547 0
M  V30 10986 H 1022.34 0.191421 0.643117 0
M  V30 10987 H 1024.88 1.16698 1.67934 0
M  V30 10988 H 1023.04 0.00501801 3.874 0
M  V30 10989 H 1023.45 1.99067 4.85255 0
M  V30 10990 H 1024.93 0.409733 5.50477 0
M  V30 10991 H 1025.4 -0.802301 4.3181 0
M  V30 10992 H 1026.01 0.862837 4.16456 0
M  V30 10993 N 1024.32 -1.44642 0.625825 0
M  V30 10994 C 1025.23 -2.34451 -0.0836134 0
M  V30 10995 C 1026.25 -1.5231 -0.841289 0
M  V30 10996 O 1027.43 -1.85056 -0.794754 0
M  V30 10997 C 1024.49 -3.30211 -1.05648 0
M  V30 10998 C 1023.55 -4.28259 -0.298759 0
M  V30 10999 C 1022.78 -5.19444 -1.22528 0
M  V30 11000 O 1023.01 -5.14444 -2.46382 0
M  V30 11001 O 1021.94 -5.97668 -0.71247 0
M  V30 11002 H 1025.77 -2.96555 0.654912 0
M  V30 11003 H 1023.35 -1.44327 0.386029 0
M  V30 11004 H 1025.23 -3.8917 -1.61632 0
M  V30 11005 H 1023.91 -2.70648 -1.77571 0
M  V30 11006 H 1022.82 -3.72863 0.304001 0
M  V30 11007 H 1024.15 -4.90728 0.380345 0
M  V30 11008 N 1025.8 -0.366053 -1.5329 0
M  V30 11009 C 1027.05 0.223824 -2.01561 0
M  V30 11010 C 1027.38 1.48382 -1.25286 0
M  V30 11011 O 1026.66 1.91385 -0.34669 0
M  V30 11012 C 1026.94 0.5153 -3.56394 0
M  V30 11013 C 1026.79 -0.758357 -4.43361 0
M  V30 11014 C 1028.11 1.31568 -4.19974 0
M  V30 11015 H 1025.23 0.0798751 -0.732659 0
M  V30 11016 H 1027.87 -0.491038 -1.83545 0
M  V30 11017 H 1026.02 1.12429 -3.71876 0
M  V30 11018 H 1027.69 -1.39584 -4.39675 0
M  V30 11019 H 1025.94 -1.37862 -4.11311 0
M  V30 11020 H 1026.61 -0.509366 -5.49645 0
M  V30 11021 H 1029.08 0.800514 -4.08327 0
M  V30 11022 H 1027.96 1.48837 -5.28336 0
M  V30 11023 H 1028.22 2.32432 -3.76069 0
M  V30 11024 N 1027.28 1.57312 -0.0952337 0
M  V30 11025 C 1028.21 2.11059 0.893678 0
M  V30 11026 C 1029.22 1.04787 1.24594 0
M  V30 11027 O 1030.41 1.32233 1.19903 0
M  V30 11028 C 1027.51 2.57552 2.20272 0
M  V30 11029 C 1026.69 3.87661 2.02578 0
M  V30 11030 C 1025.75 4.2 3.16996 0
M  V30 11031 O 1024.77 4.89219 2.90953 0
M  V30 11032 N 1025.97 3.75414 4.42769 0
M  V30 11033 H 1028.74 2.96532 0.434632 0
M  V30 11034 H 1026.3 1.6165 0.0898661 0
M  V30 11035 H 1028.29 2.76232 2.95766 0
M  V30 11036 H 1026.86 1.7709 2.576 0
M  V30 11037 H 1026.08 3.78128 1.11413 0
M  V30 11038 H 1027.37 4.7278 1.88032 0
M  V30 11039 H 1026.77 3.1954 4.66809 0
M  V30 11040 H 1025.32 3.99249 5.15212 0
M  V30 11041 N 1028.76 -0.17846 1.56586 0
M  V30 11042 C 1030 -0.896235 1.81587 0
M  V30 11043 C 1030.33 -1.82553 0.671168 0
M  V30 11044 O 1029.59 -1.92688 -0.342046 0
M  V30 11045 C 1029.89 -1.73063 3.12704 0
M  V30 11046 C 1029.55 -0.950877 4.4076 0
M  V30 11047 C 1028.21 -0.735647 4.75544 0
M  V30 11048 C 1030.57 -0.403419 5.19636 0
M  V30 11049 C 1027.89 0.0382562 5.86688 0
M  V30 11050 C 1030.25 0.357359 6.3159 0
M  V30 11051 C 1028.91 0.583455 6.64945 0
M  V30 11052 H 1028.18 -0.327956 0.664474 0
M  V30 11053 H 1030.83 -0.161586 1.90817 0
M  V30 11054 H 1029.13 -2.53446 2.98785 0
M  V30 11055 H 1030.83 -2.28891 3.29257 0
M  V30 11056 H 1027.42 -1.12866 4.13472 0
M  V30 11057 H 1031.6 -0.557059 4.93164 0
M  V30 11058 H 1026.86 0.223237 6.10992 0
M  V30 11059 H 1031.03 0.788861 6.91918 0
M  V30 11060 H 1028.66 1.18502 7.50907 0
M  V30 11061 N 1030.24 -1.51135 -0.446768 0
M  V30 11062 C 1031.65 -1.55919 -1.02694 0
M  V30 11063 C 1032 -0.377038 -1.92543 0
M  V30 11064 O 1031.12 0.507295 -2.1037 0
M  V30 11065 C 1031.72 -2.8257 -1.86922 0
M  V30 11066 C 1030.28 -2.89956 -2.40005 0
M  V30 11067 C 1029.42 -2.50482 -1.18971 0
M  V30 11068 H 1032.37 -1.57048 -0.228403 0
M  V30 11069 H 1032.4 -2.65799 -2.7227 0
M  V30 11070 H 1031.91 -3.6859 -1.21502 0
M  V30 11071 H 1030.01 -2.08343 -3.08907 0
M  V30 11072 H 1030.12 -3.93399 -2.73448 0
M  V30 11073 H 1028.49 -2.03466 -1.53211 0
M  V30 11074 H 1029.27 -3.38837 -0.551762 0
M  V30 11075 N 1031.71 0.701592 -1.41122 0
M  V30 11076 C 1032.96 1.46376 -1.40363 0
M  V30 11077 C 1033.29 1.94197 -0.0105442 0
M  V30 11078 O 1032.57 1.69121 0.960637 0
M  V30 11079 C 1032.85 2.67994 -2.40523 0
M  V30 11080 C 1032.7 2.25977 -3.88914 0
M  V30 11081 C 1034.02 3.70181 -2.38022 0
M  V30 11082 H 1031.14 0.530929 -0.511159 0
M  V30 11083 H 1033.78 0.799588 -1.72356 0
M  V30 11084 H 1031.93 3.24661 -2.13372 0
M  V30 11085 H 1033.61 1.74684 -4.26946 0
M  V30 11086 H 1031.85 1.57826 -4.04071 0
M  V30 11087 H 1032.52 3.13215 -4.54533 0
M  V30 11088 H 1035 3.23174 -2.62103 0
M  V30 11089 H 1033.87 4.52894 -3.10127 0
M  V30 11090 H 1034.13 4.19458 -1.3967 0
M  V30 11091 N 1033.19 1.2685 0.935242 0
M  V30 11092 C 1034.14 1.08923 2.03481 0
M  V30 11093 C 1035.11 -0.00749786 1.66098 0
M  V30 11094 O 1036.29 0.153401 1.90182 0
M  V30 11095 C 1033.43 0.734529 3.37192 0
M  V30 11096 C 1032.55 1.90812 3.87576 0
M  V30 11097 C 1031.68 1.49599 5.097 0
M  V30 11098 C 1030.72 2.63752 5.5236 0
M  V30 11099 N 1029.86 2.23179 6.65684 0
M  V30 11100 H 1034.7 2.03016 2.18148 0
M  V30 11101 H 1032.23 1.01072 1.06878 0
M  V30 11102 H 1034.19 0.509734 4.14074 0
M  V30 11103 H 1032.82 -0.169438 3.22355 0
M  V30 11104 H 1031.87 2.24567 3.0704 0
M  V30 11105 H 1033.19 2.7647 4.1517 0
M  V30 11106 H 1032.34 1.23199 5.9406 0
M  V30 11107 H 1031.08 0.61039 4.83865 0
M  V30 11108 H 1030.08 2.90874 4.66554 0
M  V30 11109 H 1031.31 3.5292 5.80193 0
M  V30 11110 H 1029.26 1.37061 6.41522 0
M  V30 11111 H 1029.17 3.02379 6.92895 0
M  V30 11112 H 1030.44 2.00007 7.53404 0
M  V30 11113 N 1034.67 -1.14067 1.0875 0
M  V30 11114 C 1036.08 -1.66747 0.839778 0
M  V30 11115 C 1036.43 -1.85711 -0.632909 0
M  V30 11116 O 1035.56 -1.57084 -1.48841 0
M  V30 11117 C 1036.15 -3.02896 1.51787 0
M  V30 11118 C 1034.71 -3.52596 1.3173 0
M  V30 11119 C 1033.86 -2.27994 1.57841 0
M  V30 11120 H 1036.81 -0.980838 1.24761 0
M  V30 11121 H 1036.83 -3.68526 0.947057 0
M  V30 11122 H 1036.34 -2.89062 2.58969 0
M  V30 11123 H 1034.44 -3.71647 0.266339 0
M  V30 11124 H 1034.56 -4.33151 2.04736 0
M  V30 11125 H 1032.92 -2.34241 1.00015 0
M  V30 11126 H 1033.7 -2.16732 2.66237 0
M  V30 11127 N 1036.15 -0.873678 -1.31166 0
M  V30 11128 C 1037.39 -0.487178 -1.96861 0
M  V30 11129 C 1037.73 0.95887 -1.68877 0
M  V30 11130 O 1037 1.6758 -0.987279 0
M  V30 11131 C 1037.29 -0.74925 -3.52219 0
M  V30 11132 C 1037.14 -2.2451 -3.89763 0
M  V30 11133 C 1038.46 -0.218194 -4.39559 0
M  V30 11134 H 1035.58 -0.178477 -0.715063 0
M  V30 11135 H 1038.22 -1.0956 -1.55231 0
M  V30 11136 H 1036.37 -0.231403 -3.8781 0
M  V30 11137 H 1038.04 -2.83049 -3.64254 0
M  V30 11138 H 1036.28 -2.71621 -3.38237 0
M  V30 11139 H 1036.95 -2.37911 -4.98099 0
M  V30 11140 H 1039.43 -0.661274 -4.10812 0
M  V30 11141 H 1038.31 -0.430983 -5.47205 0
M  V30 11142 H 1038.57 0.880056 -4.33252 0
M  V30 11143 N 1037.63 1.44308 -0.633487 0
M  V30 11144 C 1038.87 2.02322 -0.139123 0
M  V30 11145 C 1039.21 1.49733 1.23667 0
M  V30 11146 O 1038.48 0.682353 1.82138 0
M  V30 11147 C 1038.76 3.59871 -0.128366 0
M  V30 11148 C 1038.62 4.22737 -1.53667 0
M  V30 11149 C 1039.94 4.36702 0.545834 0
M  V30 11150 H 1037.05 0.735161 -0.0520293 0
M  V30 11151 H 1039.7 1.7185 -0.810411 0
M  V30 11152 H 1037.85 3.85963 0.443263 0
M  V30 11153 H 1039.52 4.07744 -2.15737 0
M  V30 11154 H 1037.76 3.80142 -2.08985 0
M  V30 11155 H 1038.43 5.31757 -1.48116 0
M  V30 11156 H 1040.91 4.16057 0.0596879 0
M  V30 11157 H 1039.78 5.46407 0.522557 0
M  V30 11158 H 1040.05 4.11483 1.6166 0
M  V30 11159 N 1039.1 0.374177 1.53094 0
M  V30 11160 C 1040.33 -0.215903 2.06273 0
M  V30 11161 C 1040.75 -1.40979 1.24526 0
M  V30 11162 O 1040.11 -1.79331 0.266462 0
M  V30 11163 C 1040.16 -0.579089 3.5592 0
M  V30 11164 O 1039.26 -1.67516 3.76845 0
M  V30 11165 H 1038.61 -0.0293981 0.663349 0
M  V30 11166 H 1041.14 0.537271 1.9742 0
M  V30 11167 H 1041.15 -0.847678 3.99097 0
M  V30 11168 H 1039.82 0.293843 4.14861 0
M  V30 11169 H 1038.4 -1.40146 3.45563 0
M  V30 11170 N 1040.58 -1.57259 0.103575 0
M  V30 11171 C 1041.81 -1.99424 -0.569638 0
M  V30 11172 C 1042.23 -0.982475 -1.60403 0
M  V30 11173 O 1041.59 0.0479231 -1.81237 0
M  V30 11174 C 1041.64 -3.40527 -1.18633 0
M  V30 11175 O 1040.74 -3.42167 -2.30208 0
M  V30 11176 H 1040.08 -0.648251 -0.143759 0
M  V30 11177 H 1042.61 -2.03739 0.187493 0
M  V30 11178 H 1042.62 -3.78404 -1.5256 0
M  V30 11179 H 1041.3 -4.13686 -0.428582 0
M  V30 11180 H 1039.88 -3.16093 -1.97837 0
M  V30 11181 N 1042.06 0.170153 -1.56679 0
M  V30 11182 C 1042.97 1.23057 -1.99735 0
M  V30 11183 C 1043.99 1.48374 -0.908912 0
M  V30 11184 O 1045.16 1.60499 -1.21663 0
M  V30 11185 C 1042.23 2.54944 -2.34956 0
M  V30 11186 C 1041.29 2.3748 -3.57634 0
M  V30 11187 C 1040.52 3.63078 -3.91165 0
M  V30 11188 O 1040.74 4.68304 -3.2565 0
M  V30 11189 O 1039.68 3.57119 -4.8451 0
M  V30 11190 H 1043.5 0.895104 -2.9021 0
M  V30 11191 H 1041.09 0.377109 -1.44562 0
M  V30 11192 H 1042.97 3.32742 -2.58574 0
M  V30 11193 H 1041.65 2.88068 -1.47643 0
M  V30 11194 H 1040.55 1.57709 -3.39232 0
M  V30 11195 H 1041.89 2.0928 -4.45491 0
M  V30 11196 N 1043.54 1.5137 0.438746 0
M  V30 11197 C 1044.5 1.71993 1.51496 0
M  V30 11198 C 1045.5 0.589978 1.49586 0
M  V30 11199 O 1046.69 0.857505 1.51633 0
M  V30 11200 C 1043.82 1.77508 2.91039 0
M  V30 11201 H 1045.02 2.68041 1.34514 0
M  V30 11202 H 1042.57 1.41338 0.667326 0
M  V30 11203 H 1043.3 0.832698 3.13427 0
M  V30 11204 H 1043.09 2.59627 2.9383 0
M  V30 11205 H 1044.58 1.95308 3.69113 0
M  V30 11206 N 1045.02 -0.694098 1.41492 0
M  V30 11207 C 1045.96 -1.80801 1.43456 0
M  V30 11208 C 1046.93 -1.63571 0.288757 0
M  V30 11209 O 1048.12 -1.844 0.490017 0
M  V30 11210 C 1045.26 -3.18694 1.32394 0
M  V30 11211 C 1044.37 -3.47346 2.56855 0
M  V30 11212 C 1043.51 -4.74862 2.38075 0
M  V30 11213 C 1042.55 -4.96486 3.58005 0
M  V30 11214 N 1041.68 -6.15229 3.38287 0
M  V30 11215 H 1046.52 -1.78457 2.38657 0
M  V30 11216 H 1044.06 -0.871455 1.18508 0
M  V30 11217 H 1046.02 -3.98352 1.23982 0
M  V30 11218 H 1044.65 -3.20211 0.407999 0
M  V30 11219 H 1043.7 -2.62083 2.75711 0
M  V30 11220 H 1045.01 -3.59226 3.4606 0
M  V30 11221 H 1044.17 -5.62577 2.27139 0
M  V30 11222 H 1042.9 -4.6523 1.46329 0
M  V30 11223 H 1041.91 -4.07219 3.69395 0
M  V30 11224 H 1043.13 -5.07976 4.50708 0
M  V30 11225 H 1041.08 -6.06807 2.49242 0
M  V30 11226 H 1041 -6.27883 4.21069 0
M  V30 11227 H 1042.27 -7.05674 3.31126 0
M  V30 11228 N 1046.49 -1.27344 -0.928501 0
M  V30 11229 C 1047.46 -1.10043 -2.01055 0
M  V30 11230 C 1048.46 -0.0446793 -1.60738 0
M  V30 11231 O 1049.65 -0.289202 -1.71783 0
M  V30 11232 C 1046.78 -0.676559 -3.34119 0
M  V30 11233 H 1047.97 -2.06126 -2.17835 0
M  V30 11234 H 1045.53 -1.10121 -1.10919 0
M  V30 11235 H 1046.26 0.285697 -3.23039 0
M  V30 11236 H 1046.05 -1.43903 -3.64739 0
M  V30 11237 H 1047.54 -0.577725 -4.13584 0
M  V30 11238 N 1047.97 1.13488 -1.09353 0
M  V30 11239 C 1049.22 1.84748 -0.829126 0
M  V30 11240 C 1049.55 1.83485 0.645247 0
M  V30 11241 O 1048.8 1.26767 1.49093 0
M  V30 11242 C 1049.1 3.32584 -1.30854 0
M  V30 11243 C 1048.77 3.54028 -2.7924 0
M  V30 11244 C 1047.43 3.59588 -3.19765 0
M  V30 11245 C 1049.78 3.62058 -3.74918 0
M  V30 11246 C 1047.11 3.70712 -4.54741 0
M  V30 11247 C 1049.46 3.7471 -5.09682 0
M  V30 11248 C 1048.13 3.78523 -5.49797 0
M  V30 11249 H 1047.4 0.67604 -0.303399 0
M  V30 11250 H 1050.04 1.33989 -1.36818 0
M  V30 11251 H 1048.35 3.85689 -0.689275 0
M  V30 11252 H 1050.04 3.86166 -1.08059 0
M  V30 11253 H 1046.63 3.50354 -2.4688 0
M  V30 11254 H 1050.82 3.57043 -3.44723 0
M  V30 11255 H 1046.07 3.71931 -4.8526 0
M  V30 11256 H 1050.25 3.79866 -5.83674 0
M  V30 11257 H 1047.88 3.86895 -6.54382 0
M  V30 11258 N 1049.45 0.880621 1.30701 0
M  V30 11259 C 1050.7 0.492957 1.95583 0
M  V30 11260 C 1051.01 -0.961863 1.70316 0
M  V30 11261 O 1052.22 -1.45617 2.29146 0
M  V30 11262 C 1050.68 0.830656 3.50183 0
M  V30 11263 C 1050.28 2.30295 3.84276 0
M  V30 11264 C 1052.03 0.511979 4.21401 0
M  V30 11265 C 1049.93 2.58251 5.32034 0
M  V30 11266 H 1048.86 0.18062 0.732047 0
M  V30 11267 H 1051.52 1.075 1.48715 0
M  V30 11268 H 1049.9 0.177752 3.95601 0
M  V30 11269 H 1051.07 2.99981 3.49783 0
M  V30 11270 H 1049.39 2.58873 3.2615 0
M  V30 11271 H 1051.98 0.697935 5.30125 0
M  V30 11272 H 1052.33 -0.548327 4.12673 0
M  V30 11273 H 1052.86 1.12189 3.81652 0
M  V30 11274 H 1049.6 3.63005 5.45809 0
M  V30 11275 H 1049.12 1.9317 5.67843 0
M  V30 11276 H 1050.8 2.43527 5.99419 0
M  V30 11277 N 1050.93 -1.4397 0.641131 0
M  V30 11278 C 1052.35 -1.56607 0.30762 0
M  V30 11279 C 1052.55 -1.62694 -1.18882 0
M  V30 11280 O 1051.6 -1.57541 -1.97325 0
M  V30 11281 C 1052.91 -2.83289 1.00834 0
M  V30 11282 C 1054.46 -2.97016 0.98744 0
M  V30 11283 C 1054.94 -4.26514 1.66882 0
M  V30 11284 N 1056.43 -4.33351 1.63589 0
M  V30 11285 C 1057.16 -5.32292 2.13196 0
M  V30 11286 N 1056.66 -6.37582 2.71038 0
M  V30 11287 N 1058.45 -5.23866 2.03766 0
M  V30 11288 H 1050.6 -1.38262 1.61237 0
M  V30 11289 H 1052.87 -0.663221 0.677378 0
M  V30 11290 H 1052.57 -2.84812 2.06337 0
M  V30 11291 H 1052.45 -3.73134 0.552333 0
M  V30 11292 H 1054.83 -2.95041 -0.0591395 0
M  V30 11293 H 1054.91 -2.08493 1.48203 0
M  V30 11294 H 1054.56 -4.2925 2.71491 0
M  V30 11295 H 1054.49 -5.13912 1.14898 0
M  V30 11296 H 1056.98 -3.5788 1.21368 0
M  V30 11297 H 1057.29 -7.09378 3.06597 0
M  V30 11298 H 1055.64 -6.38239 2.75093 0
M  V30 11299 H 1058.83 -4.40524 1.58291 0
M  V30 11300 H 1059 -6.00819 2.42737 0
M  V30 11301 N 1052.41 -0.382291 -1.52893 0
M  V30 11302 C 1053.82 -0.031941 -1.59568 0
M  V30 11303 C 1054.02 1.45245 -1.39664 0
M  V30 11304 O 1053.08 2.21612 -1.21013 0
M  V30 11305 C 1054.39 -0.502846 -2.96466 0
M  V30 11306 C 1055.94 -0.4585 -3.09624 0
M  V30 11307 C 1056.42 -0.905481 -4.4896 0
M  V30 11308 N 1057.91 -0.861211 -4.55124 0
M  V30 11309 C 1058.64 -1.17856 -5.61157 0
M  V30 11310 N 1058.14 -1.56603 -6.74868 0
M  V30 11311 N 1059.93 -1.10027 -5.51226 0
M  V30 11312 H 1052.08 -1.34875 -1.64081 0
M  V30 11313 H 1054.34 -0.552375 -0.770446 0
M  V30 11314 H 1054.05 -1.53931 -3.16225 0
M  V30 11315 H 1053.92 0.101777 -3.77063 0
M  V30 11316 H 1056.31 0.568868 -2.89565 0
M  V30 11317 H 1056.39 -1.09884 -2.30996 0
M  V30 11318 H 1056.04 -1.93105 -4.69759 0
M  V30 11319 H 1055.97 -0.242227 -5.26043 0
M  V30 11320 H 1058.46 -0.575988 -3.73485 0
M  V30 11321 H 1058.77 -1.792 -7.51736 0
M  V30 11322 H 1057.12 -1.60484 -6.76217 0
M  V30 11323 H 1060.31 -0.796623 -4.61272 0
M  V30 11324 H 1060.48 -1.35091 -6.33762 0
M  V30 11325 N 1053.89 1.57202 -0.111913 0
M  V30 11326 C 1055.13 1.96834 0.550967 0
M  V30 11327 C 1055.49 0.993502 1.64297 0
M  V30 11328 O 1056.69 1.27894 2.36425 0
M  V30 11329 C 1054.96 3.40805 1.07641 0
M  V30 11330 S 1056.52 4.02445 1.74881 0
M  V30 11331 H 1053.34 0.688021 0.179298 0
M  V30 11332 H 1055.94 1.94522 -0.195312 0
M  V30 11333 H 1054.64 4.09508 0.270377 0
M  V30 11334 H 1054.18 3.46752 1.85814 0
M  V30 11335 H 1056.19 3.92623 3.03416 0
M  V30 11336 N 1055.36 -0.161842 1.56767 0
M  V30 11337 C 1056.29 -1.20226 2.0017 0
M  V30 11338 C 1057.27 -1.4564 0.878807 0
M  V30 11339 O 1058.46 -1.56813 1.14557 0
M  V30 11340 C 1055.59 -2.53897 2.36968 0
M  V30 11341 C 1054.54 -2.43033 3.52305 0
M  V30 11342 C 1053.87 -3.81281 3.74872 0
M  V30 11343 C 1055.17 -1.927 4.85453 0
M  V30 11344 H 1056.86 -0.84142 2.87333 0
M  V30 11345 H 1054.41 -0.403309 1.38237 0
M  V30 11346 H 1056.36 -3.26893 2.6593 0
M  V30 11347 H 1055.09 -2.91787 1.46724 0
M  V30 11348 H 1053.75 -1.7249 3.23485 0
M  V30 11349 H 1053.39 -4.1658 2.81904 0
M  V30 11350 H 1053.09 -3.74877 4.52483 0
M  V30 11351 H 1054.62 -4.55848 4.06245 0
M  V30 11352 H 1056.03 -2.55477 5.13229 0
M  V30 11353 H 1054.43 -1.97222 5.66766 0
M  V30 11354 H 1055.5 -0.881816 4.76814 0
M  V30 11355 N 1056.84 -1.516 -0.430713 0
M  V30 11356 C 1057.8 -1.72794 -1.50582 0
M  V30 11357 C 1058.8 -0.597903 -1.49271 0
M  V30 11358 O 1059.99 -0.865535 -1.51176 0
M  V30 11359 C 1057.13 -1.79049 -2.90093 0
M  V30 11360 H 1058.32 -2.68751 -1.33091 0
M  V30 11361 H 1055.87 -1.4169 -0.659822 0
M  V30 11362 H 1056.61 -0.849309 -3.12981 0
M  V30 11363 H 1056.39 -2.61181 -2.92449 0
M  V30 11364 H 1057.88 -1.97262 -3.68072 0
M  V30 11365 N 1058.32 0.686584 -1.41858 0
M  V30 11366 C 1059.55 1.47305 -1.44862 0
M  V30 11367 C 1059.96 1.8912 -0.0549286 0
M  V30 11368 O 1059.3 1.57941 0.938101 0
M  V30 11369 C 1059.36 2.76107 -2.30229 0
M  V30 11370 C 1059.03 2.5644 -3.78269 0
M  V30 11371 C 1060.02 2.21803 -4.70212 0
M  V30 11372 C 1057.71 2.71801 -4.22409 0
M  V30 11373 C 1059.7 2.02778 -6.04284 0
M  V30 11374 C 1057.39 2.52392 -5.56544 0
M  V30 11375 C 1058.39 2.17933 -6.47298 0
M  V30 11376 O 1058.08 1.98701 -7.78956 0
M  V30 11377 H 1057.81 0.460174 -0.495193 0
M  V30 11378 H 1060.36 0.852069 -1.86893 0
M  V30 11379 H 1058.59 3.40644 -1.83026 0
M  V30 11380 H 1060.28 3.37947 -2.24826 0
M  V30 11381 H 1061.05 2.09542 -4.37398 0
M  V30 11382 H 1056.93 2.97605 -3.52069 0
M  V30 11383 H 1060.47 1.75805 -6.75084 0
M  V30 11384 H 1056.37 2.64246 -5.88935 0
M  V30 11385 H 1057.13 2.13393 -7.90193 0
M  V30 11386 N 1059.8 1.27835 0.921735 0
M  V30 11387 C 1061.21 1.05369 1.19873 0
M  V30 11388 C 1061.41 -0.208997 2.00413 0
M  V30 11389 O 1060.47 -0.912861 2.35421 0
M  V30 11390 C 1061.78 2.29658 1.94108 0
M  V30 11391 C 1063.33 2.34756 2.07023 0
M  V30 11392 C 1063.81 3.5879 2.84664 0
M  V30 11393 N 1065.3 3.59383 2.9223 0
M  V30 11394 C 1066.03 4.52029 3.52785 0
M  V30 11395 N 1065.53 5.54986 4.14683 0
M  V30 11396 N 1067.32 4.39641 3.50246 0
M  V30 11397 H 1059.47 2.08903 0.383819 0
M  V30 11398 H 1061.73 0.919065 0.232429 0
M  V30 11399 H 1061.44 3.21604 1.4235 0
M  V30 11400 H 1061.31 2.35444 2.94696 0
M  V30 11401 H 1063.7 1.43312 2.57965 0
M  V30 11402 H 1063.78 2.32969 1.05636 0
M  V30 11403 H 1063.43 4.50574 2.34404 0
M  V30 11404 H 1063.36 3.57829 3.86349 0
M  V30 11405 H 1065.85 2.84927 2.48244 0
M  V30 11406 H 1066.16 6.21837 4.58845 0
M  V30 11407 H 1064.51 5.58822 4.13211 0
M  V30 11408 H 1067.7 3.58413 3.01094 0
M  V30 11409 H 1067.87 5.12033 3.97148 0
M  V30 11410 N 1061.28 -1.12907 1.09954 0
M  V30 11411 C 1062.22 -2.18485 0.743848 0
M  V30 11412 C 1063.19 -1.63766 -0.277494 0
M  V30 11413 O 1064.38 -1.90146 -0.157899 0
M  V30 11414 C 1061.52 -3.44649 0.176437 0
M  V30 11415 C 1060.63 -4.13445 1.25248 0
M  V30 11416 C 1059.77 -5.27242 0.647242 0
M  V30 11417 C 1058.8 -5.87897 1.70421 0
M  V30 11418 N 1057.94 -6.93116 1.1196 0
M  V30 11419 H 1062.78 -2.48257 1.64841 0
M  V30 11420 H 1060.32 -1.21891 0.823471 0
M  V30 11421 H 1062.28 -4.16852 -0.170384 0
M  V30 11422 H 1060.91 -3.15309 -0.69137 0
M  V30 11423 H 1059.96 -3.39471 1.7165 0
M  V30 11424 H 1061.27 -4.54601 2.05279 0
M  V30 11425 H 1060.42 -6.06186 0.249579 0
M  V30 11426 H 1059.16 -4.87351 -0.184556 0
M  V30 11427 H 1058.17 -5.07643 2.11136 0
M  V30 11428 H 1059.39 -6.2986 2.53877 0
M  V30 11429 H 1057.34 -6.55271 0.309181 0
M  V30 11430 H 1057.26 -7.32843 1.85681 0
M  V30 11431 H 1058.52 -7.759 0.748326 0
M  V30 11432 N 1062.75 -0.88754 -1.30232 0
M  V30 11433 C 1063.66 -0.360333 -2.31816 0
M  V30 11434 C 1064.68 0.538741 -1.6545 0
M  V30 11435 O 1065.86 0.431246 -1.96729 0
M  V30 11436 C 1062.92 0.414336 -3.44215 0
M  V30 11437 C 1061.98 -0.514799 -4.26202 0
M  V30 11438 C 1061.21 0.222994 -5.33234 0
M  V30 11439 O 1061.44 1.44871 -5.51696 0
M  V30 11440 O 1060.37 -0.428221 -6.00375 0
M  V30 11441 H 1064.2 -1.20279 -2.78867 0
M  V30 11442 H 1061.78 -0.651459 -1.34448 0
M  V30 11443 H 1063.66 0.852859 -4.12679 0
M  V30 11444 H 1062.34 1.23305 -2.99295 0
M  V30 11445 H 1061.25 -1.00219 -3.60426 0
M  V30 11446 H 1062.58 -1.29959 -4.74733 0
M  V30 11447 N 1064.23 1.43628 -0.648757 0
M  V30 11448 C 1065.51 1.95391 -0.0904551 0
M  V30 11449 C 1065.89 1.59021 1.38837 0
M  V30 11450 O 1065.24 0.873078 2.11163 0
M  V30 11451 C 1065.45 3.47418 -0.33196 0
M  V30 11452 C 1066.8 4.23952 -0.234521 0
M  V30 11453 O 1067.82 3.55218 -0.264276 0
M  V30 11454 O 1066.68 5.46282 -0.154428 0
M  V30 11455 H 1063.77 0.82691 0.0121884 0
M  V30 11456 H 1066.32 1.5359 -0.721685 0
M  V30 11457 H 1065.09 3.67001 -1.35741 0
M  V30 11458 H 1064.71 3.96207 0.332556 0
M  V30 11459 N 1065.71 0.390394 1.52688 0
M  V30 11460 C 1067.13 0.0404028 1.59549 0
M  V30 11461 C 1067.33 -1.44503 1.40432 0
M  V30 11462 O 1066.38 -2.20968 1.22187 0
M  V30 11463 C 1067.7 0.518561 2.96195 0
M  V30 11464 C 1069.24 0.474913 3.09376 0
M  V30 11465 C 1069.72 0.929278 4.48473 0
M  V30 11466 N 1071.21 0.885335 4.5466 0
M  V30 11467 C 1071.94 1.2083 5.60524 0
M  V30 11468 N 1071.44 1.6018 6.74028 0
M  V30 11469 N 1073.23 1.12949 5.50635 0
M  V30 11470 H 1065.38 1.35743 1.63363 0
M  V30 11471 H 1067.65 0.556453 0.767505 0
M  V30 11472 H 1067.35 1.55606 3.15404 0
M  V30 11473 H 1067.23 -0.081779 3.77111 0
M  V30 11474 H 1069.61 -0.553503 2.89863 0
M  V30 11475 H 1069.7 1.11107 2.3041 0
M  V30 11476 H 1069.34 1.95593 4.68728 0
M  V30 11477 H 1069.27 0.270121 5.25907 0
M  V30 11478 H 1071.76 0.595787 3.73174 0
M  V30 11479 H 1072.07 1.83184 7.50775 0
M  V30 11480 H 1070.42 1.64067 6.75357 0
M  V30 11481 H 1073.61 0.821074 4.60843 0
M  V30 11482 H 1073.78 1.3845 6.33037 0
M  V30 11483 N 1067.19 -1.57141 0.120249 0
M  V30 11484 C 1068.44 -1.95238 -0.537449 0
M  V30 11485 C 1068.76 -1.00361 -1.66607 0
M  V30 11486 O 1068.02 -0.0277306 -1.9568 0
M  V30 11487 C 1068.32 -3.39745 -1.10941 0
M  V30 11488 C 1067.98 -4.50785 -0.102012 0
M  V30 11489 C 1066.65 -4.80882 0.174994 0
M  V30 11490 C 1069 -5.17913 0.584462 0
M  V30 11491 C 1066.33 -5.75424 1.14474 0
M  V30 11492 C 1068.68 -6.13497 1.54284 0
M  V30 11493 C 1067.34 -6.41987 1.82782 0
M  V30 11494 H 1066.61 -0.714425 -0.196666 0
M  V30 11495 H 1069.26 -1.90438 0.201418 0
M  V30 11496 H 1067.56 -3.41246 -1.92506 0
M  V30 11497 H 1069.26 -3.66536 -1.62642 0
M  V30 11498 H 1065.85 -4.27342 -0.328097 0
M  V30 11499 H 1070.03 -4.94815 0.383625 0
M  V30 11500 H 1065.29 -5.95801 1.37226 0
M  V30 11501 H 1069.46 -6.64598 2.08044 0
M  V30 11502 H 1067.09 -7.15052 2.5808 0
M  V30 11503 N 1068.67 0.153526 -1.5685 0
M  V30 11504 C 1069.94 0.895545 -1.73895 0
M  V30 11505 C 1070.32 1.99625 -0.686504 0
M  V30 11506 O 1069.67 2.26579 0.2957 0
M  V30 11507 C 1069.88 1.44399 -3.17726 0
M  V30 11508 C 1071.23 1.90996 -3.79217 0
M  V30 11509 O 1072.25 1.54155 -3.21115 0
M  V30 11510 O 1071.11 2.58917 -4.81274 0
M  V30 11511 H 1068.21 0.422755 -0.710779 0
M  V30 11512 H 1070.75 0.139961 -1.69122 0
M  V30 11513 H 1069.52 0.652635 -3.85819 0
M  V30 11514 H 1069.15 2.26326 -3.26898 0
M  V30 11515 N 1070.14 1.51827 0.422667 0
M  V30 11516 C 1071.39 1.65464 1.17258 0
M  V30 11517 C 1071.72 0.376834 1.90509 0
M  V30 11518 O 1071 -0.624219 1.84211 0
M  V30 11519 C 1071.28 2.86776 2.17788 0
M  V30 11520 C 1071.13 4.24571 1.48523 0
M  V30 11521 C 1072.45 3.03603 3.18611 0
M  V30 11522 H 1069.57 0.602169 0.424925 0
M  V30 11523 H 1072.21 1.84349 0.45996 0
M  V30 11524 H 1070.36 2.70806 2.78561 0
M  V30 11525 H 1072.04 4.5224 0.909739 0
M  V30 11526 H 1070.28 4.26595 0.787354 0
M  V30 11527 H 1070.95 5.05475 2.2181 0
M  V30 11528 H 1073.43 3.18381 2.67904 0
M  V30 11529 H 1072.3 3.90022 3.8623 0
M  V30 11530 H 1072.56 2.16318 3.85563 0
M  V30 11531 N 1071.62 -0.679052 1.4222 0
M  V30 11532 C 1072.57 -1.78522 1.41824 0
M  V30 11533 C 1073.56 -1.58262 0.290179 0
M  V30 11534 O 1074.75 -1.68813 0.532092 0
M  V30 11535 C 1071.88 -3.16952 1.31895 0
M  V30 11536 C 1070.96 -3.42849 2.4963 0
M  V30 11537 N 1071.35 -3.39354 3.75063 0
M  V30 11538 C 1069.65 -3.73468 2.43799 0
M  V30 11539 C 1070.35 -3.64617 4.53243 0
M  V30 11540 N 1069.33 -3.85174 3.83591 0
M  V30 11541 H 1073.13 -1.74206 2.36705 0
M  V30 11542 H 1070.65 -0.879719 1.36509 0
M  V30 11543 H 1072.64 -3.96214 1.29693 0
M  V30 11544 H 1071.3 -3.22467 0.380127 0
M  V30 11545 H 1072.31 -3.19354 4.07718 0
M  V30 11546 H 1068.99 -3.86254 1.58474 0
M  V30 11547 H 1070.38 -3.67912 5.62219 0
M  V30 11548 N 1073.1 -1.28322 -0.914942 0
M  V30 11549 C 1074.03 -1.07947 -2.02188 0
M  V30 11550 C 1075.05 -0.0315743 -1.62769 0
M  V30 11551 O 1076.23 -0.274503 -1.76377 0
M  V30 11552 C 1073.33 -0.61805 -3.33217 0
M  V30 11553 C 1072.51 -1.74109 -4.01254 0
M  V30 11554 C 1071.57 -1.27325 -5.10563 0
M  V30 11555 O 1070.59 -1.97526 -5.33828 0
M  V30 11556 N 1071.79 -0.1358 -5.80341 0
M  V30 11557 H 1074.56 -2.03275 -2.20225 0
M  V30 11558 H 1072.12 -1.20059 -1.08616 0
M  V30 11559 H 1074.11 -0.288693 -4.03669 0
M  V30 11560 H 1072.68 0.242348 -3.11659 0
M  V30 11561 H 1071.9 -2.2401 -3.24366 0
M  V30 11562 H 1073.19 -2.49448 -4.43456 0
M  V30 11563 H 1072.59 0.449846 -5.63909 0
M  V30 11564 H 1071.15 0.134289 -6.51662 0
M  V30 11565 N 1074.58 1.12322 -1.10551 0
M  V30 11566 C 1075.51 2.20176 -0.777486 0
M  V30 11567 C 1076.49 1.68252 0.250069 0
M  V30 11568 O 1077.67 1.93856 0.115574 0
M  V30 11569 C 1074.8 3.46666 -0.209822 0
M  V30 11570 C 1073.76 4.11749 -1.1682 0
M  V30 11571 C 1073.08 5.32703 -0.461684 0
M  V30 11572 C 1074.38 4.57746 -2.51527 0
M  V30 11573 H 1076.08 2.47872 -1.67928 0
M  V30 11574 H 1073.62 1.19136 -0.808863 0
M  V30 11575 H 1075.58 4.21388 0.0318068 0
M  V30 11576 H 1074.3 3.18401 0.727226 0
M  V30 11577 H 1072.96 3.39009 -1.3953 0
M  V30 11578 H 1072.61 5.00706 0.479875 0
M  V30 11579 H 1072.31 5.77197 -1.1008 0
M  V30 11580 H 1073.83 6.10172 -0.228629 0
M  V30 11581 H 1075.25 5.23835 -2.32958 0
M  V30 11582 H 1073.64 5.13021 -3.11335 0
M  V30 11583 H 1074.71 3.71667 -3.11435 0
M  V30 11584 N 1076.06 0.894434 1.2976 0
M  V30 11585 C 1077.02 0.373094 2.26143 0
M  V30 11586 C 1078.02 -0.489756 1.5316 0
M  V30 11587 O 1079.21 -0.29556 1.71674 0
M  V30 11588 C 1076.34 -0.467234 3.37683 0
M  V30 11589 H 1077.53 1.22427 2.73773 0
M  V30 11590 H 1075.09 0.672112 1.41111 0
M  V30 11591 H 1075.82 -1.33861 2.95384 0
M  V30 11592 H 1075.61 0.150954 3.91809 0
M  V30 11593 H 1077.1 -0.823469 4.094 0
M  V30 11594 N 1077.53 -1.43282 0.656365 0
M  V30 11595 C 1078.48 -2.32556 -0.0452037 0
M  V30 11596 C 1079.48 -1.48789 -0.80982 0
M  V30 11597 O 1080.68 -1.64979 -0.719865 0
M  V30 11598 H 1077.06 -0.751258 -0.0334043 0
M  V30 11599 H 1079.03 -2.89448 0.725423 0
M  V30 11600 C 1077.78 -3.33138 -0.995706 0
M  V30 11601 H 1077.1 -3.97622 -0.416774 0
M  V30 11602 H 1078.54 -3.98231 -1.45562 0
M  V30 11603 C 1077 -2.63978 -2.09325 0
M  V30 11604 O 1077.53 -2.45769 -3.17743 0
M  V30 11605 N 1075.74 -2.23301 -1.8597 0
M  V30 11606 H 1075.28 -2.38312 -0.97802 0
M  V30 11607 H 1075.24 -1.77358 -2.59599 0
M  V30 11608 N 1079.01 -0.398486 -1.52479 0
M  V30 11609 C 1080.29 0.238776 -1.94137 0
M  V30 11610 C 1080.67 1.63558 -1.33462 0
M  V30 11611 O 1080.02 2.22821 -0.506272 0
M  V30 11612 C 1080.23 0.255863 -3.48061 0
M  V30 11613 C 1081.58 0.480376 -4.21874 0
M  V30 11614 O 1082.6 0.335679 -3.54615 0
M  V30 11615 O 1081.46 0.764654 -5.41124 0
M  V30 11616 H 1078.55 0.150806 -0.813134 0
M  V30 11617 H 1081.1 -0.453659 -1.63524 0
M  V30 11618 H 1079.87 -0.722171 -3.84578 0
M  V30 11619 H 1079.49 0.99284 -3.85004 0
M  V30 11620 N 1080.49 1.57075 -0.12858 0
M  V30 11621 C 1081.9 1.82468 0.39526 0
M  V30 11622 C 1082.25 1.0463 1.65973 0
M  V30 11623 O 1081.38 0.285835 2.14504 0
M  V30 11624 C 1081.97 3.30976 0.723889 0
M  V30 11625 C 1080.53 3.57016 1.19232 0
M  V30 11626 C 1079.68 2.76534 0.205907 0
M  V30 11627 H 1082.63 1.54711 -0.353571 0
M  V30 11628 H 1082.65 3.46127 1.58039 0
M  V30 11629 H 1082.16 3.87602 -0.196595 0
M  V30 11630 H 1080.26 3.05758 2.12938 0
M  V30 11631 H 1080.38 4.65558 1.13103 0
M  V30 11632 H 1078.74 2.45038 0.694872 0
M  V30 11633 H 1079.52 3.35923 -0.707842 0
M  V30 11634 N 1081.97 -0.145205 1.5693 0
M  V30 11635 C 1083.2 -0.871133 1.87336 0
M  V30 11636 C 1083.61 -1.7517 0.714992 0
M  V30 11637 O 1082.95 -1.80815 -0.324304 0
M  V30 11638 C 1083.01 -1.77775 3.12468 0
M  V30 11639 C 1082.68 -1.07416 4.44197 0
M  V30 11640 C 1083.67 -0.42722 5.18142 0
M  V30 11641 C 1081.36 -1.06313 4.9092 0
M  V30 11642 C 1083.35 0.221348 6.37016 0
M  V30 11643 C 1081.04 -0.410755 6.09718 0
M  V30 11644 C 1082.04 0.230357 6.82611 0
M  V30 11645 O 1081.73 0.872389 7.99152 0
M  V30 11646 H 1081.46 -0.257174 0.62517 0
M  V30 11647 H 1084.01 -0.142159 2.04907 0
M  V30 11648 H 1082.24 -2.54771 2.9091 0
M  V30 11649 H 1083.93 -2.37579 3.29107 0
M  V30 11650 H 1084.7 -0.427536 4.83112 0
M  V30 11651 H 1080.58 -1.55156 4.34105 0
M  V30 11652 H 1084.12 0.722349 6.9385 0
M  V30 11653 H 1080.02 -0.408112 6.44209 0
M  V30 11654 H 1080.78 0.774236 8.1483 0
M  V30 11655 N 1083.45 -1.52049 -0.414609 0
M  V30 11656 C 1084.38 -1.77956 -1.51175 0
M  V30 11657 C 1085.36 -0.630282 -1.57992 0
M  V30 11658 O 1086.54 -0.875324 -1.73354 0
M  V30 11659 C 1083.67 -1.92527 -2.89051 0
M  V30 11660 C 1082.63 -3.08096 -2.97087 0
M  V30 11661 C 1081.95 -3.07882 -4.37164 0
M  V30 11662 C 1083.25 -4.47656 -2.69075 0
M  V30 11663 H 1084.95 -2.69827 -1.29746 0
M  V30 11664 H 1082.49 -1.29839 -0.62273 0
M  V30 11665 H 1084.45 -2.09234 -3.65786 0
M  V30 11666 H 1083.17 -0.973235 -3.11762 0
M  V30 11667 H 1081.83 -2.91131 -2.22797 0
M  V30 11668 H 1081.48 -2.10411 -4.56877 0
M  V30 11669 H 1081.18 -3.85501 -4.43467 0
M  V30 11670 H 1082.7 -3.26712 -5.15841 0
M  V30 11671 H 1084.12 -4.64855 -3.35534 0
M  V30 11672 H 1082.51 -5.27151 -2.8676 0
M  V30 11673 H 1083.58 -4.56129 -1.64544 0
M  V30 11674 N 1084.93 0.6715 -1.42579 0
M  V30 11675 C 1085.86 1.79693 -1.49107 0
M  V30 11676 C 1086.84 1.66516 -0.347338 0
M  V30 11677 O 1088.02 1.85887 -0.562094 0
M  V30 11678 C 1085.15 3.1801 -1.39596 0
M  V30 11679 C 1084.11 3.45926 -2.5203 0
M  V30 11680 C 1083.43 4.83852 -2.27577 0
M  V30 11681 C 1084.73 3.4249 -3.94333 0
M  V30 11682 H 1086.43 1.74486 -2.433 0
M  V30 11683 H 1083.97 0.838042 -1.17102 0
M  V30 11684 H 1085.92 3.96478 -1.42771 0
M  V30 11685 H 1084.65 3.23901 -0.418989 0
M  V30 11686 H 1083.31 2.6982 -2.48178 0
M  V30 11687 H 1082.96 4.86398 -1.28165 0
M  V30 11688 H 1082.66 5.03493 -3.02934 0
M  V30 11689 H 1084.18 5.646 -2.32506 0
M  V30 11690 H 1085.59 4.10922 -3.9977 0
M  V30 11691 H 1083.99 3.73666 -4.69568 0
M  V30 11692 H 1085.06 2.41002 -4.20768 0
M  V30 11693 N 1086.4 1.28806 0.908124 0
M  V30 11694 C 1087.81 1.14719 1.47297 0
M  V30 11695 C 1088.17 -0.260763 1.94459 0
M  V30 11696 O 1087.29 -1.15553 1.82966 0
M  V30 11697 C 1087.89 2.07643 2.67712 0
M  V30 11698 C 1086.44 1.97605 3.20358 0
M  V30 11699 C 1085.59 1.99058 1.93058 0
M  V30 11700 H 1088.54 1.41413 0.720283 0
M  V30 11701 H 1088.56 1.64372 3.43165 0
M  V30 11702 H 1088.08 3.10108 2.33355 0
M  V30 11703 H 1086.18 0.981982 3.59427 0
M  V30 11704 H 1086.29 2.84846 3.85226 0
M  V30 11705 H 1084.65 1.43541 2.104 0
M  V30 11706 H 1085.44 3.03212 1.60989 0
M  V30 11707 N 1087.88 -1.11734 1.11145 0
M  V30 11708 C 1088.83 -2.15789 0.736133 0
M  V30 11709 C 1089.82 -1.58813 -0.25832 0
M  V30 11710 O 1091.01 -1.76877 -0.0659078 0
M  V30 11711 C 1088.14 -3.4284 0.177597 0
M  V30 11712 C 1087.22 -4.06783 1.19953 0
M  V30 11713 N 1087.61 -4.45626 2.39271 0
M  V30 11714 C 1085.91 -4.33663 1.04176 0
M  V30 11715 C 1086.61 -4.95684 3.04422 0
M  V30 11716 N 1085.59 -4.91648 2.31912 0
M  V30 11717 H 1089.39 -2.43598 1.6443 0
M  V30 11718 H 1086.9 -1.28716 0.990247 0
M  V30 11719 H 1088.9 -4.16756 -0.109402 0
M  V30 11720 H 1087.56 -3.16498 -0.725201 0
M  V30 11721 H 1088.57 -4.37757 2.76747 0
M  V30 11722 H 1085.25 -4.17044 0.195132 0
M  V30 11723 H 1086.64 -5.35394 4.05959 0
M  V30 11724 N 1089.36 -0.901303 -1.29284 0
M  V30 11725 C 1090.29 -0.32479 -2.25877 0
M  V30 11726 C 1091.27 0.563944 -1.52507 0
M  V30 11727 O 1092.45 0.510393 -1.81459 0
M  V30 11728 C 1089.58 0.536897 -3.34418 0
M  V30 11729 C 1088.63 -0.28474 -4.25548 0
M  V30 11730 S 1089.46 -1.68355 -5.08347 0
M  V30 11731 C 1090.62 -0.828826 -6.20388 0
M  V30 11732 H 1090.85 -1.14352 -2.74428 0
M  V30 11733 H 1088.38 -0.701749 -1.37531 0
M  V30 11734 H 1090.34 1.02827 -3.97413 0
M  V30 11735 H 1089 1.32988 -2.84558 0
M  V30 11736 H 1088.19 0.373566 -5.02614 0
M  V30 11737 H 1087.8 -0.709313 -3.67212 0
M  V30 11738 H 1090.09 -0.0529234 -6.77479 0
M  V30 11739 H 1091.03 -1.57161 -6.90439 0
M  V30 11740 H 1091.44 -0.382503 -5.63203 0
M  V30 11741 N 1090.84 1.42931 -0.663954 0
M  V30 11742 C 1092.25 1.56098 -0.332496 0
M  V30 11743 C 1092.45 1.64564 1.16279 0
M  V30 11744 O 1091.51 1.6066 1.94794 0
M  V30 11745 C 1092.82 2.81649 -1.05329 0
M  V30 11746 C 1094.37 2.95408 -1.03457 0
M  V30 11747 C 1094.85 4.23805 -1.73647 0
M  V30 11748 N 1096.34 4.30693 -1.70462 0
M  V30 11749 C 1097.07 5.28833 -2.21637 0
M  V30 11750 N 1096.57 6.33189 -2.81147 0
M  V30 11751 N 1098.36 5.20558 -2.12075 0
M  V30 11752 H 1090.51 1.3568 -1.63416 0
M  V30 11753 H 1092.77 0.652361 -0.687844 0
M  V30 11754 H 1092.48 2.81494 -2.10842 0
M  V30 11755 H 1092.35 3.72208 -0.611626 0
M  V30 11756 H 1094.74 2.95097 0.0121936 0
M  V30 11757 H 1094.82 2.06109 -1.51502 0
M  V30 11758 H 1094.47 4.24876 -2.78285 0
M  V30 11759 H 1094.4 5.12019 -1.2306 0
M  V30 11760 H 1096.89 3.55904 -1.27046 0
M  V30 11761 H 1097.2 7.04411 -3.17844 0
M  V30 11762 H 1095.55 6.33781 -2.85212 0
M  V30 11763 H 1098.74 4.3795 -1.6528 0
M  V30 11764 H 1098.91 5.96881 -2.52264 0
M  V30 11765 N 1092.32 0.406567 1.52266 0
M  V30 11766 C 1093.73 0.0573228 1.59497 0
M  V30 11767 C 1093.93 -1.43005 1.41957 0
M  V30 11768 O 1092.99 -2.19659 1.24523 0
M  V30 11769 C 1094.3 0.549947 2.95628 0
M  V30 11770 C 1095.85 0.5077 3.08855 0
M  V30 11771 C 1096.32 0.976792 4.47463 0
M  V30 11772 N 1097.81 0.933508 4.53696 0
M  V30 11773 C 1098.55 1.26769 5.59211 0
M  V30 11774 N 1098.05 1.6732 6.72292 0
M  V30 11775 N 1099.84 1.18782 5.49406 0
M  V30 11776 H 1091.99 1.37468 1.61914 0
M  V30 11777 H 1094.25 0.564562 0.76156 0
M  V30 11778 H 1093.96 1.58943 3.13736 0
M  V30 11779 H 1093.83 -0.0417767 3.77177 0
M  V30 11780 H 1096.22 -0.522728 2.90433 0
M  V30 11781 H 1096.3 1.13545 2.29219 0
M  V30 11782 H 1095.94 2.00554 4.66627 0
M  V30 11783 H 1095.87 0.325885 5.25591 0
M  V30 11784 H 1098.37 0.635333 3.72521 0
M  V30 11785 H 1098.68 1.91137 7.4879 0
M  V30 11786 H 1097.02 1.71221 6.73579 0
M  V30 11787 H 1100.21 0.869906 4.59946 0
M  V30 11788 H 1100.39 1.45157 6.31533 0
M  V30 11789 N 1093.79 -1.57004 0.136909 0
M  V30 11790 C 1095.02 -2.00587 -0.527209 0
M  V30 11791 C 1095.44 -1.01628 -1.58283 0
M  V30 11792 O 1094.8 0.00946934 -1.81298 0
M  V30 11793 C 1094.85 -3.42967 -1.11384 0
M  V30 11794 O 1093.95 -3.46973 -2.22898 0
M  V30 11795 H 1093.3 -0.651155 -0.129976 0
M  V30 11796 H 1095.83 -2.03296 0.230667 0
M  V30 11797 H 1095.84 -3.81555 -1.44499 0
M  V30 11798 H 1094.51 -4.14502 -0.340736 0
M  V30 11799 H 1093.09 -3.20219 -1.91087 0
M  V30 11800 N 1095.27 0.136881 -1.57004 0
M  V30 11801 C 1096.22 1.18782 -1.99984 0
M  V30 11802 C 1097.21 1.43899 -0.893841 0
M  V30 11803 O 1098.42 1.44072 -1.07904 0
M  V30 11804 H 1094.8 0.400065 -0.636751 0
M  V30 11805 H 1096.77 0.798696 -2.87512 0
M  V30 11806 C 1095.52 2.51105 -2.40502 0
M  V30 11807 H 1094.84 2.32611 -3.25165 0
M  V30 11808 H 1096.28 3.23244 -2.74389 0
M  V30 11809 C 1094.74 3.12386 -1.26161 0
M  V30 11810 O 1095.27 3.97666 -0.567836 0
M  V30 11811 N 1093.47 2.71989 -1.02326 0
M  V30 11812 H 1093.02 2.02736 -1.58921 0
M  V30 11813 H 1092.98 3.13322 -0.26013 0
M  V30 11814 N 1096.75 1.52266 0.40654 0
M  V30 11815 C 1097.98 1.70598 1.17945 0
M  V30 11816 C 1098.4 0.415793 1.83447 0
M  V30 11817 O 1097.76 -0.626968 1.70114 0
M  V30 11818 C 1097.81 2.84449 2.21633 0
M  V30 11819 O 1096.91 2.50199 3.27833 0
M  V30 11820 H 1096.25 0.567837 0.344177 0
M  V30 11821 H 1098.78 1.98981 0.476211 0
M  V30 11822 H 1098.79 3.09436 2.65919 0
M  V30 11823 H 1097.47 3.78055 1.73341 0
M  V30 11824 H 1096.04 2.35892 2.88807 0
M  V30 11825 N 1098.23 -0.663929 1.42933 0
M  V30 11826 C 1099.45 -1.45691 1.47611 0
M  V30 11827 C 1099.88 -1.87875 0.0920305 0
M  V30 11828 O 1099.24 -1.56696 -0.91192 0
M  V30 11829 C 1099.28 -2.67517 2.41799 0
M  V30 11830 O 1098.39 -3.66187 1.89686 0
M  V30 11831 H 1097.73 -0.437257 0.499702 0
M  V30 11832 H 1100.26 -0.813397 1.87737 0
M  V30 11833 H 1100.27 -3.1546 2.58745 0
M  V30 11834 H 1098.94 -2.36155 3.4235 0
M  V30 11835 H 1097.52 -3.25274 1.82349 0
M  V30 11836 N 1099.71 -1.29285 -0.901281 0
M  V30 11837 C 1100.95 -1.16934 -1.64836 0
M  V30 11838 C 1101.28 0.279826 -1.92982 0
M  V30 11839 O 1100.55 1.19179 -1.55478 0
M  V30 11840 H 1099.13 -0.429768 -0.61099 0
M  V30 11841 H 1101.79 -1.62189 -1.08077 0
M  V30 11842 H 1100.88 -1.71821 -2.60545 0
M  V30 11843 N 1101.18 1.11143 -1.11736 0
M  V30 11844 C 1102.13 2.19358 -0.773626 0
M  V30 11845 C 1103.13 1.67744 0.236288 0
M  V30 11846 O 1104.33 1.79748 0.09525 0
M  V30 11847 H 1100.71 0.715218 -0.232309 0
M  V30 11848 H 1102.68 2.45594 -1.69487 0
M  V30 11849 C 1101.43 3.46895 -0.236457 0
M  V30 11850 H 1100.75 3.86967 -1.00483 0
M  V30 11851 H 1102.19 4.23986 -0.034168 0
M  V30 11852 C 1100.65 3.20641 1.03397 0
M  V30 11853 O 1101.18 3.41629 2.11312 0
M  V30 11854 N 1099.39 2.74356 0.957986 0
M  V30 11855 H 1098.93 2.57477 0.0796924 0
M  V30 11856 H 1098.89 2.57166 1.80867 0
M  V30 11857 N 1102.66 0.908147 1.28804 0
M  V30 11858 C 1103.59 0.409106 2.29888 0
M  V30 11859 C 1104.57 -0.520338 1.61946 0
M  V30 11860 O 1105.76 -0.429268 1.89396 0
M  V30 11861 C 1102.89 -0.35669 3.45463 0
M  V30 11862 C 1101.84 0.4831 4.25265 0
M  V30 11863 C 1101.17 -0.4107 5.3312 0
M  V30 11864 C 1102.47 1.73744 4.92555 0
M  V30 11865 H 1104.16 1.25386 2.7188 0
M  V30 11866 H 1101.71 0.604368 1.30703 0
M  V30 11867 H 1103.66 -0.71661 4.15262 0
M  V30 11868 H 1102.39 -1.2353 3.02337 0
M  V30 11869 H 1101.04 0.825464 3.57186 0
M  V30 11870 H 1100.69 -1.28769 4.86238 0
M  V30 11871 H 1100.39 0.14756 5.87415 0
M  V30 11872 H 1101.92 -0.766626 6.05768 0
M  V30 11873 H 1103.33 1.44676 5.54745 0
M  V30 11874 H 1101.73 2.23767 5.5682 0
M  V30 11875 H 1102.8 2.46853 4.17363 0
M  V30 11876 N 1104.14 -1.42577 0.671525 0
M  V30 11877 C 1105.09 -2.27978 -0.0315286 0
M  V30 11878 C 1106.07 -1.40907 -0.776796 0
M  V30 11879 O 1107.27 -1.64385 -0.656248 0
M  V30 11880 C 1104.4 -3.28884 -0.9844 0
M  V30 11881 C 1103.48 -4.23439 -0.236647 0
M  V30 11882 N 1103.87 -5.00107 0.756714 0
M  V30 11883 C 1102.17 -4.43457 -0.475551 0
M  V30 11884 C 1102.87 -5.69141 1.20221 0
M  V30 11885 N 1101.85 -5.40983 0.532802 0
M  V30 11886 H 1105.65 -2.84678 0.730455 0
M  V30 11887 H 1103.16 -1.54501 0.500317 0
M  V30 11888 H 1105.16 -3.88864 -1.50302 0
M  V30 11889 H 1103.82 -2.73745 -1.74625 0
M  V30 11890 H 1104.83 -5.05285 1.13613 0
M  V30 11891 H 1101.51 -3.99364 -1.21715 0
M  V30 11892 H 1102.9 -6.40653 2.02517 0
M  V30 11893 N 1105.62 -0.414636 -1.52048 0
M  V30 11894 C 1106.55 0.452854 -2.23662 0
M  V30 11895 C 1107.53 1.04348 -1.24701 0
M  V30 11896 O 1108.71 1.09029 -1.53769 0
M  V30 11897 C 1105.84 1.62908 -2.96949 0
M  V30 11898 C 1104.89 1.16132 -4.10385 0
M  V30 11899 S 1105.72 0.121936 -5.35361 0
M  V30 11900 C 1106.88 1.30336 -6.12179 0
M  V30 11901 H 1107.11 -0.155202 -2.96895 0
M  V30 11902 H 1104.64 -0.198972 -1.53113 0
M  V30 11903 H 1106.6 2.30351 -3.39777 0
M  V30 11904 H 1105.26 2.20849 -2.23348 0
M  V30 11905 H 1104.45 2.04025 -4.60858 0
M  V30 11906 H 1104.06 0.565452 -3.69701 0
M  V30 11907 H 1106.35 2.22596 -6.39889 0
M  V30 11908 H 1107.29 0.839052 -7.03111 0
M  V30 11909 H 1107.7 1.53165 -5.43324 0
M  V30 11910 N 1107.1 1.56929 -0.145233 0
M  V30 11911 C 1108.06 2.15483 0.781002 0
M  V30 11912 C 1109.06 1.09617 1.17647 0
M  V30 11913 O 1110.25 1.35265 1.09768 0
M  V30 11914 C 1107.38 2.7165 2.05959 0
M  V30 11915 H 1108.57 2.98667 0.271685 0
M  V30 11916 H 1106.13 1.55952 0.1042 0
M  V30 11917 H 1106.86 1.92127 2.61262 0
M  V30 11918 H 1106.65 3.491 1.78526 0
M  V30 11919 H 1108.14 3.16769 2.72116 0
M  V30 11920 N 1108.58 -0.128553 1.57075 0
M  V30 11921 C 1109.82 -0.836355 1.83982 0
M  V30 11922 C 1110.14 -1.80862 0.728971 0
M  V30 11923 O 1109.41 -1.94326 -0.247859 0
M  V30 11924 H 1107.99 -0.31185 0.678792 0
M  V30 11925 H 1110.66 -0.118153 1.94542 0
M  V30 11926 H 1109.75 -1.38741 2.79567 0
M  V30 11927 N 1110.05 -1.5248 -0.398459 0
M  V30 11928 C 1110.98 -1.79549 -1.49279 0
M  V30 11929 C 1111.96 -0.647004 -1.57315 0
M  V30 11930 O 1113.15 -0.893661 -1.72416 0
M  V30 11931 C 1110.28 -1.95582 -2.86993 0
M  V30 11932 C 1109.23 -3.1123 -2.93803 0
M  V30 11933 C 1108.56 -3.12501 -4.33874 0
M  V30 11934 C 1109.86 -4.50485 -2.64312 0
M  V30 11935 H 1111.55 -2.71187 -1.26877 0
M  V30 11936 H 1109.1 -1.30492 -0.608924 0
M  V30 11937 H 1111.05 -2.13102 -3.63546 0
M  V30 11938 H 1109.78 -1.00625 -3.10712 0
M  V30 11939 H 1108.44 -2.93477 -2.19697 0
M  V30 11940 H 1108.08 -2.15245 -4.54619 0
M  V30 11941 H 1107.78 -3.90183 -4.39353 0
M  V30 11942 H 1109.31 -3.32164 -5.12347 0
M  V30 11943 H 1110.72 -4.68387 -3.30585 0
M  V30 11944 H 1109.12 -5.30163 -2.81153 0
M  V30 11945 H 1110.19 -4.57848 -1.59696 0
M  V30 11946 N 1111.53 0.65634 -1.43283 0
M  V30 11947 C 1112.76 1.44408 -1.48168 0
M  V30 11948 C 1113.17 1.88542 -0.0986016 0
M  V30 11949 O 1112.53 1.59298 0.890527 0
M  V30 11950 C 1112.58 2.68111 -2.42484 0
M  V30 11951 O 1112.3 2.25824 -3.75413 0
M  V30 11952 C 1113.8 3.61499 -2.56579 0
M  V30 11953 H 1111.02 0.443731 -0.503333 0
M  V30 11954 H 1113.57 0.804917 -1.87993 0
M  V30 11955 H 1111.72 3.28175 -2.05863 0
M  V30 11956 H 1112.14 3.05839 -4.26102 0
M  V30 11957 H 1113.61 4.44972 -3.26655 0
M  V30 11958 H 1114.09 4.08639 -1.60969 0
M  V30 11959 H 1114.69 3.07319 -2.93998 0
M  V30 11960 N 1113.01 1.29761 0.894412 0
M  V30 11961 C 1113.97 1.15335 1.98067 0
M  V30 11962 C 1114.97 0.0872804 1.60563 0
M  V30 11963 O 1116.16 0.334645 1.70955 0
M  V30 11964 C 1113.29 0.764907 3.32208 0
M  V30 11965 H 1114.49 2.11829 2.12293 0
M  V30 11966 H 1112.04 1.13023 1.0796 0
M  V30 11967 H 1112.78 -0.199948 3.23683 0
M  V30 11968 H 1112.56 1.53523 3.60795 0
M  V30 11969 H 1114.05 0.687176 4.11907 0
M  V30 11970 N 1114.49 -1.10549 1.12324 0
M  V30 11971 C 1115.71 -1.8681 0.900927 0
M  V30 11972 C 1116.14 -1.80049 -0.54443 0
M  V30 11973 O 1115.5 -1.16957 -1.38531 0
M  V30 11974 C 1115.54 -3.33197 1.37883 0
M  V30 11975 O 1114.65 -4.08628 0.556529 0
M  V30 11976 H 1113.99 -0.579709 0.32378 0
M  V30 11977 H 1116.52 -1.39678 1.49503 0
M  V30 11978 H 1116.53 -3.84047 1.37739 0
M  V30 11979 H 1115.2 -3.37435 2.43127 0
M  V30 11980 H 1113.78 -3.67627 0.62486 0
M  V30 11981 N 1115.97 -0.914965 -1.28321 0
M  V30 11982 C 1117.38 -0.59512 -1.76961 0
M  V30 11983 C 1117.73 0.88958 -1.74874 0
M  V30 11984 O 1116.85 1.6959 -1.34418 0
M  V30 11985 C 1117.45 -1.07353 -3.21342 0
M  V30 11986 C 1116.01 -0.804577 -3.677 0
M  V30 11987 C 1115.15 -1.23955 -2.48053 0
M  V30 11988 H 1118.1 -1.0961 -1.14767 0
M  V30 11989 H 1118.13 -0.415506 -3.78225 0
M  V30 11990 H 1117.64 -2.15413 -3.22829 0
M  V30 11991 H 1115.74 0.26277 -3.71672 0
M  V30 11992 H 1115.85 -1.41317 -4.57784 0
M  V30 11993 H 1114.22 -0.658274 -2.46046 0
M  V30 11994 H 1115 -2.32853 -2.52258 0
M  V30 11995 N 1117.44 1.42219 -0.679077 0
M  V30 11996 C 1118.67 2.05815 -0.211649 0
M  V30 11997 C 1119.09 1.51037 1.13284 0
M  V30 11998 O 1118.44 0.651894 1.7046 0
M  V30 11999 C 1118.49 3.61218 -0.142663 0
M  V30 12000 O 1118.22 4.13965 -1.43402 0
M  V30 12001 C 1119.72 4.41934 0.347746 0
M  V30 12002 H 1116.94 0.663215 -0.101914 0
M  V30 12003 H 1119.48 1.82282 -0.927017 0
M  V30 12004 H 1117.64 3.83848 0.52342 0
M  V30 12005 H 1118.05 5.07872 -1.31021 0
M  V30 12006 H 1119.52 5.50921 0.344916 0
M  V30 12007 H 1120 4.16832 1.38377 0
M  V30 12008 H 1120.61 4.24332 -0.286751 0
M  V30 12009 N 1118.92 0.422693 1.51826 0
M  V30 12010 C 1120.33 -0.0438129 1.86649 0
M  V30 12011 C 1120.68 -1.43246 1.34071 0
M  V30 12012 O 1119.81 -2.05256 0.685501 0
M  V30 12013 C 1120.4 -0.0862802 3.3869 0
M  V30 12014 C 1118.96 -0.497157 3.73102 0
M  V30 12015 C 1118.11 0.319655 2.75451 0
M  V30 12016 H 1121.06 0.639181 1.45259 0
M  V30 12017 H 1121.08 -0.8988 3.69732 0
M  V30 12018 H 1120.59 0.924525 3.76927 0
M  V30 12019 H 1118.69 -1.51411 3.40449 0
M  V30 12020 H 1118.81 -0.232125 4.78537 0
M  V30 12021 H 1117.17 -0.219963 2.53748 0
M  V30 12022 H 1117.95 1.32906 3.16529 0
M  V30 12023 N 1120.4 -1.5685 0.153553 0
M  V30 12024 C 1121.81 -1.83074 -0.36618 0
M  V30 12025 C 1122.16 -1.07257 -1.64288 0
M  V30 12026 O 1121.29 -0.319925 -2.14022 0
M  V30 12027 C 1121.88 -3.32086 -0.671142 0
M  V30 12028 C 1120.44 -3.58868 -1.13537 0
M  V30 12029 C 1119.59 -2.76827 -0.161887 0
M  V30 12030 H 1122.54 -1.54129 0.378139 0
M  V30 12031 H 1122.56 -3.48598 -1.52512 0
M  V30 12032 H 1122.07 -3.8724 0.258234 0
M  V30 12033 H 1120.17 -3.09107 -2.08047 0
M  V30 12034 H 1120.29 -4.67299 -1.05682 0
M  V30 12035 H 1118.65 -2.46112 -0.6558 0
M  V30 12036 H 1119.43 -3.34755 0.761195 0
M  V30 12037 N 1121.88 0.120221 -1.57141 0
M  V30 12038 C 1123.1 0.84637 -1.89344 0
M  V30 12039 C 1123.53 1.72702 -0.745365 0
M  V30 12040 O 1122.89 1.7873 0.304155 0
M  V30 12041 C 1122.93 1.65671 -3.20289 0
M  V30 12042 O 1122.04 2.76353 -3.06109 0
M  V30 12043 H 1121.38 0.234132 -0.621352 0
M  V30 12044 H 1123.91 0.102986 -2.04341 0
M  V30 12045 H 1123.92 2.04621 -3.52979 0
M  V30 12046 H 1122.59 1.01023 -4.03444 0
M  V30 12047 H 1121.17 2.40615 -2.84884 0
M  V30 12048 N 1123.36 1.52689 0.390367 0
M  V30 12049 C 1124.58 1.71839 1.16129 0
M  V30 12050 C 1125.01 0.435226 1.82996 0
M  V30 12051 O 1124.36 -0.60889 1.70769 0
M  V30 12052 C 1124.41 2.86784 2.18603 0
M  V30 12053 O 1123.52 2.53662 3.25161 0
M  V30 12054 H 1122.86 0.571455 0.338135 0
M  V30 12055 H 1125.39 1.99475 0.45508 0
M  V30 12056 H 1125.4 3.12239 2.62622 0
M  V30 12057 H 1124.07 3.79872 1.69322 0
M  V30 12058 H 1122.65 2.38942 2.86289 0
M  V30 12059 N 1124.83 -0.648732 1.43629 0
M  V30 12060 C 1126.06 -1.44117 1.49148 0
M  V30 12061 C 1126.48 -1.87767 0.111952 0
M  V30 12062 O 1125.84 -1.57655 -0.895249 0
M  V30 12063 C 1125.89 -2.64938 2.44623 0
M  V30 12064 O 1124.99 -3.64155 1.93559 0
M  V30 12065 H 1124.34 -0.431933 0.504312 0
M  V30 12066 H 1126.87 -0.793439 1.88589 0
M  V30 12067 H 1126.88 -3.12698 2.62076 0
M  V30 12068 H 1125.55 -2.3251 3.44836 0
M  V30 12069 H 1124.13 -3.23322 1.85789 0
M  V30 12070 N 1126.31 -1.30234 -0.887518 0
M  V30 12071 C 1127.56 -1.18277 -1.63381 0
M  V30 12072 C 1127.87 0.262079 -1.93836 0
M  V30 12073 O 1129.08 0.503127 -2.66797 0
M  V30 12074 C 1127.54 -2.06944 -2.94452 0
M  V30 12075 C 1127.14 -3.56323 -2.71547 0
M  V30 12076 C 1128.89 -2.03743 -3.7241 0
M  V30 12077 C 1126.8 -4.37054 -3.98419 0
M  V30 12078 H 1125.73 -0.439087 -0.612959 0
M  V30 12079 H 1128.38 -1.54964 -0.982779 0
M  V30 12080 H 1126.76 -1.63138 -3.60835 0
M  V30 12081 H 1127.93 -4.08261 -2.13681 0
M  V30 12082 H 1126.25 -3.61321 -2.06969 0
M  V30 12083 H 1128.84 -2.61312 -4.66497 0
M  V30 12084 H 1129.19 -1.02029 -4.03603 0
M  V30 12085 H 1129.72 -2.45657 -3.12886 0
M  V30 12086 H 1126.46 -5.39453 -3.72385 0
M  V30 12087 H 1125.98 -3.89881 -4.55799 0
M  V30 12088 H 1127.66 -4.48356 -4.66462 0
M  V30 12089 N 1127.79 1.09952 -1.12909 0
M  V30 12090 C 1129.04 1.81386 -0.882163 0
M  V30 12091 C 1129.35 1.86376 0.593592 0
M  V30 12092 O 1130.56 2.54064 0.957275 0
M  V30 12093 C 1129.01 3.25824 -1.52861 0
M  V30 12094 C 1128.62 3.29117 -3.0395 0
M  V30 12095 C 1130.37 4.02051 -1.36216 0
M  V30 12096 C 1128.27 4.68047 -3.61505 0
M  V30 12097 H 1127.2 0.679701 -0.326378 0
M  V30 12098 H 1129.85 1.23614 -1.35616 0
M  V30 12099 H 1128.24 3.83624 -0.982271 0
M  V30 12100 H 1129.41 2.81114 -3.65119 0
M  V30 12101 H 1127.73 2.66379 -3.20049 0
M  V30 12102 H 1130.32 5.04683 -1.76633 0
M  V30 12103 H 1130.67 4.15171 -0.306391 0
M  V30 12104 H 1131.2 3.5068 -1.87799 0
M  V30 12105 H 1127.94 4.60128 -4.66865 0
M  V30 12106 H 1127.46 5.16397 -3.05114 0
M  V30 12107 H 1129.14 5.37018 -3.6086 0
M  V30 12108 N 1129.27 0.921757 1.27833 0
M  V30 12109 C 1130.5 0.575202 1.98744 0
M  V30 12110 C 1130.91 -0.845405 1.68815 0
M  V30 12111 O 1130.27 -1.56106 0.94536 0
M  V30 12112 C 1130.32 0.784389 3.52888 0
M  V30 12113 O 1130.04 2.1491 3.81766 0
M  V30 12114 C 1131.54 0.445744 4.41053 0
M  V30 12115 H 1128.76 0.218525 0.634419 0
M  V30 12116 H 1131.31 1.23715 1.62834 0
M  V30 12117 H 1129.46 0.169323 3.8703 0
M  V30 12118 H 1129.87 2.19469 4.76375 0
M  V30 12119 H 1131.35 0.64284 5.48244 0
M  V30 12120 H 1131.83 -0.618433 4.34824 0
M  V30 12121 H 1132.43 1.03869 4.12421 0
M  V30 12122 N 1130.75 -1.41857 0.686609 0
M  V30 12123 C 1131.98 -2.05401 0.222238 0
M  V30 12124 C 1132.38 -1.51731 -1.13023 0
M  V30 12125 O 1131.73 -0.656701 -1.71561 0
M  V30 12126 C 1131.79 -3.59381 0.0926608 0
M  V30 12127 C 1131.45 -4.35801 1.37573 0
M  V30 12128 C 1132.45 -4.65678 2.31171 0
M  V30 12129 C 1130.14 -4.75233 1.62661 0
M  V30 12130 C 1132.13 -5.33936 3.48125 0
M  V30 12131 C 1129.82 -5.43229 2.79902 0
M  V30 12132 C 1130.81 -5.72507 3.72458 0
M  V30 12133 O 1130.5 -6.39106 4.87646 0
M  V30 12134 H 1130.23 -0.668126 0.102876 0
M  V30 12135 H 1132.79 -1.82775 0.93714 0
M  V30 12136 H 1131.02 -3.80711 -0.67793 0
M  V30 12137 H 1132.71 -4.04529 -0.333364 0
M  V30 12138 H 1133.47 -4.35704 2.13042 0
M  V30 12139 H 1129.35 -4.51831 0.914862 0
M  V30 12140 H 1132.9 -5.56706 4.20386 0
M  V30 12141 H 1128.79 -5.72621 2.97951 0
M  V30 12142 H 1129.56 -6.576 4.87344 0
M  V30 12143 O 1132.26 -0.572812 -1.51 0
M  V30 12144 H 1132.95 -0.0746995 -1.93556 0
M  V30 END ATOM
M  V30 BEGIN BOND
M  V30 END BOND
M  V30 END CTAB
M  END
$$$$
