drugbank_target|P35408 Prostaglandin E2 receptor EP4 subtype (DB00917; DB00929; DB09211; DB11113; DB12836)
 OpenBabel12092120333D

  0  0  0     0  0            999 V3000
M  V30 BEGIN CTAB
M  V30 COUNTS 7532 7605 0 0 0
M  V30 BEGIN ATOM
M  V30 1 H -0.908 1.98254 -0.117106 0
M  V30 2 N 0 1.576 0 0
M  V30 3 C 0.933 2.03868 1.02534 0
M  V30 4 C 1.911 0.928543 1.3348 0
M  V30 5 O 3.095 1.19667 1.45644 0
M  V30 6 C 0.222 2.43627 2.35294 0
M  V30 7 C -0.732 3.65373 2.2001 0
M  V30 8 S 0.101 5.13292 1.52614 0
M  V30 9 C 1.257 5.56322 2.86805 0
M  V30 10 H 1.49 2.90518 0.631377 0
M  V30 11 H -0.977 1.52953 0.210867 0
M  V30 12 H 0.981 2.67203 3.11629 0
M  V30 13 H -0.358 1.57376 2.7183 0
M  V30 14 H -1.165 3.90944 3.18086 0
M  V30 15 H -1.563 3.418 1.51819 0
M  V30 16 H 0.729 5.58782 3.83104 0
M  V30 17 H 1.672 6.56266 2.65933 0
M  V30 18 H 2.08 4.83886 2.90714 0
M  V30 19 N 1.4781 -0.272755 1.55222 0
M  V30 20 C 2.7031 -1.02683 1.80197 0
M  V30 21 C 3.1281 -1.79142 0.573551 0
M  V30 22 O 2.4861 -1.74917 -0.476849 0
M  V30 23 C 2.5341 -1.9609 3.02624 0
M  V30 24 O 1.6381 -3.04863 2.77727 0
M  V30 25 H 0.9791 -0.293557 0.595584 0
M  V30 26 H 3.5091 -0.30159 2.02365 0
M  V30 27 H 3.5191 -2.38039 3.31363 0
M  V30 28 H 2.1941 -1.39851 3.91682 0
M  V30 29 H 0.7711 -2.67228 2.60084 0
M  V30 30 N 2.9562 -1.48159 -0.537278 0
M  V30 31 C 4.1842 -1.59454 -1.31841 0
M  V30 32 C 4.5992 -0.252065 -1.8711 0
M  V30 33 O 3.9562 0.757621 -1.66031 0
M  V30 34 C 4.0072 -2.63546 -2.47439 0
M  V30 35 O 3.7282 -3.92583 -1.94449 0
M  V30 36 C 5.2292 -2.85212 -3.39366 0
M  V30 37 H 2.4492 -0.53785 -0.401196 0
M  V30 38 H 4.9932 -1.93932 -0.648891 0
M  V30 39 H 3.1482 -2.31946 -3.1029 0
M  V30 40 H 3.5622 -4.49629 -2.70063 0
M  V30 41 H 5.0362 -3.61863 -4.16844 0
M  V30 42 H 5.5132 -1.93765 -3.94147 0
M  V30 43 H 6.1192 -3.18086 -2.82314 0
M  V30 44 N 4.4343 0.785586 -1.36625 0
M  V30 45 C 5.8453 1.36101 -1.27803 0
M  V30 46 C 6.1963 1.96035 0.0804875 0
M  V30 47 O 5.3213 1.92834 0.982042 0
M  V30 48 C 5.9163 2.47442 -2.31426 0
M  V30 49 C 4.4753 3.00789 -2.26281 0
M  V30 50 C 3.6223 1.73896 -2.15999 0
M  V30 51 H 6.5733 0.586928 -1.47448 0
M  V30 52 H 6.5943 3.2656 -1.95291 0
M  V30 53 H 6.1063 2.03791 -3.30289 0
M  V30 54 H 4.2073 3.48851 -1.30896 0
M  V30 55 H 4.3203 3.57343 -3.19128 0
M  V30 56 H 2.6843 1.9628 -1.62316 0
M  V30 57 H 3.4673 1.32368 -3.16755 0
M  V30 58 N 5.9124 1.20967 1.01018 0
M  V30 59 C 7.1604 1.02172 1.74371 0
M  V30 60 C 7.4814 -0.446414 1.89821 0
M  V30 61 O 6.7514 -1.32234 1.44537 0
M  V30 62 H 5.3314 0.375066 0.646014 0
M  V30 63 H 7.9934 1.52187 1.21758 0
M  V30 64 H 7.0894 1.48538 2.74487 0
M  V30 65 N 7.3905 -1.2043 1.01659 0
M  V30 66 C 8.6365 -1.90079 0.706963 0
M  V30 67 C 8.9695 -1.78648 -0.761474 0
M  V30 68 O 8.2445 -1.17069 -1.55323 0
M  V30 69 C 8.5275 -3.41469 1.14327 0
M  V30 70 C 8.3805 -3.61833 2.67201 0
M  V30 71 C 9.6995 -4.34261 0.714529 0
M  V30 72 H 6.8185 -0.690254 0.2583 0
M  V30 73 H 9.4605 -1.41826 1.26433 0
M  V30 74 H 7.6105 -3.82696 0.669056 0
M  V30 75 H 9.2825 -3.2986 3.22475 0
M  V30 76 H 7.5255 -3.05304 3.08175 0
M  V30 77 H 8.1965 -4.67955 2.92783 0
M  V30 78 H 10.6725 -4.00682 1.12221 0
M  V30 79 H 9.5485 -5.38806 1.04784 0
M  V30 80 H 9.8095 -4.40431 -0.383799 0
M  V30 81 N 8.8686 -0.792821 -1.36206 0
M  V30 82 C 9.8166 -0.181555 -2.3189 0
M  V30 83 C 10.8106 0.661025 -1.55971 0
M  V30 84 O 12.0166 0.555728 -1.71206 0
M  V30 85 H 8.3916 -0.0399382 -0.750939 0
M  V30 86 H 10.3626 -1.00394 -2.81005 0
M  V30 87 C 9.1116 0.666444 -3.41253 0
M  V30 88 H 8.4346 0.0274489 -3.99791 0
M  V30 89 H 9.8746 1.06076 -4.10517 0
M  V30 90 C 8.3336 1.82614 -2.83114 0
M  V30 91 O 8.8636 2.9229 -2.75553 0
M  V30 92 N 7.0696 1.63333 -2.40356 0
M  V30 93 H 6.6166 0.741217 -2.46706 0
M  V30 94 H 6.5746 2.41087 -2.01803 0
M  V30 95 N 10.3467 1.47872 -0.545128 0
M  V30 96 C 11.5717 2.07391 -0.0190611 0
M  V30 97 C 11.9967 1.39688 1.25971 0
M  V30 98 O 11.3547 0.467816 1.7516 0
M  V30 99 C 11.4027 3.60188 0.172335 0
M  V30 100 O 10.5067 3.9339 1.23766 0
M  V30 101 H 9.8477 0.662411 -0.0459059 0
M  V30 102 H 12.3777 1.90066 -0.757365 0
M  V30 103 H 12.3877 4.06129 0.390305 0
M  V30 104 H 11.0627 4.08865 -0.761725 0
M  V30 105 H 9.6397 3.5921 1.00114 0
M  V30 106 N 11.8248 0.280983 1.55075 0
M  V30 107 C 13.0498 -0.340154 2.04592 0
M  V30 108 C 13.4748 -1.48246 1.15779 0
M  V30 109 O 12.8328 -1.80614 0.15761 0
M  V30 110 C 12.8808 -0.793104 3.5177 0
M  V30 111 O 11.9848 -1.89981 3.66034 0
M  V30 112 H 11.3258 -0.0694289 0.66036 0
M  V30 113 H 13.8558 0.416993 2.00306 0
M  V30 114 H 13.8658 -1.08729 3.93245 0
M  V30 115 H 12.5408 0.0426163 4.15878 0
M  V30 116 H 11.1178 -1.60771 3.36463 0
M  V30 117 N 13.3029 -1.57598 0.00835791 0
M  V30 118 C 14.2659 -2.07884 -0.965242 0
M  V30 119 C 15.2659 -0.989825 -1.26725 0
M  V30 120 O 16.4559 -1.25218 -1.21104 0
M  V30 121 C 13.5879 -2.52731 -2.28779 0
M  V30 122 H 14.7809 -2.95178 -0.530112 0
M  V30 123 H 12.3339 -1.54458 -0.239283 0
M  V30 124 H 13.0689 -1.68705 -2.76964 0
M  V30 125 H 12.8539 -3.32272 -2.08177 0
M  V30 126 H 14.3439 -2.91933 -2.98605 0
M  V30 127 N 14.781 0.264519 -1.55364 0
M  V30 128 C 16.006 1.01726 -1.80739 0
M  V30 129 C 16.431 1.78836 -0.583044 0
M  V30 130 O 15.789 1.75167 0.467566 0
M  V30 131 C 15.837 1.94482 -3.03659 0
M  V30 132 O 14.941 3.03386 -2.7934 0
M  V30 133 H 14.282 0.290395 -0.597132 0
M  V30 134 H 16.812 0.290854 -2.02522 0
M  V30 135 H 16.822 2.36278 -3.32621 0
M  V30 136 H 15.497 1.37772 -3.92418 0
M  V30 137 H 14.074 2.65844 -2.61498 0
M  V30 138 N 16.2591 1.48442 0.529413 0
M  V30 139 C 17.1891 1.65902 1.64313 0
M  V30 140 C 18.1701 0.507897 1.6234 0
M  V30 141 O 19.3551 0.740503 1.79528 0
M  V30 142 C 16.4851 1.69911 3.02898 0
M  V30 143 C 15.4391 2.8453 3.19729 0
M  V30 144 C 14.7651 2.73629 4.59381 0
M  V30 145 C 16.0651 4.25821 3.02447 0
M  V30 146 H 17.7591 2.5914 1.49955 0
M  V30 147 H 15.3051 1.24709 0.719982 0
M  V30 148 H 17.2581 1.80715 3.80684 0
M  V30 149 H 15.9821 0.732524 3.18279 0
M  V30 150 H 14.6411 2.73283 2.44361 0
M  V30 151 H 14.2891 1.74938 4.71599 0
M  V30 152 H 13.9891 3.50541 4.71588 0
M  V30 153 H 15.5131 2.86401 5.39265 0
M  V30 154 H 16.9271 4.37898 3.70024 0
M  V30 155 H 15.3241 5.03735 3.26146 0
M  V30 156 H 16.3941 4.42244 1.98867 0
M  V30 157 N 17.7372 -0.778329 1.37039 0
M  V30 158 C 18.9622 -1.57248 1.35233 0
M  V30 159 C 19.3872 -1.87999 -0.0615568 0
M  V30 160 O 18.7452 -1.48734 -1.03672 0
M  V30 161 C 18.7932 -2.86353 2.19167 0
M  V30 162 O 17.8972 -3.80442 1.59178 0
M  V30 163 H 17.2382 -0.476569 0.462362 0
M  V30 164 H 19.7682 -0.963853 1.80474 0
M  V30 165 H 19.7782 -3.35519 2.32145 0
M  V30 166 H 18.4532 -2.63299 3.21942 0
M  V30 167 H 17.0302 -3.39067 1.55203 0
M  V30 168 N 19.2153 -1.21501 -1.00376 0
M  V30 169 C 20.6263 -1.03146 -1.55621 0
M  V30 170 C 20.9773 0.408375 -1.91903 0
M  V30 171 O 20.1023 1.29177 -1.73616 0
M  V30 172 C 20.6973 -1.86612 -2.82775 0
M  V30 173 C 19.2563 -1.72586 -3.34501 0
M  V30 174 C 18.4033 -1.83747 -2.07683 0
M  V30 175 H 21.3543 -1.35505 -0.826081 0
M  V30 176 H 21.3753 -1.3771 -3.54706 0
M  V30 177 H 20.8873 -2.91399 -2.56336 0
M  V30 178 H 18.9883 -0.704877 -3.65872 0
M  V30 179 H 19.1013 -2.54623 -4.05837 0
M  V30 180 H 17.4653 -1.27069 -2.20739 0
M  V30 181 H 18.2483 -2.90044 -1.83655 0
M  V30 182 N 20.6934 1.19889 -1.02296 0
M  V30 183 C 21.9704 1.85148 -0.630832 0
M  V30 184 C 22.3504 1.91385 0.890782 0
M  V30 185 O 21.6984 1.42642 1.78509 0
M  V30 186 C 21.9084 3.24442 -1.28602 0
M  V30 187 C 23.2564 4.00663 -1.4055 0
M  V30 188 O 24.2804 3.33818 -1.24273 0
M  V30 189 O 23.1394 5.20387 -1.66913 0
M  V30 190 H 20.2334 0.797613 -0.218499 0
M  V30 191 H 22.7794 1.27427 -1.12074 0
M  V30 192 H 21.5514 3.14704 -2.32545 0
M  V30 193 H 21.1744 3.89802 -0.7836 0
M  V30 194 N 22.1715 0.800033 1.35784 0
M  V30 195 C 23.5875 0.482977 1.52117 0
M  V30 196 C 23.7875 -0.996948 1.75109 0
M  V30 197 O 22.8435 -1.78216 1.78872 0
M  V30 198 C 24.1565 1.32264 2.70049 0
M  V30 199 C 25.7045 1.31742 2.83924 0
M  V30 200 C 26.1795 2.14106 4.04874 0
M  V30 201 N 27.6705 2.11607 4.12039 0
M  V30 202 C 28.4055 2.72099 5.04727 0
M  V30 203 N 27.9015 3.41492 6.02789 0
M  V30 204 N 29.6945 2.61776 4.97423 0
M  V30 205 H 21.8455 1.75856 1.19115 0
M  V30 206 H 24.1085 0.748122 0.582252 0
M  V30 207 H 23.8145 2.37261 2.59616 0
M  V30 208 H 23.6885 0.971303 3.6448 0
M  V30 209 H 26.0755 0.275333 2.93813 0
M  V30 210 H 26.1565 1.70859 1.9037 0
M  V30 211 H 25.8005 3.18351 3.95746 0
M  V30 212 H 25.7305 1.72353 4.97596 0
M  V30 213 H 28.2215 1.61112 3.41835 0
M  V30 214 H 28.5345 3.84953 6.70098 0
M  V30 215 H 26.8795 3.45596 6.02983 0
M  V30 216 H 30.0705 2.07157 4.19766 0
M  V30 217 H 30.2435 3.0921 5.69468 0
M  V30 218 N 23.6496 -1.47581 0.552962 0
M  V30 219 C 24.5796 -2.32762 -0.185451 0
M  V30 220 C 25.5606 -1.43527 -0.912905 0
M  V30 221 O 26.7456 -1.72388 -0.894201 0
M  V30 222 C 23.8756 -3.25219 -1.21859 0
M  V30 223 C 22.8296 -4.23661 -0.607864 0
M  V30 224 C 22.1556 -5.05413 -1.74533 0
M  V30 225 C 23.4556 -5.20481 0.435582 0
M  V30 226 H 25.1496 -2.94749 0.525684 0
M  V30 227 H 22.6956 -1.41738 0.254251 0
M  V30 228 H 24.6486 -3.8365 -1.7433 0
M  V30 229 H 23.3726 -2.61279 -1.95961 0
M  V30 230 H 22.0316 -3.66451 -0.104489 0
M  V30 231 H 21.6796 -4.3788 -2.47529 0
M  V30 232 H 21.3796 -5.72059 -1.34249 0
M  V30 233 H 22.9036 -5.66701 -2.27338 0
M  V30 234 H 24.3176 -5.733 -0.00290157 0
M  V30 235 H 22.7146 -5.95305 0.757067 0
M  V30 236 H 23.7846 -4.66217 1.33303 0
M  V30 237 N 25.1277 -0.289203 -1.54924 0
M  V30 238 C 26.0757 0.607966 -2.24514 0
M  V30 239 C 27.0697 1.14655 -1.24702 0
M  V30 240 O 28.2757 1.09856 -1.4259 0
M  V30 241 H 24.6507 0.21464 -0.720718 0
M  V30 242 H 26.6217 -0.00164182 -2.984 0
M  V30 243 C 25.3707 1.77406 -2.99036 0
M  V30 244 H 24.6937 1.36884 -3.75637 0
M  V30 245 H 26.1337 2.37814 -3.51028 0
M  V30 246 C 24.5927 2.67107 -2.05318 0
M  V30 247 O 25.1227 3.6787 -1.61353 0
M  V30 248 N 23.3287 2.34582 -1.71521 0
M  V30 249 H 22.8757 1.52688 -2.07471 0
M  V30 250 H 22.8337 2.94867 -1.0909 0
M  V30 251 N 26.6058 1.57591 -0.0167156 0
M  V30 252 C 27.8308 1.9598 0.67872 0
M  V30 253 C 28.2558 0.892546 1.65575 0
M  V30 254 O 27.6138 -0.147772 1.80697 0
M  V30 255 C 27.6618 3.33468 1.37227 0
M  V30 256 O 26.7658 3.28954 2.48722 0
M  V30 257 H 26.1068 0.639339 0.17928 0
M  V30 258 H 28.6368 2.04463 -0.0748802 0
M  V30 259 H 28.6468 3.69417 1.7319 0
M  V30 260 H 27.3218 4.10694 0.656007 0
M  V30 261 H 25.8988 3.04705 2.14963 0
M  V30 262 N 28.0839 -0.256276 1.55502 0
M  V30 263 C 29.4949 -0.826068 1.67431 0
M  V30 264 C 29.8459 -1.86396 0.612446 0
M  V30 265 O 28.9709 -2.15031 -0.243025 0
M  V30 266 C 29.5659 -1.50512 3.03532 0
M  V30 267 C 28.1249 -2.02273 3.17431 0
M  V30 268 C 27.2719 -0.870548 2.63281 0
M  V30 269 H 30.2229 -0.0322728 1.58667 0
M  V30 270 H 30.2439 -2.37279 2.97454 0
M  V30 271 H 29.7559 -0.749484 3.80794 0
M  V30 272 H 27.8569 -2.80746 2.44974 0
M  V30 273 H 27.9699 -2.22655 4.24219 0
M  V30 274 H 26.3339 -1.26851 2.20864 0
M  V30 275 H 27.1169 -0.128149 3.43061 0
M  V30 276 N 29.562 -1.4872 -0.521534 0
M  V30 277 C 30.808 -1.574 -1.27879 0
M  V30 278 C 31.141 -0.250817 -1.92573 0
M  V30 279 O 30.416 0.743934 -1.79711 0
M  V30 280 C 30.699 -2.71843 -2.36164 0
M  V30 281 C 30.552 -4.13893 -1.76105 0
M  V30 282 C 31.871 -2.82008 -3.37875 0
M  V30 283 H 28.99 -0.572941 -0.463581 0
M  V30 284 H 31.632 -1.80927 -0.580119 0
M  V30 285 H 29.782 -2.51914 -2.95756 0
M  V30 286 H 31.454 -4.45284 -1.20499 0
M  V30 287 H 29.697 -4.20498 -1.06601 0
M  V30 288 H 30.368 -4.89804 -2.5455 0
M  V30 289 H 32.844 -3.00086 -2.88249 0
M  V30 290 H 31.72 -3.63796 -4.11028 0
M  V30 291 H 31.981 -1.90511 -3.98946 0
M  V30 292 N 31.0401 0.771051 -1.3745 0
M  V30 293 C 32.2681 1.56015 -1.35893 0
M  V30 294 C 32.6831 1.88718 0.0555523 0
M  V30 295 O 32.0401 1.51502 1.01752 0
M  V30 296 C 32.0911 2.87001 -2.19801 0
M  V30 297 O 31.8121 2.557 -3.55738 0
M  V30 298 C 33.3131 3.81228 -2.26231 0
M  V30 299 H 30.5331 0.483317 -0.465453 0
M  V30 300 H 33.0771 0.955611 -1.80799 0
M  V30 301 H 31.2321 3.43877 -1.78402 0
M  V30 302 H 31.6461 3.39584 -3.99729 0
M  V30 303 H 33.1201 4.70139 -2.89263 0
M  V30 304 H 33.5971 4.20409 -1.27093 0
M  V30 305 H 34.2031 3.30281 -2.67945 0
M  V30 306 N 32.5182 1.22032 0.997298 0
M  V30 307 C 33.7672 1.03637 1.73038 0
M  V30 308 C 34.0802 -0.429475 1.90827 0
M  V30 309 O 35.2862 -0.732995 2.61418 0
M  V30 310 C 33.7422 1.80582 3.11317 0
M  V30 311 C 33.3502 3.31387 3.01474 0
M  V30 312 C 35.0942 1.70621 3.88701 0
M  V30 313 C 33.0012 4.00791 4.3488 0
M  V30 314 H 31.9312 0.384179 0.648785 0
M  V30 315 H 34.5822 1.4584 1.11368 0
M  V30 316 H 32.9642 1.31175 3.73643 0
M  V30 317 H 34.1382 3.88155 2.4834 0
M  V30 318 H 32.4532 3.41976 2.37575 0
M  V30 319 H 35.0502 2.19799 4.87434 0
M  V30 320 H 35.3932 0.665823 4.10941 0
M  V30 321 H 35.9262 2.17547 3.33044 0
M  V30 322 H 32.6652 5.05064 4.1784 0
M  V30 323 H 32.1852 3.48811 4.87945 0
M  V30 324 H 33.8642 4.06139 5.03647 0
M  V30 325 N 33.9963 -1.19345 1.0293 0
M  V30 326 C 35.4073 -1.70725 0.755633 0
M  V30 327 C 35.7583 -1.82326 -0.724676 0
M  V30 328 O 34.8833 -1.49471 -1.56484 0
M  V30 329 C 35.4783 -3.10084 1.36503 0
M  V30 330 C 34.0373 -3.58723 1.13994 0
M  V30 331 C 33.1843 -2.35577 1.46283 0
M  V30 332 H 36.1353 -1.0418 1.19718 0
M  V30 333 H 36.1563 -3.72787 0.762217 0
M  V30 334 H 35.6683 -3.01609 2.44241 0
M  V30 335 H 33.7693 -3.72512 0.0807901 0
M  V30 336 H 33.8823 -4.42816 1.82894 0
M  V30 337 H 32.2463 -2.38935 0.88217 0
M  V30 338 H 33.0293 -2.29731 2.55105 0
M  V30 339 N 35.4744 -0.807222 -1.35358 0
M  V30 340 C 36.4374 -0.223665 -2.28106 0
M  V30 341 C 37.4374 0.589354 -1.4961 0
M  V30 342 O 38.6274 0.407745 -1.69361 0
M  V30 343 C 35.7594 0.688149 -3.33882 0
M  V30 344 H 36.9524 -1.04169 -2.81227 0
M  V30 345 H 34.5054 -0.577921 -1.45223 0
M  V30 346 H 35.2404 1.52984 -2.85948 0
M  V30 347 H 35.0254 0.10687 -3.91954 0
M  V30 348 H 36.5154 1.09075 -4.03104 0
M  V30 349 N 36.9525 1.47285 -0.560781 0
M  V30 350 C 38.1985 2.02764 -0.0381184 0
M  V30 351 C 38.5315 1.43384 1.30976 0
M  V30 352 O 37.8065 0.590733 1.85312 0
M  V30 353 C 38.0895 3.60064 0.0511427 0
M  V30 354 C 37.9425 4.2987 -1.32408 0
M  V30 355 C 39.2615 4.33439 0.762795 0
M  V30 356 H 36.3805 0.736841 -0.0153264 0
M  V30 357 H 39.0225 1.75675 -0.723759 0
M  V30 358 H 37.1725 3.83274 0.635065 0
M  V30 359 H 38.8445 4.17989 -1.95148 0
M  V30 360 H 37.0875 3.90085 -1.8978 0
M  V30 361 H 37.7585 5.38478 -1.21431 0
M  V30 362 H 40.2345 4.15243 0.266965 0
M  V30 363 H 39.1105 5.43124 0.794221 0
M  V30 364 H 39.3715 4.02915 1.81966 0
M  V30 365 N 38.4306 0.297415 1.54768 0
M  V30 366 C 39.3636 -0.622188 2.19554 0
M  V30 367 C 40.3416 -1.13558 1.16376 0
M  V30 368 O 41.5256 -1.20444 1.45002 0
M  V30 369 C 38.6526 -1.8509 2.83653 0
M  V30 370 C 37.6986 -1.47106 4.00328 0
M  V30 371 S 38.5316 -0.53006 5.3287 0
M  V30 372 C 39.6876 -1.76665 6.0045 0
M  V30 373 H 39.9206 -0.0717806 2.97213 0
M  V30 374 H 37.4536 0.0815678 1.54184 0
M  V30 375 H 39.4116 -2.55605 3.21211 0
M  V30 376 H 38.0726 -2.37247 2.05846 0
M  V30 377 H 37.2656 -2.38594 4.43947 0
M  V30 378 H 36.8676 -0.845885 3.64309 0
M  V30 379 H 39.1596 -2.7077 6.21039 0
M  V30 380 H 40.1026 -1.37308 6.9466 0
M  V30 381 H 40.5106 -1.94174 5.30054 0
M  V30 382 N 39.9087 -1.5758 0.0250728 0
M  V30 383 C 41.1557 -1.91633 -0.654444 0
M  V30 384 C 41.4837 -0.901103 -1.72367 0
M  V30 385 O 40.7387 0.0905647 -1.9549 0
M  V30 386 C 41.0377 -3.32421 -1.31268 0
M  V30 387 C 40.7037 -4.49344 -0.374223 0
M  V30 388 C 39.3657 -4.8106 -0.115911 0
M  V30 389 C 41.7177 -5.20498 0.270432 0
M  V30 390 C 39.0457 -5.8129 0.79493 0
M  V30 391 C 41.3977 -6.21699 1.1693 0
M  V30 392 C 40.0617 -6.51859 1.43655 0
M  V30 393 H 39.3317 -0.701236 -0.239478 0
M  V30 394 H 41.9787 -1.91307 0.0859734 0
M  V30 395 H 40.2837 -3.28989 -2.12775 0
M  V30 396 H 41.9807 -3.56038 -1.84494 0
M  V30 397 H 38.5707 -4.24579 -0.58573 0
M  V30 398 H 42.7547 -4.96229 0.0839194 0
M  V30 399 H 38.0107 -6.03005 1.00973 0
M  V30 400 H 42.1847 -6.75955 1.67504 0
M  V30 401 H 39.8117 -7.2934 2.144 0
M  V30 402 N 41.3868 0.248026 -1.55636 0
M  V30 403 C 42.6358 0.974134 -1.76617 0
M  V30 404 C 42.9488 1.86528 -0.588796 0
M  V30 405 O 44.1548 2.62805 -0.681594 0
M  V30 406 C 42.6108 1.78213 -3.12679 0
M  V30 407 C 42.2188 0.93843 -4.38061 0
M  V30 408 C 43.9628 2.50104 -3.42999 0
M  V30 409 C 41.8698 1.74225 -5.65155 0
M  V30 410 H 40.7998 0.36745 -0.658405 0
M  V30 411 H 43.4508 0.22884 -1.82067 0
M  V30 412 H 41.8328 2.56933 -3.01333 0
M  V30 413 H 43.0068 0.193635 -4.60393 0
M  V30 414 H 41.3218 0.332905 -4.15067 0
M  V30 415 H 43.9188 3.10694 -4.3517 0
M  V30 416 H 44.2618 3.21662 -2.64271 0
M  V30 417 H 44.7948 1.78395 -3.55556 0
M  V30 418 H 41.5338 1.07043 -6.46701 0
M  V30 419 H 41.0538 2.46235 -5.46926 0
M  V30 420 H 42.7328 2.30967 -6.0437 0
M  V30 421 N 42.8649 1.48995 0.513639 0
M  V30 422 C 44.1119 1.57843 1.26854 0
M  V30 423 C 44.4399 0.259501 1.92761 0
M  V30 424 O 43.6949 -0.75159 1.80692 0
M  V30 425 C 43.9939 2.67756 2.36731 0
M  V30 426 C 43.6599 4.09669 1.88368 0
M  V30 427 C 42.3219 4.48291 1.74896 0
M  V30 428 C 44.6739 4.98537 1.52021 0
M  V30 429 C 42.0019 5.73568 1.23438 0
M  V30 430 C 44.3539 6.24319 1.0202 0
M  V30 431 C 43.0179 6.61783 0.871778 0
M  V30 432 H 42.2879 0.577587 0.464192 0
M  V30 433 H 44.9349 1.82778 0.571366 0
M  V30 434 H 43.2399 2.36743 3.12185 0
M  V30 435 H 44.9369 2.71813 2.9482 0
M  V30 436 H 41.5269 3.79176 1.99808 0
M  V30 437 H 45.7109 4.69363 1.61281 0
M  V30 438 H 40.9669 6.01304 1.10648 0
M  V30 439 H 45.1409 6.92566 0.729722 0
M  V30 440 H 42.7679 7.5874 0.470852 0
M  V30 441 N 44.343 -0.763751 1.37857 0
M  V30 442 C 45.591 -1.51957 1.33243 0
M  V30 443 C 45.912 -1.94835 -0.0801709 0
M  V30 444 O 45.182 -1.66894 -1.02582 0
M  V30 445 H 43.762 -0.563626 0.49024 0
M  V30 446 H 46.424 -0.908504 1.7243 0
M  V30 447 H 45.52 -2.41523 1.97669 0
M  V30 448 N 45.8211 -1.22559 -0.990812 0
M  V30 449 C 47.0671 -1.05297 -1.73322 0
M  V30 450 C 47.4001 0.410655 -1.89808 0
M  V30 451 O 46.6751 1.30439 -1.44277 0
M  V30 452 C 46.9581 -1.76713 -3.13759 0
M  V30 453 C 46.8111 -3.30684 -3.04907 0
M  V30 454 C 48.1301 -1.52121 -4.12974 0
M  V30 455 H 45.2491 -0.38392 -0.629106 0
M  V30 456 H 47.8911 -1.50926 -1.15418 0
M  V30 457 H 46.0411 -1.37924 -3.63193 0
M  V30 458 H 47.7131 -3.7893 -2.63077 0
M  V30 459 H 45.9561 -3.60253 -2.41661 0
M  V30 460 H 46.6271 -3.75833 -4.04294 0
M  V30 461 H 49.1031 -1.85819 -3.72304 0
M  V30 462 H 47.9791 -2.04582 -5.0935 0
M  V30 463 H 48.2401 -0.454257 -4.3976 0
M  V30 464 N 47.2992 1.18797 -1.03562 0
M  V30 465 C 48.5452 1.8893 -0.737113 0
M  V30 466 C 48.8782 1.79837 0.732956 0
M  V30 467 O 48.1532 1.19525 1.5344 0
M  V30 468 C 48.4362 3.39607 -1.19745 0
M  V30 469 C 48.2892 3.57537 -2.72924 0
M  V30 470 C 49.6082 4.33069 -0.783526 0
M  V30 471 H 46.7272 0.686057 -0.269249 0
M  V30 472 H 49.3692 1.39797 -1.28673 0
M  V30 473 H 47.5192 3.81583 -0.729855 0
M  V30 474 H 49.1912 3.24688 -3.27682 0
M  V30 475 H 47.4342 3.00363 -3.12993 0
M  V30 476 H 48.1052 4.63238 -3.00191 0
M  V30 477 H 50.5812 3.98846 -1.18581 0
M  V30 478 H 49.4572 5.3707 -1.13343 0
M  V30 479 H 49.7182 4.40986 0.313681 0
M  V30 480 N 48.7773 0.814389 1.34928 0
M  V30 481 C 50.0253 0.397636 1.9815 0
M  V30 482 C 50.3463 -1.04069 1.64908 0
M  V30 483 O 49.6163 -1.72121 0.93548 0
M  V30 484 H 48.1963 0.144043 0.732981 0
M  V30 485 H 50.8583 1.04195 1.6471 0
M  V30 486 H 49.9543 0.509688 3.0791 0
M  V30 487 N 50.2554 -1.46986 0.568584 0
M  V30 488 C 51.2034 -2.31858 -0.185649 0
M  V30 489 C 52.1974 -1.43624 -0.898249 0
M  V30 490 O 53.4034 -1.60327 -0.818242 0
M  V30 491 H 49.7784 -0.747866 -0.0787399 0
M  V30 492 H 51.7494 -2.93303 0.549191 0
M  V30 493 C 50.4984 -3.26513 -1.19519 0
M  V30 494 H 49.8214 -3.94377 -0.656285 0
M  V30 495 H 51.2614 -3.88707 -1.6936 0
M  V30 496 C 49.7204 -2.50847 -2.24894 0
M  V30 497 O 50.2504 -2.26119 -3.32014 0
M  V30 498 N 48.4564 -2.11656 -1.99124 0
M  V30 499 H 48.0034 -2.31966 -1.12024 0
M  V30 500 H 47.9614 -1.61347 -2.69842 0
M  V30 501 N 51.7335 -0.305618 -1.54608 0
M  V30 502 C 52.6635 0.561482 -2.26649 0
M  V30 503 C 53.6445 1.13415 -1.26772 0
M  V30 504 O 54.8295 1.16262 -1.55553 0
M  V30 505 C 51.9595 1.73122 -3.01075 0
M  V30 506 C 50.9135 1.2887 -4.08138 0
M  V30 507 C 50.2395 2.54396 -4.70305 0
M  V30 508 C 51.5395 0.416578 -5.20636 0
M  V30 509 H 53.2335 -0.0393902 -2.99374 0
M  V30 510 H 50.7795 -0.020385 -1.43986 0
M  V30 511 H 52.7325 2.34396 -3.50195 0
M  V30 512 H 51.4565 2.3584 -2.25936 0
M  V30 513 H 50.1155 0.698991 -3.59875 0
M  V30 514 H 49.7635 3.15439 -3.918 0
M  V30 515 H 49.4635 2.25486 -5.42614 0
M  V30 516 H 50.9875 3.16464 -5.2219 0
M  V30 517 H 52.4015 0.935116 -5.65622 0
M  V30 518 H 50.7985 0.221046 -5.99693 0
M  V30 519 H 51.8685 -0.557162 -4.81688 0
M  V30 520 N 53.2116 1.57565 -0.0334293 0
M  V30 521 C 54.4576 1.92262 0.645226 0
M  V30 522 C 54.7906 0.910543 1.71531 0
M  V30 523 O 54.0656 -0.066099 1.94388 0
M  V30 524 C 54.3486 3.37422 1.2577 0
M  V30 525 C 54.2016 4.49369 0.196891 0
M  V30 526 C 55.5206 3.82628 2.17449 0
M  V30 527 H 52.6396 0.699171 0.233085 0
M  V30 528 H 55.2816 1.89779 -0.0915694 0
M  V30 529 H 53.4316 3.39669 1.88566 0
M  V30 530 H 55.1036 4.59254 -0.433962 0
M  V30 531 H 53.3466 4.31168 -0.477137 0
M  V30 532 H 54.0176 5.47978 0.665124 0
M  V30 533 H 56.4936 3.82145 1.64634 0
M  V30 534 H 55.3696 4.84883 2.57254 0
M  V30 535 H 55.6306 3.18376 3.0674 0
M  V30 536 N 54.6897 -0.239769 1.55765 0
M  V30 537 C 55.6527 -1.28038 1.90103 0
M  V30 538 C 56.6527 -1.40723 0.778055 0
M  V30 539 O 57.8427 -1.39301 1.04599 0
M  V30 540 C 54.9747 -2.65702 2.13577 0
M  V30 541 H 56.1677 -0.988048 2.83157 0
M  V30 542 H 53.7207 -0.479382 1.48767 0
M  V30 543 H 54.4557 -3.00063 1.23015 0
M  V30 544 H 54.2407 -2.57875 2.95369 0
M  V30 545 H 55.7307 -3.40828 2.41301 0
M  V30 546 N 56.1678 -1.49265 -0.50573 0
M  V30 547 C 57.4168 -1.57761 -1.25675 0
M  V30 548 C 57.7298 -0.267371 -1.93764 0
M  V30 549 O 58.9358 -0.230827 -2.70517 0
M  V30 550 C 57.3918 -2.78332 -2.28165 0
M  V30 551 C 56.9998 -4.16096 -1.66037 0
M  V30 552 C 58.7438 -2.96155 -3.04125 0
M  V30 553 C 56.6508 -5.27895 -2.6661 0
M  V30 554 H 55.5808 -0.587391 -0.472745 0
M  V30 555 H 58.2318 -1.75644 -0.53118 0
M  V30 556 H 56.6138 -2.53934 -3.03865 0
M  V30 557 H 57.7878 -4.50612 -0.963622 0
M  V30 558 H 56.1028 -4.03591 -1.02484 0
M  V30 559 H 58.6998 -3.76849 -3.79327 0
M  V30 560 H 59.0428 -2.06534 -3.61455 0
M  V30 561 H 59.5758 -3.2057 -2.35541 0
M  V30 562 H 56.3148 -6.1956 -2.14068 0
M  V30 563 H 55.8348 -4.97839 -3.34539 0
M  V30 564 H 57.5138 -5.57031 -3.29129 0
M  V30 565 N 57.6459 0.756429 -1.3826 0
M  V30 566 C 58.8919 1.51772 -1.34511 0
M  V30 567 C 59.2249 1.94089 0.0656691 0
M  V30 568 O 58.4999 1.65221 1.02626 0
M  V30 569 C 58.7829 2.77226 -2.29821 0
M  V30 570 C 58.6359 2.41065 -3.79747 0
M  V30 571 C 59.9549 3.79236 -2.23312 0
M  V30 572 H 57.0739 0.550578 -0.489931 0
M  V30 573 H 59.7159 0.866607 -1.69086 0
M  V30 574 H 57.8659 3.32784 -2.00467 0
M  V30 575 H 59.5379 1.91303 -4.19763 0
M  V30 576 H 57.7809 1.7356 -3.97567 0
M  V30 577 H 58.4519 3.3081 -4.41892 0
M  V30 578 H 60.9279 3.3321 -2.49219 0
M  V30 579 H 59.8039 4.64714 -2.92116 0
M  V30 580 H 60.0649 4.24615 -1.23102 0
M  V30 581 N 59.124 1.23083 0.984299 0
M  V30 582 C 60.37 1.06214 1.72761 0
M  V30 583 C 60.703 -0.400584 1.90024 0
M  V30 584 O 59.978 -1.29672 1.44967 0
M  V30 585 C 60.261 1.78375 3.12817 0
M  V30 586 C 60.114 3.32296 3.03149 0
M  V30 587 C 61.433 1.54309 4.12161 0
M  V30 588 H 58.552 0.387251 0.627061 0
M  V30 589 H 61.194 1.51536 1.14616 0
M  V30 590 H 59.344 1.39848 3.62457 0
M  V30 591 H 61.016 3.8032 2.61064 0
M  V30 592 H 59.259 3.6153 2.39747 0
M  V30 593 H 59.93 3.77972 4.02295 0
M  V30 594 H 62.406 1.87791 3.71314 0
M  V30 595 H 61.282 2.07281 5.08258 0
M  V30 596 H 61.543 0.477572 4.39513 0
M  V30 597 N 60.6021 -1.18246 1.0419 0
M  V30 598 C 61.5321 -2.24127 0.654914 0
M  V30 599 C 62.5131 -1.66617 -0.342451 0
M  V30 600 O 63.6981 -1.92924 -0.222277 0
M  V30 601 C 60.8281 -3.47295 0.0183757 0
M  V30 602 C 59.7821 -4.17563 0.939414 0
M  V30 603 C 59.1081 -5.34438 0.167286 0
M  V30 604 C 60.4081 -4.70917 2.25908 0
M  V30 605 H 62.1021 -2.56753 1.54007 0
M  V30 606 H 59.6481 -1.23414 0.74195 0
M  V30 607 H 61.6011 -4.20572 -0.264082 0
M  V30 608 H 60.3251 -3.13907 -0.901664 0
M  V30 609 H 58.9841 -3.46186 1.20628 0
M  V30 610 H 58.6321 -4.97298 -0.7552 0
M  V30 611 H 58.3321 -5.82388 0.780901 0
M  V30 612 H 59.8561 -6.10504 -0.108125 0
M  V30 613 H 61.2701 -5.35882 2.03724 0
M  V30 614 H 59.6671 -5.29406 2.82577 0
M  V30 615 H 60.7371 -3.88272 2.9047 0
M  V30 616 N 62.0802 -0.821533 -1.34494 0
M  V30 617 C 63.3202 -0.414785 -2.00147 0
M  V30 618 C 63.6842 1.00299 -1.6372 0
M  V30 619 O 64.8852 1.51255 -2.22206 0
M  V30 620 C 63.1562 -0.609403 -3.52166 0
M  V30 621 S 64.7152 -0.295297 -4.37805 0
M  V30 622 H 61.5332 -0.15679 -0.693497 0
M  V30 623 H 64.1352 -1.06705 -1.63812 0
M  V30 624 H 62.8392 -1.64096 -3.76166 0
M  V30 625 H 62.3702 0.0576414 -3.93358 0
M  V30 626 H 64.3852 0.891531 -4.88125 0
M  V30 627 N 63.5583 1.46682 -0.576371 0
M  V30 628 C 64.5053 2.30241 0.160499 0
M  V30 629 C 65.4753 1.40233 0.890162 0
M  V30 630 O 66.6603 1.69186 0.882084 0
M  V30 631 C 63.8003 3.24578 1.1723 0
M  V30 632 C 62.9133 4.29684 0.446736 0
M  V30 633 C 62.0483 5.11154 1.44551 0
M  V30 634 C 61.0873 6.08015 0.70599 0
M  V30 635 N 60.2243 6.82376 1.65251 0
M  V30 636 H 65.0643 2.92727 -0.558127 0
M  V30 637 H 62.6013 1.44272 -0.287056 0
M  V30 638 H 64.5593 3.77711 1.77172 0
M  V30 639 H 63.1893 2.63916 1.85872 0
M  V30 640 H 62.2413 3.79458 -0.267594 0
M  V30 641 H 63.5533 4.98626 -0.131686 0
M  V30 642 H 62.7073 5.68533 2.11791 0
M  V30 643 H 61.4463 4.42158 2.05786 0
M  V30 644 H 60.4513 5.49796 0.0197725 0
M  V30 645 H 61.6763 6.79028 0.09912 0
M  V30 646 H 59.6223 6.16094 2.25308 0
M  V30 647 H 59.5393 7.47556 1.12673 0
M  V30 648 H 60.8073 7.44316 2.31546 0
M  V30 649 N 65.0364 0.313813 1.54444 0
M  V30 650 C 66.2614 -0.296681 2.05267 0
M  V30 651 C 66.6864 -1.45757 1.18897 0
M  V30 652 O 66.0444 -1.80239 0.195886 0
M  V30 653 C 66.0924 -0.71831 3.53373 0
M  V30 654 O 65.1964 -1.82175 3.69981 0
M  V30 655 H 64.5374 -0.0554061 0.661684 0
M  V30 656 H 67.0674 0.459387 1.99376 0
M  V30 657 H 67.0774 -1.00364 3.95463 0
M  V30 658 H 65.7524 0.130821 4.15694 0
M  V30 659 H 64.3294 -1.53598 3.39797 0
M  V30 660 N 66.5145 -1.57545 0.0417849 0
M  V30 661 C 67.9305 -1.56467 -0.314704 0
M  V30 662 C 68.1305 -1.04859 -1.72066 0
M  V30 663 O 67.1865 -0.700983 -2.42575 0
M  V30 664 C 68.4995 -3.00317 -0.15174 0
M  V30 665 C 70.0475 -3.12201 -0.223553 0
M  V30 666 C 70.5225 -4.57913 -0.0892295 0
M  V30 667 N 72.0135 -4.6297 -0.145808 0
M  V30 668 C 72.7485 -5.73362 -0.0658459 0
M  V30 669 N 72.2445 -6.92769 0.0659282 0
M  V30 670 N 74.0375 -5.6197 -0.12075 0
M  V30 671 H 66.1885 -1.89416 0.961014 0
M  V30 672 H 68.4515 -0.871862 0.372237 0
M  V30 673 H 68.1575 -3.42073 0.817254 0
M  V30 674 H 68.0315 -3.65892 -0.916692 0
M  V30 675 H 70.4185 -2.70349 -1.18301 0
M  V30 676 H 70.4995 -2.49323 0.571994 0
M  V30 677 H 70.1435 -5.00448 0.866867 0
M  V30 678 H 70.0735 -5.18786 -0.903802 0
M  V30 679 H 72.5645 -3.7709 -0.247286 0
M  V30 680 H 72.8775 -7.72707 0.119905 0
M  V30 681 H 71.2225 -6.94927 0.100885 0
M  V30 682 H 74.4135 -4.67572 -0.222187 0
M  V30 683 H 74.5865 -6.47977 -0.0549735 0
M  V30 684 N 67.9926 0.231505 -1.5589 0
M  V30 685 C 68.9396 1.28682 -1.91598 0
M  V30 686 C 69.9096 1.47071 -0.771974 0
M  V30 687 O 71.0946 1.60802 -1.027 0
M  V30 688 C 68.2346 2.6342 -2.22944 0
M  V30 689 C 67.3476 2.52912 -3.50228 0
M  V30 690 C 66.4826 3.80106 -3.7107 0
M  V30 691 C 65.5216 3.64279 -4.91902 0
M  V30 692 N 64.6586 4.834 -5.09184 0
M  V30 693 H 69.4986 0.975305 -2.81588 0
M  V30 694 H 67.0356 0.470299 -1.39379 0
M  V30 695 H 68.9936 3.41869 -2.39126 0
M  V30 696 H 67.6236 2.92687 -1.36139 0
M  V30 697 H 66.6756 1.6595 -3.42294 0
M  V30 698 H 67.9876 2.37133 -4.38827 0
M  V30 699 H 67.1416 4.66999 -3.87295 0
M  V30 700 H 65.8806 3.98799 -2.80733 0
M  V30 701 H 64.8856 2.7577 -4.75637 0
M  V30 702 H 66.1106 3.47067 -5.83714 0
M  V30 703 H 64.0566 5.02425 -4.21788 0
M  V30 704 H 63.9736 4.70311 -5.91898 0
M  V30 705 H 65.2416 5.71747 -5.29835 0
M  V30 706 N 69.4707 1.49531 0.497807 0
M  V30 707 C 70.3807 1.69176 1.62532 0
M  V30 708 C 71.3967 0.5744 1.64246 0
M  V30 709 O 72.5727 0.849497 1.82608 0
M  V30 710 C 69.6377 1.75695 2.98885 0
M  V30 711 C 68.6987 2.9929 3.07773 0
M  V30 712 C 67.9317 3.05488 4.37622 0
M  V30 713 O 68.1547 2.19192 5.26603 0
M  V30 714 O 67.0887 3.9798 4.51548 0
M  V30 715 H 70.9147 2.647 1.48887 0
M  V30 716 H 68.4997 1.3331 0.674441 0
M  V30 717 H 70.3817 1.82317 3.79919 0
M  V30 718 H 69.0567 0.8335 3.12785 0
M  V30 719 H 67.9637 2.98183 2.25915 0
M  V30 720 H 69.2967 3.91125 2.98801 0
M  V30 721 N 70.9488 -0.749086 1.3866 0
M  V30 722 C 71.8808 -1.87273 1.32142 0
M  V30 723 C 72.8938 -1.61127 0.232787 0
M  V30 724 O 74.0828 -1.71623 0.49069 0
M  V30 725 C 71.1828 -3.23005 1.02571 0
M  V30 726 C 70.3558 -3.7662 2.22433 0
M  V30 727 C 69.4148 -4.90879 1.89537 0
M  V30 728 O 68.4408 -5.05276 2.62078 0
M  V30 729 N 69.6428 -5.74198 0.853031 0
M  V30 730 H 72.4078 -1.93373 2.28969 0
M  V30 731 H 69.9688 -0.929216 1.32579 0
M  V30 732 H 71.9608 -3.96992 0.786085 0
M  V30 733 H 70.5308 -3.12262 0.145249 0
M  V30 734 H 69.7508 -2.94147 2.62434 0
M  V30 735 H 71.0388 -4.09173 3.02415 0
M  V30 736 H 70.4368 -5.6514 0.25155 0
M  V30 737 H 68.9938 -6.48313 0.67329 0
M  V30 738 N 72.4269 -1.23603 -0.977757 0
M  V30 739 C 73.3739 -1.01954 -2.07061 0
M  V30 740 C 74.3439 0.0638697 -1.65977 0
M  V30 741 O 75.5289 -0.0887624 -1.90593 0
M  V30 742 C 72.6689 -0.619658 -3.39491 0
M  V30 743 C 71.7819 -1.77547 -3.93829 0
M  V30 744 C 70.9169 -1.32212 -5.14484 0
M  V30 745 C 69.9559 -2.44852 -5.60994 0
M  V30 746 N 69.0929 -2.00456 -6.72876 0
M  V30 747 H 73.9329 -1.95495 -2.24913 0
M  V30 748 H 71.4699 -0.973861 -1.10247 0
M  V30 749 H 73.4279 -0.368898 -4.15566 0
M  V30 750 H 72.0579 0.278752 -3.21594 0
M  V30 751 H 71.1099 -2.14016 -3.14486 0
M  V30 752 H 72.4219 -2.62219 -4.24314 0
M  V30 753 H 71.5759 -1.02965 -5.97899 0
M  V30 754 H 70.3149 -0.445808 -4.85658 0
M  V30 755 H 69.3199 -2.74871 -4.76157 0
M  V30 756 H 70.5449 -3.33024 -5.91837 0
M  V30 757 H 68.4909 -1.15208 -6.45804 0
M  V30 758 H 68.4079 -2.78687 -7.02759 0
M  V30 759 H 69.6759 -1.7432 -7.59758 0
M  V30 760 N 73.905 1.17692 -1.04816 0
M  V30 761 C 74.815 2.25229 -0.65643 0
M  V30 762 C 75.831 1.71018 0.320761 0
M  V30 763 O 77.007 2.00649 0.173805 0
M  V30 764 C 74.072 3.46684 -0.0332629 0
M  V30 765 C 73.133 4.15997 -1.06042 0
M  V30 766 C 72.366 5.31654 -0.466893 0
M  V30 767 O 72.589 5.65777 0.724758 0
M  V30 768 O 71.523 5.89831 -1.1993 0
M  V30 769 H 75.349 2.61016 -1.55255 0
M  V30 770 H 72.934 1.24919 -0.81949 0
M  V30 771 H 74.816 4.20234 0.313256 0
M  V30 772 H 73.491 3.12703 0.836566 0
M  V30 773 H 72.398 3.44482 -1.45886 0
M  V30 774 H 73.731 4.53996 -1.90127 0
M  V30 775 N 75.3831 0.828654 1.34056 0
M  V30 776 C 76.6111 0.43262 2.02326 0
M  V30 777 C 77.0261 -0.963147 1.62385 0
M  V30 778 O 76.3831 -1.62425 0.832121 0
M  V30 779 C 76.4341 0.53182 3.57567 0
M  V30 780 O 76.1551 1.87258 3.96063 0
M  V30 781 C 77.6561 0.131422 4.43105 0
M  V30 782 H 74.8761 0.172923 0.648335 0
M  V30 783 H 77.4201 1.1184 1.71208 0
M  V30 784 H 75.5751 -0.105938 3.87255 0
M  V30 785 H 75.9891 1.85087 4.90758 0
M  V30 786 H 77.4631 0.251904 5.51425 0
M  V30 787 H 77.9401 -0.925645 4.29335 0
M  V30 788 H 78.5461 0.743207 4.18756 0
M  V30 789 N 76.8612 -1.46375 0.584142 0
M  V30 790 C 78.0892 -2.06761 0.0759296 0
M  V30 791 C 78.5042 -1.43266 -1.22965 0
M  V30 792 O 77.8612 -0.538458 -1.74376 0
M  V30 793 C 77.9122 -3.61375 -0.0950384 0
M  V30 794 O 77.6332 -4.22495 1.15887 0
M  V30 795 C 79.1342 -4.38693 -0.637434 0
M  V30 796 H 76.3542 -0.668479 0.0581075 0
M  V30 797 H 78.8982 -1.8798 0.805218 0
M  V30 798 H 77.0532 -3.79578 -0.774554 0
M  V30 799 H 77.4672 -5.15385 0.973598 0
M  V30 800 H 78.9412 -5.47464 -0.706237 0
M  V30 801 H 79.4182 -4.06836 -1.65472 0
M  V30 802 H 80.0242 -4.25299 0.00725967 0
M  V30 803 N 78.3393 -0.321999 -1.54275 0
M  V30 804 C 79.5863 0.281044 -2.0054 0
M  V30 805 C 79.9143 1.52265 -1.21019 0
M  V30 806 O 79.1693 1.93687 -0.279982 0
M  V30 807 C 79.4683 0.661769 -3.5122 0
M  V30 808 C 79.1343 -0.480482 -4.48333 0
M  V30 809 C 77.7963 -0.794005 -4.74604 0
M  V30 810 C 80.1483 -1.24783 -5.06042 0
M  V30 811 C 77.4763 -1.87763 -5.55844 0
M  V30 812 C 79.8283 -2.32153 -5.88462 0
M  V30 813 C 78.4923 -2.64089 -6.13036 0
M  V30 814 H 77.7623 0.102841 -0.733829 0
M  V30 815 H 80.4093 -0.445453 -1.86247 0
M  V30 816 H 78.7143 1.46867 -3.63232 0
M  V30 817 H 80.4113 1.13989 -3.84457 0
M  V30 818 H 77.0013 -0.226039 -4.28004 0
M  V30 819 H 81.1853 -1.01887 -4.85729 0
M  V30 820 H 76.4413 -2.12954 -5.73115 0
M  V30 821 H 80.6153 -2.92057 -6.32199 0
M  V30 822 H 78.2423 -3.48185 -6.75775 0
M  V30 823 N 79.8174 1.5752 -0.0501392 0
M  V30 824 C 81.0474 1.96678 0.632573 0
M  V30 825 C 81.4554 0.926298 1.64974 0
M  V30 826 O 80.7984 -0.09802 1.83438 0
M  V30 827 C 80.8604 3.32068 1.37735 0
M  V30 828 C 80.5244 4.54076 0.516131 0
M  V30 829 C 81.5214 5.19445 -0.217357 0
M  V30 830 C 79.2064 5.00304 0.44736 0
M  V30 831 C 81.2004 6.29378 -1.00807 0
M  V30 832 C 78.8874 6.10114 -0.347038 0
M  V30 833 C 79.8854 6.74512 -1.07344 0
M  V30 834 O 79.5734 7.82211 -1.85477 0
M  V30 835 H 79.3054 0.652193 0.177821 0
M  V30 836 H 81.8594 2.05091 -0.112543 0
M  V30 837 H 80.0894 3.20206 2.16807 0
M  V30 838 H 81.7784 3.55981 1.95019 0
M  V30 839 H 82.5444 4.84689 -0.173688 0
M  V30 840 H 78.4234 4.49971 1.00235 0
M  V30 841 H 81.9674 6.79575 -1.57556 0
M  V30 842 H 77.8644 6.44307 -0.392349 0
M  V30 843 H 78.6324 7.98982 -1.77678 0
M  V30 844 N 81.2955 -0.223234 1.56011 0
M  V30 845 C 82.5235 -0.964812 1.83027 0
M  V30 846 C 82.9385 -1.78013 0.62904 0
M  V30 847 O 82.2955 -1.78008 -0.402414 0
M  V30 848 C 82.3465 -1.88373 3.08542 0
M  V30 849 O 82.0675 -1.10137 4.2403 0
M  V30 850 C 83.5685 -2.73934 3.48533 0
M  V30 851 H 80.7885 -0.282842 0.608475 0
M  V30 852 H 83.3325 -0.238971 2.03099 0
M  V30 853 H 81.4875 -2.56354 2.9045 0
M  V30 854 H 81.9015 -1.72501 4.95322 0
M  V30 855 H 83.3755 -3.34117 4.39397 0
M  V30 856 H 83.8525 -3.46244 2.70207 0
M  V30 857 H 84.4585 -2.11369 3.69057 0
M  V30 858 N 82.7736 -1.49793 -0.48987 0
M  V30 859 C 83.7036 -1.70201 -1.59856 0
M  V30 860 C 84.6846 -0.55076 -1.60937 0
M  V30 861 O 85.8696 -0.787841 -1.77501 0
M  V30 862 C 82.9996 -1.77882 -2.98287 0
M  V30 863 C 81.9536 -2.92907 -3.12073 0
M  V30 864 C 81.2796 -2.85712 -4.51965 0
M  V30 865 C 82.5796 -4.3369 -2.91051 0
M  V30 866 H 84.2736 -2.63025 -1.43032 0
M  V30 867 H 81.8196 -1.26574 -0.686664 0
M  V30 868 H 83.7726 -1.90744 -3.75759 0
M  V30 869 H 82.4966 -0.816653 -3.16225 0
M  V30 870 H 81.1556 -2.79665 -2.37029 0
M  V30 871 H 80.8036 -1.8738 -4.66795 0
M  V30 872 H 80.5036 -3.62921 -4.62128 0
M  V30 873 H 82.0276 -3.00598 -5.31482 0
M  V30 874 H 83.4416 -4.47555 -3.58284 0
M  V30 875 H 81.8386 -5.12205 -3.12675 0
M  V30 876 H 82.9086 -4.47362 -1.87071 0
M  V30 877 N 84.2517 0.741722 -1.39055 0
M  V30 878 C 85.4977 1.50336 -1.36113 0
M  V30 879 C 85.8307 1.94148 0.0450796 0
M  V30 880 O 85.1057 1.66301 1.00868 0
M  V30 881 C 85.3887 2.74773 -2.32749 0
M  V30 882 C 85.2417 2.37023 -3.82283 0
M  V30 883 C 86.5607 3.76846 -2.27322 0
M  V30 884 H 83.6797 0.545351 -0.495743 0
M  V30 885 H 86.3217 0.848624 -1.69995 0
M  V30 886 H 84.4717 3.30639 -2.03986 0
M  V30 887 H 86.1437 1.8684 -4.21768 0
M  V30 888 H 84.3867 1.69334 -3.99385 0
M  V30 889 H 85.0577 3.26104 -4.45376 0
M  V30 890 H 87.5337 3.30548 -2.5274 0
M  V30 891 H 86.4097 4.6159 -2.97028 0
M  V30 892 H 86.6707 4.23286 -1.27599 0
M  V30 893 N 85.7298 1.2412 0.971189 0
M  V30 894 C 86.9698 1.09066 1.7287 0
M  V30 895 C 87.3338 -0.364794 1.88503 0
M  V30 896 O 88.5348 -0.636748 2.61149 0
M  V30 897 C 86.8058 1.80629 3.08396 0
M  V30 898 S 88.3648 1.81263 3.99611 0
M  V30 899 H 85.1828 0.390145 0.594397 0
M  V30 900 H 87.7848 1.57397 1.15959 0
M  V30 901 H 86.4888 2.85647 2.94676 0
M  V30 902 H 86.0198 1.32617 3.70373 0
M  V30 903 H 88.0348 0.877804 4.88374 0
M  V30 904 N 87.2079 -1.17134 1.05439 0
M  V30 905 C 88.4559 -1.87085 0.764429 0
M  V30 906 C 88.7769 -1.81584 -0.710787 0
M  V30 907 O 88.0469 -1.24349 -1.51374 0
M  V30 908 H 86.6269 -0.692627 0.279779 0
M  V30 909 H 89.2889 -1.42087 1.33406 0
M  V30 910 H 88.3849 -2.92759 1.0816 0
M  V30 911 N 88.686 -0.835752 -1.33615 0
M  V30 912 C 89.616 -0.281739 -2.31794 0
M  V30 913 C 90.597 0.608833 -1.58831 0
M  V30 914 O 91.782 0.533035 -1.86741 0
M  V30 915 C 88.912 0.546612 -3.42971 0
M  V30 916 C 87.866 -0.247904 -4.27281 0
M  V30 917 C 87.192 0.704001 -5.30045 0
M  V30 918 C 88.492 -1.46324 -5.01385 0
M  V30 919 H 90.186 -1.10206 -2.78379 0
M  V30 920 H 87.732 -0.531388 -1.33837 0
M  V30 921 H 89.685 0.944467 -4.1068 0
M  V30 922 H 88.409 1.40011 -2.95067 0
M  V30 923 H 87.068 -0.627281 -3.61194 0
M  V30 924 H 86.716 1.55381 -4.78399 0
M  V30 925 H 86.416 0.176524 -5.87335 0
M  V30 926 H 87.94 1.09944 -6.0062 0
M  V30 927 H 89.354 -1.13871 -5.61877 0
M  V30 928 H 87.751 -1.92728 -5.6831 0
M  V30 929 H 88.821 -2.23467 -4.30338 0
M  V30 930 N 90.1641 1.46063 -0.591896 0
M  V30 931 C 91.1271 2.28854 0.125973 0
M  V30 932 C 92.1271 1.38903 0.810107 0
M  V30 933 O 93.3171 1.61186 0.66066 0
M  V30 934 C 90.4491 3.19526 1.1881 0
M  V30 935 H 91.6421 2.93802 -0.601717 0
M  V30 936 H 89.1951 1.52325 -0.350254 0
M  V30 937 H 89.9301 2.59345 1.94707 0
M  V30 938 H 89.7151 3.85766 0.701936 0
M  V30 939 H 91.2051 3.81817 1.69132 0
M  V30 940 N 91.6422 0.330177 1.54103 0
M  V30 941 C 92.8882 -0.270806 2.00984 0
M  V30 942 C 93.2212 -1.51265 1.21789 0
M  V30 943 O 92.4962 -1.92142 0.301927 0
M  V30 944 C 92.7792 -0.598339 3.55094 0
M  V30 945 C 92.6322 0.654674 4.4501 0
M  V30 946 C 93.9512 -1.41334 4.16789 0
M  V30 947 H 91.0702 -0.0969531 0.730595 0
M  V30 948 H 93.7122 0.448066 1.84641 0
M  V30 949 H 91.8622 -1.21078 3.69151 0
M  V30 950 H 93.5342 1.29285 4.42813 0
M  V30 951 H 91.7772 1.28224 4.14416 0
M  V30 952 H 92.4482 0.380944 5.50684 0
M  V30 953 H 94.9242 -0.895597 4.06347 0
M  V30 954 H 93.8002 -1.61127 5.24718 0
M  V30 955 H 94.0612 -2.41146 3.70541 0
M  V30 956 N 93.1203 -1.57491 0.0584922 0
M  V30 957 C 94.3483 -1.97296 -0.623037 0
M  V30 958 C 94.7633 -0.936338 -1.63946 0
M  V30 959 O 94.1203 0.0785981 -1.82331 0
M  V30 960 C 94.1713 -3.37183 -1.30345 0
M  V30 961 O 93.8923 -4.36872 -0.32773 0
M  V30 962 C 95.3933 -3.91788 -2.07406 0
M  V30 963 H 92.6133 -0.649153 -0.169826 0
M  V30 964 H 95.1573 -2.04106 0.12696 0
M  V30 965 H 93.3123 -3.31502 -2.00463 0
M  V30 966 H 93.7263 -5.18141 -0.814269 0
M  V30 967 H 95.2003 -4.91926 -2.50425 0
M  V30 968 H 95.6773 -3.27609 -2.92521 0
M  V30 969 H 96.2833 -4.00829 -1.42184 0
M  V30 970 N 94.5984 0.214957 -1.56127 0
M  V30 971 C 95.8754 0.963093 -1.70247 0
M  V30 972 C 96.2554 2.02166 -0.60764 0
M  V30 973 O 95.6034 2.25244 0.384385 0
M  V30 974 C 95.8134 1.56756 -3.11815 0
M  V30 975 C 97.1614 2.0573 -3.7143 0
M  V30 976 O 98.1854 1.66637 -3.14818 0
M  V30 977 O 97.0444 2.77603 -4.70743 0
M  V30 978 H 94.1384 0.450321 -0.693643 0
M  V30 979 H 96.6844 0.206219 -1.68442 0
M  V30 980 H 95.4564 0.803533 -3.82961 0
M  V30 981 H 95.0794 2.3898 -3.17765 0
M  V30 982 N 96.0765 1.50051 0.48192 0
M  V30 983 C 97.0065 1.71046 1.58951 0
M  V30 984 C 97.9875 0.559288 1.60642 0
M  V30 985 O 99.1725 0.797243 1.77081 0
M  V30 986 C 96.3025 1.79462 2.97339 0
M  V30 987 C 95.2565 2.94558 3.10515 0
M  V30 988 C 94.5825 2.88105 4.50444 0
M  V30 989 C 95.8825 4.35227 2.88747 0
M  V30 990 H 97.5765 2.6378 1.41635 0
M  V30 991 H 95.1225 1.26936 0.679942 0
M  V30 992 H 97.0755 1.92734 3.74742 0
M  V30 993 H 95.7995 0.833412 3.15788 0
M  V30 994 H 94.4585 2.80918 2.35543 0
M  V30 995 H 94.1065 1.89853 4.65795 0
M  V30 996 H 93.8065 3.65366 4.60197 0
M  V30 997 H 95.3305 3.03412 5.29881 0
M  V30 998 H 96.7445 4.49449 3.55905 0
M  V30 999 H 95.1415 5.13856 3.09955 0
M  V30 1000 H 96.2115 4.48347 1.84696 0
M  V30 1001 N 97.5546 -0.734337 1.39446 0
M  V30 1002 C 98.4846 -1.86155 1.40955 0
M  V30 1003 C 99.4656 -1.67898 0.272827 0
M  V30 1004 O 100.651 -1.88207 0.478743 0
M  V30 1005 C 97.7806 -3.23912 1.25294 0
M  V30 1006 C 96.7346 -3.56808 2.36373 0
M  V30 1007 C 96.0606 -4.93508 2.058 0
M  V30 1008 C 97.3606 -3.59713 3.78687 0
M  V30 1009 H 99.0546 -1.8515 2.35287 0
M  V30 1010 H 96.6006 -0.889367 1.13253 0
M  V30 1011 H 98.5536 -4.02443 1.2497 0
M  V30 1012 H 97.2776 -3.25446 0.274308 0
M  V30 1013 H 95.9366 -2.80606 2.35914 0
M  V30 1014 H 95.5846 -4.91623 1.06374 0
M  V30 1015 H 95.2846 -5.16486 2.80208 0
M  V30 1016 H 96.8086 -5.74396 2.07128 0
M  V30 1017 H 98.2226 -4.2832 3.81071 0
M  V30 1018 H 96.6196 -3.94209 4.52459 0
M  V30 1019 H 97.6896 -2.59504 4.09617 0
M  V30 1020 N 99.0327 -1.24633 -0.964593 0
M  V30 1021 C 100.281 -1.08573 -1.70459 0
M  V30 1022 C 100.602 0.375655 -1.91347 0
M  V30 1023 O 99.8717 1.26779 -1.49345 0
M  V30 1024 H 98.4517 -0.398784 -0.631649 0
M  V30 1025 H 101.114 -1.56601 -1.16026 0
M  V30 1026 H 100.21 -1.58623 -2.68785 0
M  V30 1027 N 100.511 1.16574 -1.06058 0
M  V30 1028 C 101.739 1.90952 -0.796552 0
M  V30 1029 C 102.154 1.77302 0.648808 0
M  V30 1030 O 101.511 1.11605 1.44397 0
M  V30 1031 C 101.562 3.41736 -1.17894 0
M  V30 1032 O 101.283 3.54975 -2.56758 0
M  V30 1033 C 102.784 4.33169 -0.942308 0
M  V30 1034 H 100.004 0.605594 -0.288959 0
M  V30 1035 H 102.548 1.47777 -1.41358 0
M  V30 1036 H 100.703 3.82623 -0.606491 0
M  V30 1037 H 101.117 4.4846 -2.72 0
M  V30 1038 H 102.591 5.37439 -1.25952 0
M  V30 1039 H 103.068 4.3903 0.122078 0
M  V30 1040 H 103.674 3.98007 -1.49902 0
M  V30 1041 N 101.989 0.842826 1.3317 0
M  V30 1042 C 102.919 0.294028 2.31641 0
M  V30 1043 C 103.9 -0.600401 1.59151 0
M  V30 1044 O 105.085 -0.523124 1.87022 0
M  V30 1045 C 102.215 -0.528416 3.43257 0
M  V30 1046 C 101.169 0.27056 4.27144 0
M  V30 1047 C 100.495 -0.675881 5.30411 0
M  V30 1048 C 101.795 1.48981 5.00602 0
M  V30 1049 H 103.489 1.11681 2.77791 0
M  V30 1050 H 101.035 0.538478 1.33553 0
M  V30 1051 H 102.988 -0.922674 4.11175 0
M  V30 1052 H 101.712 -1.38445 2.95805 0
M  V30 1053 H 100.371 0.646427 3.60856 0
M  V30 1054 H 100.019 -1.52842 4.79216 0
M  V30 1055 H 99.7189 -0.145374 5.8742 0
M  V30 1056 H 101.243 -1.06757 6.01195 0
M  V30 1057 H 102.657 1.16849 5.61266 0
M  V30 1058 H 101.054 1.95739 5.6728 0
M  V30 1059 H 102.124 2.25746 4.29147 0
M  V30 1060 N 103.467 -1.45747 0.599634 0
M  V30 1061 C 104.397 -2.33235 -0.111306 0
M  V30 1062 C 105.378 -1.46359 -0.866781 0
M  V30 1063 O 106.563 -1.75146 -0.838904 0
M  V30 1064 C 103.693 -3.28932 -1.11451 0
M  V30 1065 C 102.647 -4.25381 -0.472772 0
M  V30 1066 C 101.973 -5.1071 -1.58365 0
M  V30 1067 C 103.273 -5.18831 0.600948 0
M  V30 1068 H 104.967 -2.92927 0.61919 0
M  V30 1069 H 102.513 -1.40857 0.299215 0
M  V30 1070 H 104.466 -3.89002 -1.62036 0
M  V30 1071 H 103.19 -2.67381 -1.8755 0
M  V30 1072 H 101.849 -3.66598 0.0121472 0
M  V30 1073 H 101.497 -4.45533 -2.33473 0
M  V30 1074 H 101.197 -5.7604 -1.15982 0
M  V30 1075 H 102.721 -5.73647 -2.09194 0
M  V30 1076 H 104.135 -5.73019 0.179491 0
M  V30 1077 H 102.532 -5.92595 0.946076 0
M  V30 1078 H 103.602 -4.6174 1.48068 0
M  V30 1079 N 104.945 -0.338344 -1.53925 0
M  V30 1080 C 106.191 0.260143 -2.01125 0
M  V30 1081 C 106.524 1.50617 -1.22589 0
M  V30 1082 O 105.799 1.91979 -0.312113 0
M  V30 1083 C 106.082 0.579499 -3.55407 0
M  V30 1084 C 105.935 -0.678264 -4.44657 0
M  V30 1085 C 107.254 1.39122 -4.17532 0
M  V30 1086 H 104.373 0.0930772 -0.731099 0
M  V30 1087 H 107.015 -0.457852 -1.84401 0
M  V30 1088 H 105.165 1.19118 -3.69788 0
M  V30 1089 H 106.837 -1.31631 -4.42121 0
M  V30 1090 H 105.08 -1.3042 -4.13731 0
M  V30 1091 H 105.751 -0.410143 -5.50474 0
M  V30 1092 H 108.227 0.874035 -4.06817 0
M  V30 1093 H 107.103 1.58342 -5.25565 0
M  V30 1094 H 107.364 2.39178 -3.71815 0
M  V30 1095 N 106.423 1.57458 -0.0668435 0
M  V30 1096 C 107.648 1.9804 0.616027 0
M  V30 1097 C 108.073 0.944771 1.62652 0
M  V30 1098 O 107.431 -0.0902094 1.81075 0
M  V30 1099 C 107.479 3.37665 1.26549 0
M  V30 1100 O 106.583 3.36701 2.38131 0
M  V30 1101 H 105.924 0.644719 0.158849 0
M  V30 1102 H 108.454 2.04121 -0.139891 0
M  V30 1103 H 108.464 3.7474 1.6135 0
M  V30 1104 H 107.139 4.12573 0.525016 0
M  V30 1105 H 105.716 3.1139 2.0516 0
M  V30 1106 N 107.901 -0.206675 1.56239 0
M  V30 1107 C 109.312 -0.772383 1.69974 0
M  V30 1108 C 109.663 -1.84353 0.671436 0
M  V30 1109 O 108.788 -2.15695 -0.174491 0
M  V30 1110 C 109.383 -1.40779 3.08167 0
M  V30 1111 C 107.942 -1.92072 3.23706 0
M  V30 1112 C 107.089 -0.786347 2.65917 0
M  V30 1113 H 110.04 0.0182223 1.5869 0
M  V30 1114 H 110.061 -2.27696 3.04852 0
M  V30 1115 H 109.573 -0.627958 3.82986 0
M  V30 1116 H 107.674 -2.7281 2.53782 0
M  V30 1117 H 107.787 -2.09046 4.31087 0
M  V30 1118 H 106.151 -1.1976 2.24788 0
M  V30 1119 H 106.934 -0.0189416 3.43295 0
M  V30 1120 N 109.379 -1.50304 -0.473955 0
M  V30 1121 C 110.625 -1.61389 -1.22806 0
M  V30 1122 C 110.958 -0.311955 -1.91678 0
M  V30 1123 O 110.233 0.686384 -1.81986 0
M  V30 1124 C 110.516 -2.79219 -2.27396 0
M  V30 1125 C 110.369 -4.19286 -1.62848 0
M  V30 1126 C 111.688 -2.92614 -3.28732 0
M  V30 1127 H 108.807 -0.587399 -0.445119 0
M  V30 1128 H 111.449 -1.82681 -0.522265 0
M  V30 1129 H 109.599 -2.61195 -2.87592 0
M  V30 1130 H 111.271 -4.48892 -1.06271 0
M  V30 1131 H 109.514 -4.23677 -0.931693 0
M  V30 1132 H 110.185 -4.97655 -2.38838 0
M  V30 1133 H 112.661 -3.09105 -2.78556 0
M  V30 1134 H 111.537 -3.76688 -3.99246 0
M  V30 1135 H 111.798 -2.03107 -3.92683 0
M  V30 1136 N 110.857 0.726932 -1.39834 0
M  V30 1137 C 112.085 1.51613 -1.40787 0
M  V30 1138 C 112.5 1.88799 -0.00451505 0
M  V30 1139 O 111.857 1.54662 0.968809 0
M  V30 1140 C 111.908 2.79863 -2.28821 0
M  V30 1141 O 111.629 2.44253 -3.63692 0
M  V30 1142 C 113.13 3.73837 -2.38245 0
M  V30 1143 H 110.35 0.468264 -0.480593 0
M  V30 1144 H 112.894 0.897607 -1.83748 0
M  V30 1145 H 111.049 3.38027 -1.89252 0
M  V30 1146 H 111.463 3.26695 -4.1033 0
M  V30 1147 H 112.937 4.60699 -3.04073 0
M  V30 1148 H 113.414 4.16153 -1.40403 0
M  V30 1149 H 114.02 3.21589 -2.78317 0
M  V30 1150 N 112.336 1.25143 0.95797 0
M  V30 1151 C 113.585 1.0909 1.69654 0
M  V30 1152 C 113.898 -0.368548 1.92097 0
M  V30 1153 O 115.104 -0.649455 2.63618 0
M  V30 1154 C 113.56 1.90395 3.05414 0
M  V30 1155 C 113.168 3.4081 2.90779 0
M  V30 1156 C 114.912 1.82901 3.83076 0
M  V30 1157 C 112.819 4.14423 4.21909 0
M  V30 1158 H 111.749 0.404625 0.636235 0
M  V30 1159 H 114.4 1.4931 1.06672 0
M  V30 1160 H 112.782 1.42996 3.69281 0
M  V30 1161 H 113.956 3.95859 2.35865 0
M  V30 1162 H 112.271 3.49361 2.26575 0
M  V30 1163 H 114.868 2.35196 4.80195 0
M  V30 1164 H 115.211 0.796224 4.08615 0
M  V30 1165 H 115.744 2.28033 3.25954 0
M  V30 1166 H 112.483 5.18102 4.01561 0
M  V30 1167 H 112.003 3.64159 4.76601 0
M  V30 1168 H 113.682 4.21956 4.90471 0
M  V30 1169 N 113.814 -1.1601 1.06675 0
M  V30 1170 C 114.777 -2.18724 0.685001 0
M  V30 1171 C 115.777 -1.58496 -0.271246 0
M  V30 1172 O 116.967 -1.74119 -0.0531156 0
M  V30 1173 C 114.099 -3.40899 0.00853648 0
M  V30 1174 H 115.292 -2.54011 1.59431 0
M  V30 1175 H 112.845 -1.30352 0.862441 0
M  V30 1176 H 113.58 -3.11173 -0.913337 0
M  V30 1177 H 113.365 -3.8587 0.696204 0
M  V30 1178 H 114.855 -4.16886 -0.24414 0
M  V30 1179 N 115.292 -0.849877 -1.32721 0
M  V30 1180 C 116.52 -0.464754 -2.01613 0
M  V30 1181 C 116.935 0.937191 -1.63897 0
M  V30 1182 O 116.292 1.61081 -0.857856 0
M  V30 1183 C 116.343 -0.588638 -3.56675 0
M  V30 1184 O 116.064 -1.93535 -3.93034 0
M  V30 1185 C 117.565 -0.2019 -4.4284 0
M  V30 1186 H 114.785 -0.183215 -0.645502 0
M  V30 1187 H 117.329 -1.1455 -1.69407 0
M  V30 1188 H 115.484 0.0443159 -3.87375 0
M  V30 1189 H 115.898 -1.92871 -4.87751 0
M  V30 1190 H 117.372 -0.339599 -5.50954 0
M  V30 1191 H 117.849 0.857224 -4.30753 0
M  V30 1192 H 118.455 -0.809733 -4.17521 0
M  V30 1193 N 116.77 1.45427 -0.607355 0
M  V30 1194 C 118 2.06314 -0.108656 0
M  V30 1195 C 118.408 1.45269 1.21217 0
M  V30 1196 O 117.751 0.561115 1.74921 0
M  V30 1197 C 117.813 3.59345 0.105618 0
M  V30 1198 C 117.477 4.42723 -1.13337 0
M  V30 1199 C 118.474 4.77715 -2.05145 0
M  V30 1200 C 116.159 4.83478 -1.36213 0
M  V30 1201 C 118.153 5.52317 -3.18158 0
M  V30 1202 C 115.84 5.57835 -2.49527 0
M  V30 1203 C 116.838 5.92171 -3.40327 0
M  V30 1204 O 116.526 6.65019 -4.51669 0
M  V30 1205 H 116.258 0.672782 -0.0658842 0
M  V30 1206 H 118.812 1.87664 -0.834945 0
M  V30 1207 H 117.042 3.76394 0.886796 0
M  V30 1208 H 118.731 4.02076 0.555886 0
M  V30 1209 H 119.497 4.46787 -1.88697 0
M  V30 1210 H 115.376 4.56188 -0.664362 0
M  V30 1211 H 118.92 5.79036 -3.89054 0
M  V30 1212 H 114.817 5.88177 -2.65928 0
M  V30 1213 H 115.585 6.83469 -4.50348 0
M  V30 1214 N 118.248 0.346503 1.53744 0
M  V30 1215 C 119.181 -0.552023 2.21423 0
M  V30 1216 C 120.159 -1.09798 1.19929 0
M  V30 1217 O 121.343 -1.1577 1.4876 0
M  V30 1218 C 118.47 -1.75972 2.89398 0
M  V30 1219 C 117.516 -1.34295 4.04805 0
M  V30 1220 S 118.349 -0.360263 5.34287 0
M  V30 1221 C 119.505 -1.57473 6.05767 0
M  V30 1222 H 119.738 0.0228119 2.97291 0
M  V30 1223 H 117.271 0.130579 1.53847 0
M  V30 1224 H 119.229 -2.45256 3.2918 0
M  V30 1225 H 117.89 -2.30578 2.1329 0
M  V30 1226 H 117.083 -2.24349 4.51313 0
M  V30 1227 H 116.685 -0.729555 3.66815 0
M  V30 1228 H 118.977 -2.50875 6.29339 0
M  V30 1229 H 119.92 -1.15138 6.98676 0
M  V30 1230 H 120.328 -1.77212 5.35963 0
M  V30 1231 N 119.726 -1.57421 0.075193 0
M  V30 1232 C 120.673 -2.12915 -0.890843 0
M  V30 1233 C 121.643 -1.04252 -1.29309 0
M  V30 1234 O 122.828 -1.31933 -1.37834 0
M  V30 1235 C 119.968 -2.69795 -2.15186 0
M  V30 1236 C 119.081 -3.92624 -1.80194 0
M  V30 1237 C 118.216 -4.37736 -3.00933 0
M  V30 1238 C 117.255 -5.53205 -2.61974 0
M  V30 1239 N 116.392 -5.9326 -3.75483 0
M  V30 1240 H 121.232 -2.95156 -0.410735 0
M  V30 1241 H 118.769 -1.45854 -0.191086 0
M  V30 1242 H 120.727 -3.00883 -2.89008 0
M  V30 1243 H 119.357 -1.90313 -2.60731 0
M  V30 1244 H 118.409 -3.67977 -0.964218 0
M  V30 1245 H 119.721 -4.76482 -1.47534 0
M  V30 1246 H 118.875 -4.70503 -3.8303 0
M  V30 1247 H 117.614 -3.52739 -3.36789 0
M  V30 1248 H 116.619 -5.20086 -1.783 0
M  V30 1249 H 117.844 -6.39936 -2.27284 0
M  V30 1250 H 115.79 -5.11212 -4.11094 0
M  V30 1251 H 115.707 -6.71865 -3.46602 0
M  V30 1252 H 116.975 -6.30651 -4.58148 0
M  V30 1253 N 121.204 0.198386 -1.56346 0
M  V30 1254 C 122.452 0.91747 -1.80075 0
M  V30 1255 C 122.773 1.83929 -0.647692 0
M  V30 1256 O 122.043 1.93029 0.334166 0
M  V30 1257 H 120.623 0.341774 -0.664228 0
M  V30 1258 H 123.285 0.204684 -1.93822 0
M  V30 1259 H 122.381 1.51055 -2.7311 0
M  V30 1260 N 122.682 1.50554 0.465978 0
M  V30 1261 C 123.614 1.65949 1.58093 0
M  V30 1262 C 124.627 0.540827 1.53554 0
M  V30 1263 O 125.816 0.814187 1.5885 0
M  V30 1264 C 122.916 1.63261 2.96983 0
M  V30 1265 C 122.089 2.91245 3.26336 0
M  V30 1266 C 121.148 2.8113 4.44806 0
M  V30 1267 O 120.174 3.55086 4.44862 0
M  V30 1268 N 121.376 1.95032 5.46756 0
M  V30 1269 H 124.141 2.62122 1.45301 0
M  V30 1270 H 121.702 1.48082 0.65448 0
M  V30 1271 H 123.694 1.54101 3.74212 0
M  V30 1272 H 122.264 0.748032 3.03518 0
M  V30 1273 H 121.484 3.14493 2.37672 0
M  V30 1274 H 122.772 3.76022 3.42761 0
M  V30 1275 H 122.17 1.3427 5.49534 0
M  V30 1276 H 120.727 1.91772 6.2295 0
M  V30 1277 N 124.16 -0.719506 1.40217 0
M  V30 1278 C 125.406 -1.48034 1.39491 0
M  V30 1279 C 125.761 -1.92399 -0.00443536 0
M  V30 1280 O 125.054 -1.64993 -0.974061 0
M  V30 1281 C 125.248 -2.72271 2.31524 0
M  V30 1282 C 125.077 -2.40055 3.80268 0
M  V30 1283 C 123.847 -2.31588 4.49105 0
M  V30 1284 C 126.045 -2.04581 4.71859 0
M  V30 1285 N 124.027 -1.92006 5.83101 0
M  V30 1286 C 125.398 -1.75568 5.94623 0
M  V30 1287 C 127.453 -1.91183 4.59732 0
M  V30 1288 C 126.156 -1.34505 7.06612 0
M  V30 1289 C 128.182 -1.51524 5.71659 0
M  V30 1290 C 127.544 -1.23406 6.93506 0
M  V30 1291 H 123.643 -0.539927 0.565688 0
M  V30 1292 H 126.227 -0.834764 1.75897 0
M  V30 1293 H 124.398 -3.34584 1.97251 0
M  V30 1294 H 126.13 -3.38584 2.21682 0
M  V30 1295 H 122.885 -2.49199 4.02737 0
M  V30 1296 H 123.309 -1.74764 6.54054 0
M  V30 1297 H 127.951 -2.11584 3.66049 0
M  V30 1298 H 125.669 -1.12846 8.00182 0
M  V30 1299 H 129.255 -1.41741 5.6427 0
M  V30 1300 H 128.135 -0.931788 7.78645 0
M  V30 1301 N 125.638 -1.25649 -0.95132 0
M  V30 1302 C 127.049 -1.09654 -1.51106 0
M  V30 1303 C 127.4 0.326615 -1.93462 0
M  V30 1304 O 126.525 1.21697 -1.78938 0
M  V30 1305 C 127.12 -1.98437 -2.74605 0
M  V30 1306 C 125.679 -1.86618 -3.2688 0
M  V30 1307 C 124.826 -1.9239 -1.99703 0
M  V30 1308 H 127.777 -1.38887 -0.767865 0
M  V30 1309 H 127.798 -1.5263 -3.48546 0
M  V30 1310 H 127.31 -3.02009 -2.43746 0
M  V30 1311 H 125.411 -0.859421 -3.62553 0
M  V30 1312 H 125.524 -2.71607 -3.94673 0
M  V30 1313 H 123.888 -1.36317 -2.15151 0
M  V30 1314 H 124.671 -2.97573 -1.71188 0
M  V30 1315 N 127.117 1.15442 -1.07289 0
M  V30 1316 C 128.365 1.85845 -0.794096 0
M  V30 1317 C 128.686 1.82692 0.681809 0
M  V30 1318 O 127.956 1.26741 1.49377 0
M  V30 1319 H 126.536 0.688089 -0.290763 0
M  V30 1320 H 129.198 1.39947 -1.3565 0
M  V30 1321 H 128.294 2.91001 -1.12804 0
M  V30 1322 N 128.595 0.856903 1.32268 0
M  V30 1323 C 129.843 0.460474 1.96784 0
M  V30 1324 C 130.164 -0.987701 1.68135 0
M  V30 1325 O 129.434 -1.69058 0.989765 0
M  V30 1326 H 128.014 0.167289 0.728027 0
M  V30 1327 H 130.676 1.09383 1.61312 0
M  V30 1328 H 129.772 0.60739 3.06133 0
M  V30 1329 N 130.073 -1.45103 0.615059 0
M  V30 1330 C 131.005 -2.28786 -0.13762 0
M  V30 1331 C 132.018 -1.40376 -0.824525 0
M  V30 1332 O 133.207 -1.64681 -0.688662 0
M  V30 1333 C 130.307 -3.16322 -1.21628 0
M  V30 1334 C 129.48 -4.33054 -0.615039 0
M  V30 1335 C 128.539 -5.01743 -1.58556 0
M  V30 1336 O 127.565 -5.58293 -1.10895 0
M  V30 1337 N 128.767 -5.01714 -2.91998 0
M  V30 1338 H 131.532 -2.94025 0.580483 0
M  V30 1339 H 129.093 -1.55373 0.45507 0
M  V30 1340 H 131.085 -3.59139 -1.86552 0
M  V30 1341 H 129.655 -2.52943 -1.83681 0
M  V30 1342 H 128.875 -3.93627 0.21245 0
M  V30 1343 H 130.163 -5.08431 -0.193704 0
M  V30 1344 H 129.561 -4.57075 -3.33316 0
M  V30 1345 H 128.118 -5.48371 -3.52325 0
M  V30 1346 N 131.551 -0.354651 -1.53558 0
M  V30 1347 C 132.962 0.126902 -1.86268 0
M  V30 1348 C 133.313 1.49075 -1.27558 0
M  V30 1349 O 132.438 2.08105 -0.5934 0
M  V30 1350 C 133.033 0.237046 -3.3797 0
M  V30 1351 C 131.592 0.662842 -3.70518 0
M  V30 1352 C 130.739 -0.196652 -2.76602 0
M  V30 1353 H 133.69 -0.573849 -1.47962 0
M  V30 1354 H 133.711 1.06259 -3.65362 0
M  V30 1355 H 133.223 -0.755725 -3.80671 0
M  V30 1356 H 131.324 1.66424 -3.33367 0
M  V30 1357 H 131.437 0.445034 -4.77029 0
M  V30 1358 H 129.801 0.332763 -2.52517 0
M  V30 1359 H 130.584 -1.18676 -3.22135 0
M  V30 1360 N 133.029 1.57378 -0.0835403 0
M  V30 1361 C 133.959 2.1641 0.87686 0
M  V30 1362 C 134.94 1.09429 1.30228 0
M  V30 1363 O 136.125 1.37516 1.37124 0
M  V30 1364 C 133.255 2.73517 2.14022 0
M  V30 1365 C 132.209 3.85769 1.85381 0
M  V30 1366 C 131.535 4.29529 3.18448 0
M  V30 1367 C 132.835 5.09486 1.14984 0
M  V30 1368 H 134.529 2.96914 0.385059 0
M  V30 1369 H 132.075 1.42823 0.18377 0
M  V30 1370 H 134.028 3.13463 2.81636 0
M  V30 1371 H 132.752 1.90252 2.65465 0
M  V30 1372 H 131.411 3.46345 1.20169 0
M  V30 1373 H 131.059 3.43169 3.67755 0
M  V30 1374 H 130.759 5.05204 3.00071 0
M  V30 1375 H 132.283 4.72099 3.8724 0
M  V30 1376 H 133.697 5.46674 1.72687 0
M  V30 1377 H 132.094 5.90515 1.06826 0
M  V30 1378 H 133.164 4.84724 0.130749 0
M  V30 1379 N 134.507 -0.190092 1.56449 0
M  V30 1380 C 135.747 -0.916414 1.82705 0
M  V30 1381 C 136.111 -1.80235 0.661763 0
M  V30 1382 O 137.312 -2.56484 0.80433 0
M  V30 1383 C 135.583 -1.70691 3.14005 0
M  V30 1384 S 137.142 -2.48457 3.61683 0
M  V30 1385 H 133.96 -0.307281 0.64117 0
M  V30 1386 H 136.562 -0.179433 1.94675 0
M  V30 1387 H 135.266 -1.04677 3.96826 0
M  V30 1388 H 134.797 -2.48562 3.04927 0
M  V30 1389 H 136.812 -3.72756 3.27517 0
M  V30 1390 N 135.985 -1.50799 -0.457987 0
M  V30 1391 C 136.895 -1.73426 -1.57989 0
M  V30 1392 C 137.911 -0.617745 -1.62665 0
M  V30 1393 O 139.087 -0.897614 -1.80291 0
M  V30 1394 C 136.152 -1.83557 -2.94122 0
M  V30 1395 C 135.213 -3.07345 -2.99729 0
M  V30 1396 C 134.446 -3.16983 -4.29368 0
M  V30 1397 O 134.669 -2.33077 -5.20607 0
M  V30 1398 O 133.603 -4.09812 -4.40837 0
M  V30 1399 H 137.429 -2.68555 -1.41817 0
M  V30 1400 H 135.014 -1.35052 -0.638859 0
M  V30 1401 H 136.896 -1.92326 -3.74952 0
M  V30 1402 H 135.571 -0.916137 -3.10465 0
M  V30 1403 H 134.478 -3.04068 -2.1793 0
M  V30 1404 H 135.811 -3.9891 -2.88326 0
M  V30 1405 N 137.463 0.71206 -1.40597 0
M  V30 1406 C 138.693 1.49894 -1.42181 0
M  V30 1407 C 139.101 1.89189 -0.0208078 0
M  V30 1408 O 138.444 1.56223 0.966436 0
M  V30 1409 C 138.506 2.80215 -2.25211 0
M  V30 1410 C 138.17 2.63221 -3.73582 0
M  V30 1411 C 139.167 2.30249 -4.66135 0
M  V30 1412 C 136.852 2.79376 -4.17438 0
M  V30 1413 C 138.846 2.13645 -6.00529 0
M  V30 1414 C 136.533 2.6239 -5.51901 0
M  V30 1415 C 137.531 2.29573 -6.43262 0
M  V30 1416 O 137.219 2.12719 -7.75246 0
M  V30 1417 H 136.951 0.469031 -0.486812 0
M  V30 1418 H 139.505 0.88564 -1.85326 0
M  V30 1419 H 137.735 3.4389 -1.76852 0
M  V30 1420 H 139.424 3.41947 -2.18694 0
M  V30 1421 H 140.19 2.17398 -4.33547 0
M  V30 1422 H 136.069 3.03906 -3.46644 0
M  V30 1423 H 139.613 1.87953 -6.71803 0
M  V30 1424 H 135.51 2.74826 -5.84073 0
M  V30 1425 H 136.278 2.27611 -7.86216 0
M  V30 1426 N 138.941 1.26152 0.944643 0
M  V30 1427 C 140.166 1.14363 1.7302 0
M  V30 1428 C 140.591 -0.29772 1.85729 0
M  V30 1429 O 139.949 -1.2157 1.34501 0
M  V30 1430 C 139.997 1.81378 3.11664 0
M  V30 1431 O 139.101 1.10022 3.97453 0
M  V30 1432 H 138.442 0.398694 0.53098 0
M  V30 1433 H 140.972 1.66906 1.18337 0
M  V30 1434 H 140.982 1.88064 3.62072 0
M  V30 1435 H 139.657 2.86237 3.0173 0
M  V30 1436 H 138.234 1.11287 3.55907 0
M  V30 1437 N 140.419 -1.14872 1.07899 0
M  V30 1438 C 141.647 -1.89661 0.82683 0
M  V30 1439 C 142.062 -1.78312 -0.620519 0
M  V30 1440 O 141.419 -1.13888 -1.42604 0
M  V30 1441 C 141.47 -3.39817 1.23316 0
M  V30 1442 O 141.191 -3.50845 2.62372 0
M  V30 1443 C 142.692 -4.31615 1.0111 0
M  V30 1444 H 139.912 -0.60092 0.298557 0
M  V30 1445 H 142.456 -1.4551 1.43691 0
M  V30 1446 H 140.611 -3.8161 0.667286 0
M  V30 1447 H 141.025 -4.44076 2.79101 0
M  V30 1448 H 142.499 -5.35367 1.34486 0
M  V30 1449 H 142.976 -4.39169 -0.0522168 0
M  V30 1450 H 143.582 -3.95572 1.56215 0
M  V30 1451 N 141.898 -0.863906 -1.31812 0
M  V30 1452 C 143.145 -0.471836 -1.96926 0
M  V30 1453 C 143.473 0.974578 -1.68322 0
M  V30 1454 O 142.728 1.7003 -0.968933 0
M  V30 1455 C 143.027 -0.668547 -3.51091 0
M  V30 1456 C 142.693 -2.08683 -3.99703 0
M  V30 1457 C 141.355 -2.47471 -4.12688 0
M  V30 1458 C 143.707 -3.01207 -4.25351 0
M  V30 1459 C 141.035 -3.78037 -4.4867 0
M  V30 1460 C 143.387 -4.31282 -4.62794 0
M  V30 1461 C 142.051 -4.69992 -4.73987 0
M  V30 1462 H 141.321 -0.172657 -0.720604 0
M  V30 1463 H 143.968 -1.09573 -1.57054 0
M  V30 1464 H 142.273 0.0385252 -3.91781 0
M  V30 1465 H 143.97 -0.345102 -3.99512 0
M  V30 1466 H 140.56 -1.77566 -3.90087 0
M  V30 1467 H 144.744 -2.72469 -4.14819 0
M  V30 1468 H 140 -4.078 -4.55532 0
M  V30 1469 H 144.174 -5.03031 -4.81594 0
M  V30 1470 H 141.801 -5.71207 -5.01624 0
M  V30 1471 N 143.376 1.44774 -0.622745 0
M  V30 1472 C 144.625 2.01334 -0.121397 0
M  V30 1473 C 144.938 1.49505 1.26125 0
M  V30 1474 O 146.144 1.98139 1.85616 0
M  V30 1475 C 144.6 3.59516 -0.166298 0
M  V30 1476 C 144.208 4.20342 -1.54974 0
M  V30 1477 C 145.952 4.23582 0.279021 0
M  V30 1478 C 143.859 5.70721 -1.55021 0
M  V30 1479 H 142.789 0.752851 -0.0416172 0
M  V30 1480 H 145.44 1.66083 -0.780309 0
M  V30 1481 H 143.822 3.92027 0.559557 0
M  V30 1482 H 144.996 3.99381 -2.29851 0
M  V30 1483 H 143.311 3.68529 -1.93843 0
M  V30 1484 H 145.908 5.33868 0.298083 0
M  V30 1485 H 146.251 3.95327 1.30471 0
M  V30 1486 H 146.784 3.95843 -0.394063 0
M  V30 1487 H 143.523 6.03698 -2.55399 0
M  V30 1488 H 143.043 5.93829 -0.844245 0
M  V30 1489 H 144.722 6.34203 -1.28047 0
M  V30 1490 N 144.854 0.36279 1.53368 0
M  V30 1491 C 145.784 -0.476976 2.28576 0
M  V30 1492 C 146.765 -1.08631 1.30894 0
M  V30 1493 O 147.95 -1.10409 1.59761 0
M  V30 1494 C 145.08 -1.61828 3.07293 0
M  V30 1495 C 144.034 -1.13633 4.1264 0
M  V30 1496 C 143.36 -2.36766 4.79423 0
M  V30 1497 C 144.66 -0.223061 5.21823 0
M  V30 1498 H 146.354 0.150474 2.99022 0
M  V30 1499 H 143.9 0.0738103 1.43811 0
M  V30 1500 H 145.853 -2.21237 3.58653 0
M  V30 1501 H 144.577 -2.27292 2.34533 0
M  V30 1502 H 143.236 -0.564945 3.62221 0
M  V30 1503 H 142.884 -3.0068 4.03238 0
M  V30 1504 H 142.584 -2.05192 5.50609 0
M  V30 1505 H 144.108 -2.96865 5.33576 0
M  V30 1506 H 145.522 -0.724545 5.68703 0
M  V30 1507 H 143.919 0.001678 6.001 0
M  V30 1508 H 144.989 0.735553 4.79289 0
M  V30 1509 N 146.332 -1.57332 0.0918853 0
M  V30 1510 C 147.262 -2.16872 -0.865371 0
M  V30 1511 C 148.243 -1.10118 -1.29646 0
M  V30 1512 O 149.428 -1.38242 -1.36392 0
M  V30 1513 C 146.558 -2.74649 -2.12569 0
M  V30 1514 C 145.512 -3.86747 -1.83333 0
M  V30 1515 C 144.838 -4.31212 -3.16166 0
M  V30 1516 C 146.138 -5.10089 -1.1228 0
M  V30 1517 H 147.832 -2.97114 -0.369307 0
M  V30 1518 H 145.378 -1.42918 -0.176194 0
M  V30 1519 H 147.331 -3.14952 -2.7997 0
M  V30 1520 H 146.055 -1.91657 -2.64452 0
M  V30 1521 H 144.714 -3.46978 -1.18331 0
M  V30 1522 H 144.362 -3.45115 -3.6593 0
M  V30 1523 H 144.062 -5.06788 -2.97388 0
M  V30 1524 H 145.586 -4.74146 -3.84731 0
M  V30 1525 H 147 -5.47582 -1.69785 0
M  V30 1526 H 145.397 -5.91073 -1.03693 0
M  V30 1527 H 146.467 -4.84786 -0.105041 0
M  V30 1528 N 147.81 0.181792 -1.56548 0
M  V30 1529 C 149.057 0.900097 -1.81396 0
M  V30 1530 C 149.385 1.82695 -0.667281 0
M  V30 1531 O 148.64 1.92614 0.346146 0
M  V30 1532 C 148.939 1.73728 -3.12335 0
M  V30 1533 C 148.605 0.960255 -4.40556 0
M  V30 1534 C 147.267 0.745766 -4.75386 0
M  V30 1535 C 149.619 0.414477 -5.19549 0
M  V30 1536 C 146.947 -0.0257694 -5.86694 0
M  V30 1537 C 149.299 -0.343916 -6.31664 0
M  V30 1538 C 147.963 -0.569301 -6.65068 0
M  V30 1539 H 147.233 0.329369 -0.663775 0
M  V30 1540 H 149.88 0.165647 -1.90782 0
M  V30 1541 H 148.185 2.54081 -2.98245 0
M  V30 1542 H 149.882 2.29591 -3.28769 0
M  V30 1543 H 146.472 1.13746 -4.13231 0
M  V30 1544 H 150.656 0.567554 -4.93044 0
M  V30 1545 H 145.912 -0.210233 -6.11038 0
M  V30 1546 H 150.086 -0.774133 -6.92084 0
M  V30 1547 H 147.713 -1.16903 -7.51158 0
M  V30 1548 N 149.288 1.51039 0.449983 0
M  V30 1549 C 150.535 1.63081 1.20045 0
M  V30 1550 C 150.863 0.341024 1.91487 0
M  V30 1551 O 150.118 -0.674276 1.83717 0
M  V30 1552 C 150.417 2.77556 2.25161 0
M  V30 1553 C 150.083 4.17289 1.70823 0
M  V30 1554 C 148.745 4.55305 1.55725 0
M  V30 1555 C 151.097 5.04536 1.3074 0
M  V30 1556 C 148.425 5.78287 0.989999 0
M  V30 1557 C 150.777 6.28085 0.754482 0
M  V30 1558 C 149.441 6.64885 0.590308 0
M  V30 1559 H 148.711 0.596755 0.439277 0
M  V30 1560 H 151.358 1.85037 0.49333 0
M  V30 1561 H 149.663 2.49771 3.01863 0
M  V30 1562 H 151.36 2.84073 2.83026 0
M  V30 1563 H 147.95 3.8731 1.83546 0
M  V30 1564 H 152.134 4.75782 1.41229 0
M  V30 1565 H 147.39 6.05456 0.850451 0
M  V30 1566 H 151.564 6.95038 0.435324 0
M  V30 1567 H 149.191 7.60055 0.14862 0
M  V30 1568 N 150.766 -0.704594 1.40972 0
M  V30 1569 C 151.991 -1.49858 1.43378 0
M  V30 1570 C 152.416 -1.88061 0.038184 0
M  V30 1571 O 151.774 -1.5402 -0.956425 0
M  V30 1572 C 151.822 -2.74333 2.34038 0
M  V30 1573 O 150.926 -3.7147 1.7912 0
M  V30 1574 H 150.267 -0.45139 0.486974 0
M  V30 1575 H 152.797 -0.866832 1.8533 0
M  V30 1576 H 152.807 -3.22741 2.49604 0
M  V30 1577 H 151.482 -2.45863 3.35446 0
M  V30 1578 H 150.059 -3.30363 1.72958 0
M  V30 1579 N 152.244 -1.26651 -0.937939 0
M  V30 1580 C 153.174 -1.10993 -2.05433 0
M  V30 1581 C 154.155 -0.0142161 -1.70094 0
M  V30 1582 O 155.34 -0.186837 -1.93299 0
M  V30 1583 C 152.47 -0.745561 -3.39203 0
M  V30 1584 C 151.424 -1.79337 -3.88616 0
M  V30 1585 C 150.75 -1.28324 -5.19073 0
M  V30 1586 C 152.05 -3.19553 -4.13138 0
M  V30 1587 H 153.744 -2.0438 -2.1879 0
M  V30 1588 H 151.29 -0.984041 -1.05131 0
M  V30 1589 H 153.243 -0.622888 -4.16771 0
M  V30 1590 H 151.967 0.22401 -3.25831 0
M  V30 1591 H 150.626 -1.90477 -3.13231 0
M  V30 1592 H 150.274 -0.303414 -5.02084 0
M  V30 1593 H 149.974 -1.98369 -5.53103 0
M  V30 1594 H 151.498 -1.1733 -5.99221 0
M  V30 1595 H 152.912 -3.11471 -4.81309 0
M  V30 1596 H 151.309 -3.87218 -4.58457 0
M  V30 1597 H 152.379 -3.65368 -3.18801 0
M  V30 1598 N 153.722 1.14298 -1.08507 0
M  V30 1599 C 154.947 1.8976 -0.837001 0
M  V30 1600 C 155.372 1.78097 0.605228 0
M  V30 1601 O 154.73 1.12188 1.4242 0
M  V30 1602 C 154.778 3.37685 -1.26495 0
M  V30 1603 O 153.882 4.10281 -0.417514 0
M  V30 1604 H 153.223 0.590365 -0.303917 0
M  V30 1605 H 155.753 1.44672 -1.44676 0
M  V30 1606 H 155.763 3.88501 -1.24625 0
M  V30 1607 H 154.438 3.45492 -2.31534 0
M  V30 1608 H 153.015 3.69536 -0.499722 0
M  V30 1609 N 155.201 0.870884 1.31352 0
M  V30 1610 C 156.449 0.48132 1.96285 0
M  V30 1611 C 156.77 -0.969813 1.69173 0
M  V30 1612 O 156.04 -1.67998 1.00764 0
M  V30 1613 H 154.62 0.175002 0.726212 0
M  V30 1614 H 157.282 1.11087 1.60143 0
M  V30 1615 H 156.378 0.639825 3.05471 0
M  V30 1616 N 156.679 -1.44442 0.630414 0
M  V30 1617 C 157.609 -2.33418 -0.0618083 0
M  V30 1618 C 158.59 -1.48165 -0.835541 0
M  V30 1619 O 159.775 -1.76886 -0.801564 0
M  V30 1620 C 156.905 -3.31222 -1.04449 0
M  V30 1621 C 155.859 -4.26288 -0.382436 0
M  V30 1622 C 155.185 -5.13954 -1.47497 0
M  V30 1623 C 156.485 -5.1744 0.710865 0
M  V30 1624 H 158.179 -2.91548 0.681184 0
M  V30 1625 H 155.725 -1.40191 0.329026 0
M  V30 1626 H 157.678 -3.92351 -1.53748 0
M  V30 1627 H 156.402 -2.71299 -1.81836 0
M  V30 1628 H 155.061 -3.6649 0.0899054 0
M  V30 1629 H 154.709 -4.50385 -2.2397 0
M  V30 1630 H 154.409 -5.7837 -1.03737 0
M  V30 1631 H 155.933 -5.77955 -1.96979 0
M  V30 1632 H 157.347 -5.72509 0.300996 0
M  V30 1633 H 155.744 -5.90455 1.07156 0
M  V30 1634 H 156.814 -4.58496 1.57829 0
M  V30 1635 N 158.157 -0.370918 -1.53173 0
M  V30 1636 C 159.382 0.220293 -2.06227 0
M  V30 1637 C 159.807 1.41243 -1.24225 0
M  V30 1638 O 159.165 1.79387 -0.262645 0
M  V30 1639 C 159.213 0.586663 -3.55796 0
M  V30 1640 O 158.317 1.68317 -3.76488 0
M  V30 1641 H 157.658 0.0308099 -0.663285 0
M  V30 1642 H 160.188 -0.533068 -1.97534 0
M  V30 1643 H 160.198 0.85617 -3.98916 0
M  V30 1644 H 158.873 -0.285013 -4.14922 0
M  V30 1645 H 157.45 1.40881 -3.45264 0
M  V30 1646 N 159.635 1.57281 -0.100228 0
M  V30 1647 C 160.884 1.93713 0.561984 0
M  V30 1648 C 161.197 0.984492 1.69018 0
M  V30 1649 O 162.403 1.24273 2.41389 0
M  V30 1650 C 160.859 3.4421 1.05106 0
M  V30 1651 C 160.467 4.47975 -0.0476628 0
M  V30 1652 C 162.211 3.89595 1.68571 0
M  V30 1653 C 160.118 5.89631 0.457055 0
M  V30 1654 H 159.048 0.723082 0.2137 0
M  V30 1655 H 161.699 1.82644 -0.177057 0
M  V30 1656 H 160.081 3.50449 1.84395 0
M  V30 1657 H 161.255 4.53385 -0.823333 0
M  V30 1658 H 159.57 4.1223 -0.587816 0
M  V30 1659 H 162.167 4.92832 2.07414 0
M  V30 1660 H 162.51 3.28526 2.55688 0
M  V30 1661 H 163.043 3.86078 0.958562 0
M  V30 1662 H 159.782 6.54411 -0.377616 0
M  V30 1663 H 159.302 5.87681 1.19962 0
M  V30 1664 H 160.981 6.40363 0.92437 0
M  V30 1665 N 161.113 -0.173488 1.56642 0
M  V30 1666 C 162.362 -0.888758 1.81063 0
M  V30 1667 C 162.675 -1.83506 0.67712 0
M  V30 1668 O 163.881 -2.59254 0.806206 0
M  V30 1669 C 162.337 -1.63091 3.20826 0
M  V30 1670 C 161.945 -0.728357 4.4204 0
M  V30 1671 C 163.689 -2.33454 3.54541 0
M  V30 1672 C 161.596 -1.47062 5.72823 0
M  V30 1673 H 160.526 -0.335618 0.675186 0
M  V30 1674 H 163.177 -0.141712 1.82952 0
M  V30 1675 H 161.559 -2.42263 3.13248 0
M  V30 1676 H 162.733 0.0262449 4.60793 0
M  V30 1677 H 161.048 -0.134492 4.16183 0
M  V30 1678 H 163.645 -2.89578 4.49498 0
M  V30 1679 H 163.988 -3.08687 2.79317 0
M  V30 1680 H 164.521 -1.61227 3.63663 0
M  V30 1681 H 161.26 -0.760658 6.51072 0
M  V30 1682 H 160.78 -2.1986 5.58052 0
M  V30 1683 H 162.459 -2.01868 6.14702 0
M  V30 1684 N 162.591 -1.51276 -0.441967 0
M  V30 1685 C 163.831 -1.65372 -1.20132 0
M  V30 1686 C 164.195 -0.359871 -1.88597 0
M  V30 1687 O 165.396 -0.376551 -2.66149 0
M  V30 1688 C 163.667 -2.8207 -2.1948 0
M  V30 1689 S 165.226 -3.16467 -3.03964 0
M  V30 1690 H 162.044 -0.582669 -0.407453 0
M  V30 1691 H 164.646 -1.89166 -0.493609 0
M  V30 1692 H 163.35 -3.74523 -1.67812 0
M  V30 1693 H 162.881 -2.6045 -2.94838 0
M  V30 1694 H 164.896 -2.62543 -4.21053 0
M  V30 1695 N 164.069 0.697108 -1.41344 0
M  V30 1696 C 165.032 1.79281 -1.42797 0
M  V30 1697 C 166.032 1.57607 -0.318837 0
M  V30 1698 O 167.222 1.64309 -0.578642 0
M  V30 1699 C 164.354 3.17632 -1.23785 0
M  V30 1700 H 165.547 1.79385 -2.40335 0
M  V30 1701 H 163.1 0.904582 -1.27464 0
M  V30 1702 H 163.835 3.23167 -0.270814 0
M  V30 1703 H 163.62 3.34765 -2.04144 0
M  V30 1704 H 165.11 3.97617 -1.27633 0
M  V30 1705 N 165.547 1.27147 0.931209 0
M  V30 1706 C 166.48 1.0389 2.0318 0
M  V30 1707 C 167.458 -0.0395716 1.62552 0
M  V30 1708 O 168.642 0.104867 1.88208 0
M  V30 1709 C 165.769 0.575227 3.3378 0
M  V30 1710 C 164.815 1.64774 3.93385 0
M  V30 1711 S 165.648 3.23933 4.26413 0
M  V30 1712 C 166.804 2.79358 5.60098 0
M  V30 1713 H 167.037 1.97075 2.22596 0
M  V30 1714 H 164.57 1.10938 1.07387 0
M  V30 1715 H 166.528 0.314385 4.09294 0
M  V30 1716 H 165.189 -0.336505 3.12292 0
M  V30 1717 H 164.382 1.27454 4.87618 0
M  V30 1718 H 163.984 1.86048 3.24441 0
M  V30 1719 H 166.276 2.24443 6.39243 0
M  V30 1720 H 167.219 3.72322 6.02314 0
M  V30 1721 H 167.627 2.1861 5.20452 0
M  V30 1722 N 167.025 -1.13721 1.09112 0
M  V30 1723 C 168.25 -1.89314 0.847053 0
M  V30 1724 C 168.675 -1.78416 -0.595774 0
M  V30 1725 O 168.033 -1.12942 -1.41823 0
M  V30 1726 C 168.081 -3.3701 1.28284 0
M  V30 1727 O 167.185 -4.10054 0.439267 0
M  V30 1728 H 166.526 -0.588745 0.307044 0
M  V30 1729 H 169.056 -1.43902 1.45442 0
M  V30 1730 H 169.066 -3.87834 1.26683 0
M  V30 1731 H 167.741 -3.4426 2.33363 0
M  V30 1732 H 166.318 -3.69266 0.519312 0
M  V30 1733 N 168.503 -0.877838 -1.30888 0
M  V30 1734 C 169.749 -0.493426 -1.96706 0
M  V30 1735 C 170.082 0.953504 -1.6918 0
M  V30 1736 O 169.357 1.67266 -0.992594 0
M  V30 1737 C 169.64 -0.760429 -3.51979 0
M  V30 1738 C 169.493 -2.25747 -3.89048 0
M  V30 1739 C 170.812 -0.232148 -4.39487 0
M  V30 1740 H 167.931 -0.180746 -0.714493 0
M  V30 1741 H 170.573 -1.10052 -1.54882 0
M  V30 1742 H 168.723 -0.243715 -3.87735 0
M  V30 1743 H 170.395 -2.84204 -3.63354 0
M  V30 1744 H 168.638 -2.72694 -3.37373 0
M  V30 1745 H 169.309 -2.39491 -4.97341 0
M  V30 1746 H 171.785 -0.674314 -4.106 0
M  V30 1747 H 170.661 -0.448355 -5.47066 0
M  V30 1748 H 170.922 0.866297 -4.33529 0
M  V30 1749 N 169.982 1.44106 -0.638065 0
M  V30 1750 C 170.892 2.34513 0.0637334 0
M  V30 1751 C 171.908 1.53018 0.828346 0
M  V30 1752 O 173.084 1.85723 0.779036 0
M  V30 1753 C 170.149 3.31095 1.02844 0
M  V30 1754 C 169.21 4.28497 0.26244 0
M  V30 1755 C 168.443 5.20465 1.1812 0
M  V30 1756 O 168.666 5.16514 2.42011 0
M  V30 1757 O 167.6 5.98251 0.661774 0
M  V30 1758 H 171.426 2.95989 -0.68003 0
M  V30 1759 H 169.011 1.43994 -0.398252 0
M  V30 1760 H 170.893 3.90526 1.58327 0
M  V30 1761 H 169.568 2.72144 1.7527 0
M  V30 1762 H 168.475 3.72592 -0.335602 0
M  V30 1763 H 169.808 4.90388 -0.421936 0
M  V30 1764 N 171.46 0.379036 1.52974 0
M  V30 1765 C 172.876 0.0285448 1.59574 0
M  V30 1766 C 173.076 -1.45542 1.39355 0
M  V30 1767 O 172.132 -2.2187 1.20541 0
M  V30 1768 C 173.445 0.496535 2.96572 0
M  V30 1769 C 174.993 0.451909 3.0972 0
M  V30 1770 C 175.468 0.895924 4.49152 0
M  V30 1771 N 176.959 0.851522 4.55306 0
M  V30 1772 C 177.694 1.16661 5.61407 0
M  V30 1773 N 177.19 1.55166 6.752 0
M  V30 1774 N 178.983 1.08853 5.51459 0
M  V30 1775 H 171.134 1.34525 1.64367 0
M  V30 1776 H 173.397 0.550733 0.771619 0
M  V30 1777 H 173.103 1.53258 3.16552 0
M  V30 1778 H 172.977 -0.109802 3.7704 0
M  V30 1779 H 175.364 -0.575029 2.89443 0
M  V30 1780 H 175.445 1.09392 2.3123 0
M  V30 1781 H 175.089 1.92104 4.70168 0
M  V30 1782 H 175.019 0.23103 5.26093 0
M  V30 1783 H 177.51 0.568038 3.73606 0
M  V30 1784 H 177.823 1.776 7.52116 0
M  V30 1785 H 176.168 1.59044 6.76557 0
M  V30 1786 H 179.359 0.786803 4.6144 0
M  V30 1787 H 179.532 1.33742 6.34048 0
M  V30 1788 N 172.938 -1.57226 0.108567 0
M  V30 1789 C 174.168 -1.9889 -0.559142 0
M  V30 1790 C 174.576 -0.986889 -1.61422 0
M  V30 1791 O 173.919 0.0298705 -1.83676 0
M  V30 1792 C 173.981 -3.36952 -1.25315 0
M  V30 1793 C 173.645 -4.55679 -0.347248 0
M  V30 1794 C 174.642 -5.18281 0.409996 0
M  V30 1795 C 172.327 -5.0162 -0.261367 0
M  V30 1796 C 174.321 -6.25203 1.24096 0
M  V30 1797 C 172.008 -6.08405 0.573238 0
M  V30 1798 C 173.006 -6.70063 1.32304 0
M  V30 1799 O 172.694 -7.74788 2.14381 0
M  V30 1800 H 172.426 -0.658343 -0.153492 0
M  V30 1801 H 174.98 -2.04532 0.188584 0
M  V30 1802 H 173.21 -3.28032 -2.04773 0
M  V30 1803 H 174.899 -3.62974 -1.81673 0
M  V30 1804 H 175.665 -4.8371 0.353457 0
M  V30 1805 H 171.544 -4.53381 -0.834656 0
M  V30 1806 H 175.088 -6.73259 1.82669 0
M  V30 1807 H 170.985 -6.42406 0.631208 0
M  V30 1808 H 171.753 -7.91837 2.07209 0
M  V30 1809 N 174.416 0.165178 -1.56732 0
M  V30 1810 C 175.346 1.20651 -1.99914 0
M  V30 1811 C 176.327 1.45827 -0.875705 0
M  V30 1812 O 177.512 1.57057 -1.14223 0
M  V30 1813 C 174.642 2.54401 -2.36427 0
M  V30 1814 C 173.596 2.43782 -3.51787 0
M  V30 1815 C 172.922 3.82078 -3.7406 0
M  V30 1816 C 174.222 1.93732 -4.85041 0
M  V30 1817 H 175.916 0.847534 -2.87154 0
M  V30 1818 H 173.462 0.40625 -1.38151 0
M  V30 1819 H 175.415 3.27458 -2.65234 0
M  V30 1820 H 174.139 2.92098 -1.46103 0
M  V30 1821 H 172.798 1.73178 -3.23117 0
M  V30 1822 H 172.446 4.17179 -2.81017 0
M  V30 1823 H 172.146 3.7584 -4.51684 0
M  V30 1824 H 173.67 4.56712 -4.05274 0
M  V30 1825 H 175.084 2.56569 -5.12684 0
M  V30 1826 H 173.481 1.98428 -5.66345 0
M  V30 1827 H 174.551 0.891962 -4.76626 0
M  V30 1828 N 175.894 1.51508 0.433938 0
M  V30 1829 C 176.857 1.72473 1.50949 0
M  V30 1830 C 177.857 0.594725 1.49398 0
M  V30 1831 O 179.047 0.862315 1.5136 0
M  V30 1832 C 176.179 1.78431 2.90474 0
M  V30 1833 H 177.372 2.68467 1.33662 0
M  V30 1834 H 174.925 1.41549 0.662836 0
M  V30 1835 H 175.66 0.842645 3.13161 0
M  V30 1836 H 175.445 2.60558 2.93005 0
M  V30 1837 H 176.935 1.96479 3.68491 0
M  V30 1838 N 177.372 -0.689602 1.41712 0
M  V30 1839 C 178.621 -1.44534 1.40686 0
M  V30 1840 C 178.934 -1.95588 0.0213352 0
M  V30 1841 O 180.14 -2.71271 -0.111534 0
M  V30 1842 C 178.596 -2.61387 2.47396 0
M  V30 1843 C 178.204 -2.17094 3.91885 0
M  V30 1844 C 179.948 -3.38986 2.55517 0
M  V30 1845 C 177.855 -3.3094 4.90135 0
M  V30 1846 H 176.785 -0.542925 0.52321 0
M  V30 1847 H 179.436 -0.748054 1.6756 0
M  V30 1848 H 177.818 -3.33412 2.13664 0
M  V30 1849 H 178.992 -1.52318 4.34897 0
M  V30 1850 H 177.307 -1.52473 3.8748 0
M  V30 1851 H 179.904 -4.23747 3.26102 0
M  V30 1852 H 180.247 -3.84578 1.59391 0
M  V30 1853 H 180.78 -2.74021 2.8837 0
M  V30 1854 H 177.519 -2.90355 5.87685 0
M  V30 1855 H 177.039 -3.94546 4.51767 0
M  V30 1856 H 178.718 -3.9663 5.11169 0
M  V30 1857 N 178.85 -1.27639 -0.924453 0
M  V30 1858 C 179.798 -1.10485 -2.04685 0
M  V30 1859 C 180.792 -0.0270421 -1.69378 0
M  V30 1860 O 181.998 -0.185008 -1.79047 0
M  V30 1861 H 178.373 -0.340546 -0.670472 0
M  V30 1862 H 180.344 -2.05566 -2.16298 0
M  V30 1863 C 179.093 -0.772229 -3.39016 0
M  V30 1864 H 178.416 -1.59351 -3.66671 0
M  V30 1865 H 179.856 -0.692097 -4.18313 0
M  V30 1866 C 178.315 0.523554 -3.32807 0
M  V30 1867 O 178.845 1.55702 -3.70297 0
M  V30 1868 N 177.051 0.520363 -2.85903 0
M  V30 1869 H 176.598 -0.32107 -2.55591 0
M  V30 1870 H 176.556 1.38742 -2.82131 0
M  V30 1871 N 180.328 1.1314 -1.09713 0
M  V30 1872 C 181.278 2.16709 -0.708593 0
M  V30 1873 C 182.262 1.58471 0.278523 0
M  V30 1874 O 183.454 1.76779 0.088427 0
M  V30 1875 C 180.583 3.43039 -0.133923 0
M  V30 1876 C 179.669 4.08277 -1.14763 0
M  V30 1877 N 180.06 4.48637 -2.33577 0
M  V30 1878 C 178.358 4.34954 -0.986446 0
M  V30 1879 C 179.059 4.9952 -2.98085 0
M  V30 1880 N 178.035 4.94561 -2.25632 0
M  V30 1881 H 181.837 2.45672 -1.61315 0
M  V30 1882 H 179.351 1.29967 -0.973775 0
M  V30 1883 H 181.348 4.16583 0.162465 0
M  V30 1884 H 180.008 3.15549 0.765447 0
M  V30 1885 H 181.019 4.41246 -2.7115 0
M  V30 1886 H 177.696 4.17258 -0.142008 0
M  V30 1887 H 179.086 5.40521 -3.99108 0
M  V30 1888 N 181.806 0.884767 1.30421 0
M  V30 1889 C 182.769 0.356277 2.26414 0
M  V30 1890 C 183.769 -0.501124 1.52792 0
M  V30 1891 O 184.959 -0.30831 1.7145 0
M  V30 1892 C 182.091 -0.492316 3.37326 0
M  V30 1893 H 183.284 1.20389 2.74675 0
M  V30 1894 H 180.837 0.661607 1.41607 0
M  V30 1895 H 181.572 -1.36052 2.94381 0
M  V30 1896 H 181.357 0.121832 3.91911 0
M  V30 1897 H 182.847 -0.853871 4.08777 0
M  V30 1898 N 183.284 -1.43765 0.645699 0
M  V30 1899 C 184.514 -2.05953 0.163318 0
M  V30 1900 C 184.922 -1.48432 -1.17322 0
M  V30 1901 O 184.265 -0.607295 -1.73371 0
M  V30 1902 C 184.327 -3.59499 -0.0103065 0
M  V30 1903 C 183.991 -4.39563 1.25035 0
M  V30 1904 C 184.988 -4.72108 2.17739 0
M  V30 1905 C 182.673 -4.79697 1.48983 0
M  V30 1906 C 184.667 -5.43688 3.3269 0
M  V30 1907 C 182.354 -5.51023 2.64229 0
M  V30 1908 C 183.352 -5.8294 3.55908 0
M  V30 1909 O 183.04 -6.5281 4.69142 0
M  V30 1910 H 182.772 -0.670798 0.0836986 0
M  V30 1911 H 185.326 -1.85384 0.884407 0
M  V30 1912 H 183.556 -3.78613 -0.78669 0
M  V30 1913 H 185.245 -4.03408 -0.449087 0
M  V30 1914 H 186.011 -4.41627 2.00476 0
M  V30 1915 H 181.89 -4.54266 0.785078 0
M  V30 1916 H 185.434 -5.68517 4.04269 0
M  V30 1917 H 181.331 -5.8092 2.81429 0
M  V30 1918 H 182.099 -6.71288 4.6831 0
M  V30 1919 N 184.763 -0.387143 -1.52771 0
M  V30 1920 C 186.01 0.195735 -2.01552 0
M  V30 1921 C 186.338 1.46995 -1.27369 0
M  V30 1922 O 185.593 1.92325 -0.361879 0
M  V30 1923 C 185.892 0.512209 -3.53711 0
M  V30 1924 C 185.558 -0.670202 -4.45891 0
M  V30 1925 C 184.22 -0.994586 -4.70809 0
M  V30 1926 C 186.572 -1.46134 -5.00294 0
M  V30 1927 C 183.9 -2.11169 -5.4738 0
M  V30 1928 C 186.252 -2.56903 -5.78086 0
M  V30 1929 C 184.916 -2.89852 -6.01284 0
M  V30 1930 H 184.186 0.0716246 -0.73753 0
M  V30 1931 H 186.833 -0.524046 -1.8419 0
M  V30 1932 H 185.138 1.31329 -3.69134 0
M  V30 1933 H 186.835 0.975804 -3.88946 0
M  V30 1934 H 183.425 -0.407366 -4.2666 0
M  V30 1935 H 187.609 -1.22397 -4.80971 0
M  V30 1936 H 182.865 -2.3707 -5.63567 0
M  V30 1937 H 187.039 -3.18608 -6.19243 0
M  V30 1938 H 184.666 -3.76533 -6.60399 0
M  V30 1939 N 186.241 1.57166 -0.116904 0
M  V30 1940 C 187.471 1.99184 0.548586 0
M  V30 1941 C 187.879 0.995436 1.60897 0
M  V30 1942 O 187.222 -0.0201293 1.83689 0
M  V30 1943 C 187.284 3.37611 1.23526 0
M  V30 1944 C 186.948 4.55857 0.323077 0
M  V30 1945 C 187.945 5.18056 -0.437476 0
M  V30 1946 C 185.63 5.01751 0.234761 0
M  V30 1947 C 187.624 6.24536 -1.2741 0
M  V30 1948 C 185.311 6.08093 -0.605496 0
M  V30 1949 C 186.309 6.69352 -1.35856 0
M  V30 1950 O 185.997 7.7364 -2.18487 0
M  V30 1951 H 185.729 0.659148 0.149999 0
M  V30 1952 H 188.283 2.0443 -0.199428 0
M  V30 1953 H 186.513 3.29113 2.0303 0
M  V30 1954 H 188.202 3.63932 1.79745 0
M  V30 1955 H 188.968 4.83516 -0.379105 0
M  V30 1956 H 184.847 4.53817 0.810601 0
M  V30 1957 H 188.391 6.72281 -1.86237 0
M  V30 1958 H 184.288 6.42063 -0.665268 0
M  V30 1959 H 185.056 7.90727 -2.11406 0
M  V30 1960 N 187.719 -0.156864 1.56817 0
M  V30 1961 C 188.944 -0.890331 1.87318 0
M  V30 1962 C 189.369 -1.74394 0.704855 0
M  V30 1963 O 188.727 -1.77972 -0.345786 0
M  V30 1964 C 188.775 -1.73102 3.16336 0
M  V30 1965 O 187.879 -2.83422 2.99576 0
M  V30 1966 H 187.22 -0.24857 0.615718 0
M  V30 1967 H 189.75 -0.150649 2.04045 0
M  V30 1968 H 189.76 -2.12803 3.48107 0
M  V30 1969 H 188.435 -1.10412 4.00976 0
M  V30 1970 H 187.012 -2.47199 2.7919 0
M  V30 1971 N 189.197 -1.51736 -0.425897 0
M  V30 1972 C 190.147 -1.70258 -1.51645 0
M  V30 1973 C 191.131 -0.556488 -1.5097 0
M  V30 1974 O 192.323 -0.812879 -1.5723 0
M  V30 1975 C 189.452 -1.84143 -2.89735 0
M  V30 1976 C 188.538 -3.04572 -2.95122 0
M  V30 1977 N 188.929 -4.2756 -2.70233 0
M  V30 1978 C 187.227 -3.04061 -3.26286 0
M  V30 1979 C 187.928 -5.08908 -2.81757 0
M  V30 1980 N 186.904 -4.43797 -3.13919 0
M  V30 1981 H 190.706 -2.63004 -1.31172 0
M  V30 1982 H 188.22 -1.4954 -0.633375 0
M  V30 1983 H 190.217 -1.95525 -3.68206 0
M  V30 1984 H 188.877 -0.925857 -3.1122 0
M  V30 1985 H 189.888 -4.56315 -2.44943 0
M  V30 1986 H 186.565 -2.22179 -3.53473 0
M  V30 1987 H 187.955 -6.16843 -2.66372 0
M  V30 1988 N 190.675 0.682077 -1.42076 0
M  V30 1989 C 191.905 1.46844 -1.45329 0
M  V30 1990 C 192.313 1.89102 -0.0609328 0
M  V30 1991 O 191.656 1.58238 0.933082 0
M  V30 1992 C 191.718 2.75375 -2.31104 0
M  V30 1993 C 191.382 2.55238 -3.79081 0
M  V30 1994 C 192.379 2.20309 -4.70914 0
M  V30 1995 C 190.064 2.70459 -4.2327 0
M  V30 1996 C 192.058 2.00859 -6.04925 0
M  V30 1997 C 189.745 2.50624 -5.57343 0
M  V30 1998 C 190.743 2.15876 -6.47986 0
M  V30 1999 O 190.431 1.96227 -7.79583 0
M  V30 2000 H 190.163 0.4586 -0.496651 0
M  V30 2001 H 192.717 0.846131 -1.87162 0
M  V30 2002 H 190.947 3.40061 -1.84107 0
M  V30 2003 H 192.636 3.37231 -2.25898 0
M  V30 2004 H 193.402 2.08153 -4.38061 0
M  V30 2005 H 189.281 2.96485 -3.53012 0
M  V30 2006 H 192.825 1.7366 -6.75639 0
M  V30 2007 H 188.722 2.62375 -5.89771 0
M  V30 2008 H 189.49 2.10883 -7.90867 0
M  V30 2009 N 192.153 1.28127 0.917671 0
M  V30 2010 C 193.399 1.15223 1.66888 0
M  V30 2011 C 193.732 -0.299293 1.9188 0
M  V30 2012 O 193.007 -1.21805 1.51637 0
M  V30 2013 C 193.29 1.94706 3.02922 0
M  V30 2014 C 193.143 3.47898 2.85109 0
M  V30 2015 C 194.462 1.75939 4.03402 0
M  V30 2016 H 191.581 0.419946 0.605652 0
M  V30 2017 H 194.223 1.57398 1.06423 0
M  V30 2018 H 192.373 1.58864 3.54534 0
M  V30 2019 H 194.045 3.93624 2.40537 0
M  V30 2020 H 192.288 3.7373 2.20246 0
M  V30 2021 H 192.959 3.98765 3.81694 0
M  V30 2022 H 195.435 2.07209 3.60837 0
M  V30 2023 H 194.311 2.33931 4.96556 0
M  V30 2024 H 194.572 0.709877 4.36364 0
M  V30 2025 N 193.631 -1.12557 1.10312 0
M  V30 2026 C 194.908 -1.80363 0.756878 0
M  V30 2027 C 195.288 -1.97067 -0.756824 0
M  V30 2028 O 194.636 -1.54601 -1.68259 0
M  V30 2029 C 194.846 -3.14812 1.50647 0
M  V30 2030 C 196.194 -3.90029 1.67817 0
M  V30 2031 O 197.218 -3.24464 1.46974 0
M  V30 2032 O 196.077 -5.07652 2.02365 0
M  V30 2033 H 193.171 -0.780667 0.272926 0
M  V30 2034 H 195.717 -1.19404 1.20586 0
M  V30 2035 H 194.489 -2.97936 2.53672 0
M  V30 2036 H 194.112 -3.83478 1.05026 0
M  V30 2037 N 195.109 -0.891671 -1.2995 0
M  V30 2038 C 196.056 -0.361736 -2.27948 0
M  V30 2039 C 197.026 0.551761 -1.56668 0
M  V30 2040 O 198.211 0.478736 -1.84696 0
M  V30 2041 C 195.351 0.411825 -3.42634 0
M  V30 2042 C 194.464 -0.531651 -4.28716 0
M  V30 2043 C 193.599 0.258167 -5.30572 0
M  V30 2044 C 192.638 -0.680349 -6.08307 0
M  V30 2045 N 191.775 0.0745613 -7.0206 0
M  V30 2046 H 196.615 -1.20254 -2.72659 0
M  V30 2047 H 194.152 -0.604352 -1.34112 0
M  V30 2048 H 196.11 0.876304 -4.07893 0
M  V30 2049 H 194.74 1.21715 -2.98974 0
M  V30 2050 H 193.792 -1.11463 -3.63703 0
M  V30 2051 H 195.104 -1.25038 -4.82874 0
M  V30 2052 H 194.258 0.784204 -6.0161 0
M  V30 2053 H 192.997 1.01008 -4.77126 0
M  V30 2054 H 192.002 -1.21796 -5.3614 0
M  V30 2055 H 193.227 -1.43145 -6.63842 0
M  V30 2056 H 191.173 0.808883 -6.50994 0
M  V30 2057 H 191.09 -0.584409 -7.53738 0
M  V30 2058 H 192.358 0.581123 -7.77331 0
M  V30 2059 N 196.587 1.43421 -0.653314 0
M  V30 2060 C 198.003 1.56341 -0.320886 0
M  V30 2061 C 198.203 1.63696 1.17499 0
M  V30 2062 O 197.259 1.59208 1.95982 0
M  V30 2063 C 198.572 2.82424 -1.03233 0
M  V30 2064 C 200.12 2.96168 -1.01259 0
M  V30 2065 C 200.595 4.25084 -1.70492 0
M  V30 2066 N 202.086 4.31948 -1.67257 0
M  V30 2067 C 202.821 5.30466 -2.17701 0
M  V30 2068 N 202.317 6.35261 -2.76434 0
M  V30 2069 N 204.11 5.2212 -2.082 0
M  V30 2070 H 196.261 1.3689 -1.62403 0
M  V30 2071 H 198.524 0.657455 -0.682977 0
M  V30 2072 H 198.23 2.83053 -2.08744 0
M  V30 2073 H 198.104 3.72653 -0.583948 0
M  V30 2074 H 200.491 2.9508 0.0341235 0
M  V30 2075 H 200.572 2.07229 -1.49966 0
M  V30 2076 H 200.216 4.26932 -2.7512 0
M  V30 2077 H 200.146 5.1292 -1.19251 0
M  V30 2078 H 202.637 3.56838 -1.24398 0
M  V30 2079 H 202.95 7.06754 -3.12601 0
M  V30 2080 H 201.295 6.35884 -2.80495 0
M  V30 2081 H 204.486 4.39166 -1.62021 0
M  V30 2082 H 204.659 5.98739 -2.47822 0
M  V30 2083 N 198.065 0.39524 1.52563 0
M  V30 2084 C 198.995 -0.428384 2.29537 0
M  V30 2085 C 199.976 -1.05831 1.33169 0
M  V30 2086 O 201.161 -1.06995 1.62067 0
M  V30 2087 C 198.291 -1.55274 3.10656 0
M  V30 2088 C 197.245 -1.04855 4.14957 0
M  V30 2089 C 196.571 -2.26543 4.84337 0
M  V30 2090 C 197.871 -0.112324 5.22179 0
M  V30 2091 H 199.565 0.213867 2.98635 0
M  V30 2092 H 197.111 0.104298 1.43622 0
M  V30 2093 H 199.064 -2.1358 3.63265 0
M  V30 2094 H 197.788 -2.22266 2.39302 0
M  V30 2095 H 196.447 -0.487985 3.63338 0
M  V30 2096 H 196.095 -2.92059 4.09525 0
M  V30 2097 H 195.795 -1.93466 5.54837 0
M  V30 2098 H 197.319 -2.85481 5.39753 0
M  V30 2099 H 198.733 -0.603752 5.70112 0
M  V30 2100 H 197.13 0.128968 5.99961 0
M  V30 2101 H 198.2 0.837052 4.77621 0
M  V30 2102 N 199.544 -1.57102 0.125237 0
M  V30 2103 C 200.507 -2.14471 -0.80838 0
M  V30 2104 C 201.507 -1.0811 -1.19033 0
M  V30 2105 O 202.697 -1.33856 -1.11482 0
M  V30 2106 C 199.829 -2.69005 -2.09402 0
M  V30 2107 H 201.022 -2.98297 -0.309696 0
M  V30 2108 H 198.575 -1.55807 -0.124051 0
M  V30 2109 H 199.31 -1.88785 -2.63687 0
M  V30 2110 H 199.095 -3.46799 -1.82957 0
M  V30 2111 H 200.585 -3.13278 -2.76128 0
M  V30 2112 N 201.022 0.148545 -1.56898 0
M  V30 2113 C 202.27 0.859717 -1.82902 0
M  V30 2114 C 202.591 1.81775 -0.70588 0
M  V30 2115 O 201.861 1.93994 0.272586 0
M  V30 2116 H 200.441 0.320469 -0.674766 0
M  V30 2117 H 203.103 0.142918 -1.94375 0
M  V30 2118 H 202.199 1.4229 -2.77777 0
M  V30 2119 N 202.5 1.5196 0.417844 0
M  V30 2120 C 203.43 1.77634 1.51554 0
M  V30 2121 C 204.411 0.626918 1.58126 0
M  V30 2122 O 205.596 0.871632 1.7354 0
M  V30 2123 C 202.726 1.91911 2.8946 0
M  V30 2124 C 201.68 3.07463 2.97743 0
M  V30 2125 C 201.006 3.06951 4.37819 0
M  V30 2126 C 202.306 4.47082 2.70027 0
M  V30 2127 H 204 2.6955 1.3032 0
M  V30 2128 H 201.546 1.29706 0.625492 0
M  V30 2129 H 203.499 2.08455 3.6623 0
M  V30 2130 H 202.223 0.966598 3.11969 0
M  V30 2131 H 200.882 2.90656 2.23416 0
M  V30 2132 H 200.53 2.09438 4.57323 0
M  V30 2133 H 200.23 3.84556 4.44286 0
M  V30 2134 H 201.754 3.25613 5.16535 0
M  V30 2135 H 203.168 4.6414 3.36522 0
M  V30 2136 H 201.565 5.2654 2.87881 0
M  V30 2137 H 202.635 4.55777 1.65514 0
M  V30 2138 N 203.978 -0.674533 1.42435 0
M  V30 2139 C 205.206 -1.46283 1.46317 0
M  V30 2140 C 205.621 -1.88653 0.0745836 0
M  V30 2141 O 204.978 -1.58151 -0.91074 0
M  V30 2142 C 205.029 -2.71178 2.3905 0
M  V30 2143 O 204.75 -2.30586 3.72507 0
M  V30 2144 C 206.251 -3.64738 2.51955 0
M  V30 2145 H 203.471 -0.450104 0.497642 0
M  V30 2146 H 206.015 -0.828792 1.86953 0
M  V30 2147 H 204.17 -3.3077 2.01667 0
M  V30 2148 H 204.584 -3.11241 4.22172 0
M  V30 2149 H 206.058 -4.49096 3.20962 0
M  V30 2150 H 206.535 -4.10656 1.55752 0
M  V30 2151 H 207.141 -3.11038 2.90061 0
M  V30 2152 N 205.456 -1.28612 -0.910864 0
M  V30 2153 C 206.386 -1.15326 -2.03032 0
M  V30 2154 C 207.367 -0.0502924 -1.70026 0
M  V30 2155 O 208.552 -0.227797 -1.92859 0
M  V30 2156 C 205.682 -0.817343 -3.37545 0
M  V30 2157 C 204.636 -1.8754 -3.84724 0
M  V30 2158 C 203.962 -1.39305 -5.16235 0
M  V30 2159 C 205.262 -3.28244 -4.06267 0
M  V30 2160 H 206.956 -2.08975 -2.14406 0
M  V30 2161 H 204.502 -1.00612 -1.03021 0
M  V30 2162 H 206.455 -0.711151 -4.15356 0
M  V30 2163 H 205.179 0.154846 -3.26233 0
M  V30 2164 H 203.838 -1.97079 -3.09121 0
M  V30 2165 H 203.486 -0.409846 -5.01328 0
M  V30 2166 H 203.186 -2.10057 -5.48771 0
M  V30 2167 H 204.71 -1.30014 -5.96598 0
M  V30 2168 H 206.124 -3.21611 -4.74594 0
M  V30 2169 H 204.521 -3.96855 -4.5014 0
M  V30 2170 H 205.591 -3.72048 -3.10979 0
M  V30 2171 N 206.934 1.1197 -1.10907 0
M  V30 2172 C 208.181 1.83588 -0.854507 0
M  V30 2173 C 208.509 1.84357 0.6199 0
M  V30 2174 O 207.764 1.28809 1.47332 0
M  V30 2175 C 208.063 3.30749 -1.35425 0
M  V30 2176 C 207.729 3.50146 -2.84093 0
M  V30 2177 C 206.391 3.55148 -3.2469 0
M  V30 2178 C 208.743 3.56857 -3.79872 0
M  V30 2179 C 206.071 3.6441 -4.59806 0
M  V30 2180 C 208.423 3.6765 -5.14797 0
M  V30 2181 C 207.087 3.7091 -5.54961 0
M  V30 2182 H 206.357 0.671795 -0.312686 0
M  V30 2183 H 209.004 1.32091 -1.38652 0
M  V30 2184 H 207.309 3.84703 -0.742361 0
M  V30 2185 H 209.006 3.8464 -1.1337 0
M  V30 2186 H 205.596 3.46919 -2.51685 0
M  V30 2187 H 209.78 3.52258 -3.49611 0
M  V30 2188 H 205.036 3.65208 -4.9034 0
M  V30 2189 H 209.21 3.71786 -5.88853 0
M  V30 2190 H 206.837 3.7784 -6.59652 0
M  V30 2191 N 208.412 0.89855 1.29475 0
M  V30 2192 C 209.375 0.380272 2.26023 0
M  V30 2193 C 210.375 -0.484891 1.53315 0
M  V30 2194 O 211.565 -0.290108 1.71767 0
M  V30 2195 C 208.697 -0.45651 3.3783 0
M  V30 2196 H 209.89 1.23295 2.73383 0
M  V30 2197 H 207.443 0.676589 1.40897 0
M  V30 2198 H 208.178 -1.32922 2.95808 0
M  V30 2199 H 207.963 0.163393 3.91759 0
M  V30 2200 H 209.453 -0.810466 4.0966 0
M  V30 2201 N 209.89 -1.43072 0.660911 0
M  V30 2202 C 211.136 -2.0202 0.177708 0
M  V30 2203 C 211.469 -1.52066 -1.20787 0
M  V30 2204 O 210.744 -0.716987 -1.80802 0
M  V30 2205 C 211.027 -3.59561 0.197019 0
M  V30 2206 C 210.88 -4.19727 1.61706 0
M  V30 2207 C 212.199 -4.37664 -0.462396 0
M  V30 2208 H 209.318 -0.734034 0.0660494 0
M  V30 2209 H 211.96 -1.70272 0.843058 0
M  V30 2210 H 210.11 -3.86739 -0.369527 0
M  V30 2211 H 211.782 -4.03553 2.23479 0
M  V30 2212 H 210.025 -3.76084 2.16201 0
M  V30 2213 H 210.696 -5.28834 1.58237 0
M  V30 2214 H 213.172 -4.16095 0.0197215 0
M  V30 2215 H 212.048 -5.47305 -0.418188 0
M  V30 2216 H 212.309 -4.14493 -1.53778 0
M  V30 2217 N 211.368 -0.403325 -1.52352 0
M  V30 2218 C 212.598 0.17376 -2.05868 0
M  V30 2219 C 213.006 1.39898 -1.27378 0
M  V30 2220 O 212.349 1.80939 -0.31729 0
M  V30 2221 C 212.411 0.594756 -3.54546 0
M  V30 2222 C 212.075 -0.518926 -4.54044 0
M  V30 2223 C 213.072 -1.3807 -5.01231 0
M  V30 2224 C 210.757 -0.689961 -4.97539 0
M  V30 2225 C 212.751 -2.39852 -5.90551 0
M  V30 2226 C 210.438 -1.71109 -5.86656 0
M  V30 2227 C 211.436 -2.56378 -6.33056 0
M  V30 2228 O 211.124 -3.56743 -7.20409 0
M  V30 2229 H 210.856 0.0264951 -0.675481 0
M  V30 2230 H 213.41 -0.571179 -1.97299 0
M  V30 2231 H 211.64 1.39189 -3.60782 0
M  V30 2232 H 213.329 1.0991 -3.90736 0
M  V30 2233 H 214.095 -1.25994 -4.68349 0
M  V30 2234 H 209.974 -0.035939 -4.60986 0
M  V30 2235 H 213.518 -3.06441 -6.26689 0
M  V30 2236 H 209.415 -1.83218 -6.18952 0
M  V30 2237 H 210.183 -3.52918 -7.38506 0
M  V30 2238 N 212.846 1.57033 -0.133567 0
M  V30 2239 C 213.809 2.14897 0.796995 0
M  V30 2240 C 214.809 1.0874 1.18458 0
M  V30 2241 O 215.999 1.34446 1.1077 0
M  V30 2242 C 213.131 2.70112 2.07973 0
M  V30 2243 H 214.324 2.98457 0.293873 0
M  V30 2244 H 211.877 1.55871 0.115787 0
M  V30 2245 H 212.612 1.9018 2.62682 0
M  V30 2246 H 212.397 3.47764 1.81115 0
M  V30 2247 H 213.887 3.14738 2.74462 0
M  V30 2248 N 214.325 -0.140222 1.56975 0
M  V30 2249 C 215.55 -0.870414 1.88251 0
M  V30 2250 C 215.975 -1.73637 0.723312 0
M  V30 2251 O 215.333 -1.78329 -0.32689 0
M  V30 2252 C 215.381 -1.69737 3.18154 0
M  V30 2253 O 214.485 -2.80229 3.02565 0
M  V30 2254 H 213.826 -0.242025 0.61832 0
M  V30 2255 H 216.356 -0.128999 2.04193 0
M  V30 2256 H 216.366 -2.09099 3.50345 0
M  V30 2257 H 215.041 -1.06152 4.02125 0
M  V30 2258 H 213.618 -2.44224 2.81796 0
M  V30 2259 N 215.803 -1.52179 -0.40978 0
M  V30 2260 C 216.751 -1.76086 -1.51975 0
M  V30 2261 C 217.745 -0.627964 -1.57331 0
M  V30 2262 O 218.951 -0.809993 -1.60745 0
M  V30 2263 H 215.326 -0.556829 -0.505416 0
M  V30 2264 H 217.297 -2.69077 -1.28996 0
M  V30 2265 C 216.046 -1.92799 -2.8935 0
M  V30 2266 H 215.369 -2.79392 -2.85972 0
M  V30 2267 H 216.809 -2.13527 -3.66309 0
M  V30 2268 C 215.268 -0.694923 -3.29655 0
M  V30 2269 O 215.798 0.13751 -4.01465 0
M  V30 2270 N 214.004 -0.53101 -2.85707 0
M  V30 2271 H 213.551 -1.20952 -2.27439 0
M  V30 2272 H 213.509 0.292718 -3.13034 0
M  V30 2273 N 217.281 0.66697 -1.42791 0
M  V30 2274 C 218.527 1.4291 -1.43891 0
M  V30 2275 C 218.86 1.94114 -0.0578972 0
M  V30 2276 O 218.135 1.71414 0.91911 0
M  V30 2277 C 218.418 2.62049 -2.46987 0
M  V30 2278 C 218.271 2.16426 -3.94309 0
M  V30 2279 C 219.59 3.64266 -2.46978 0
M  V30 2280 H 216.709 0.518306 -0.523954 0
M  V30 2281 H 219.351 0.757321 -1.74255 0
M  V30 2282 H 217.501 3.19361 -2.21225 0
M  V30 2283 H 219.173 1.64221 -4.31079 0
M  V30 2284 H 217.416 1.47925 -4.078 0
M  V30 2285 H 218.087 3.02038 -4.62036 0
M  V30 2286 H 220.563 3.16686 -2.69906 0
M  V30 2287 H 219.439 4.45196 -3.21079 0
M  V30 2288 H 219.7 4.15927 -1.49857 0
M  V30 2289 N 218.759 1.29093 0.90403 0
M  V30 2290 C 219.689 1.16401 2.02418 0
M  V30 2291 C 220.67 0.0593085 1.69997 0
M  V30 2292 O 221.855 0.238021 1.92736 0
M  V30 2293 C 218.985 0.835233 3.37107 0
M  V30 2294 C 217.939 1.89578 3.83724 0
M  V30 2295 C 217.265 1.42041 5.15489 0
M  V30 2296 C 218.565 3.30394 4.04521 0
M  V30 2297 H 220.259 2.10109 2.13295 0
M  V30 2298 H 217.805 1.01157 1.02486 0
M  V30 2299 H 219.758 0.733169 4.14973 0
M  V30 2300 H 218.482 -0.137543 3.2631 0
M  V30 2301 H 217.141 1.98715 3.08071 0
M  V30 2302 H 216.789 0.436426 5.01103 0
M  V30 2303 H 216.489 2.12964 5.4765 0
M  V30 2304 H 218.013 1.33176 5.959 0
M  V30 2305 H 219.427 3.24123 4.72882 0
M  V30 2306 H 217.824 3.99237 4.48029 0
M  V30 2307 H 218.894 3.73692 3.09002 0
M  V30 2308 N 220.237 -1.11381 1.11499 0
M  V30 2309 C 221.484 -1.83132 0.864231 0
M  V30 2310 C 221.812 -1.84683 -0.610114 0
M  V30 2311 O 221.067 -1.29589 -1.46646 0
M  V30 2312 C 221.366 -3.30026 1.37177 0
M  V30 2313 C 221.032 -3.48634 2.85946 0
M  V30 2314 C 219.694 -3.53421 3.26569 0
M  V30 2315 C 222.046 -3.54837 3.81759 0
M  V30 2316 C 219.374 -3.61967 4.61733 0
M  V30 2317 C 221.726 -3.64915 5.1674 0
M  V30 2318 C 220.39 -3.67962 5.5692 0
M  V30 2319 H 219.66 -0.670127 0.316245 0
M  V30 2320 H 222.307 -1.31354 1.3935 0
M  V30 2321 H 220.612 -3.84304 0.762753 0
M  V30 2322 H 222.309 -3.84034 1.15408 0
M  V30 2323 H 218.899 -3.45579 2.53521 0
M  V30 2324 H 223.083 -3.50399 3.51474 0
M  V30 2325 H 218.339 -3.62603 4.92269 0
M  V30 2326 H 222.513 -3.68658 5.90816 0
M  V30 2327 H 220.14 -3.74336 6.61647 0
M  V30 2328 N 221.715 -0.905404 -1.28997 0
M  V30 2329 C 222.955 -0.541232 -1.97104 0
M  V30 2330 C 223.319 0.896841 -1.69767 0
M  V30 2331 O 224.52 1.36817 -2.31375 0
M  V30 2332 C 222.791 -0.832134 -3.47578 0
M  V30 2333 S 224.35 -0.573127 -4.35041 0
M  V30 2334 H 221.168 -0.200576 -0.682122 0
M  V30 2335 H 223.77 -1.16906 -1.56694 0
M  V30 2336 H 222.474 -1.87687 -3.64968 0
M  V30 2337 H 222.005 -0.192636 -3.92928 0
M  V30 2338 H 224.02 0.579297 -4.92807 0
M  V30 2339 N 223.193 1.4272 -0.668489 0
M  V30 2340 C 224.156 2.292 0.00448567 0
M  V30 2341 C 225.156 1.43001 0.735339 0
M  V30 2342 O 226.346 1.64461 0.57429 0
M  V30 2343 C 223.478 3.25375 1.01705 0
M  V30 2344 H 224.671 2.90199 -0.756608 0
M  V30 2345 H 222.224 1.50254 -0.430506 0
M  V30 2346 H 222.959 2.69301 1.80686 0
M  V30 2347 H 222.744 3.88944 0.496463 0
M  V30 2348 H 224.234 3.90245 1.48655 0
M  V30 2349 N 224.671 0.411399 1.52136 0
M  V30 2350 C 225.601 -0.404015 2.29978 0
M  V30 2351 C 226.582 -1.04412 1.34284 0
M  V30 2352 O 227.767 -1.0527 1.63192 0
M  V30 2353 C 224.897 -1.5197 3.12286 0
M  V30 2354 C 223.851 -1.00448 4.16046 0
M  V30 2355 C 223.177 -2.21393 4.86712 0
M  V30 2356 C 224.477 -0.0569336 5.22269 0
M  V30 2357 H 226.171 0.245529 2.98392 0
M  V30 2358 H 223.717 0.119525 1.43503 0
M  V30 2359 H 225.67 -2.09715 3.6551 0
M  V30 2360 H 224.394 -2.19716 2.41646 0
M  V30 2361 H 223.053 -0.449421 3.63835 0
M  V30 2362 H 222.701 -2.87699 4.12599 0
M  V30 2363 H 222.401 -1.87571 5.56858 0
M  V30 2364 H 223.925 -2.7974 5.4275 0
M  V30 2365 H 225.339 -0.54325 5.7072 0
M  V30 2366 H 223.736 0.192594 5.99791 0
M  V30 2367 H 224.806 0.887663 4.76706 0
M  V30 2368 N 226.149 -1.5696 0.141893 0
M  V30 2369 C 227.56 -1.82797 -0.379776 0
M  V30 2370 C 227.911 -1.06033 -1.6508 0
M  V30 2371 O 227.036 -0.304011 -2.14254 0
M  V30 2372 C 227.631 -3.31578 -0.695802 0
M  V30 2373 C 226.19 -3.58014 -1.16201 0
M  V30 2374 C 225.337 -2.76699 -0.182455 0
M  V30 2375 H 228.288 -1.54406 0.366675 0
M  V30 2376 H 228.309 -3.47454 -1.55099 0
M  V30 2377 H 227.821 -3.87421 0.229449 0
M  V30 2378 H 225.922 -3.07553 -2.10338 0
M  V30 2379 H 226.035 -4.66501 -1.09151 0
M  V30 2380 H 224.399 -2.45618 -0.674072 0
M  V30 2381 H 225.182 -3.35311 0.736297 0
M  V30 2382 N 227.627 0.131896 -1.57047 0
M  V30 2383 C 228.575 1.18146 -2.0036 0
M  V30 2384 C 229.569 1.43614 -0.898406 0
M  V30 2385 O 230.775 1.43729 -1.08361 0
M  V30 2386 H 227.15 0.398042 -0.638018 0
M  V30 2387 H 229.121 0.789564 -2.87765 0
M  V30 2388 C 227.87 2.50341 -2.41298 0
M  V30 2389 H 227.193 2.31578 -3.25902 0
M  V30 2390 H 228.633 3.22371 -2.75414 0
M  V30 2391 C 227.092 3.11984 -1.27153 0
M  V30 2392 O 227.622 3.97484 -0.580459 0
M  V30 2393 N 225.828 2.71662 -1.03189 0
M  V30 2394 H 225.375 2.02231 -1.59564 0
M  V30 2395 H 225.333 3.13238 -0.270077 0
M  V30 2396 N 229.106 1.52395 0.401703 0
M  V30 2397 C 230.039 1.70999 1.51111 0
M  V30 2398 C 231.017 0.55765 1.52738 0
M  V30 2399 O 232.201 0.785912 1.71335 0
M  V30 2400 C 229.328 1.75607 2.8962 0
M  V30 2401 C 228.374 2.97227 3.05873 0
M  V30 2402 S 229.207 4.57439 2.78405 0
M  V30 2403 C 230.363 4.64844 4.19131 0
M  V30 2404 H 230.596 2.6483 1.35102 0
M  V30 2405 H 228.129 1.42527 0.593762 0
M  V30 2406 H 230.087 1.78947 3.69443 0
M  V30 2407 H 228.748 0.828914 3.02965 0
M  V30 2408 H 227.941 2.96955 4.07227 0
M  V30 2409 H 227.543 2.91813 2.33925 0
M  V30 2410 H 229.835 4.42677 5.12877 0
M  V30 2411 H 230.778 5.66807 4.24424 0
M  V30 2412 H 231.186 3.93804 4.04448 0
M  V30 2413 N 230.584 -0.659388 1.43143 0
M  V30 2414 C 231.832 -1.41654 1.44147 0
M  V30 2415 C 232.153 -1.94893 0.0645739 0
M  V30 2416 O 231.423 -1.74044 -0.899198 0
M  V30 2417 H 230.003 -0.525708 0.530697 0
M  V30 2418 H 232.665 -0.778097 1.78694 0
M  V30 2419 H 231.761 -2.26195 2.1504 0
M  V30 2420 N 232.062 -1.29571 -0.897171 0
M  V30 2421 C 232.992 -1.17473 -2.01798 0
M  V30 2422 C 233.973 -0.068323 -1.69963 0
M  V30 2423 O 235.158 -0.248239 -1.92607 0
M  V30 2424 C 232.288 -0.853099 -3.36659 0
M  V30 2425 C 231.242 -1.9161 -3.82713 0
M  V30 2426 C 230.568 -1.44773 -5.14728 0
M  V30 2427 C 231.868 -3.32535 -4.02763 0
M  V30 2428 H 233.562 -2.11237 -2.12177 0
M  V30 2429 H 231.108 -1.01699 -1.01948 0
M  V30 2430 H 233.061 -0.755165 -4.14578 0
M  V30 2431 H 231.785 0.120236 -3.26379 0
M  V30 2432 H 230.444 -2.00346 -3.07013 0
M  V30 2433 H 230.092 -0.462995 -5.00865 0
M  V30 2434 H 229.792 -2.15865 -5.46513 0
M  V30 2435 H 231.316 -1.36334 -5.95185 0
M  V30 2436 H 232.73 -3.26626 -4.71156 0
M  V30 2437 H 231.127 -4.01607 -4.45905 0
M  V30 2438 H 232.197 -3.75326 -3.07016 0
M  V30 2439 N 233.54 1.10788 -1.12088 0
M  V30 2440 C 234.788 1.8231 -0.872205 0
M  V30 2441 C 235.109 1.85419 0.603709 0
M  V30 2442 O 234.379 1.32963 1.43867 0
M  V30 2443 H 232.959 0.675137 -0.319686 0
M  V30 2444 H 235.621 1.34068 -1.41463 0
M  V30 2445 H 234.717 2.85955 -1.25045 0
M  V30 2446 N 235.018 0.912232 1.28515 0
M  V30 2447 C 236.243 0.559774 1.99703 0
M  V30 2448 C 236.668 -0.851393 1.67729 0
M  V30 2449 O 236.026 -1.56875 0.908834 0
M  V30 2450 C 236.074 0.773874 3.52198 0
M  V30 2451 O 235.178 -0.167842 4.12058 0
M  V30 2452 H 234.519 0.21723 0.627461 0
M  V30 2453 H 237.049 1.22725 1.63706 0
M  V30 2454 H 237.059 0.683386 4.02236 0
M  V30 2455 H 235.734 1.80261 3.74805 0
M  V30 2456 H 234.311 -0.0287509 3.72889 0
M  V30 2457 N 236.496 -1.42363 0.676048 0
M  V30 2458 C 237.721 -2.06377 0.205705 0
M  V30 2459 C 238.146 -1.50463 -1.12883 0
M  V30 2460 O 237.504 -0.623619 -1.70237 0
M  V30 2461 C 237.552 -3.60277 0.152655 0
M  V30 2462 O 236.656 -4.02935 -0.87845 0
M  V30 2463 H 235.997 -0.655588 0.105359 0
M  V30 2464 H 238.527 -1.82475 0.925412 0
M  V30 2465 H 238.537 -4.07993 -0.0230675 0
M  V30 2466 H 237.212 -4.00346 1.12675 0
M  V30 2467 H 235.789 -3.66764 -0.673668 0
M  V30 2468 N 237.974 -0.419461 -1.51915 0
M  V30 2469 C 239.39 -0.0708431 -1.59443 0
M  V30 2470 C 239.59 1.41796 -1.43164 0
M  V30 2471 O 238.646 2.18596 -1.26381 0
M  V30 2472 C 239.959 -0.574991 -2.95151 0
M  V30 2473 C 241.507 -0.533867 -3.08413 0
M  V30 2474 C 241.982 -1.01469 -4.46618 0
M  V30 2475 N 243.473 -0.971939 -4.52888 0
M  V30 2476 C 244.208 -1.31505 -5.58116 0
M  V30 2477 N 243.704 -1.73014 -6.70849 0
M  V30 2478 N 245.497 -1.23436 -5.48379 0
M  V30 2479 H 237.648 -1.38836 -1.60743 0
M  V30 2480 H 239.911 -0.570998 -0.756747 0
M  V30 2481 H 239.617 -1.61597 -3.12377 0
M  V30 2482 H 239.491 0.00979777 -3.77199 0
M  V30 2483 H 241.878 0.498086 -2.90866 0
M  V30 2484 H 241.959 -1.15484 -2.28248 0
M  V30 2485 H 241.603 -2.04502 -4.6491 0
M  V30 2486 H 241.533 -0.370433 -5.25295 0
M  V30 2487 H 244.024 -0.666893 -3.71969 0
M  V30 2488 H 244.337 -1.97479 -7.47143 0
M  V30 2489 H 242.682 -1.76926 -6.72103 0
M  V30 2490 H 245.873 -0.908869 -4.59192 0
M  V30 2491 H 246.046 -1.50506 -6.30279 0
M  V30 2492 N 239.452 1.56882 -0.150215 0
M  V30 2493 C 240.382 2.19935 0.784284 0
M  V30 2494 C 241.363 1.14854 1.25469 0
M  V30 2495 O 242.548 1.43209 1.31168 0
M  V30 2496 C 239.678 2.82349 2.02229 0
M  V30 2497 C 238.632 3.93285 1.68853 0
M  V30 2498 C 237.958 4.42649 2.99944 0
M  V30 2499 C 239.258 5.13904 0.932714 0
M  V30 2500 H 240.952 2.9828 0.258781 0
M  V30 2501 H 238.498 1.43473 0.123029 0
M  V30 2502 H 240.451 3.25126 2.68088 0
M  V30 2503 H 239.175 2.0134 2.57157 0
M  V30 2504 H 237.834 3.5113 1.05371 0
M  V30 2505 H 237.482 3.58458 3.52869 0
M  V30 2506 H 237.182 5.17476 2.78374 0
M  V30 2507 H 238.706 4.88099 3.66868 0
M  V30 2508 H 240.12 5.53506 1.49345 0
M  V30 2509 H 238.517 5.94515 0.81684 0
M  V30 2510 H 239.587 4.84842 -0.0749568 0
M  V30 2511 N 240.93 -0.123565 1.57115 0
M  V30 2512 C 241.862 -1.17739 1.96648 0
M  V30 2513 C 242.875 -1.37906 0.865201 0
M  V30 2514 O 244.064 -1.37062 1.14351 0
M  V30 2515 C 241.164 -2.53821 2.24562 0
M  V30 2516 C 240.337 -2.54317 3.55867 0
M  V30 2517 C 239.396 -3.72112 3.72047 0
M  V30 2518 O 238.422 -3.55907 4.44206 0
M  V30 2519 N 239.624 -4.90498 3.10471 0
M  V30 2520 H 242.389 -0.841147 2.87654 0
M  V30 2521 H 239.95 -0.31289 1.58848 0
M  V30 2522 H 241.942 -3.31175 2.32606 0
M  V30 2523 H 240.512 -2.79645 1.39705 0
M  V30 2524 H 239.732 -1.62711 3.59053 0
M  V30 2525 H 241.02 -2.51701 4.42181 0
M  V30 2526 H 240.418 -5.06567 2.51806 0
M  V30 2527 H 238.975 -5.65544 3.24043 0
M  V30 2528 N 242.408 -1.52605 -0.393616 0
M  V30 2529 C 243.638 -1.71046 -1.15874 0
M  V30 2530 C 244.046 -0.426483 -1.84331 0
M  V30 2531 O 243.389 0.608513 -1.73329 0
M  V30 2532 C 243.451 -2.80118 -2.25332 0
M  V30 2533 C 243.115 -4.21381 -1.76881 0
M  V30 2534 C 244.112 -5.04697 -1.24808 0
M  V30 2535 C 241.797 -4.67683 -1.83244 0
M  V30 2536 C 243.791 -6.32393 -0.797387 0
M  V30 2537 C 241.478 -5.95364 -1.37787 0
M  V30 2538 C 242.476 -6.77549 -0.861208 0
M  V30 2539 O 242.164 -8.02837 -0.413252 0
M  V30 2540 H 241.896 -0.576155 -0.353583 0
M  V30 2541 H 244.45 -2.00018 -0.467123 0
M  V30 2542 H 242.68 -2.46557 -2.97904 0
M  V30 2543 H 244.369 -2.87006 -2.87023 0
M  V30 2544 H 245.135 -4.70111 -1.19252 0
M  V30 2545 H 241.014 -4.03805 -2.22401 0
M  V30 2546 H 244.558 -6.9649 -0.393437 0
M  V30 2547 H 240.455 -6.29455 -1.43026 0
M  V30 2548 H 241.223 -8.16749 -0.53515 0
M  V30 2549 N 243.887 0.651787 -1.4349 0
M  V30 2550 C 245.298 1.233 -1.40193 0
M  V30 2551 C 245.649 1.9591 -0.106727 0
M  V30 2552 O 244.774 2.01316 0.793773 0
M  V30 2553 C 245.369 2.24257 -2.53957 0
M  V30 2554 C 243.928 2.77852 -2.5392 0
M  V30 2555 C 243.075 1.52517 -2.3159 0
M  V30 2556 H 246.026 0.443717 -1.52371 0
M  V30 2557 H 246.047 3.0646 -2.25528 0
M  V30 2558 H 245.559 1.71382 -3.4821 0
M  V30 2559 H 243.66 3.34786 -1.63551 0
M  V30 2560 H 243.773 3.25299 -3.51735 0
M  V30 2561 H 242.137 1.79915 -1.80285 0
M  V30 2562 H 242.92 1.01574 -3.27929 0
M  V30 2563 N 245.365 1.30045 0.890287 0
M  V30 2564 C 246.642 1.09227 1.62262 0
M  V30 2565 C 247.022 -0.360305 2.08002 0
M  V30 2566 O 246.37 -1.35084 1.84295 0
M  V30 2567 C 246.58 2.08835 2.79623 0
M  V30 2568 C 247.928 2.40266 3.50082 0
M  V30 2569 O 248.952 2.07104 2.89804 0
M  V30 2570 O 247.811 2.96967 4.58773 0
M  V30 2571 H 244.905 0.419132 0.712922 0
M  V30 2572 H 247.451 1.41451 0.937529 0
M  V30 2573 H 246.223 3.06633 2.43089 0
M  V30 2574 H 245.846 1.77397 3.55832 0
M  V30 2575 N 246.843 -1.10192 1.12674 0
M  V30 2576 C 248.071 -1.85983 0.906527 0
M  V30 2577 C 248.486 -1.80783 -0.544333 0
M  V30 2578 O 247.843 -1.19834 -1.37645 0
M  V30 2579 C 247.894 -3.34281 1.37618 0
M  V30 2580 O 247.615 -3.39401 2.77017 0
M  V30 2581 C 249.116 -4.26938 1.19325 0
M  V30 2582 H 246.336 -0.587716 0.323775 0
M  V30 2583 H 248.88 -1.39284 1.49734 0
M  V30 2584 H 247.035 -3.78436 0.828539 0
M  V30 2585 H 247.449 -4.31838 2.97684 0
M  V30 2586 H 248.923 -5.29181 1.57071 0
M  V30 2587 H 249.4 -4.38995 0.134097 0
M  V30 2588 H 250.006 -3.8859 1.72852 0
M  V30 2589 N 248.321 -0.919034 -1.28029 0
M  V30 2590 C 249.567 -0.565221 -1.95389 0
M  V30 2591 C 249.922 0.882325 -1.70976 0
M  V30 2592 O 249.215 1.61988 -1.02325 0
M  V30 2593 C 249.409 -0.816855 -3.4794 0
M  V30 2594 C 249.238 -2.28731 -3.87185 0
M  V30 2595 C 248.008 -2.93841 -4.11079 0
M  V30 2596 C 250.206 -3.26415 -3.97439 0
M  V30 2597 N 248.188 -4.31129 -4.37037 0
M  V30 2598 C 249.559 -4.48884 -4.27672 0
M  V30 2599 C 251.614 -3.21742 -3.79982 0
M  V30 2600 C 250.317 -5.67268 -4.42266 0
M  V30 2601 C 252.343 -4.39431 -3.95796 0
M  V30 2602 C 251.705 -5.60675 -4.26407 0
M  V30 2603 H 247.804 -0.256797 -0.738633 0
M  V30 2604 H 250.388 -1.18386 -1.54573 0
M  V30 2605 H 248.559 -0.227445 -3.87733 0
M  V30 2606 H 250.291 -0.426542 -4.02446 0
M  V30 2607 H 247.046 -2.44547 -4.05578 0
M  V30 2608 H 247.47 -5.02127 -4.5409 0
M  V30 2609 H 252.112 -2.29079 -3.55363 0
M  V30 2610 H 249.83 -6.60406 -4.65714 0
M  V30 2611 H 253.416 -4.37323 -3.83719 0
M  V30 2612 H 252.296 -6.50223 -4.38383 0
M  V30 2613 N 249.799 1.42003 -0.683588 0
M  V30 2614 C 251.039 2.03282 -0.213513 0
M  V30 2615 C 251.403 1.52924 1.16097 0
M  V30 2616 O 252.604 2.06048 1.7262 0
M  V30 2617 C 250.875 3.56483 -0.255856 0
M  V30 2618 S 252.434 4.3857 0.14193 0
M  V30 2619 H 249.252 0.705659 -0.0869853 0
M  V30 2620 H 251.854 1.73619 -0.8987 0
M  V30 2621 H 250.558 3.90631 -1.25841 0
M  V30 2622 H 250.089 3.90831 0.448875 0
M  V30 2623 H 252.104 4.76828 1.37295 0
M  V30 2624 N 251.277 0.427512 1.51691 0
M  V30 2625 C 252.524 -0.142229 2.02 0
M  V30 2626 C 252.852 -1.43566 1.31221 0
M  V30 2627 O 252.107 -1.91298 0.412744 0
M  V30 2628 C 252.406 -0.418249 3.54944 0
M  V30 2629 C 252.072 0.788187 4.43958 0
M  V30 2630 C 250.734 1.11906 4.68007 0
M  V30 2631 C 253.086 1.59347 4.96244 0
M  V30 2632 C 250.414 2.25608 5.41588 0
M  V30 2633 C 252.766 2.7214 5.71072 0
M  V30 2634 C 251.43 3.05692 5.93387 0
M  V30 2635 H 250.7 -0.0520451 0.73917 0
M  V30 2636 H 253.347 0.572697 1.82736 0
M  V30 2637 H 251.652 -1.21496 3.72486 0
M  V30 2638 H 253.349 -0.872339 3.91397 0
M  V30 2639 H 249.939 0.520344 4.2543 0
M  V30 2640 H 254.123 1.35106 4.77556 0
M  V30 2641 H 249.379 2.51929 5.57083 0
M  V30 2642 H 253.553 3.34914 6.10578 0
M  V30 2643 H 251.18 3.9391 6.50184 0
M  V30 2644 N 252.755 -1.56801 0.158532 0
M  V30 2645 C 254.004 -1.95665 -0.489702 0
M  V30 2646 C 254.317 -1.04654 -1.65248 0
M  V30 2647 O 255.523 -1.33146 -2.3661 0
M  V30 2648 C 253.979 -3.47874 -0.922582 0
M  V30 2649 C 253.587 -4.47489 0.213893 0
M  V30 2650 C 255.331 -3.95583 -1.53996 0
M  V30 2651 C 253.238 -5.90921 -0.237903 0
M  V30 2652 H 252.168 -0.730516 -0.186716 0
M  V30 2653 H 254.819 -1.81861 0.244722 0
M  V30 2654 H 253.201 -3.57051 -1.71261 0
M  V30 2655 H 254.375 -4.50017 0.991036 0
M  V30 2656 H 252.69 -4.09764 0.740407 0
M  V30 2657 H 255.287 -5.0019 -1.8898 0
M  V30 2658 H 255.63 -3.37789 -2.43319 0
M  V30 2659 H 256.163 -3.8937 -0.814611 0
M  V30 2660 H 252.902 -6.52559 0.620236 0
M  V30 2661 H 252.422 -5.91729 -0.980676 0
M  V30 2662 H 254.101 -6.43352 -0.686067 0
M  V30 2663 N 254.233 0.115231 -1.57178 0
M  V30 2664 C 255.51 0.852873 -1.76027 0
M  V30 2665 C 255.89 1.97892 -0.73498 0
M  V30 2666 O 255.238 2.27232 0.24036 0
M  V30 2667 C 255.448 1.36608 -3.21153 0
M  V30 2668 C 256.796 1.81692 -3.83762 0
M  V30 2669 O 257.82 1.46278 -3.24779 0
M  V30 2670 O 256.679 2.47104 -4.87444 0
M  V30 2671 H 253.773 0.405296 -0.720877 0
M  V30 2672 H 256.319 0.0986785 -1.69413 0
M  V30 2673 H 255.091 0.558357 -3.87296 0
M  V30 2674 H 254.714 2.18287 -3.3232 0
M  V30 2675 N 255.711 1.52812 0.385517 0
M  V30 2676 C 256.957 1.69225 1.12847 0
M  V30 2677 C 257.312 0.42864 1.87564 0
M  V30 2678 O 256.605 -0.57779 1.8268 0
M  V30 2679 C 256.799 2.86856 2.13187 0
M  V30 2680 C 256.628 4.24535 1.48325 0
M  V30 2681 C 255.398 4.89701 1.24585 0
M  V30 2682 C 257.596 5.05794 0.931501 0
M  V30 2683 N 255.578 6.11353 0.558644 0
M  V30 2684 C 256.949 6.1888 0.372552 0
M  V30 2685 C 259.004 4.90963 0.828248 0
M  V30 2686 C 257.707 7.18757 -0.279556 0
M  V30 2687 C 259.733 5.91095 0.189956 0
M  V30 2688 C 259.095 7.03489 -0.358207 0
M  V30 2689 H 255.194 0.67268 0.39878 0
M  V30 2690 H 257.778 1.9017 0.417528 0
M  V30 2691 H 255.949 2.67484 2.81614 0
M  V30 2692 H 257.681 2.92188 2.80014 0
M  V30 2693 H 254.436 4.48485 1.52178 0
M  V30 2694 H 254.86 6.76606 0.230983 0
M  V30 2695 H 259.502 4.04274 1.23784 0
M  V30 2696 H 257.22 8.05052 -0.701152 0
M  V30 2697 H 260.806 5.81694 0.111264 0
M  V30 2698 H 259.686 7.79642 -0.844314 0
M  V30 2699 N 257.189 -0.644168 1.43834 0
M  V30 2700 C 258.417 -1.43147 1.49387 0
M  V30 2701 C 258.832 -1.88452 0.114583 0
M  V30 2702 O 258.189 -1.60047 -0.876989 0
M  V30 2703 C 258.24 -2.66046 2.44748 0
M  V30 2704 O 257.961 -2.22633 3.77314 0
M  V30 2705 C 259.462 -3.59311 2.59635 0
M  V30 2706 H 256.682 -0.439447 0.507077 0
M  V30 2707 H 259.226 -0.78895 1.88669 0
M  V30 2708 H 257.381 -3.26418 2.08638 0
M  V30 2709 H 257.795 -3.02216 4.28679 0
M  V30 2710 H 259.269 -4.42187 3.30416 0
M  V30 2711 H 259.746 -4.07259 1.64427 0
M  V30 2712 H 260.352 -3.04816 2.96593 0
M  V30 2713 N 258.668 -1.30515 -0.883378 0
M  V30 2714 C 259.896 -1.22359 -1.66841 0
M  V30 2715 C 260.311 0.213296 -1.87591 0
M  V30 2716 O 259.668 1.14075 -1.42454 0
M  V30 2717 C 259.719 -1.95011 -3.04389 0
M  V30 2718 O 259.44 -3.3309 -2.84575 0
M  V30 2719 C 260.941 -1.93532 -3.98824 0
M  V30 2720 H 258.161 -0.423371 -0.520575 0
M  V30 2721 H 260.705 -1.72167 -1.10357 0
M  V30 2722 H 258.86 -1.48997 -3.57601 0
M  V30 2723 H 259.274 -3.69907 -3.71846 0
M  V30 2724 H 260.748 -2.48902 -4.92699 0
M  V30 2725 H 261.225 -0.914627 -4.29571 0
M  V30 2726 H 261.831 -2.39364 -3.51547 0
M  V30 2727 N 260.146 1.09593 -1.13257 0
M  V30 2728 C 261.094 2.18271 -0.803783 0
M  V30 2729 C 262.088 1.68054 0.213148 0
M  V30 2730 O 263.294 1.79862 0.0704699 0
M  V30 2731 H 259.669 0.711949 -0.242143 0
M  V30 2732 H 261.64 2.43235 -1.72856 0
M  V30 2733 C 260.389 3.46536 -0.28424 0
M  V30 2734 H 259.712 3.85545 -1.05807 0
M  V30 2735 H 261.152 4.23899 -0.0925945 0
M  V30 2736 C 259.611 3.22036 0.989684 0
M  V30 2737 O 260.141 3.44509 2.06584 0
M  V30 2738 N 258.347 2.7565 0.920086 0
M  V30 2739 H 257.894 2.57562 0.0442019 0
M  V30 2740 H 257.852 2.59635 1.77306 0
M  V30 2741 N 261.624 0.925811 1.2754 0
M  V30 2742 C 262.87 0.566092 1.94739 0
M  V30 2743 C 263.203 -0.890057 1.72603 0
M  V30 2744 O 262.478 -1.63467 1.05399 0
M  V30 2745 C 262.761 0.89054 3.48915 0
M  V30 2746 C 262.614 2.4003 3.80402 0
M  V30 2747 C 263.933 0.395101 4.38323 0
M  V30 2748 H 261.052 0.20714 0.707292 0
M  V30 2749 H 263.694 1.15725 1.50691 0
M  V30 2750 H 261.844 0.387452 3.86563 0
M  V30 2751 H 263.516 2.97494 3.52555 0
M  V30 2752 H 261.759 2.85028 3.2702 0
M  V30 2753 H 262.43 2.57785 4.8811 0
M  V30 2754 H 264.906 0.826241 4.07814 0
M  V30 2755 H 263.782 0.651086 5.45025 0
M  V30 2756 H 264.043 -0.704798 4.36446 0
M  V30 2757 N 263.102 -1.41638 0.69111 0
M  V30 2758 C 264.33 -2.05628 0.22909 0
M  V30 2759 C 264.745 -1.51992 -1.11999 0
M  V30 2760 O 264.102 -0.666322 -1.69901 0
M  V30 2761 C 264.153 -3.61084 0.173283 0
M  V30 2762 O 263.874 -4.12735 1.46907 0
M  V30 2763 C 265.375 -4.42213 -0.310266 0
M  V30 2764 H 262.595 -0.662327 0.107534 0
M  V30 2765 H 265.139 -1.81489 0.942438 0
M  V30 2766 H 263.294 -3.84278 -0.490858 0
M  V30 2767 H 263.708 -5.06743 1.35322 0
M  V30 2768 H 265.182 -5.51194 -0.298196 0
M  V30 2769 H 265.659 -4.1799 -1.34838 0
M  V30 2770 H 266.265 -4.24074 0.322716 0
M  V30 2771 N 264.58 -0.43555 -1.51462 0
M  V30 2772 C 265.543 0.365137 -2.26273 0
M  V30 2773 C 266.543 0.951227 -1.29647 0
M  V30 2774 O 267.733 0.825958 -1.53374 0
M  V30 2775 C 264.865 1.51645 -3.05314 0
M  V30 2776 H 266.058 -0.290474 -2.9849 0
M  V30 2777 H 263.611 -0.188676 -1.55157 0
M  V30 2778 H 264.346 2.20816 -2.3751 0
M  V30 2779 H 264.131 1.10238 -3.76284 0
M  V30 2780 H 265.621 2.08218 -3.61987 0
M  V30 2781 N 266.058 1.56714 -0.166846 0
M  V30 2782 C 267.008 2.14338 0.777382 0
M  V30 2783 C 267.992 1.07642 1.19591 0
M  V30 2784 O 269.184 1.33775 1.15902 0
M  V30 2785 C 266.313 2.78417 2.00846 0
M  V30 2786 C 265.399 3.92264 1.61212 0
M  V30 2787 N 265.79 4.97268 0.925104 0
M  V30 2788 C 264.088 4.03342 1.90346 0
M  V30 2789 C 264.789 5.77093 0.730627 0
M  V30 2790 N 263.765 5.2854 1.27067 0
M  V30 2791 H 267.567 2.9289 0.243466 0
M  V30 2792 H 265.081 1.62364 0.0339954 0
M  V30 2793 H 267.078 3.18073 2.69509 0
M  V30 2794 H 265.738 2.01344 2.54736 0
M  V30 2795 H 266.749 5.14601 0.583646 0
M  V30 2796 H 263.426 3.37368 2.45946 0
M  V30 2797 H 264.816 6.71638 0.187668 0
M  V30 2798 N 267.536 -0.106894 1.57237 0
M  V30 2799 C 268.499 -1.11466 2.0027 0
M  V30 2800 C 269.499 -1.33623 0.894519 0
M  V30 2801 O 270.689 -1.29935 1.16028 0
M  V30 2802 C 267.821 -2.46646 2.35327 0
M  V30 2803 H 269.014 -0.744516 2.90512 0
M  V30 2804 H 266.567 -0.351576 1.52295 0
M  V30 2805 H 267.302 -2.88558 1.48003 0
M  V30 2806 H 267.087 -2.31915 3.16161 0
M  V30 2807 H 268.577 -3.19151 2.69318 0
M  V30 2808 N 269.014 -1.53014 -0.377408 0
M  V30 2809 C 269.977 -1.77957 -1.44444 0
M  V30 2810 C 270.977 -0.649763 -1.47087 0
M  V30 2811 O 272.167 -0.917897 -1.48055 0
M  V30 2812 C 269.299 -1.89089 -2.83651 0
M  V30 2813 H 270.492 -2.73243 -1.23606 0
M  V30 2814 H 268.045 -1.43912 -0.609844 0
M  V30 2815 H 268.78 -0.958293 -3.09818 0
M  V30 2816 H 268.565 -2.71254 -2.83132 0
M  V30 2817 H 270.055 -2.1002 -3.60945 0
M  V30 2818 N 270.492 0.636531 -1.44174 0
M  V30 2819 C 271.722 1.42146 -1.49927 0
M  V30 2820 C 272.13 1.88812 -0.121063 0
M  V30 2821 O 271.473 1.61126 0.882267 0
M  V30 2822 C 271.535 2.67883 -2.39748 0
M  V30 2823 C 271.199 2.43048 -3.8701 0
M  V30 2824 C 272.196 2.05216 -4.77684 0
M  V30 2825 C 269.881 2.56856 -4.3166 0
M  V30 2826 C 271.875 1.81512 -6.11009 0
M  V30 2827 C 269.562 2.32766 -5.65034 0
M  V30 2828 C 270.56 1.95152 -6.54526 0
M  V30 2829 O 270.248 1.71326 -7.85431 0
M  V30 2830 H 269.98 0.442567 -0.51099 0
M  V30 2831 H 272.534 0.786158 -1.8976 0
M  V30 2832 H 270.764 3.34032 -1.94832 0
M  V30 2833 H 272.453 3.29874 -2.36513 0
M  V30 2834 H 273.219 1.94111 -4.44462 0
M  V30 2835 H 269.098 2.85104 -3.62266 0
M  V30 2836 H 272.642 1.52077 -6.80822 0
M  V30 2837 H 268.539 2.43479 -5.97819 0
M  V30 2838 H 269.307 1.85616 -7.97176 0
M  V30 2839 N 271.97 1.30982 0.876444 0
M  V30 2840 C 273.195 1.23373 1.66715 0
M  V30 2841 C 273.62 -0.19885 1.87046 0
M  V30 2842 O 272.978 -1.1427 1.40756 0
M  V30 2843 C 273.026 1.97644 3.01611 0
M  V30 2844 O 272.13 1.30935 3.91062 0
M  V30 2845 H 271.471 0.426279 0.509099 0
M  V30 2846 H 274.001 1.72944 1.09323 0
M  V30 2847 H 274.011 2.06992 3.51594 0
M  V30 2848 H 272.686 3.01829 2.86133 0
M  V30 2849 H 271.263 1.29996 3.49507 0
M  V30 2850 N 273.449 -1.08991 1.13837 0
M  V30 2851 C 274.679 -1.84743 0.924859 0
M  V30 2852 C 275.087 -1.81629 -0.529874 0
M  V30 2853 O 274.43 -1.21397 -1.37872 0
M  V30 2854 C 274.492 -3.33568 1.34061 0
M  V30 2855 C 274.156 -3.60425 2.80968 0
M  V30 2856 C 275.153 -3.55771 3.79108 0
M  V30 2857 C 272.838 -3.88627 3.18236 0
M  V30 2858 C 274.832 -3.78939 5.12527 0
M  V30 2859 C 272.519 -4.11449 4.51833 0
M  V30 2860 C 273.517 -4.06598 5.48787 0
M  V30 2861 O 273.205 -4.28826 6.79973 0
M  V30 2862 H 272.937 -0.590258 0.329502 0
M  V30 2863 H 275.491 -1.38598 1.51591 0
M  V30 2864 H 273.721 -3.80442 0.692853 0
M  V30 2865 H 275.41 -3.90743 1.09886 0
M  V30 2866 H 276.176 -3.34005 3.51661 0
M  V30 2867 H 272.055 -3.91526 2.43369 0
M  V30 2868 H 275.599 -3.75068 5.88192 0
M  V30 2869 H 271.496 -4.32698 4.79002 0
M  V30 2870 H 272.264 -4.46264 6.86142 0
M  V30 2871 N 274.927 -0.932562 -1.27047 0
M  V30 2872 C 275.86 -0.379774 -2.25018 0
M  V30 2873 C 276.838 0.526587 -1.53837 0
M  V30 2874 O 278.022 0.465992 -1.82649 0
M  V30 2875 C 275.149 0.455187 -3.35627 0
M  V30 2876 C 274.195 -0.388428 -4.24728 0
M  V30 2877 S 275.028 -1.80701 -5.04091 0
M  V30 2878 C 276.184 -0.979865 -6.18182 0
M  V30 2879 H 276.417 -1.2101 -2.71558 0
M  V30 2880 H 273.95 -0.735078 -1.35779 0
M  V30 2881 H 275.908 0.931052 -3.99802 0
M  V30 2882 H 274.569 1.26009 -2.87716 0
M  V30 2883 H 273.762 0.25089 -5.03375 0
M  V30 2884 H 273.364 -0.798649 -3.65373 0
M  V30 2885 H 275.656 -0.218115 -6.77149 0
M  V30 2886 H 276.599 -1.73951 -6.86401 0
M  V30 2887 H 277.007 -0.51973 -5.62102 0
M  V30 2888 N 276.405 1.4127 -0.698611 0
M  V30 2889 C 277.635 2.05205 -0.239644 0
M  V30 2890 C 278.043 1.52684 1.11733 0
M  V30 2891 O 277.386 0.671222 1.70998 0
M  V30 2892 C 277.448 3.59289 -0.123126 0
M  V30 2893 C 277.112 4.34619 -1.41263 0
M  V30 2894 C 278.109 4.63701 -2.35111 0
M  V30 2895 C 275.794 4.73837 -1.66684 0
M  V30 2896 C 277.788 5.30966 -3.52639 0
M  V30 2897 C 275.475 5.40837 -2.84498 0
M  V30 2898 C 276.473 5.69329 -3.77298 0
M  V30 2899 O 276.161 6.34949 -4.93047 0
M  V30 2900 H 275.893 0.66723 -0.108537 0
M  V30 2901 H 278.447 1.81974 -0.952602 0
M  V30 2902 H 276.677 3.81272 0.645628 0
M  V30 2903 H 278.366 4.04797 0.299056 0
M  V30 2904 H 279.132 4.33882 -2.16729 0
M  V30 2905 H 275.011 4.51039 -0.953135 0
M  V30 2906 H 278.555 5.53121 -4.25091 0
M  V30 2907 H 274.452 5.70075 -3.02795 0
M  V30 2908 H 275.22 6.53445 -4.92902 0
M  V30 2909 N 277.883 0.443576 1.51229 0
M  V30 2910 C 278.846 -0.353132 2.26463 0
M  V30 2911 C 279.846 -0.944338 1.3015 0
M  V30 2912 O 281.036 -0.817813 1.5381 0
M  V30 2913 C 278.168 -1.50023 3.06114 0
M  V30 2914 H 279.361 0.3063 2.98332 0
M  V30 2915 H 276.914 0.196902 1.55055 0
M  V30 2916 H 277.649 -2.19553 2.38677 0
M  V30 2917 H 277.434 -1.08241 3.76864 0
M  V30 2918 H 278.924 -2.06296 3.63087 0
M  V30 2919 N 279.361 -1.56624 0.175154 0
M  V30 2920 C 280.609 -1.96609 -0.467885 0
M  V30 2921 C 280.93 -1.06238 -1.63519 0
M  V30 2922 O 280.2 -0.129523 -1.95471 0
M  V30 2923 H 278.78 -0.726008 -0.175845 0
M  V30 2924 H 281.442 -1.93195 0.257234 0
M  V30 2925 H 280.538 -3.00989 -0.825342 0
M  V30 2926 N 280.839 0.0985539 -1.57292 0
M  V30 2927 C 282.086 0.802678 -1.85912 0
M  V30 2928 C 282.414 1.78901 -0.763186 0
M  V30 2929 O 281.669 1.94178 0.243559 0
M  V30 2930 C 281.968 1.56927 -3.21105 0
M  V30 2931 C 281.634 0.725376 -4.45027 0
M  V30 2932 C 280.296 0.492726 -4.78671 0
M  V30 2933 C 282.648 0.138493 -5.21016 0
M  V30 2934 C 279.976 -0.336727 -5.85733 0
M  V30 2935 C 282.328 -0.678264 -6.28953 0
M  V30 2936 C 280.992 -0.921039 -6.61115 0
M  V30 2937 H 280.262 0.293721 -0.680301 0
M  V30 2938 H 282.909 0.0642841 -1.91392 0
M  V30 2939 H 281.214 2.37914 -3.11294 0
M  V30 2940 H 282.911 2.11841 -3.40477 0
M  V30 2941 H 279.501 0.916815 -4.18679 0
M  V30 2942 H 283.685 0.305404 -4.95359 0
M  V30 2943 H 278.941 -0.533836 -6.09065 0
M  V30 2944 H 283.115 -1.1399 -6.87007 0
M  V30 2945 H 280.742 -1.56556 -7.43905 0
M  V30 2946 N 282.317 1.53212 0.369288 0
M  V30 2947 C 283.542 1.73423 1.1375 0
M  V30 2948 C 283.967 0.460404 1.82378 0
M  V30 2949 O 283.325 -0.585298 1.71592 0
M  V30 2950 C 283.373 2.89769 2.1463 0
M  V30 2951 O 282.477 2.58119 3.21634 0
M  V30 2952 H 281.818 0.576061 0.330227 0
M  V30 2953 H 284.348 2.00083 0.427547 0
M  V30 2954 H 284.358 3.15829 2.58294 0
M  V30 2955 H 283.033 3.8217 1.64071 0
M  V30 2956 H 281.61 2.42864 2.82969 0
M  V30 2957 N 283.795 -0.628877 1.44509 0
M  V30 2958 C 285.02 -1.42048 1.5112 0
M  V30 2959 C 285.445 -1.87594 0.137818 0
M  V30 2960 O 284.803 -1.58873 -0.873437 0
M  V30 2961 C 284.851 -2.61541 2.48251 0
M  V30 2962 O 283.955 -3.61453 1.98559 0
M  V30 2963 H 283.296 -0.424942 0.510216 0
M  V30 2964 H 285.826 -0.767374 1.89664 0
M  V30 2965 H 285.836 -3.09057 2.66361 0
M  V30 2966 H 284.511 -2.27736 3.48007 0
M  V30 2967 H 283.088 -3.20731 1.90227 0
M  V30 2968 N 285.273 -1.31445 -0.869486 0
M  V30 2969 C 286.52 -1.21158 -1.62256 0
M  V30 2970 C 286.848 0.230155 -1.93133 0
M  V30 2971 O 286.103 1.17906 -1.56194 0
M  V30 2972 C 286.402 -2.00145 -2.96102 0
M  V30 2973 C 286.068 -3.4964 -2.84715 0
M  V30 2974 C 284.73 -3.90403 -2.81317 0
M  V30 2975 C 287.082 -4.44769 -2.71716 0
M  V30 2976 C 284.41 -5.24561 -2.62778 0
M  V30 2977 C 286.762 -5.79054 -2.54714 0
M  V30 2978 C 285.426 -6.19037 -2.49699 0
M  V30 2979 H 284.696 -0.443348 -0.593737 0
M  V30 2980 H 287.343 -1.62715 -1.00976 0
M  V30 2981 H 285.648 -1.5127 -3.6142 0
M  V30 2982 H 287.345 -1.89566 -3.53363 0
M  V30 2983 H 283.935 -3.17256 -2.88178 0
M  V30 2984 H 288.119 -4.14208 -2.73397 0
M  V30 2985 H 283.375 -5.54613 -2.57321 0
M  V30 2986 H 287.549 -6.52393 -2.43632 0
M  V30 2987 H 285.176 -7.22935 -2.35093 0
M  V30 2988 N 286.751 1.08385 -1.14413 0
M  V30 2989 C 287.681 2.17321 -0.854044 0
M  V30 2990 C 288.662 1.69024 0.191049 0
M  V30 2991 O 289.847 1.94141 0.0476779 0
M  V30 2992 C 286.977 3.45719 -0.330983 0
M  V30 2993 C 285.931 4.07409 -1.31155 0
M  V30 2994 C 285.257 5.30762 -0.64778 0
M  V30 2995 C 286.557 4.48665 -2.67388 0
M  V30 2996 H 288.251 2.41845 -1.76498 0
M  V30 2997 H 285.797 1.16233 -0.850051 0
M  V30 2998 H 287.75 4.21241 -0.115645 0
M  V30 2999 H 286.474 3.2075 0.615381 0
M  V30 3000 H 285.133 3.33919 -1.51306 0
M  V30 3001 H 284.781 5.02078 0.304398 0
M  V30 3002 H 284.481 5.72992 -1.30207 0
M  V30 3003 H 286.005 6.08998 -0.441972 0
M  V30 3004 H 287.419 5.15364 -2.51143 0
M  V30 3005 H 285.816 5.01814 -3.29093 0
M  V30 3006 H 286.886 3.60543 -3.24248 0
M  V30 3007 N 288.23 0.939286 1.26551 0
M  V30 3008 C 289.479 0.581601 1.93133 0
M  V30 3009 C 289.792 -0.883224 1.74524 0
M  V30 3010 O 290.998 -1.3502 2.35546 0
M  V30 3011 C 289.454 0.989425 3.46032 0
M  V30 3012 C 289.062 2.47573 3.73379 0
M  V30 3013 C 290.806 0.703544 4.18629 0
M  V30 3014 C 288.713 2.82235 5.19709 0
M  V30 3015 H 287.643 0.213803 0.723052 0
M  V30 3016 H 290.294 1.14167 1.4366 0
M  V30 3017 H 288.676 0.357902 3.94379 0
M  V30 3018 H 289.85 3.15614 3.35744 0
M  V30 3019 H 288.165 2.73471 3.1401 0
M  V30 3020 H 290.762 0.938869 5.26393 0
M  V30 3021 H 291.105 -0.359639 4.14744 0
M  V30 3022 H 291.638 1.2947 3.76141 0
M  V30 3023 H 288.377 3.87509 5.28694 0
M  V30 3024 H 287.897 2.18854 5.58447 0
M  V30 3025 H 289.576 2.70599 5.87695 0
M  V30 3026 N 289.708 -1.40897 0.706093 0
M  V30 3027 C 290.638 -2.33418 0.0620085 0
M  V30 3028 C 291.619 -1.52385 -0.755827 0
M  V30 3029 O 292.804 -1.80886 -0.706674 0
M  V30 3030 C 289.934 -3.36293 -0.867445 0
M  V30 3031 C 288.888 -4.27716 -0.155932 0
M  V30 3032 C 288.214 -5.2105 -1.20046 0
M  V30 3033 C 289.514 -5.12944 0.984149 0
M  V30 3034 H 291.208 -2.87527 0.83477 0
M  V30 3035 H 288.754 -1.38249 0.402875 0
M  V30 3036 H 290.707 -3.99949 -1.32735 0
M  V30 3037 H 289.431 -2.80556 -1.67199 0
M  V30 3038 H 288.09 -3.65498 0.284047 0
M  V30 3039 H 287.738 -4.61624 -1.99781 0
M  V30 3040 H 287.438 -5.83056 -0.729328 0
M  V30 3041 H 288.962 -5.87584 -1.66066 0
M  V30 3042 H 290.376 -5.70109 0.604048 0
M  V30 3043 H 288.773 -5.83945 1.38304 0
M  V30 3044 H 289.843 -4.49485 1.81911 0
M  V30 3045 N 291.186 -0.45159 -1.50991 0
M  V30 3046 C 292.149 0.341117 -2.26647 0
M  V30 3047 C 293.149 0.937422 -1.30649 0
M  V30 3048 O 294.339 0.809644 -1.54241 0
M  V30 3049 C 291.471 1.48398 -3.06905 0
M  V30 3050 H 292.664 -0.322117 -2.98165 0
M  V30 3051 H 290.217 -0.205122 -1.54948 0
M  V30 3052 H 290.952 2.18284 -2.39838 0
M  V30 3053 H 290.737 1.06241 -3.77432 0
M  V30 3054 H 292.227 2.04367 -3.64176 0
M  V30 3055 N 292.664 1.56529 -0.183458 0
M  V30 3056 C 293.892 2.01623 0.464285 0
M  V30 3057 C 294.307 1.06366 1.55986 0
M  V30 3058 O 293.664 0.0665398 1.82379 0
M  V30 3059 C 293.715 3.46475 1.03139 0
M  V30 3060 O 293.436 4.38095 -0.0204675 0
M  V30 3061 C 294.937 4.0703 1.75617 0
M  V30 3062 H 292.157 0.660596 0.117704 0
M  V30 3063 H 294.701 2.02451 -0.288751 0
M  V30 3064 H 292.856 3.46383 1.73486 0
M  V30 3065 H 293.27 5.22973 0.399952 0
M  V30 3066 H 294.744 5.10271 2.10542 0
M  V30 3067 H 295.221 3.49819 2.65563 0
M  V30 3068 H 295.827 4.1086 1.09882 0
M  V30 3069 N 294.142 -0.090211 1.57342 0
M  V30 3070 C 295.388 -0.793982 1.86611 0
M  V30 3071 C 295.721 -1.78142 0.773252 0
M  V30 3072 O 294.996 -1.93271 -0.218304 0
M  V30 3073 C 295.279 -1.51839 3.26523 0
M  V30 3074 C 295.132 -0.548609 4.46442 0
M  V30 3075 C 296.451 -2.46779 3.64401 0
M  V30 3076 H 293.57 -0.287186 0.678744 0
M  V30 3077 H 296.212 -0.0575076 1.89913 0
M  V30 3078 H 294.362 -2.14617 3.23839 0
M  V30 3079 H 296.034 0.0725513 4.61243 0
M  V30 3080 H 294.277 0.137614 4.33582 0
M  V30 3081 H 294.948 -1.09271 5.41076 0
M  V30 3082 H 297.424 -1.94089 3.68061 0
M  V30 3083 H 296.3 -2.94479 4.63221 0
M  V30 3084 H 296.561 -3.30758 2.93346 0
M  V30 3085 N 295.62 -1.53406 -0.361157 0
M  V30 3086 C 296.55 -1.83136 -1.44857 0
M  V30 3087 C 297.531 -0.685174 -1.5569 0
M  V30 3088 O 298.716 -0.93544 -1.70186 0
M  V30 3089 C 295.846 -2.02522 -2.82138 0
M  V30 3090 C 294.8 -3.18302 -2.86126 0
M  V30 3091 C 294.126 -3.22989 -4.26125 0
M  V30 3092 C 295.426 -4.56796 -2.53248 0
M  V30 3093 H 297.12 -2.74201 -1.20226 0
M  V30 3094 H 294.666 -1.31938 -0.576922 0
M  V30 3095 H 296.619 -2.21904 -3.58241 0
M  V30 3096 H 295.343 -1.08172 -3.08166 0
M  V30 3097 H 294.002 -2.98747 -2.12475 0
M  V30 3098 H 293.65 -2.26267 -4.49235 0
M  V30 3099 H 293.35 -4.00781 -4.29708 0
M  V30 3100 H 294.874 -3.44559 -5.04094 0
M  V30 3101 H 296.288 -4.7631 -3.19064 0
M  V30 3102 H 294.685 -5.36862 -2.68141 0
M  V30 3103 H 295.755 -4.61606 -1.48484 0
M  V30 3104 N 297.098 0.621204 -1.44841 0
M  V30 3105 C 298.338 1.39201 -1.49674 0
M  V30 3106 C 298.702 1.91561 -0.129764 0
M  V30 3107 O 299.903 2.68748 -0.0527814 0
M  V30 3108 C 298.174 2.519 -2.53537 0
M  V30 3109 S 299.733 3.39916 -2.77494 0
M  V30 3110 H 296.551 0.474758 -0.529269 0
M  V30 3111 H 299.153 0.718171 -1.81831 0
M  V30 3112 H 297.857 2.11761 -3.51547 0
M  V30 3113 H 297.388 3.241 -2.22986 0
M  V30 3114 H 299.403 4.49646 -2.0984 0
M  V30 3115 N 298.576 1.31904 0.862503 0
M  V30 3116 C 299.524 1.20125 1.9918 0
M  V30 3117 C 300.518 0.107824 1.69056 0
M  V30 3118 O 301.724 0.270223 1.7796 0
M  V30 3119 H 298.099 0.372148 0.65346 0
M  V30 3120 H 300.07 2.15652 2.06244 0
M  V30 3121 C 298.819 0.933099 3.34946 0
M  V30 3122 H 298.142 1.76664 3.5865 0
M  V30 3123 H 299.582 0.890892 4.14535 0
M  V30 3124 C 298.041 -0.364172 3.34926 0
M  V30 3125 O 298.571 -1.37858 3.77304 0
M  V30 3126 N 296.777 -0.383362 2.8806 0
M  V30 3127 H 296.324 0.442651 2.53768 0
M  V30 3128 H 296.282 -1.25123 2.8843 0
M  V30 3129 N 300.054 -1.07777 1.14986 0
M  V30 3130 C 301.3 -1.80557 0.923422 0
M  V30 3131 C 301.633 -1.86298 -0.548337 0
M  V30 3132 O 300.908 -1.34354 -1.40639 0
M  V30 3133 C 301.191 -3.25839 1.53299 0
M  V30 3134 C 301.044 -3.28269 3.07505 0
M  V30 3135 C 302.363 -4.22991 1.21518 0
M  V30 3136 H 299.482 -0.655493 0.336894 0
M  V30 3137 H 302.124 -1.26144 1.42083 0
M  V30 3138 H 300.274 -3.72306 1.10999 0
M  V30 3139 H 301.946 -2.90079 3.58681 0
M  V30 3140 H 300.189 -2.67355 3.4162 0
M  V30 3141 H 300.86 -4.30691 3.45266 0
M  V30 3142 H 303.336 -3.84894 1.581 0
M  V30 3143 H 302.212 -5.22945 1.66793 0
M  V30 3144 H 302.473 -4.41904 0.131505 0
M  V30 3145 N 301.532 -0.945985 -1.26051 0
M  V30 3146 C 302.462 -0.477172 -2.28572 0
M  V30 3147 C 303.443 0.472032 -1.63419 0
M  V30 3148 O 304.628 0.372853 -1.90587 0
M  V30 3149 C 301.758 0.253975 -3.4637 0
M  V30 3150 C 300.712 -0.609135 -4.23643 0
M  V30 3151 C 300.038 0.252252 -5.34105 0
M  V30 3152 C 301.338 -1.8829 -4.8718 0
M  V30 3153 H 303.032 -1.33402 -2.68038 0
M  V30 3154 H 300.578 -0.642904 -1.28852 0
M  V30 3155 H 302.531 0.593016 -4.17207 0
M  V30 3156 H 301.255 1.145 -3.05871 0
M  V30 3157 H 299.914 -0.931138 -3.54578 0
M  V30 3158 H 299.562 1.14278 -4.89846 0
M  V30 3159 H 299.262 -0.32188 -5.86718 0
M  V30 3160 H 300.786 0.586454 -6.07777 0
M  V30 3161 H 302.2 -1.61081 -5.50205 0
M  V30 3162 H 300.597 -2.40199 -5.49931 0
M  V30 3163 H 301.667 -2.59134 -4.09851 0
M  V30 3164 N 303.011 1.40521 -0.713556 0
M  V30 3165 C 304.257 2.01221 -0.252564 0
M  V30 3166 C 304.59 1.56444 1.1506 0
M  V30 3167 O 303.865 0.783597 1.78017 0
M  V30 3168 C 304.148 3.58582 -0.330332 0
M  V30 3169 C 304.001 4.13437 -1.77173 0
M  V30 3170 C 305.32 4.39079 0.299641 0
M  V30 3171 H 302.439 0.731077 -0.0932471 0
M  V30 3172 H 305.081 1.67026 -0.905673 0
M  V30 3173 H 303.231 3.87844 0.225737 0
M  V30 3174 H 304.903 3.9498 -2.38303 0
M  V30 3175 H 303.146 3.67801 -2.3001 0
M  V30 3176 H 303.817 5.22597 -1.77755 0
M  V30 3177 H 306.293 4.15735 -0.174139 0
M  V30 3178 H 305.169 5.4848 0.214771 0
M  V30 3179 H 305.43 4.19915 1.38288 0
M  V30 3180 N 304.489 0.459591 1.5075 0
M  V30 3181 C 305.729 -0.09824 2.04164 0
M  V30 3182 C 306.093 -1.3801 1.33481 0
M  V30 3183 O 307.294 -2.01959 1.77387 0
M  V30 3184 C 305.565 -0.289467 3.56226 0
M  V30 3185 S 307.124 -0.807507 4.31306 0
M  V30 3186 H 303.942 -0.0213845 0.710678 0
M  V30 3187 H 306.544 0.624098 1.85271 0
M  V30 3188 H 305.248 0.649461 4.05229 0
M  V30 3189 H 304.779 -1.03825 3.79452 0
M  V30 3190 H 306.794 -2.0824 4.50389 0
M  V30 3191 N 305.967 -1.56429 0.191757 0
M  V30 3192 C 307.215 -1.97095 -0.447006 0
M  V30 3193 C 307.536 -1.07967 -1.62383 0
M  V30 3194 O 306.806 -0.150248 -1.95323 0
M  V30 3195 H 305.386 -0.727832 -0.168135 0
M  V30 3196 H 308.048 -1.92911 0.27771 0
M  V30 3197 H 307.144 -3.01848 -0.793371 0
M  V30 3198 N 307.445 0.0818655 -1.57387 0
M  V30 3199 C 308.408 1.08265 -2.02018 0
M  V30 3200 C 309.408 1.32183 -0.915664 0
M  V30 3201 O 310.598 1.28073 -1.18081 0
M  V30 3202 C 307.73 2.42871 -2.39221 0
M  V30 3203 H 308.923 0.698204 -2.91659 0
M  V30 3204 H 306.476 0.327303 -1.52835 0
M  V30 3205 H 307.211 2.86167 -1.52575 0
M  V30 3206 H 306.996 2.26855 -3.19811 0
M  V30 3207 H 308.486 3.14826 -2.74362 0
M  V30 3208 N 308.923 1.53595 0.353017 0
M  V30 3209 C 309.853 1.83902 1.43883 0
M  V30 3210 C 310.834 0.693421 1.55324 0
M  V30 3211 O 312.019 0.944452 1.69687 0
M  V30 3212 C 309.149 2.04016 2.8106 0
M  V30 3213 C 308.103 3.19814 2.84434 0
M  V30 3214 C 307.429 3.25244 4.24406 0
M  V30 3215 C 308.729 4.58133 2.50822 0
M  V30 3216 H 310.423 2.74835 1.1877 0
M  V30 3217 H 307.969 1.32242 0.569917 0
M  V30 3218 H 309.922 2.238 3.57059 0
M  V30 3219 H 308.646 1.09804 3.07588 0
M  V30 3220 H 307.305 2.9987 2.10887 0
M  V30 3221 H 306.953 2.28646 4.48029 0
M  V30 3222 H 306.653 4.03054 4.27576 0
M  V30 3223 H 308.177 3.47228 5.0226 0
M  V30 3224 H 309.591 4.77995 3.16534 0
M  V30 3225 H 307.988 5.38276 2.6529 0
M  V30 3226 H 309.058 4.62387 1.46034 0
M  V30 3227 N 310.401 -0.613514 1.45168 0
M  V30 3228 C 311.331 -1.7354 1.56225 0
M  V30 3229 C 312.312 -1.64981 0.41414 0
M  V30 3230 O 313.497 -1.83472 0.636526 0
M  V30 3231 C 310.627 -3.12128 1.52295 0
M  V30 3232 C 309.581 -3.35491 2.65762 0
M  V30 3233 C 308.907 -4.74291 2.46885 0
M  V30 3234 C 310.207 -3.26325 4.0781 0
M  V30 3235 H 311.901 -1.64543 2.50132 0
M  V30 3236 H 309.447 -0.790185 1.20383 0
M  V30 3237 H 311.4 -3.90404 1.58628 0
M  V30 3238 H 310.124 -3.2195 0.549139 0
M  V30 3239 H 308.783 -2.59603 2.58847 0
M  V30 3240 H 308.431 -4.80839 1.47657 0
M  V30 3241 H 308.131 -4.9088 3.22972 0
M  V30 3242 H 309.655 -5.54775 2.55063 0
M  V30 3243 H 311.069 -3.94483 4.16 0
M  V30 3244 H 309.466 -3.54445 4.8424 0
M  V30 3245 H 310.536 -2.23855 4.30136 0
M  V30 3246 N 311.879 -1.3236 -0.855495 0
M  V30 3247 C 313.295 -1.11332 -1.14356 0
M  V30 3248 C 313.495 0.106751 -2.01217 0
M  V30 3249 O 312.551 0.791891 -2.39761 0
M  V30 3250 C 313.864 -2.39237 -1.82171 0
M  V30 3251 C 315.412 -2.44986 -1.9481 0
M  V30 3252 C 315.887 -3.7281 -2.66039 0
M  V30 3253 N 317.378 -3.73787 -2.73565 0
M  V30 3254 C 318.113 -4.69394 -3.29327 0
M  V30 3255 N 317.609 -5.75367 -3.85907 0
M  V30 3256 N 319.402 -4.56893 -3.27423 0
M  V30 3257 H 311.553 -2.10586 -0.277027 0
M  V30 3258 H 313.816 -0.929701 -0.185364 0
M  V30 3259 H 313.522 -3.28431 -1.25802 0
M  V30 3260 H 313.396 -2.50134 -2.82335 0
M  V30 3261 H 315.783 -1.56252 -2.50338 0
M  V30 3262 H 315.864 -2.38043 -0.936448 0
M  V30 3263 H 315.508 -4.61918 -2.11174 0
M  V30 3264 H 315.438 -3.77024 -3.67642 0
M  V30 3265 H 317.929 -2.97189 -2.33424 0
M  V30 3266 H 318.242 -6.44378 -4.26611 0
M  V30 3267 H 316.587 -5.79123 -3.84242 0
M  V30 3268 H 319.778 -3.73269 -2.82467 0
M  V30 3269 H 319.951 -5.31577 -3.7058 0
M  V30 3270 N 313.357 1.07166 -1.15556 0
M  V30 3271 C 314.29 2.13808 -0.797593 0
M  V30 3272 C 315.268 1.6101 0.226812 0
M  V30 3273 O 316.452 1.88161 0.112932 0
M  V30 3274 C 313.579 3.38187 -0.186371 0
M  V30 3275 C 312.625 4.09766 -1.18297 0
M  V30 3276 S 313.458 4.60932 -2.72584 0
M  V30 3277 C 314.614 5.88583 -2.12886 0
M  V30 3278 H 314.847 2.43843 -1.70083 0
M  V30 3279 H 312.38 1.19467 -0.978106 0
M  V30 3280 H 314.338 4.10189 0.159837 0
M  V30 3281 H 312.999 3.06326 0.694489 0
M  V30 3282 H 312.192 4.99065 -0.703562 0
M  V30 3283 H 311.794 3.43736 -1.47381 0
M  V30 3284 H 314.086 6.60866 -1.49208 0
M  V30 3285 H 315.029 6.41241 -3.0036 0
M  V30 3286 H 315.437 5.42194 -1.57116 0
M  V30 3287 N 314.835 0.952656 1.25548 0
M  V30 3288 C 315.785 0.442033 2.23674 0
M  V30 3289 C 316.769 -0.467632 1.53955 0
M  V30 3290 O 317.961 -0.301006 1.74422 0
M  V30 3291 C 315.09 -0.280816 3.4215 0
M  V30 3292 C 314.176 0.646803 4.19139 0
M  V30 3293 N 314.567 1.77759 4.73535 0
M  V30 3294 C 312.865 0.454617 4.43677 0
M  V30 3295 C 313.566 2.35658 5.31827 0
M  V30 3296 N 312.542 1.64333 5.18166 0
M  V30 3297 H 316.344 1.30505 2.63336 0
M  V30 3298 H 313.858 0.809904 1.40763 0
M  V30 3299 H 315.855 -0.663747 4.11582 0
M  V30 3300 H 314.515 -1.14046 3.04012 0
M  V30 3301 H 315.526 2.15949 4.7073 0
M  V30 3302 H 312.203 -0.362312 4.15925 0
M  V30 3303 H 313.593 3.30998 5.84713 0
M  V30 3304 N 316.313 -1.40141 0.720998 0
M  V30 3305 C 317.729 -1.54632 0.395113 0
M  V30 3306 C 317.929 -1.69115 -1.09555 0
M  V30 3307 O 316.985 -1.68377 -1.88163 0
M  V30 3308 C 318.298 -2.77177 1.1659 0
M  V30 3309 C 319.846 -2.91 1.15274 0
M  V30 3310 C 320.321 -4.16465 1.90579 0
M  V30 3311 N 321.812 -4.23476 1.87675 0
M  V30 3312 C 322.547 -5.19475 2.42762 0
M  V30 3313 N 322.043 -6.21348 3.06428 0
M  V30 3314 N 323.836 -5.11592 2.32874 0
M  V30 3315 H 315.987 -1.28986 1.68749 0
M  V30 3316 H 318.25 -0.62412 0.713567 0
M  V30 3317 H 317.956 -2.72771 2.22011 0
M  V30 3318 H 317.83 -3.69442 0.76108 0
M  V30 3319 H 320.217 -2.94907 0.106702 0
M  V30 3320 H 320.298 -1.99838 1.59682 0
M  V30 3321 H 319.942 -4.1332 2.95176 0
M  V30 3322 H 319.872 -5.06646 1.43587 0
M  V30 3323 H 322.363 -3.50497 1.41281 0
M  V30 3324 H 322.676 -6.91034 3.45965 0
M  V30 3325 H 321.021 -6.21777 3.10514 0
M  V30 3326 H 324.212 -4.30936 1.82789 0
M  V30 3327 H 324.385 -5.86233 2.76106 0
M  V30 3328 N 317.792 -0.46758 -1.50504 0
M  V30 3329 C 318.724 0.364655 -2.26281 0
M  V30 3330 C 319.737 0.960151 -1.31472 0
M  V30 3331 O 320.926 0.849153 -1.57008 0
M  V30 3332 C 318.026 1.52509 -3.02645 0
M  V30 3333 C 317.199 1.04302 -4.24782 0
M  V30 3334 C 316.258 2.07709 -4.8347 0
M  V30 3335 O 315.284 1.65913 -5.44483 0
M  V30 3336 N 316.486 3.40485 -4.70159 0
M  V30 3337 H 319.251 -0.28495 -2.98342 0
M  V30 3338 H 316.812 -0.298163 -1.59131 0
M  V30 3339 H 318.804 2.21371 -3.38787 0
M  V30 3340 H 317.374 2.07945 -2.33404 0
M  V30 3341 H 316.594 0.180393 -3.93787 0
M  V30 3342 H 317.882 0.698798 -5.03978 0
M  V30 3343 H 317.28 3.77155 -4.21629 0
M  V30 3344 H 315.837 4.05156 -5.1058 0
M  V30 3345 N 319.27 1.56325 -0.20005 0
M  V30 3346 C 320.517 1.97719 0.437411 0
M  V30 3347 C 320.845 1.08709 1.61284 0
M  V30 3348 O 320.1 0.127261 1.95286 0
M  V30 3349 C 320.399 3.4495 0.935103 0
M  V30 3350 C 320.065 4.5072 -0.12749 0
M  V30 3351 C 318.727 4.79368 -0.419451 0
M  V30 3352 C 321.079 5.14268 -0.847231 0
M  V30 3353 C 318.407 5.68854 -1.43604 0
M  V30 3354 C 320.759 6.04852 -1.85301 0
M  V30 3355 C 319.423 6.31855 -2.15211 0
M  V30 3356 H 318.693 0.723507 0.16006 0
M  V30 3357 H 321.34 1.89166 -0.298056 0
M  V30 3358 H 319.645 3.50599 1.74894 0
M  V30 3359 H 321.342 3.74337 1.43781 0
M  V30 3360 H 317.932 4.28458 0.11023 0
M  V30 3361 H 322.116 4.92222 -0.634901 0
M  V30 3362 H 317.372 5.88047 -1.67364 0
M  V30 3363 H 321.546 6.53152 -2.41591 0
M  V30 3364 H 319.173 7.00994 -2.94129 0
M  V30 3365 N 320.748 -0.0735177 1.57428 0
M  V30 3366 C 321.681 -1.11932 1.98863 0
M  V30 3367 C 322.659 -1.37666 0.865266 0
M  V30 3368 O 323.843 -1.51068 1.12742 0
M  V30 3369 C 320.97 -2.46403 2.32386 0
M  V30 3370 C 320.016 -2.36815 3.54713 0
M  V30 3371 S 320.849 -1.76392 5.05614 0
M  V30 3372 C 322.005 -3.12444 5.42337 0
M  V30 3373 H 322.238 -0.766212 2.87257 0
M  V30 3374 H 319.771 -0.281987 1.51803 0
M  V30 3375 H 321.729 -3.23755 2.52375 0
M  V30 3376 H 320.39 -2.78876 1.44524 0
M  V30 3377 H 319.583 -3.35977 3.7568 0
M  V30 3378 H 319.185 -1.67598 3.34345 0
M  V30 3379 H 321.477 -4.08753 5.40303 0
M  V30 3380 H 322.42 -2.96258 6.43146 0
M  V30 3381 H 322.828 -3.1297 4.69798 0
M  V30 3382 N 322.226 -1.5378 -0.344866 0
M  V30 3383 C 323.642 -1.44015 -0.687888 0
M  V30 3384 C 323.842 -0.595834 -1.92489 0
M  V30 3385 O 322.898 -0.0863064 -2.52352 0
M  V30 3386 C 324.211 -2.87481 -0.881758 0
M  V30 3387 C 325.759 -2.97247 -0.980459 0
M  V30 3388 C 326.234 -4.41819 -1.20665 0
M  V30 3389 N 327.725 -4.45339 -1.27389 0
M  V30 3390 C 328.46 -5.54333 -1.46639 0
M  V30 3391 N 327.956 -6.73335 -1.63071 0
M  V30 3392 N 329.749 -5.41944 -1.49176 0
M  V30 3393 H 321.9 -2.07169 0.468475 0
M  V30 3394 H 324.163 -0.93643 0.147655 0
M  V30 3395 H 323.869 -3.51672 -0.0443444 0
M  V30 3396 H 323.743 -3.32352 -1.78388 0
M  V30 3397 H 326.13 -2.33197 -1.8084 0
M  V30 3398 H 326.211 -2.5574 -0.0552713 0
M  V30 3399 H 325.855 -5.06449 -0.383652 0
M  V30 3400 H 325.785 -4.80917 -2.14539 0
M  V30 3401 H 328.276 -3.59585 -1.1622 0
M  V30 3402 H 328.589 -7.52165 -1.77391 0
M  V30 3403 H 326.934 -6.76282 -1.60209 0
M  V30 3404 H 330.125 -4.47932 -1.3592 0
M  V30 3405 H 330.298 -6.26946 -1.63837 0
M  V30 3406 N 323.704 0.605807 -1.45491 0
M  V30 3407 C 325.12 0.926751 -1.29936 0
M  V30 3408 C 325.32 1.99896 -0.253706 0
M  V30 3409 O 324.376 2.50038 0.351737 0
M  V30 3410 C 325.689 1.36599 -2.67883 0
M  V30 3411 C 327.237 1.4801 -2.75793 0
M  V30 3412 C 327.712 1.95309 -4.14268 0
M  V30 3413 N 329.203 2.0254 -4.16571 0
M  V30 3414 C 329.938 2.40363 -5.20589 0
M  V30 3415 N 329.434 2.77143 -6.34952 0
M  V30 3416 N 331.227 2.40718 -5.07948 0
M  V30 3417 H 323.378 -0.102862 -2.12151 0
M  V30 3418 H 325.641 0.016639 -0.947854 0
M  V30 3419 H 325.347 0.652306 -3.45598 0
M  V30 3420 H 325.221 2.33215 -2.96463 0
M  V30 3421 H 327.608 2.1847 -1.98381 0
M  V30 3422 H 327.689 0.497041 -2.50925 0
M  V30 3423 H 327.333 1.25436 -4.92167 0
M  V30 3424 H 327.263 2.94532 -4.3653 0
M  V30 3425 H 329.754 1.76699 -3.34045 0
M  V30 3426 H 330.067 3.0489 -7.10114 0
M  V30 3427 H 328.412 2.74834 -6.3835 0
M  V30 3428 H 331.603 2.11392 -4.1765 0
M  V30 3429 H 331.776 2.69869 -5.89131 0
M  V30 3430 N 325.182 1.32811 0.848464 0
M  V30 3431 C 326.41 1.26739 1.63538 0
M  V30 3432 C 326.825 -0.163484 1.88091 0
M  V30 3433 O 326.182 -1.10258 1.45429 0
M  V30 3434 C 326.233 2.03013 2.99112 0
M  V30 3435 O 325.954 3.40518 2.75643 0
M  V30 3436 C 327.455 2.04038 3.93552 0
M  V30 3437 H 324.675 0.437024 0.509167 0
M  V30 3438 H 327.219 1.75033 1.05753 0
M  V30 3439 H 325.374 1.58426 3.53525 0
M  V30 3440 H 325.788 3.79635 3.61908 0
M  V30 3441 H 327.262 2.61877 4.85926 0
M  V30 3442 H 327.739 1.0282 4.26995 0
M  V30 3443 H 328.345 2.486 3.45077 0
M  V30 3444 N 326.66 -1.06551 1.16123 0
M  V30 3445 C 327.885 -1.83544 0.965735 0
M  V30 3446 C 328.31 -1.81843 -0.481102 0
M  V30 3447 O 327.668 -1.21732 -1.34354 0
M  V30 3448 C 327.716 -3.28169 1.49457 0
M  V30 3449 O 326.82 -4.0643 0.699157 0
M  V30 3450 H 326.161 -0.568026 0.343864 0
M  V30 3451 H 328.691 -1.34362 1.54299 0
M  V30 3452 H 328.701 -3.78992 1.51092 0
M  V30 3453 H 327.376 -3.28722 2.54784 0
M  V30 3454 H 325.953 -3.65216 0.7531 0
M  V30 3455 N 328.138 -0.959301 -1.25041 0
M  V30 3456 C 329.068 -0.501388 -2.28053 0
M  V30 3457 C 330.049 0.454673 -1.63911 0
M  V30 3458 O 331.234 0.352618 -1.90972 0
M  V30 3459 C 328.364 0.217224 -3.4662 0
M  V30 3460 C 327.318 -0.654034 -4.22973 0
M  V30 3461 C 326.644 0.195589 -5.34342 0
M  V30 3462 C 327.944 -1.93447 -4.85155 0
M  V30 3463 H 329.638 -1.36238 -2.66608 0
M  V30 3464 H 327.184 -0.656534 -1.28163 0
M  V30 3465 H 329.137 0.548732 -4.17812 0
M  V30 3466 H 327.861 1.1125 -3.07068 0
M  V30 3467 H 326.52 -0.968693 -3.5357 0
M  V30 3468 H 326.168 1.09076 -4.91031 0
M  V30 3469 H 325.868 -0.384091 -5.86343 0
M  V30 3470 H 327.392 0.521958 -6.08365 0
M  V30 3471 H 328.806 -1.66908 -5.48466 0
M  V30 3472 H 327.203 -2.46018 -5.47353 0
M  V30 3473 H 328.273 -2.63466 -4.07079 0
M  V30 3474 N 329.616 1.39756 -0.72842 0
M  V30 3475 C 330.864 2.00248 -0.272946 0
M  V30 3476 C 331.185 1.58077 1.14178 0
M  V30 3477 O 330.455 0.826014 1.77634 0
M  V30 3478 H 329.035 0.740554 -0.0979247 0
M  V30 3479 H 331.697 1.70903 -0.936912 0
M  V30 3480 H 330.793 3.10495 -0.316142 0
M  V30 3481 N 331.094 0.475555 1.50254 0
M  V30 3482 C 332.322 -0.0754493 2.06762 0
M  V30 3483 C 332.737 -1.33111 1.33891 0
M  V30 3484 O 332.094 -1.77846 0.40952 0
M  V30 3485 C 332.145 -0.359008 3.59713 0
M  V30 3486 O 331.866 0.846851 4.29837 0
M  V30 3487 C 333.367 -0.956484 4.32858 0
M  V30 3488 H 330.587 0.00907525 0.670939 0
M  V30 3489 H 333.131 0.665618 1.93364 0
M  V30 3490 H 331.286 -1.05001 3.72899 0
M  V30 3491 H 331.7 0.594162 5.21124 0
M  V30 3492 H 333.174 -1.10463 5.40834 0
M  V30 3493 H 333.651 -1.94775 3.93649 0
M  V30 3494 H 334.257 -0.303723 4.24214 0
M  V30 3495 N 332.573 -1.56217 0.208337 0
M  V30 3496 C 333.483 -2.23316 -0.718836 0
M  V30 3497 C 334.499 -1.23648 -1.22422 0
M  V30 3498 O 335.675 -1.56423 -1.26861 0
M  V30 3499 C 332.74 -2.88968 -1.91568 0
M  V30 3500 C 331.801 -4.03943 -1.45357 0
M  V30 3501 C 331.034 -4.66455 -2.59337 0
M  V30 3502 O 331.257 -4.27919 -3.77149 0
M  V30 3503 O 330.191 -5.55686 -2.31293 0
M  V30 3504 H 334.017 -3.03182 -0.177315 0
M  V30 3505 H 331.602 -1.49384 -0.0215402 0
M  V30 3506 H 333.484 -3.30455 -2.61491 0
M  V30 3507 H 332.159 -2.12071 -2.44556 0
M  V30 3508 H 331.066 -3.67052 -0.722746 0
M  V30 3509 H 332.399 -4.82543 -0.970219 0
M  V30 3510 N 334.051 0.0651679 -1.57465 0
M  V30 3511 C 334.983 1.10359 -2.00882 0
M  V30 3512 C 335.996 1.346 -0.915788 0
M  V30 3513 O 337.185 1.32723 -1.1936 0
M  V30 3514 C 334.285 2.45312 -2.33828 0
M  V30 3515 C 333.458 2.40934 -3.65061 0
M  V30 3516 C 332.517 3.58047 -3.85602 0
M  V30 3517 O 331.543 3.39175 -4.57109 0
M  V30 3518 N 332.745 4.78637 -3.28462 0
M  V30 3519 H 335.51 0.733807 -2.90578 0
M  V30 3520 H 333.071 0.253719 -1.599 0
M  V30 3521 H 335.063 3.22314 -2.44737 0
M  V30 3522 H 333.633 2.74267 -1.49988 0
M  V30 3523 H 332.853 1.49273 -3.64844 0
M  V30 3524 H 334.141 2.35117 -4.51218 0
M  V30 3525 H 333.539 4.96872 -2.70433 0
M  V30 3526 H 332.096 5.53127 -3.44809 0
M  V30 3527 N 335.529 1.53961 0.336706 0
M  V30 3528 C 336.479 1.7881 1.41461 0
M  V30 3529 C 337.463 0.643561 1.47469 0
M  V30 3530 O 338.655 0.903166 1.52223 0
M  V30 3531 C 335.784 2.00722 2.78506 0
M  V30 3532 C 334.87 3.2126 2.76862 0
M  V30 3533 N 335.261 4.42588 2.44845 0
M  V30 3534 C 333.559 3.22568 3.08004 0
M  V30 3535 C 334.26 5.2447 2.51607 0
M  V30 3536 N 333.236 4.61344 2.87511 0
M  V30 3537 H 337.038 2.70205 1.15615 0
M  V30 3538 H 334.552 1.52978 0.545112 0
M  V30 3539 H 336.549 2.1666 3.5618 0
M  V30 3540 H 335.209 1.10573 3.05293 0
M  V30 3541 H 336.22 4.69819 2.17922 0
M  V30 3542 H 332.897 2.42409 3.39918 0
M  V30 3543 H 334.287 6.31324 2.29955 0
M  V30 3544 N 337.007 -0.598083 1.45811 0
M  V30 3545 C 337.957 -1.70272 1.51629 0
M  V30 3546 C 338.941 -1.56382 0.378629 0
M  V30 3547 O 340.133 -1.65557 0.626087 0
M  V30 3548 C 337.262 -3.09042 1.49493 0
M  V30 3549 C 336.348 -3.28284 2.68496 0
M  V30 3550 N 336.739 -3.17748 3.93535 0
M  V30 3551 C 335.037 -3.59182 2.64394 0
M  V30 3552 C 335.738 -3.38579 4.7301 0
M  V30 3553 N 334.714 -3.63016 4.04624 0
M  V30 3554 H 338.516 -1.60634 2.46118 0
M  V30 3555 H 336.03 -0.801642 1.41235 0
M  V30 3556 H 338.027 -3.88302 1.51747 0
M  V30 3557 H 336.687 -3.19823 0.560683 0
M  V30 3558 H 337.698 -2.95944 4.25014 0
M  V30 3559 H 334.375 -3.76742 1.79922 0
M  V30 3560 H 335.765 -3.35747 5.82 0
M  V30 3561 N 338.485 -1.33259 -0.841409 0
M  V30 3562 C 339.448 -1.23221 -1.9326 0
M  V30 3563 C 340.448 -0.151895 -1.60081 0
M  V30 3564 O 341.638 -0.403246 -1.69468 0
M  V30 3565 C 338.77 -0.898123 -3.28856 0
M  V30 3566 H 339.963 -2.2021 -2.03587 0
M  V30 3567 H 337.516 -1.17281 -1.03319 0
M  V30 3568 H 338.251 0.0693841 -3.24226 0
M  V30 3569 H 338.036 -1.67934 -3.54317 0
M  V30 3570 H 339.526 -0.852563 -4.08805 0
M  V30 3571 N 339.963 1.05934 -1.16686 0
M  V30 3572 C 340.926 2.11669 -0.879144 0
M  V30 3573 C 341.926 1.60294 0.127445 0
M  V30 3574 O 343.116 1.7389 -0.103865 0
M  V30 3575 C 340.248 3.39438 -0.315425 0
M  V30 3576 H 341.441 2.38626 -1.81653 0
M  V30 3577 H 338.994 1.22058 -0.976299 0
M  V30 3578 H 339.729 3.18132 0.629468 0
M  V30 3579 H 339.514 3.78034 -1.04079 0
M  V30 3580 H 341.004 4.17391 -0.132189 0
M  V30 3581 N 341.441 0.965919 1.2453 0
M  V30 3582 C 342.404 0.499547 2.2369 0
M  V30 3583 C 343.404 -0.40294 1.5567 0
M  V30 3584 O 344.594 -0.19865 1.73064 0
M  V30 3585 C 341.726 -0.276792 3.39774 0
M  V30 3586 H 342.919 1.37613 2.66463 0
M  V30 3587 H 340.472 0.750324 1.37112 0
M  V30 3588 H 341.207 -1.17055 3.02438 0
M  V30 3589 H 340.992 0.370826 3.90343 0
M  V30 3590 H 342.482 -0.592175 4.1338 0
M  V30 3591 N 342.919 -1.39368 0.735821 0
M  V30 3592 C 343.882 -2.2896 0.104874 0
M  V30 3593 C 344.882 -1.46347 -0.666274 0
M  V30 3594 O 346.072 -1.67014 -0.49517 0
M  V30 3595 C 343.204 -3.29857 -0.860656 0
M  V30 3596 H 344.397 -2.86259 0.894205 0
M  V30 3597 H 341.95 -1.48029 0.501704 0
M  V30 3598 H 342.685 -2.77615 -1.67631 0
M  V30 3599 H 342.47 -3.9087 -0.310327 0
M  V30 3600 H 343.96 -3.96893 -1.29867 0
M  V30 3601 N 344.397 -0.483516 -1.5 0
M  V30 3602 C 345.36 0.292965 -2.2732 0
M  V30 3603 C 346.36 0.909499 -1.32608 0
M  V30 3604 O 347.55 0.776745 -1.55924 0
M  V30 3605 C 344.682 1.41854 -3.09984 0
M  V30 3606 H 345.875 -0.385289 -2.97415 0
M  V30 3607 H 343.428 -0.237942 -1.54478 0
M  V30 3608 H 344.163 2.13148 -2.44414 0
M  V30 3609 H 343.948 0.982114 -3.79601 0
M  V30 3610 H 345.438 1.96597 -3.68429 0
M  V30 3611 N 345.875 1.56104 -0.216619 0
M  V30 3612 C 347.1 2.0301 0.424462 0
M  V30 3613 C 347.525 1.0955 1.52907 0
M  V30 3614 O 346.883 0.0827914 1.81111 0
M  V30 3615 C 346.931 3.4819 0.937883 0
M  V30 3616 O 346.035 3.57865 2.04955 0
M  V30 3617 H 345.376 0.656925 0.0966755 0
M  V30 3618 H 347.906 2.01859 -0.33381 0
M  V30 3619 H 347.916 3.88413 1.24897 0
M  V30 3620 H 346.591 4.15699 0.129387 0
M  V30 3621 H 345.168 3.29527 1.74546 0
M  V30 3622 N 347.353 -0.0568162 1.57498 0
M  V30 3623 C 348.599 -0.75422 1.88253 0
M  V30 3624 C 348.932 -1.76461 0.810865 0
M  V30 3625 O 348.207 -1.93691 -0.177259 0
M  V30 3626 C 348.49 -1.44878 3.2967 0
M  V30 3627 C 348.343 -0.453789 4.47505 0
M  V30 3628 C 349.662 -2.38994 3.69554 0
M  V30 3629 H 346.781 -0.272724 0.684683 0
M  V30 3630 H 349.423 -0.0172113 1.89992 0
M  V30 3631 H 347.573 -2.077 3.28318 0
M  V30 3632 H 349.245 0.170371 4.60985 0
M  V30 3633 H 347.488 0.229552 4.33192 0
M  V30 3634 H 348.159 -0.977699 5.43273 0
M  V30 3635 H 350.635 -1.86239 3.72095 0
M  V30 3636 H 349.511 -2.84587 4.69363 0
M  V30 3637 H 349.772 -3.24461 3.00296 0
M  V30 3638 N 348.832 -1.54138 -0.328536 0
M  V30 3639 C 349.795 -1.82462 -1.38709 0
M  V30 3640 C 350.795 -0.696229 -1.44946 0
M  V30 3641 O 351.985 -0.964535 -1.4506 0
M  V30 3642 C 349.117 -1.98018 -2.77492 0
M  V30 3643 H 350.31 -2.77037 -1.14851 0
M  V30 3644 H 347.863 -1.45779 -0.563751 0
M  V30 3645 H 348.598 -1.05637 -3.06613 0
M  V30 3646 H 348.383 -2.80124 -2.74359 0
M  V30 3647 H 349.873 -2.21396 -3.54081 0
M  V30 3648 N 350.31 0.590341 -1.46126 0
M  V30 3649 C 351.535 1.37991 -1.54833 0
M  V30 3650 C 351.96 1.87163 -0.187506 0
M  V30 3651 O 351.318 1.61133 0.831008 0
M  V30 3652 C 351.366 2.54867 -2.55098 0
M  V30 3653 O 350.47 3.56061 -2.08073 0
M  V30 3654 H 349.811 0.411265 -0.521303 0
M  V30 3655 H 352.341 0.716819 -1.91632 0
M  V30 3656 H 352.351 3.01886 -2.74461 0
M  V30 3657 H 351.026 2.18429 -3.53923 0
M  V30 3658 H 349.603 3.15574 -1.98664 0
M  V30 3659 N 351.788 1.33704 0.83433 0
M  V30 3660 C 353.204 1.13137 1.12571 0
M  V30 3661 C 353.404 -0.0747261 2.01361 0
M  V30 3662 O 352.46 -0.753647 2.4099 0
M  V30 3663 C 353.773 2.42105 1.78342 0
M  V30 3664 C 355.321 2.48054 1.90888 0
M  V30 3665 C 355.796 3.76995 2.60075 0
M  V30 3666 N 357.287 3.78092 2.67584 0
M  V30 3667 C 358.022 4.74574 3.21818 0
M  V30 3668 N 357.518 5.81434 3.76705 0
M  V30 3669 N 359.311 4.62044 3.20112 0
M  V30 3670 H 351.462 2.11 0.243489 0
M  V30 3671 H 353.725 0.932532 0.17055 0
M  V30 3672 H 353.431 3.30391 1.20561 0
M  V30 3673 H 353.305 2.54594 2.7832 0
M  V30 3674 H 355.692 1.60215 2.47821 0
M  V30 3675 H 355.773 2.39502 0.898459 0
M  V30 3676 H 355.417 4.65219 2.03799 0
M  V30 3677 H 355.347 3.82825 3.61597 0
M  V30 3678 H 357.838 3.00865 2.28667 0
M  V30 3679 H 358.151 6.51084 4.16305 0
M  V30 3680 H 356.496 5.85163 3.7498 0
M  V30 3681 H 359.687 3.77716 2.76493 0
M  V30 3682 H 359.86 5.37406 3.62076 0
M  V30 3683 N 353.266 -1.05314 1.17247 0
M  V30 3684 C 354.514 -1.77941 0.958194 0
M  V30 3685 C 354.835 -1.88089 -0.514556 0
M  V30 3686 O 354.105 -1.39676 -1.37359 0
M  V30 3687 H 352.685 -0.659116 0.351533 0
M  V30 3688 H 355.347 -1.27166 1.47699 0
M  V30 3689 H 354.443 -2.79663 1.38546 0
M  V30 3690 N 354.744 -0.972509 -1.24016 0
M  V30 3691 C 355.694 -0.477561 -2.22942 0
M  V30 3692 C 356.678 0.44308 -1.54679 0
M  V30 3693 O 357.87 0.273219 -1.74879 0
M  V30 3694 C 354.999 0.226348 -3.42553 0
M  V30 3695 C 354.085 -0.713403 -4.18057 0
M  V30 3696 N 354.476 -1.8527 -4.70647 0
M  V30 3697 C 352.774 -0.525145 -4.42898 0
M  V30 3698 C 353.475 -2.44089 -5.28011 0
M  V30 3699 N 352.451 -1.72556 -5.15486 0
M  V30 3700 H 356.253 -1.34678 -2.61226 0
M  V30 3701 H 353.767 -0.832196 -1.39457 0
M  V30 3702 H 355.764 0.598184 -4.12586 0
M  V30 3703 H 354.424 1.09195 -3.05788 0
M  V30 3704 H 355.435 -2.2341 -4.67235 0
M  V30 3705 H 352.112 0.296096 -4.16449 0
M  V30 3706 H 353.502 -3.40259 -5.79374 0
M  V30 3707 N 356.222 1.38976 -0.743202 0
M  V30 3708 C 357.633 1.83123 -0.363732 0
M  V30 3709 C 357.984 1.6205 1.10609 0
M  V30 3710 O 357.109 1.11606 1.854 0
M  V30 3711 C 357.704 3.32439 -0.653408 0
M  V30 3712 C 356.263 3.74974 -0.327338 0
M  V30 3713 C 355.41 2.61878 -0.911875 0
M  V30 3714 H 358.361 1.27852 -0.940191 0
M  V30 3715 H 358.382 3.80432 0.0720031 0
M  V30 3716 H 357.894 3.47745 -1.72323 0
M  V30 3717 H 355.995 3.65252 0.736314 0
M  V30 3718 H 356.108 4.72106 -0.815631 0
M  V30 3719 H 354.472 2.52448 -0.337944 0
M  V30 3720 H 355.255 2.79987 -1.98651 0
M  V30 3721 N 357.7 0.491464 1.49741 0
M  V30 3722 C 358.663 -0.280906 2.27472 0
M  V30 3723 C 359.663 -0.902454 1.33088 0
M  V30 3724 O 360.853 -0.768465 1.56334 0
M  V30 3725 C 357.985 -1.40209 3.10732 0
M  V30 3726 H 359.178 0.401056 2.97206 0
M  V30 3727 H 356.731 0.246131 1.5435 0
M  V30 3728 H 357.466 -2.11849 2.45541 0
M  V30 3729 H 357.251 -0.961969 3.80117 0
M  V30 3730 H 358.741 -1.9464 3.69466 0
M  V30 3731 N 359.178 -1.55987 0.224894 0
M  V30 3732 C 360.141 -2.19178 -0.670348 0
M  V30 3733 C 361.141 -1.15461 -1.11917 0
M  V30 3734 O 362.331 -1.40675 -1.02743 0
M  V30 3735 C 359.463 -2.81777 -1.9187 0
M  V30 3736 H 360.656 -2.99662 -0.119364 0
M  V30 3737 H 358.209 -1.5628 -0.0247128 0
M  V30 3738 H 358.944 -2.05172 -2.51147 0
M  V30 3739 H 358.729 -3.57732 -1.60531 0
M  V30 3740 H 360.219 -3.30205 -2.55645 0
M  V30 3741 N 360.656 0.0484629 -1.57525 0
M  V30 3742 C 361.881 0.759177 -1.93006 0
M  V30 3743 C 362.306 1.69125 -0.823317 0
M  V30 3744 O 361.664 1.79931 0.222364 0
M  V30 3745 C 361.712 1.50899 -3.27509 0
M  V30 3746 O 360.816 2.62112 -3.18388 0
M  V30 3747 H 360.157 0.205564 -0.631379 0
M  V30 3748 H 362.687 0.00972959 -2.04598 0
M  V30 3749 H 362.697 1.88317 -3.6194 0
M  V30 3750 H 361.372 0.825269 -4.0763 0
M  V30 3751 H 359.949 2.27379 -2.95556 0
M  V30 3752 N 362.134 1.5431 0.320358 0
M  V30 3753 C 363.545 1.63872 0.894594 0
M  V30 3754 C 363.896 0.534847 1.88769 0
M  V30 3755 O 363.021 -0.331732 2.13842 0
M  V30 3756 C 363.616 2.97049 1.62934 0
M  V30 3757 C 362.175 3.08796 2.15226 0
M  V30 3758 C 361.322 2.59456 0.978671 0
M  V30 3759 H 364.273 1.58398 0.0978544 0
M  V30 3760 H 364.294 2.87388 2.49376 0
M  V30 3761 H 363.806 3.7737 0.906302 0
M  V30 3762 H 361.907 2.33156 2.90636 0
M  V30 3763 H 362.02 4.14649 2.40006 0
M  V30 3764 H 360.384 2.1543 1.35875 0
M  V30 3765 H 361.167 3.42237 0.269895 0
M  V30 3766 N 363.613 -0.582584 1.46437 0
M  V30 3767 C 364.576 -1.67366 1.56592 0
M  V30 3768 C 365.576 -1.54575 0.443072 0
M  V30 3769 O 366.766 -1.59191 0.707381 0
M  V30 3770 C 363.898 -3.06791 1.48634 0
M  V30 3771 H 365.091 -1.5972 2.5383 0
M  V30 3772 H 362.644 -0.800432 1.34249 0
M  V30 3773 H 363.379 -3.19993 0.526763 0
M  V30 3774 H 363.164 -3.17484 2.30101 0
M  V30 3775 H 364.654 -3.86218 1.58826 0
M  V30 3776 N 365.091 -1.34144 -0.827227 0
M  V30 3777 C 366.021 -1.28005 -1.95287 0
M  V30 3778 C 367.002 -0.158321 -1.69362 0
M  V30 3779 O 368.187 -0.349987 -1.9102 0
M  V30 3780 C 365.317 -1.03036 -3.31664 0
M  V30 3781 C 364.271 -2.11628 -3.72019 0
M  V30 3782 C 363.597 -1.71854 -5.0633 0
M  V30 3783 C 364.897 -3.53417 -3.8457 0
M  V30 3784 H 366.591 -2.22187 -2.00682 0
M  V30 3785 H 364.137 -1.0696 -0.964135 0
M  V30 3786 H 366.09 -0.973863 -4.09993 0
M  V30 3787 H 364.814 -0.0529391 -3.26557 0
M  V30 3788 H 363.473 -2.16339 -2.95961 0
M  V30 3789 H 363.121 -0.727841 -4.97706 0
M  V30 3790 H 362.821 -2.44531 -5.34302 0
M  V30 3791 H 364.345 -1.67692 -5.87122 0
M  V30 3792 H 365.759 -3.51142 -4.5318 0
M  V30 3793 H 364.156 -4.24679 -4.2399 0
M  V30 3794 H 365.226 -3.91072 -2.86689 0
M  V30 3795 N 366.569 1.04691 -1.17803 0
M  V30 3796 C 367.98 1.59238 -0.974689 0
M  V30 3797 C 368.331 1.90306 0.477292 0
M  V30 3798 O 367.456 1.68846 1.35352 0
M  V30 3799 C 368.051 2.89318 -1.76296 0
M  V30 3800 C 366.61 3.40506 -1.60414 0
M  V30 3801 C 365.757 2.14172 -1.76141 0
M  V30 3802 H 368.708 0.874395 -1.32439 0
M  V30 3803 H 368.729 3.5944 -1.24833 0
M  V30 3804 H 368.241 2.66675 -2.81968 0
M  V30 3805 H 366.342 3.68175 -0.572519 0
M  V30 3806 H 366.455 4.14753 -2.39827 0
M  V30 3807 H 364.819 2.25176 -1.19028 0
M  V30 3808 H 365.602 1.93992 -2.83235 0
M  V30 3809 N 368.047 0.979072 1.23499 0
M  V30 3810 C 369.463 0.687475 1.44034 0
M  V30 3811 C 369.663 -0.746801 1.8715 0
M  V30 3812 O 368.719 -1.51939 2.0167 0
M  V30 3813 C 370.032 1.68127 2.49307 0
M  V30 3814 C 371.58 1.69516 2.63122 0
M  V30 3815 C 372.055 2.67723 3.71603 0
M  V30 3816 N 373.546 2.66233 3.79044 0
M  V30 3817 C 374.281 3.38891 4.62537 0
M  V30 3818 N 373.777 4.21103 5.50131 0
M  V30 3819 N 375.57 3.27661 4.56721 0
M  V30 3820 H 367.721 1.90559 0.938135 0
M  V30 3821 H 369.984 0.821051 0.473897 0
M  V30 3822 H 369.69 2.70693 2.2454 0
M  V30 3823 H 369.564 1.46306 3.4767 0
M  V30 3824 H 371.951 0.676561 2.8724 0
M  V30 3825 H 372.032 1.95404 1.65079 0
M  V30 3826 H 371.676 3.69724 3.48233 0
M  V30 3827 H 371.606 2.39111 4.69184 0
M  V30 3828 H 374.097 2.06568 3.16446 0
M  V30 3829 H 374.41 4.73403 6.10827 0
M  V30 3830 H 372.755 4.25195 5.49759 0
M  V30 3831 H 375.946 2.62887 3.87309 0
M  V30 3832 H 376.119 3.84547 5.21562 0
M  V30 3833 N 369.525 -1.3858 0.750561 0
M  V30 3834 C 370.455 -2.33102 0.136237 0
M  V30 3835 C 371.436 -1.54713 -0.706965 0
M  V30 3836 O 372.621 -1.83043 -0.648769 0
M  V30 3837 C 369.751 -3.38882 -0.760017 0
M  V30 3838 C 368.705 -4.27995 -0.0197785 0
M  V30 3839 C 368.031 -5.24605 -1.03408 0
M  V30 3840 C 369.331 -5.09554 1.14684 0
M  V30 3841 H 371.025 -2.84726 0.925822 0
M  V30 3842 H 368.571 -1.36898 0.446654 0
M  V30 3843 H 370.524 -4.0397 -1.19943 0
M  V30 3844 H 369.248 -2.85734 -1.58189 0
M  V30 3845 H 367.907 -3.64409 0.400184 0
M  V30 3846 H 367.555 -4.67746 -1.84994 0
M  V30 3847 H 367.255 -5.85081 -0.543464 0
M  V30 3848 H 368.779 -5.9257 -1.47288 0
M  V30 3849 H 370.193 -5.67899 0.785118 0
M  V30 3850 H 368.59 -5.7925 1.56812 0
M  V30 3851 H 369.66 -4.4347 1.96118 0
M  V30 3852 N 371.003 -0.499398 -1.49478 0
M  V30 3853 C 372.228 0.044722 -2.07352 0
M  V30 3854 C 372.653 1.30207 -1.35749 0
M  V30 3855 O 372.011 1.76516 -0.413732 0
M  V30 3856 C 372.059 0.283013 -3.59488 0
M  V30 3857 O 371.163 1.35804 -3.89398 0
M  V30 3858 H 370.504 -0.0255147 -0.66351 0
M  V30 3859 H 373.034 -0.698561 -1.92305 0
M  V30 3860 H 373.044 0.515007 -4.04737 0
M  V30 3861 H 371.719 -0.635636 -4.11014 0
M  V30 3862 H 370.296 1.11113 -3.55961 0
M  V30 3863 N 372.481 1.55866 -0.233164 0
M  V30 3864 C 373.758 1.90471 0.444988 0
M  V30 3865 C 374.138 1.15209 1.7689 0
M  V30 3866 O 373.486 0.265119 2.26957 0
M  V30 3867 C 373.696 3.4333 0.626559 0
M  V30 3868 C 375.044 4.14319 0.92871 0
M  V30 3869 O 376.068 3.48993 0.712926 0
M  V30 3870 O 374.927 5.29846 1.33887 0
M  V30 3871 H 372.021 0.792347 0.236885 0
M  V30 3872 H 374.567 1.67437 -0.276211 0
M  V30 3873 H 373.339 3.90095 -0.306822 0
M  V30 3874 H 372.962 3.72181 1.39881 0
M  V30 3875 N 373.959 -0.0401083 1.57549 0
M  V30 3876 C 375.206 -0.733125 1.88763 0
M  V30 3877 C 375.534 -1.75946 0.829058 0
M  V30 3878 O 374.789 -1.94949 -0.171323 0
M  V30 3879 C 375.088 -1.44902 3.26708 0
M  V30 3880 C 374.754 -0.559707 4.47413 0
M  V30 3881 C 373.416 -0.314731 4.8017 0
M  V30 3882 C 375.768 0.0549743 5.21171 0
M  V30 3883 C 373.096 0.553886 5.8408 0
M  V30 3884 C 375.448 0.911229 6.26003 0
M  V30 3885 C 374.112 1.16577 6.57241 0
M  V30 3886 H 373.382 -0.268269 0.690733 0
M  V30 3887 H 376.029 0.00679408 1.91499 0
M  V30 3888 H 374.334 -2.26197 3.1991 0
M  V30 3889 H 376.031 -1.99058 3.48105 0
M  V30 3890 H 372.621 -0.760793 4.21794 0
M  V30 3891 H 376.805 -0.121344 4.96152 0
M  V30 3892 H 372.061 0.759518 6.06664 0
M  V30 3893 H 376.235 1.3941 6.82303 0
M  V30 3894 H 373.862 1.84058 7.37582 0
M  V30 3895 N 375.437 -1.54477 -0.31217 0
M  V30 3896 C 376.853 -1.45442 -0.657185 0
M  V30 3897 C 377.053 -0.63653 -1.91182 0
M  V30 3898 O 376.109 -0.139815 -2.52113 0
M  V30 3899 C 377.422 -2.89287 -0.82058 0
M  V30 3900 C 378.97 -2.9926 -0.917188 0
M  V30 3901 C 379.445 -4.44279 -1.11267 0
M  V30 3902 N 380.936 -4.4794 -1.17914 0
M  V30 3903 C 381.671 -5.57318 -1.34848 0
M  V30 3904 N 381.167 -6.76642 -1.48752 0
M  V30 3905 N 382.96 -5.44986 -1.37647 0
M  V30 3906 H 375.111 -2.06129 0.512313 0
M  V30 3907 H 377.374 -0.933088 0.167485 0
M  V30 3908 H 377.08 -3.51687 0.0302604 0
M  V30 3909 H 376.954 -3.36061 -1.71298 0
M  V30 3910 H 379.341 -2.36981 -1.75852 0
M  V30 3911 H 379.422 -2.558 -0.00101257 0
M  V30 3912 H 379.066 -5.07149 -0.27614 0
M  V30 3913 H 378.996 -4.85359 -2.04289 0
M  V30 3914 H 381.487 -3.61969 -1.08567 0
M  V30 3915 H 381.8 -7.55758 -1.61397 0
M  V30 3916 H 380.145 -6.79529 -1.45828 0
M  V30 3917 H 383.336 -4.50715 -1.26388 0
M  V30 3918 H 383.509 -6.3028 -1.50501 0
M  V30 3919 N 376.915 0.57481 -1.46744 0
M  V30 3920 C 378.331 0.898981 -1.31873 0
M  V30 3921 C 378.531 1.99313 -0.29605 0
M  V30 3922 O 377.587 2.50728 0.298621 0
M  V30 3923 C 378.9 1.30886 -2.7072 0
M  V30 3924 C 380.448 1.42127 -2.78871 0
M  V30 3925 C 380.923 1.86478 -4.18318 0
M  V30 3926 N 382.414 1.93658 -4.20774 0
M  V30 3927 C 383.149 2.29267 -5.2557 0
M  V30 3928 N 382.645 2.63612 -6.40688 0
M  V30 3929 N 384.438 2.29889 -5.1294 0
M  V30 3930 H 376.589 -0.147839 -2.11885 0
M  V30 3931 H 378.852 -0.00347013 -0.947994 0
M  V30 3932 H 378.558 0.578853 -3.46904 0
M  V30 3933 H 378.432 2.26874 -3.01343 0
M  V30 3934 H 380.819 2.14213 -2.0297 0
M  V30 3935 H 380.9 0.443705 -2.51922 0
M  V30 3936 H 380.544 1.14968 -4.94717 0
M  V30 3937 H 380.474 2.85207 -4.42679 0
M  V30 3938 H 382.965 1.69574 -3.37718 0
M  V30 3939 H 383.278 2.89759 -7.16421 0
M  V30 3940 H 381.623 2.61232 -6.44036 0
M  V30 3941 H 384.814 2.02485 -4.22039 0
M  V30 3942 H 384.987 2.57312 -5.94722 0
M  V30 3943 N 378.394 1.34581 0.820102 0
M  V30 3944 C 379.81 1.14325 1.11364 0
M  V30 3945 C 380.01 -0.0533648 2.01429 0
M  V30 3946 O 379.066 -0.728044 2.41776 0
M  V30 3947 C 380.379 2.43983 1.75764 0
M  V30 3948 C 381.927 2.50065 1.88246 0
M  V30 3949 C 382.402 3.79732 2.56061 0
M  V30 3950 N 383.893 3.80908 2.63558 0
M  V30 3951 C 384.628 4.77961 3.16766 0
M  V30 3952 N 384.124 5.85397 3.70517 0
M  V30 3953 N 385.917 4.65413 3.15194 0
M  V30 3954 H 378.068 2.11246 0.221096 0
M  V30 3955 H 380.331 0.934289 0.160649 0
M  V30 3956 H 380.037 3.31651 1.1705 0
M  V30 3957 H 379.911 2.57531 2.75604 0
M  V30 3958 H 382.298 1.62834 2.46108 0
M  V30 3959 H 382.379 2.40442 0.873006 0
M  V30 3960 H 382.023 4.67354 1.98853 0
M  V30 3961 H 381.953 3.86639 3.57516 0
M  V30 3962 H 384.444 3.03274 2.25463 0
M  V30 3963 H 384.757 6.55463 4.09376 0
M  V30 3964 H 383.102 5.89107 3.68752 0
M  V30 3965 H 386.293 3.80627 2.72471 0
M  V30 3966 H 386.466 5.41216 3.56356 0
M  V30 3967 N 379.872 -1.04064 1.18357 0
M  V30 3968 C 381.288 -1.2947 0.933258 0
M  V30 3969 C 381.488 -1.97466 -0.401169 0
M  V30 3970 O 380.544 -2.25528 -1.13549 0
M  V30 3971 C 381.857 -2.15337 2.09882 0
M  V30 3972 C 383.405 -2.28683 2.13712 0
M  V30 3973 C 383.88 -3.17917 3.29686 0
M  V30 3974 N 385.371 -3.25504 3.29547 0
M  V30 3975 C 386.106 -3.94706 4.15926 0
M  V30 3976 N 385.602 -4.66239 5.12439 0
M  V30 3977 N 387.395 -3.90986 4.0384 0
M  V30 3978 H 379.546 -0.583359 2.04232 0
M  V30 3979 H 381.809 -0.319921 0.892387 0
M  V30 3980 H 381.515 -1.72682 3.06389 0
M  V30 3981 H 381.389 -3.16015 2.05947 0
M  V30 3982 H 383.776 -2.70575 1.17784 0
M  V30 3983 H 383.857 -1.27596 2.21705 0
M  V30 3984 H 383.501 -2.76736 4.25887 0
M  V30 3985 H 383.431 -4.19036 3.1893 0
M  V30 3986 H 385.922 -2.74547 2.59677 0
M  V30 3987 H 386.235 -5.16638 5.74722 0
M  V30 3988 H 384.58 -4.65143 5.16398 0
M  V30 3989 H 387.771 -3.34234 3.27727 0
M  V30 3990 H 387.944 -4.44646 4.71375 0
M  V30 3991 N 381.35 -0.985608 -1.22978 0
M  V30 3992 C 382.575 -0.675254 -1.961 0
M  V30 3993 C 383 0.752154 -1.72407 0
M  V30 3994 O 382.358 1.5131 -0.998751 0
M  V30 3995 C 382.406 -0.977899 -3.47087 0
M  V30 3996 O 381.51 -0.072685 -4.12336 0
M  V30 3997 H 380.851 -0.253443 -0.613728 0
M  V30 3998 H 383.381 -1.32061 -1.56272 0
M  V30 3999 H 383.391 -0.916739 -3.97567 0
M  V30 4000 H 382.066 -2.01807 -3.63657 0
M  V30 4001 H 380.643 -0.188703 -3.72422 0
M  V30 4002 N 382.828 1.3818 -0.7579 0
M  V30 4003 C 384.075 2.00019 -0.315985 0
M  V30 4004 C 384.403 1.60163 1.10355 0
M  V30 4005 O 383.658 0.83264 1.77103 0
M  V30 4006 C 383.957 3.55252 -0.391218 0
M  V30 4007 C 383.623 4.14834 -1.76702 0
M  V30 4008 C 382.285 4.30821 -2.14353 0
M  V30 4009 C 384.637 4.47658 -2.66931 0
M  V30 4010 C 381.965 4.76928 -3.41696 0
M  V30 4011 C 384.317 4.95184 -3.93669 0
M  V30 4012 C 382.981 5.09377 -4.31383 0
M  V30 4013 H 382.251 0.731923 -0.115627 0
M  V30 4014 H 384.898 1.65161 -0.969223 0
M  V30 4015 H 383.203 3.90273 0.34558 0
M  V30 4016 H 384.9 4.00988 -0.030805 0
M  V30 4017 H 381.49 4.02808 -1.46435 0
M  V30 4018 H 385.674 4.34904 -2.39106 0
M  V30 4019 H 380.93 4.86103 -3.70829 0
M  V30 4020 H 385.104 5.19551 -4.63724 0
M  V30 4021 H 382.731 5.44865 -5.30119 0
M  V30 4022 N 384.306 0.507319 1.49211 0
M  V30 4023 C 385.722 0.163682 1.58758 0
M  V30 4024 C 385.922 -1.33208 1.51188 0
M  V30 4025 O 384.978 -2.10855 1.38911 0
M  V30 4026 C 386.291 0.746095 2.91297 0
M  V30 4027 C 387.839 0.712773 3.04776 0
M  V30 4028 C 388.314 1.27336 4.39943 0
M  V30 4029 N 389.805 1.23433 4.46451 0
M  V30 4030 C 390.54 1.63821 5.495 0
M  V30 4031 N 390.036 2.11832 6.5962 0
M  V30 4032 N 391.829 1.55198 5.4025 0
M  V30 4033 H 383.98 1.47972 1.52375 0
M  V30 4034 H 386.243 0.614147 0.722168 0
M  V30 4035 H 385.949 1.79534 3.02424 0
M  V30 4036 H 385.823 0.210137 3.76614 0
M  V30 4037 H 388.21 -0.327656 2.93275 0
M  V30 4038 H 388.291 1.28595 2.21127 0
M  V30 4039 H 387.935 2.3126 4.52196 0
M  V30 4040 H 387.865 0.676066 5.22242 0
M  V30 4041 H 390.356 0.882627 3.67448 0
M  V30 4042 H 390.669 2.40703 7.34358 0
M  V30 4043 H 389.014 2.1581 6.60644 0
M  V30 4044 H 392.205 1.17505 4.53112 0
M  V30 4045 H 392.378 1.86997 6.20432 0
M  V30 4046 N 385.784 -1.5574 0.241426 0
M  V30 4047 C 387.2 -1.59196 -0.113548 0
M  V30 4048 C 387.4 -1.25852 -1.57364 0
M  V30 4049 O 386.456 -1.00322 -2.31715 0
M  V30 4050 C 387.769 -2.99814 0.230695 0
M  V30 4051 C 389.317 -3.12513 0.174547 0
M  V30 4052 C 389.792 -4.55342 0.492744 0
M  V30 4053 N 391.283 -4.61076 0.443043 0
M  V30 4054 C 392.018 -5.6956 0.662484 0
M  V30 4055 N 391.514 -6.86328 0.944761 0
M  V30 4056 N 393.307 -5.58957 0.593564 0
M  V30 4057 H 385.458 -1.75685 1.19368 0
M  V30 4058 H 387.721 -0.81756 0.479896 0
M  V30 4059 H 387.427 -3.28932 1.24485 0
M  V30 4060 H 387.301 -3.74568 -0.444833 0
M  V30 4061 H 389.688 -2.83179 -0.830277 0
M  V30 4062 H 389.769 -2.40045 0.883845 0
M  V30 4063 H 389.413 -4.85396 1.4951 0
M  V30 4064 H 389.343 -5.26062 -0.23797 0
M  V30 4065 H 391.834 -3.77179 0.233374 0
M  V30 4066 H 392.147 -7.64935 1.09977 0
M  V30 4067 H 390.492 -6.88025 0.982175 0
M  V30 4068 H 393.683 -4.66611 0.373123 0
M  V30 4069 H 393.856 -6.43433 0.767981 0
M  V30 4070 N 387.262 0.0317525 -1.57568 0
M  V30 4071 C 388.511 0.722131 -1.8833 0
M  V30 4072 C 388.824 1.76664 -0.839587 0
M  V30 4073 O 390.03 2.50942 -1.03635 0
M  V30 4074 C 388.486 1.33544 -3.34207 0
M  V30 4075 C 388.094 0.327415 -4.46802 0
M  V30 4076 C 389.838 2.00585 -3.7412 0
M  V30 4077 C 387.745 0.948915 -5.83738 0
M  V30 4078 H 386.675 0.273466 -0.702661 0
M  V30 4079 H 389.326 -0.0235811 -1.83485 0
M  V30 4080 H 387.708 2.13077 -3.33788 0
M  V30 4081 H 388.882 -0.441006 -4.58685 0
M  V30 4082 H 387.197 -0.240758 -4.15703 0
M  V30 4083 H 389.794 2.47932 -4.73744 0
M  V30 4084 H 390.137 2.82285 -3.05975 0
M  V30 4085 H 390.67 1.27831 -3.76702 0
M  V30 4086 H 387.409 0.171387 -6.55276 0
M  V30 4087 H 386.929 1.68724 -5.7558 0
M  V30 4088 H 388.608 1.45705 -6.3038 0
M  V30 4089 N 388.74 1.54641 0.303973 0
M  V30 4090 C 389.703 1.84646 1.35789 0
M  V30 4091 C 390.703 0.7192 1.4382 0
M  V30 4092 O 391.893 0.987491 1.43507 0
M  V30 4093 C 389.025 2.02407 2.74307 0
M  V30 4094 H 390.218 2.78829 1.10429 0
M  V30 4095 H 387.771 1.46658 0.540487 0
M  V30 4096 H 388.506 1.10502 3.04893 0
M  V30 4097 H 388.291 2.84453 2.69868 0
M  V30 4098 H 389.781 2.27002 3.50514 0
M  V30 4099 N 390.218 -0.567019 1.47046 0
M  V30 4100 C 391.466 -1.322 1.52864 0
M  V30 4101 C 391.787 -1.94088 0.188388 0
M  V30 4102 O 391.057 -1.7941 -0.786693 0
M  V30 4103 H 389.637 -0.490894 0.563056 0
M  V30 4104 H 392.299 -0.662879 1.83281 0
M  V30 4105 H 391.395 -2.12062 2.2899 0
M  V30 4106 N 391.696 -1.35014 -0.812953 0
M  V30 4107 C 392.659 -1.27292 -1.90602 0
M  V30 4108 C 393.659 -0.185817 -1.59723 0
M  V30 4109 O 394.849 -0.439102 -1.68575 0
M  V30 4110 C 391.981 -0.967676 -3.26877 0
M  V30 4111 H 393.174 -2.24479 -1.9887 0
M  V30 4112 H 390.727 -1.19446 -1.00808 0
M  V30 4113 H 391.462 0.0005954 -3.243 0
M  V30 4114 H 391.247 -1.75412 -3.50675 0
M  V30 4115 H 392.737 -0.939085 -4.06904 0
M  V30 4116 N 393.175 1.03435 -1.18907 0
M  V30 4117 C 394.085 2.15075 -0.937015 0
M  V30 4118 C 395.101 1.73706 0.101085 0
M  V30 4119 O 396.277 2.01232 -0.0822948 0
M  V30 4120 C 393.342 3.43458 -0.473057 0
M  V30 4121 C 392.403 3.99172 -1.57989 0
M  V30 4122 C 391.636 5.21427 -1.13797 0
M  V30 4123 O 391.859 5.704 0.000725941 0
M  V30 4124 O 390.793 5.69837 -1.9383 0
M  V30 4125 H 394.619 2.39198 -1.87131 0
M  V30 4126 H 392.204 1.13506 -0.971427 0
M  V30 4127 H 394.086 4.20811 -0.222702 0
M  V30 4128 H 392.761 3.20793 0.432869 0
M  V30 4129 H 391.668 3.23178 -1.88433 0
M  V30 4130 H 393.001 4.2619 -2.46217 0
M  V30 4131 N 394.653 0.992116 1.22453 0
M  V30 4132 C 395.902 0.662992 1.90492 0
M  V30 4133 C 396.215 -0.808407 1.78113 0
M  V30 4134 O 397.421 -1.24908 2.41061 0
M  V30 4135 C 395.877 1.1353 3.41524 0
M  V30 4136 C 395.485 2.63187 3.62542 0
M  V30 4137 C 397.229 0.880465 4.15269 0
M  V30 4138 C 395.136 3.04024 5.0727 0
M  V30 4139 H 394.066 0.244278 0.713333 0
M  V30 4140 H 396.717 1.20157 1.38688 0
M  V30 4141 H 395.099 0.52485 3.92506 0
M  V30 4142 H 396.273 3.2957 3.22056 0
M  V30 4143 H 394.588 2.86543 3.02129 0
M  V30 4144 H 397.185 1.16128 5.21937 0
M  V30 4145 H 397.528 -0.183408 4.15896 0
M  V30 4146 H 398.061 1.45307 3.70312 0
M  V30 4147 H 394.8 4.09584 5.11782 0
M  V30 4148 H 394.32 2.42343 5.48662 0
M  V30 4149 H 395.999 2.95282 5.75689 0
M  V30 4150 N 396.131 -1.37776 0.765217 0
M  V30 4151 C 397.063 -2.28958 0.105361 0
M  V30 4152 C 398.076 -1.48316 -0.67128 0
M  V30 4153 O 399.265 -1.71046 -0.51045 0
M  V30 4154 C 396.365 -3.27421 -0.874569 0
M  V30 4155 C 395.538 -4.37132 -0.153123 0
M  V30 4156 C 394.597 -5.1571 -1.04547 0
M  V30 4157 O 393.623 -5.66896 -0.511672 0
M  V30 4158 N 394.825 -5.29808 -2.37243 0
M  V30 4159 H 397.59 -2.86227 0.888495 0
M  V30 4160 H 395.151 -1.49682 0.617 0
M  V30 4161 H 397.143 -3.7687 -1.47483 0
M  V30 4162 H 395.713 -2.70967 -1.55871 0
M  V30 4163 H 394.933 -3.89166 0.627975 0
M  V30 4164 H 396.221 -5.07625 0.345643 0
M  V30 4165 H 395.619 -4.89793 -2.83054 0
M  V30 4166 H 394.176 -5.82589 -2.9229 0
M  V30 4167 N 397.609 -0.515225 -1.4894 0
M  V30 4168 C 398.542 0.302518 -2.26186 0
M  V30 4169 C 399.52 0.957895 -1.31389 0
M  V30 4170 O 400.704 0.985198 -1.60705 0
M  V30 4171 C 397.831 1.42719 -3.07163 0
M  V30 4172 C 396.877 0.884736 -4.17223 0
M  V30 4173 S 397.71 -0.235767 -5.34981 0
M  V30 4174 C 398.866 0.891731 -6.19515 0
M  V30 4175 H 399.099 -0.353076 -2.95196 0
M  V30 4176 H 396.632 -0.300753 -1.51443 0
M  V30 4177 H 398.59 2.07152 -3.54398 0
M  V30 4178 H 397.251 2.05445 -2.37595 0
M  V30 4179 H 396.444 1.72801 -4.73451 0
M  V30 4180 H 396.046 0.317362 -3.72651 0
M  V30 4181 H 398.338 1.79377 -6.53322 0
M  V30 4182 H 399.281 0.367751 -7.07144 0
M  V30 4183 H 399.689 1.16548 -5.52338 0
M  V30 4184 N 399.087 1.5561 -0.249682 0
M  V30 4185 C 400.333 1.99306 0.374841 0
M  V30 4186 C 400.666 1.13767 1.57387 0
M  V30 4187 O 399.941 0.201711 1.93451 0
M  V30 4188 C 400.224 3.51507 0.781986 0
M  V30 4189 C 400.077 4.4781 -0.422629 0
M  V30 4190 C 401.396 4.08884 1.62793 0
M  V30 4191 H 398.515 0.724572 0.134773 0
M  V30 4192 H 401.157 1.86719 -0.351549 0
M  V30 4193 H 399.307 3.62363 1.4009 0
M  V30 4194 H 400.979 4.48931 -1.06108 0
M  V30 4195 H 399.222 4.20518 -1.06524 0
M  V30 4196 H 399.893 5.51919 -0.0943766 0
M  V30 4197 H 402.369 4.01147 1.10547 0
M  V30 4198 H 401.245 5.1564 1.88166 0
M  V30 4199 H 401.506 3.57515 2.60068 0
M  V30 4200 N 400.565 -0.0233959 1.57583 0
M  V30 4201 C 401.814 -0.712133 1.8871 0
M  V30 4202 C 402.127 -1.76217 0.848944 0
M  V30 4203 O 403.333 -2.50389 1.04964 0
M  V30 4204 C 401.789 -1.3177 3.3491 0
M  V30 4205 C 401.397 -0.303715 4.46969 0
M  V30 4206 C 403.141 -1.98598 3.75179 0
M  V30 4207 C 401.048 -0.917945 5.84233 0
M  V30 4208 H 399.978 -0.269735 0.704101 0
M  V30 4209 H 402.629 0.0333114 1.8347 0
M  V30 4210 H 401.011 -2.11304 3.34913 0
M  V30 4211 H 402.185 0.465325 4.58445 0
M  V30 4212 H 400.5 0.2628 4.1557 0
M  V30 4213 H 403.097 -2.45416 4.75053 0
M  V30 4214 H 403.44 -2.80659 3.07468 0
M  V30 4215 H 403.973 -1.25831 3.77374 0
M  V30 4216 H 400.712 -0.136633 6.55358 0
M  V30 4217 H 400.232 -1.65669 5.76467 0
M  V30 4218 H 401.911 -1.4236 6.31144 0
M  V30 4219 N 402.043 -1.548 -0.295768 0
M  V30 4220 C 402.973 -1.89115 -1.36959 0
M  V30 4221 C 403.954 -0.75059 -1.52644 0
M  V30 4222 O 405.139 -1.00678 -1.66065 0
M  V30 4223 C 402.269 -2.14307 -2.73295 0
M  V30 4224 C 401.223 -3.30151 -2.72368 0
M  V30 4225 C 400.549 -3.40772 -4.12042 0
M  V30 4226 C 401.849 -4.67126 -2.33646 0
M  V30 4227 H 403.543 -2.79053 -1.08488 0
M  V30 4228 H 401.089 -1.34266 -0.520443 0
M  V30 4229 H 403.042 -2.36898 -3.48507 0
M  V30 4230 H 401.766 -1.21145 -3.03301 0
M  V30 4231 H 400.425 -3.0749 -1.99613 0
M  V30 4232 H 400.073 -2.45117 -4.39234 0
M  V30 4233 H 399.773 -4.18645 -4.12322 0
M  V30 4234 H 401.297 -3.6563 -4.89027 0
M  V30 4235 H 402.711 -4.89414 -2.98575 0
M  V30 4236 H 401.108 -5.47751 -2.45129 0
M  V30 4237 H 402.178 -4.67489 -1.28772 0
M  V30 4238 N 403.521 0.559213 -1.47345 0
M  V30 4239 C 404.451 1.67622 -1.62558 0
M  V30 4240 C 405.432 1.63331 -0.475087 0
M  V30 4241 O 406.617 1.80983 -0.704182 0
M  V30 4242 C 403.747 3.0626 -1.63774 0
M  V30 4243 C 402.701 3.25397 -2.7803 0
M  V30 4244 C 402.027 4.64801 -2.64318 0
M  V30 4245 C 403.327 3.10965 -4.19641 0
M  V30 4246 H 405.021 1.55146 -2.56067 0
M  V30 4247 H 402.567 0.744961 -1.23233 0
M  V30 4248 H 404.52 3.84247 -1.73008 0
M  V30 4249 H 403.244 3.1969 -0.66825 0
M  V30 4250 H 401.903 2.49817 -2.68304 0
M  V30 4251 H 401.551 4.75028 -1.65401 0
M  V30 4252 H 401.251 4.78555 -3.40968 0
M  V30 4253 H 402.775 5.44926 -2.75478 0
M  V30 4254 H 404.189 3.78772 -4.30354 0
M  V30 4255 H 402.586 3.36229 -4.97062 0
M  V30 4256 H 403.656 2.07736 -4.38148 0
M  V30 4257 N 404.999 1.35443 0.805782 0
M  V30 4258 C 406.248 1.28097 1.55801 0
M  V30 4259 C 406.561 -0.142428 1.95081 0
M  V30 4260 O 407.767 -0.33817 2.69386 0
M  V30 4261 C 406.223 2.24653 2.81174 0
M  V30 4262 C 405.831 3.72342 2.49129 0
M  V30 4263 C 407.575 2.2625 3.59181 0
M  V30 4264 C 405.482 4.60719 3.70799 0
M  V30 4265 H 404.412 0.475937 0.584808 0
M  V30 4266 H 407.063 1.60712 0.885661 0
M  V30 4267 H 405.445 1.85011 3.50124 0
M  V30 4268 H 406.619 4.20624 1.88181 0
M  V30 4269 H 404.934 3.73361 1.84366 0
M  V30 4270 H 407.531 2.89495 4.49552 0
M  V30 4271 H 407.874 1.26647 3.96568 0
M  V30 4272 H 408.407 2.64426 2.97193 0
M  V30 4273 H 405.146 5.61324 3.3852 0
M  V30 4274 H 404.666 4.17163 4.3097 0
M  V30 4275 H 406.345 4.76182 4.38018 0
M  V30 4276 N 406.477 -1.02803 1.19454 0
M  V30 4277 C 407.44 -2.09264 0.934955 0
M  V30 4278 C 408.44 -1.60576 -0.0849015 0
M  V30 4279 O 409.63 -1.73554 0.149933 0
M  V30 4280 C 406.762 -3.38482 0.40531 0
M  V30 4281 H 407.955 -2.33726 1.87916 0
M  V30 4282 H 405.508 -1.19426 1.00832 0
M  V30 4283 H 406.243 -3.19689 -0.544899 0
M  V30 4284 H 406.028 -3.75142 1.14065 0
M  V30 4285 H 407.518 -4.16894 0.242806 0
M  V30 4286 N 407.956 -0.998596 -1.21925 0
M  V30 4287 C 409.184 -0.696286 -1.94832 0
M  V30 4288 C 409.599 0.740032 -1.73692 0
M  V30 4289 O 408.956 1.5 -1.03953 0
M  V30 4290 C 409.007 -0.999833 -3.47398 0
M  V30 4291 O 408.728 -2.37972 -3.67833 0
M  V30 4292 C 410.229 -0.716025 -4.37479 0
M  V30 4293 H 407.449 -0.257111 -0.619786 0
M  V30 4294 H 409.993 -1.33491 -1.54921 0
M  V30 4295 H 408.148 -0.406918 -3.85257 0
M  V30 4296 H 408.562 -2.48338 -4.61983 0
M  V30 4297 H 410.036 -0.978642 -5.43256 0
M  V30 4298 H 410.513 0.349968 -4.37803 0
M  V30 4299 H 411.119 -1.29025 -4.05256 0
M  V30 4300 N 409.434 1.37368 -0.772513 0
M  V30 4301 C 410.659 2.0447 -0.347386 0
M  V30 4302 C 411.084 1.57882 1.0225 0
M  V30 4303 O 410.442 0.73941 1.65537 0
M  V30 4304 C 410.49 3.58369 -0.400479 0
M  V30 4305 O 409.594 4.0803 0.598789 0
M  V30 4306 H 408.935 0.646773 -0.15027 0
M  V30 4307 H 411.465 1.75667 -1.04892 0
M  V30 4308 H 411.475 4.07183 -0.258045 0
M  V30 4309 H 410.15 3.91633 -1.39986 0
M  V30 4310 H 408.727 3.70534 0.419411 0
M  V30 4311 N 410.912 0.523116 1.48665 0
M  V30 4312 C 411.842 -0.23231 2.32342 0
M  V30 4313 C 412.823 -0.941637 1.41659 0
M  V30 4314 O 414.008 -0.928751 1.70552 0
M  V30 4315 C 411.138 -1.28387 3.22698 0
M  V30 4316 C 410.092 -0.693098 4.22351 0
M  V30 4317 C 409.418 -1.8468 5.01794 0
M  V30 4318 C 410.718 0.33063 5.21252 0
M  V30 4319 H 412.412 0.466192 2.95748 0
M  V30 4320 H 409.958 0.225643 1.42221 0
M  V30 4321 H 411.911 -1.82024 3.80059 0
M  V30 4322 H 410.635 -2.01186 2.57278 0
M  V30 4323 H 409.294 -0.178299 3.66166 0
M  V30 4324 H 408.942 -2.56301 4.32804 0
M  V30 4325 H 408.642 -1.45747 5.69238 0
M  V30 4326 H 410.166 -2.38709 5.62006 0
M  V30 4327 H 411.58 -0.118407 5.73178 0
M  V30 4328 H 409.977 0.636974 5.9671 0
M  V30 4329 H 411.047 1.23883 4.68808 0
M  V30 4330 N 412.39 -1.55475 0.257931 0
M  V30 4331 C 413.636 -1.99502 -0.364266 0
M  V30 4332 C 413.969 -1.146 -1.56782 0
M  V30 4333 O 413.244 -0.211968 -1.93342 0
M  V30 4334 C 413.527 -3.51917 -0.763333 0
M  V30 4335 C 413.38 -4.4758 0.446371 0
M  V30 4336 C 414.699 -4.09742 -1.60623 0
M  V30 4337 H 411.818 -0.725277 -0.130929 0
M  V30 4338 H 414.46 -1.8653 0.361446 0
M  V30 4339 H 412.61 -3.63101 -1.38166 0
M  V30 4340 H 414.282 -4.48362 1.08487 0
M  V30 4341 H 412.525 -4.19947 1.08753 0
M  V30 4342 H 413.196 -5.51862 0.123645 0
M  V30 4343 H 415.672 -4.01727 -1.08418 0
M  V30 4344 H 414.548 -5.16631 -1.85429 0
M  V30 4345 H 414.809 -3.58889 -2.58169 0
M  V30 4346 N 413.868 0.0150385 -1.57593 0
M  V30 4347 C 415.114 0.704043 -1.90187 0
M  V30 4348 C 415.447 1.74249 -0.857366 0
M  V30 4349 O 414.722 1.94092 0.125843 0
M  V30 4350 C 415.005 1.36087 -3.33395 0
M  V30 4351 C 414.858 0.334981 -4.48551 0
M  V30 4352 C 416.177 2.29112 -3.7576 0
M  V30 4353 H 413.296 0.254475 -0.691673 0
M  V30 4354 H 415.938 -0.0331678 -1.89971 0
M  V30 4355 H 414.088 1.98922 -3.3371 0
M  V30 4356 H 415.76 -0.292534 -4.60372 0
M  V30 4357 H 414.003 -0.344325 -4.32431 0
M  V30 4358 H 414.674 0.833316 -5.45674 0
M  V30 4359 H 417.15 1.76308 -3.76902 0
M  V30 4360 H 416.026 2.72043 -4.76743 0
M  V30 4361 H 416.287 3.16385 -3.08793 0
M  V30 4362 N 415.346 1.54954 0.287554 0
M  V30 4363 C 416.276 1.89839 1.35954 0
M  V30 4364 C 417.257 0.758675 1.52244 0
M  V30 4365 O 418.442 1.01557 1.65529 0
M  V30 4366 C 415.572 2.15753 2.72154 0
M  V30 4367 C 414.526 3.3159 2.70614 0
M  V30 4368 C 413.852 3.42952 4.10229 0
M  V30 4369 C 415.152 4.68359 2.31165 0
M  V30 4370 H 416.846 2.79625 1.07007 0
M  V30 4371 H 414.392 1.3454 0.513316 0
M  V30 4372 H 416.345 2.38743 3.47246 0
M  V30 4373 H 415.069 1.22752 3.02654 0
M  V30 4374 H 413.728 3.08545 1.97979 0
M  V30 4375 H 413.376 2.47443 4.37928 0
M  V30 4376 H 413.076 4.20826 4.10097 0
M  V30 4377 H 414.6 3.68218 4.87081 0
M  V30 4378 H 416.014 4.9099 2.95976 0
M  V30 4379 H 414.411 5.49044 2.42221 0
M  V30 4380 H 415.481 4.68165 1.26291 0
M  V30 4381 N 416.824 -0.551391 1.4764 0
M  V30 4382 C 418.073 -1.30467 1.53822 0
M  V30 4383 C 418.386 -1.94495 0.207661 0
M  V30 4384 O 419.592 -2.71099 0.147533 0
M  V30 4385 C 418.048 -2.36616 2.71184 0
M  V30 4386 C 417.656 -1.78754 4.10793 0
M  V30 4387 C 419.4 -3.13088 2.86663 0
M  V30 4388 C 417.307 -2.82717 5.19447 0
M  V30 4389 H 416.237 -0.490584 0.572576 0
M  V30 4390 H 418.888 -0.58494 1.73927 0
M  V30 4391 H 417.27 -3.11529 2.4447 0
M  V30 4392 H 418.444 -1.10173 4.47435 0
M  V30 4393 H 416.759 -1.14846 4.00249 0
M  V30 4394 H 419.356 -3.90736 3.65007 0
M  V30 4395 H 419.699 -3.67635 1.95321 0
M  V30 4396 H 420.232 -2.45288 3.13175 0
M  V30 4397 H 416.971 -2.33018 6.12685 0
M  V30 4398 H 416.491 -3.4969 4.87316 0
M  V30 4399 H 418.17 -3.46102 5.46646 0
M  V30 4400 N 418.302 -1.35869 -0.798587 0
M  V30 4401 C 419.542 -1.30961 -1.56935 0
M  V30 4402 C 419.906 0.112404 -1.91671 0
M  V30 4403 O 421.107 0.285937 -2.67275 0
M  V30 4404 C 419.378 -2.19811 -2.81811 0
M  V30 4405 S 420.937 -2.32498 -3.72143 0
M  V30 4406 H 417.755 -0.465297 -0.537606 0
M  V30 4407 H 420.357 -1.71344 -0.941346 0
M  V30 4408 H 419.061 -3.22095 -2.54329 0
M  V30 4409 H 418.592 -1.80415 -3.49591 0
M  V30 4410 H 420.607 -1.5157 -4.72484 0
M  V30 4411 N 419.78 1.02168 -1.19998 0
M  V30 4412 C 421.005 1.79833 -1.03319 0
M  V30 4413 C 421.43 1.83504 0.413281 0
M  V30 4414 O 420.788 1.26635 1.29743 0
M  V30 4415 C 420.836 3.22396 -1.61533 0
M  V30 4416 O 419.94 4.03555 -0.849519 0
M  V30 4417 H 419.281 0.554872 -0.364709 0
M  V30 4418 H 421.811 1.28542 -1.59179 0
M  V30 4419 H 421.821 3.73124 -1.65054 0
M  V30 4420 H 420.496 3.19039 -2.66809 0
M  V30 4421 H 419.073 3.62169 -0.888129 0
M  V30 4422 N 421.258 1.00505 1.21394 0
M  V30 4423 C 422.507 0.683159 1.89778 0
M  V30 4424 C 422.82 -0.789471 1.7896 0
M  V30 4425 O 424.026 -1.22344 2.42372 0
M  V30 4426 C 422.482 1.17146 3.40301 0
M  V30 4427 C 422.09 2.67017 3.5973 0
M  V30 4428 C 423.834 0.924461 4.14311 0
M  V30 4429 C 421.741 3.09387 5.04017 0
M  V30 4430 H 420.671 0.25183 0.710702 0
M  V30 4431 H 423.322 1.21622 1.37406 0
M  V30 4432 H 421.704 0.566451 3.91928 0
M  V30 4433 H 422.878 3.32968 3.18542 0
M  V30 4434 H 421.193 2.89732 2.99073 0
M  V30 4435 H 423.79 1.21658 5.20676 0
M  V30 4436 H 424.133 -0.139286 4.16067 0
M  V30 4437 H 424.666 1.49226 3.6875 0
M  V30 4438 H 421.405 4.14989 5.07409 0
M  V30 4439 H 420.925 2.48149 5.46061 0
M  V30 4440 H 422.604 3.01371 5.72525 0
M  V30 4441 N 422.737 -1.36956 0.779787 0
M  V30 4442 C 424.148 -1.82094 0.412156 0
M  V30 4443 C 424.499 -1.64926 -1.06273 0
M  V30 4444 O 423.624 -1.16483 -1.82375 0
M  V30 4445 C 424.219 -3.3059 0.741319 0
M  V30 4446 C 422.778 -3.73974 0.426641 0
M  V30 4447 C 421.925 -2.59368 0.980987 0
M  V30 4448 H 424.876 -1.25314 0.973758 0
M  V30 4449 H 424.897 -3.80489 0.028887 0
M  V30 4450 H 424.409 -3.43054 1.81482 0
M  V30 4451 H 422.51 -3.67076 -0.639215 0
M  V30 4452 H 422.623 -4.69778 0.940515 0
M  V30 4453 H 420.987 -2.51463 0.404757 0
M  V30 4454 H 421.77 -2.74621 2.06005 0
M  V30 4455 N 424.215 -0.530993 -1.48385 0
M  V30 4456 C 425.145 0.219985 -2.32461 0
M  V30 4457 C 426.126 0.934111 -1.42156 0
M  V30 4458 O 427.311 0.919694 -1.71042 0
M  V30 4459 C 424.441 1.26674 -3.23375 0
M  V30 4460 C 423.395 0.67069 -4.22712 0
M  V30 4461 C 422.721 1.82017 -5.02766 0
M  V30 4462 C 424.021 -0.358268 -5.2107 0
M  V30 4463 H 425.715 -0.48187 -2.95497 0
M  V30 4464 H 423.261 -0.233182 -1.42099 0
M  V30 4465 H 425.214 1.80006 -3.81019 0
M  V30 4466 H 423.938 1.99818 -2.58341 0
M  V30 4467 H 422.597 0.158878 -3.66256 0
M  V30 4468 H 422.245 2.54002 -4.34157 0
M  V30 4469 H 421.945 1.42727 -5.70003 0
M  V30 4470 H 423.469 2.35725 -5.63264 0
M  V30 4471 H 424.883 0.0880081 -5.73232 0
M  V30 4472 H 423.28 -0.66861 -5.96364 0
M  V30 4473 H 424.35 -1.26367 -4.68145 0
M  V30 4474 N 425.693 1.55336 -0.266172 0
M  V30 4475 C 426.939 1.99692 0.353681 0
M  V30 4476 C 427.272 1.1543 1.56172 0
M  V30 4477 O 426.547 0.222218 1.93226 0
M  V30 4478 C 426.83 3.52316 0.74466 0
M  V30 4479 C 426.683 4.47337 -0.470101 0
M  V30 4480 C 428.002 4.10588 1.58447 0
M  V30 4481 H 425.121 0.725961 0.12708 0
M  V30 4482 H 427.763 1.86336 -0.371333 0
M  V30 4483 H 425.913 3.63829 1.36239 0
M  V30 4484 H 427.585 4.4778 -1.10864 0
M  V30 4485 H 425.828 4.19364 -1.10978 0
M  V30 4486 H 426.499 5.51788 -0.15291 0
M  V30 4487 H 428.975 4.02297 1.06286 0
M  V30 4488 H 427.851 5.17607 1.82686 0
M  V30 4489 H 428.112 3.60253 2.56262 0
M  V30 4490 N 427.171 -0.0066808 1.57599 0
M  V30 4491 C 428.417 -0.693947 1.90558 0
M  V30 4492 C 428.75 -1.73792 0.866594 0
M  V30 4493 O 428.025 -1.94156 -0.115548 0
M  V30 4494 C 428.308 -1.34317 3.34112 0
M  V30 4495 C 428.161 -0.311189 4.48722 0
M  V30 4496 C 429.48 -2.27116 3.7697 0
M  V30 4497 H 426.599 -0.250803 0.693013 0
M  V30 4498 H 429.241 0.043242 1.89951 0
M  V30 4499 H 427.391 -1.9715 3.3476 0
M  V30 4500 H 429.063 0.316944 4.6021 0
M  V30 4501 H 427.306 0.367253 4.32243 0
M  V30 4502 H 427.977 -0.804366 5.46108 0
M  V30 4503 H 430.453 -1.74306 3.77831 0
M  V30 4504 H 429.329 -2.69511 4.78179 0
M  V30 4505 H 429.59 -3.14743 3.10466 0
M  V30 4506 N 428.649 -1.55105 -0.279332 0
M  V30 4507 C 430.065 -1.46803 -0.626187 0
M  V30 4508 C 430.265 -0.676939 -1.89789 0
M  V30 4509 O 429.321 -0.19326 -2.51759 0
M  V30 4510 C 430.634 -2.90962 -0.759034 0
M  V30 4511 C 432.182 -3.01138 -0.853504 0
M  V30 4512 C 432.657 -4.46539 -1.01818 0
M  V30 4513 N 434.148 -4.50341 -1.08386 0
M  V30 4514 C 434.883 -5.60053 -1.22996 0
M  V30 4515 N 434.379 -6.79645 -1.34366 0
M  V30 4516 N 436.172 -5.47783 -1.26056 0
M  V30 4517 H 428.323 -2.04996 0.555921 0
M  V30 4518 H 430.586 -0.929325 0.187239 0
M  V30 4519 H 430.292 -3.51544 0.104852 0
M  V30 4520 H 430.166 -3.39619 -1.64131 0
M  V30 4521 H 432.553 -2.40658 -1.70786 0
M  V30 4522 H 432.634 -2.55745 0.0532466 0
M  V30 4523 H 432.278 -5.0762 -0.168504 0
M  V30 4524 H 432.208 -4.89583 -1.93948 0
M  V30 4525 H 434.699 -3.64191 -1.00864 0
M  V30 4526 H 435.012 -7.59012 -1.4533 0
M  V30 4527 H 433.357 -6.82469 -1.31382 0
M  V30 4528 H 436.548 -4.53294 -1.168 0
M  V30 4529 H 436.721 -6.33331 -1.37098 0
M  V30 4530 N 430.127 0.543554 -1.4793 0
M  V30 4531 C 431.373 1.30201 -1.55485 0
M  V30 4532 C 431.706 1.92925 -0.222201 0
M  V30 4533 O 430.981 1.78586 0.77053 0
M  V30 4534 C 431.264 2.40174 -2.68307 0
M  V30 4535 C 431.117 1.8223 -4.11233 0
M  V30 4536 C 432.436 3.42024 -2.76961 0
M  V30 4537 H 429.555 0.472036 -0.565996 0
M  V30 4538 H 432.197 0.606914 -1.80046 0
M  V30 4539 H 430.347 2.99463 -2.47495 0
M  V30 4540 H 432.019 1.27096 -4.43446 0
M  V30 4541 H 430.262 1.12832 -4.18869 0
M  V30 4542 H 430.933 2.61793 -4.85972 0
M  V30 4543 H 433.409 2.92672 -2.95774 0
M  V30 4544 H 432.285 4.16383 -3.57654 0
M  V30 4545 H 432.546 4.0173 -1.84568 0
M  V30 4546 N 431.605 1.3629 0.791371 0
M  V30 4547 C 432.852 1.30412 1.54916 0
M  V30 4548 C 433.18 -0.117162 1.94147 0
M  V30 4549 O 432.435 -1.08599 1.62803 0
M  V30 4550 C 432.734 2.17068 2.8393 0
M  V30 4551 C 432.4 3.65645 2.63846 0
M  V30 4552 C 431.062 4.0614 2.58077 0
M  V30 4553 C 433.414 4.59855 2.45322 0
M  V30 4554 C 430.742 5.3899 2.31748 0
M  V30 4555 C 433.094 5.9292 2.2052 0
M  V30 4556 C 431.758 6.32542 2.13183 0
M  V30 4557 H 431.028 0.47721 0.566879 0
M  V30 4558 H 433.675 1.68325 0.913172 0
M  V30 4559 H 431.98 1.72085 3.51986 0
M  V30 4560 H 433.677 2.09846 3.4171 0
M  V30 4561 H 430.267 3.33518 2.69191 0
M  V30 4562 H 434.451 4.29443 2.48782 0
M  V30 4563 H 429.707 5.68672 2.24548 0
M  V30 4564 H 433.881 6.65487 2.05182 0
M  V30 4565 H 431.508 7.35412 1.92544 0
M  V30 4566 N 433.083 -1.0153 1.20538 0
M  V30 4567 C 434.329 -1.75408 1.01783 0
M  V30 4568 C 434.662 -1.88943 -0.448814 0
M  V30 4569 O 433.937 -1.4162 -1.33319 0
M  V30 4570 C 434.22 -3.17255 1.70356 0
M  V30 4571 C 434.073 -3.11508 3.24473 0
M  V30 4572 C 435.392 -4.15955 1.43769 0
M  V30 4573 H 432.511 -0.636713 0.371167 0
M  V30 4574 H 435.153 -1.18436 1.4857 0
M  V30 4575 H 433.303 -3.65898 1.30578 0
M  V30 4576 H 434.975 -2.70658 3.73553 0
M  V30 4577 H 433.218 -2.4887 3.55311 0
M  V30 4578 H 433.889 -4.11784 3.67611 0
M  V30 4579 H 436.365 -3.75973 1.7828 0
M  V30 4580 H 435.241 -5.13368 1.94279 0
M  V30 4581 H 435.502 -4.40586 0.365564 0
M  V30 4582 N 434.561 -1.01147 -1.20859 0
M  V30 4583 C 435.509 -0.57059 -2.25493 0
M  V30 4584 C 436.503 0.388109 -1.64894 0
M  V30 4585 O 437.709 0.258592 -1.78133 0
M  V30 4586 H 434.084 -0.166191 -0.733406 0
M  V30 4587 H 436.055 -1.46411 -2.60012 0
M  V30 4588 C 434.804 0.0805241 -3.47607 0
M  V30 4589 H 434.127 -0.648156 -3.94511 0
M  V30 4590 H 435.567 0.352197 -4.22535 0
M  V30 4591 C 434.026 1.32175 -3.09889 0
M  V30 4592 O 434.556 2.41553 -3.20959 0
M  V30 4593 N 432.762 1.20392 -2.64488 0
M  V30 4594 H 432.309 0.313905 -2.5568 0
M  V30 4595 H 432.267 2.03541 -2.39621 0
M  V30 4596 N 436.039 1.36541 -0.78704 0
M  V30 4597 C 436.971 2.28761 -0.141773 0
M  V30 4598 C 437.984 1.49365 0.647599 0
M  V30 4599 O 439.173 1.71836 0.483173 0
M  V30 4600 C 436.273 3.28771 0.822368 0
M  V30 4601 C 435.446 4.3732 0.0835594 0
M  V30 4602 C 434.505 5.17307 0.963296 0
M  V30 4603 O 433.531 5.67638 0.421419 0
M  V30 4604 N 434.733 5.33515 2.28784 0
M  V30 4605 H 437.498 2.84777 -0.933919 0
M  V30 4606 H 435.059 1.48682 -0.640735 0
M  V30 4607 H 437.051 3.79169 1.41468 0
M  V30 4608 H 435.621 2.73412 1.5154 0
M  V30 4609 H 434.841 3.88118 -0.689809 0
M  V30 4610 H 436.129 5.0701 -0.426358 0
M  V30 4611 H 435.527 4.94234 2.75226 0
M  V30 4612 H 434.084 5.87165 2.82985 0
M  V30 4613 N 437.518 0.538854 1.48102 0
M  V30 4614 C 438.448 -0.207654 2.32575 0
M  V30 4615 C 439.429 -0.926559 1.4265 0
M  V30 4616 O 440.614 -0.91061 1.71527 0
M  V30 4617 C 437.744 -1.24957 3.24042 0
M  V30 4618 C 436.698 -0.648263 4.23062 0
M  V30 4619 C 436.024 -1.79348 5.03725 0
M  V30 4620 C 437.324 0.385897 5.20872 0
M  V30 4621 H 439.018 0.497534 2.95237 0
M  V30 4622 H 436.564 0.240715 1.41974 0
M  V30 4623 H 438.517 -1.77983 3.81969 0
M  V30 4624 H 437.241 -1.98446 2.59397 0
M  V30 4625 H 435.9 -0.139452 3.66335 0
M  V30 4626 H 435.548 -2.51696 4.35498 0
M  V30 4627 H 435.248 -1.39702 5.70751 0
M  V30 4628 H 436.772 -2.32735 5.64506 0
M  V30 4629 H 438.186 -0.057607 5.73271 0
M  V30 4630 H 436.583 0.700227 5.96001 0
M  V30 4631 H 437.653 1.28848 4.67468 0
M  V30 4632 N 438.996 -1.55193 0.274407 0
M  V30 4633 C 440.226 -2.03692 -0.345442 0
M  V30 4634 C 440.634 -1.15224 -1.50067 0
M  V30 4635 O 439.977 -0.164749 -1.8296 0
M  V30 4636 C 440.039 -3.48325 -0.88939 0
M  V30 4637 C 439.703 -4.56794 0.137115 0
M  V30 4638 C 440.7 -5.11028 0.956378 0
M  V30 4639 C 438.385 -5.01568 0.27115 0
M  V30 4640 C 440.379 -6.08552 1.89587 0
M  V30 4641 C 438.066 -5.98918 1.21412 0
M  V30 4642 C 439.064 -6.52291 2.02498 0
M  V30 4643 O 438.752 -7.47738 2.952 0
M  V30 4644 H 438.484 -0.670893 -0.0829332 0
M  V30 4645 H 441.038 -2.01387 0.404056 0
M  V30 4646 H 439.268 -3.47867 -1.68895 0
M  V30 4647 H 440.957 -3.80167 -1.42225 0
M  V30 4648 H 441.723 -4.7725 0.863559 0
M  V30 4649 H 437.602 -4.5967 -0.349987 0
M  V30 4650 H 441.146 -6.50137 2.52918 0
M  V30 4651 H 437.043 -6.32114 1.30776 0
M  V30 4652 H 437.811 -7.65451 2.89874 0
M  V30 4653 N 440.474 -0.00167713 -1.576 0
M  V30 4654 C 441.406 1.0174 -2.05382 0
M  V30 4655 C 442.419 1.30595 -0.972052 0
M  V30 4656 O 443.608 1.27542 -1.24882 0
M  V30 4657 C 440.708 2.35174 -2.44022 0
M  V30 4658 C 439.881 2.25234 -3.74951 0
M  V30 4659 C 438.94 3.4137 -4.00441 0
M  V30 4660 O 437.966 3.19483 -4.71083 0
M  V30 4661 N 439.168 4.64275 -3.48467 0
M  V30 4662 H 441.933 0.609902 -2.93428 0
M  V30 4663 H 439.494 0.185672 -1.60832 0
M  V30 4664 H 441.486 3.11643 -2.58187 0
M  V30 4665 H 440.056 2.67659 -1.61485 0
M  V30 4666 H 439.276 1.33664 -3.70847 0
M  V30 4667 H 440.564 2.15767 -4.60784 0
M  V30 4668 H 439.962 4.84955 -2.91264 0
M  V30 4669 H 438.519 5.38005 -3.67959 0
M  V30 4670 N 441.952 1.55251 0.271103 0
M  V30 4671 C 443.363 1.66635 0.842007 0
M  V30 4672 C 443.714 0.594631 1.86972 0
M  V30 4673 O 442.839 -0.263532 2.14789 0
M  V30 4674 C 443.434 3.02082 1.53401 0
M  V30 4675 C 441.993 3.15487 2.05293 0
M  V30 4676 C 441.14 2.62438 0.895631 0
M  V30 4677 H 444.091 1.58629 0.0474117 0
M  V30 4678 H 444.112 2.95176 2.40107 0
M  V30 4679 H 443.624 3.80062 0.785786 0
M  V30 4680 H 441.725 2.42284 2.83071 0
M  V30 4681 H 441.838 4.22075 2.26693 0
M  V30 4682 H 440.202 2.19644 1.28953 0
M  V30 4683 H 440.985 3.42923 0.160878 0
M  V30 4684 N 443.43 -0.535701 1.48216 0
M  V30 4685 C 444.655 -1.32149 1.59848 0
M  V30 4686 C 445.08 -1.86338 0.256842 0
M  V30 4687 O 444.438 -1.64107 -0.770632 0
M  V30 4688 C 444.486 -2.45224 2.64381 0
M  V30 4689 O 443.59 -3.48093 2.21144 0
M  V30 4690 H 442.931 -0.391634 0.536208 0
M  V30 4691 H 445.461 -0.645202 1.94161 0
M  V30 4692 H 445.471 -2.91491 2.85476 0
M  V30 4693 H 444.146 -2.05143 3.61786 0
M  V30 4694 H 442.723 -3.07984 2.10239 0
M  V30 4695 N 444.908 -1.36708 -0.784132 0
M  V30 4696 C 445.838 -1.34153 -1.91116 0
M  V30 4697 C 446.819 -0.212121 -1.68772 0
M  V30 4698 O 448.004 -0.410581 -1.8981 0
M  V30 4699 C 445.134 -1.13535 -3.28218 0
M  V30 4700 C 444.088 -2.23356 -3.65097 0
M  V30 4701 C 443.414 -1.87875 -5.00607 0
M  V30 4702 C 444.714 -3.65473 -3.73131 0
M  V30 4703 H 446.408 -2.28459 -1.93512 0
M  V30 4704 H 443.954 -1.09973 -0.929618 0
M  V30 4705 H 445.907 -1.10381 -4.06687 0
M  V30 4706 H 444.631 -0.156804 -3.26223 0
M  V30 4707 H 443.29 -2.25645 -2.88929 0
M  V30 4708 H 442.938 -0.885814 -4.95139 0
M  V30 4709 H 442.638 -2.61406 -5.26252 0
M  V30 4710 H 444.162 -1.86286 -5.81489 0
M  V30 4711 H 445.576 -3.65382 -4.41779 0
M  V30 4712 H 443.973 -4.37953 -4.10265 0
M  V30 4713 H 445.043 -3.99995 -2.74102 0
M  V30 4714 N 446.386 1.0089 -1.21074 0
M  V30 4715 C 447.296 2.13039 -0.982425 0
M  V30 4716 C 448.312 1.73881 0.0642161 0
M  V30 4717 O 449.488 2.01012 -0.12496 0
M  V30 4718 C 446.553 3.42377 -0.545803 0
M  V30 4719 C 445.614 3.95731 -1.6642 0
M  V30 4720 C 444.847 5.18896 -1.24832 0
M  V30 4721 O 445.07 5.70273 -0.120265 0
M  V30 4722 O 444.004 5.65597 -2.05873 0
M  V30 4723 H 447.83 2.35175 -1.92163 0
M  V30 4724 H 445.415 1.1142 -0.995285 0
M  V30 4725 H 447.297 4.20244 -0.311912 0
M  V30 4726 H 445.972 3.21639 0.364727 0
M  V30 4727 H 444.879 3.19108 -1.95246 0
M  V30 4728 H 446.212 4.20872 -2.55201 0
M  V30 4729 N 447.864 1.01787 1.20321 0
M  V30 4730 C 449.28 0.732951 1.41774 0
M  V30 4731 C 449.48 -0.686883 1.89431 0
M  V30 4732 O 448.536 -1.45446 2.06402 0
M  V30 4733 C 449.849 1.75973 2.43832 0
M  V30 4734 C 451.397 1.77802 2.57596 0
M  V30 4735 C 451.872 2.7941 3.62897 0
M  V30 4736 N 453.363 2.78157 3.70382 0
M  V30 4737 C 454.098 3.53434 4.51521 0
M  V30 4738 N 453.594 4.38392 5.36455 0
M  V30 4739 N 455.387 3.42026 4.46066 0
M  V30 4740 H 447.538 1.93447 0.877035 0
M  V30 4741 H 449.801 0.835712 0.447536 0
M  V30 4742 H 449.507 2.77699 2.15815 0
M  V30 4743 H 449.381 1.57292 3.4284 0
M  V30 4744 H 451.768 0.767602 2.84942 0
M  V30 4745 H 451.849 2.00557 1.58779 0
M  V30 4746 H 451.493 3.80616 3.36295 0
M  V30 4747 H 451.423 2.53916 4.61339 0
M  V30 4748 H 453.914 2.16531 3.09714 0
M  V30 4749 H 454.227 4.92596 5.95457 0
M  V30 4750 H 452.572 4.4247 5.35953 0
M  V30 4751 H 455.763 2.75075 3.78749 0
M  V30 4752 H 455.936 4.00946 5.09064 0
M  V30 4753 N 449.342 -1.36122 0.79427 0
M  V30 4754 C 450.252 -2.33769 0.197296 0
M  V30 4755 C 451.268 -1.61276 -0.653153 0
M  V30 4756 O 452.444 -1.9323 -0.5678 0
M  V30 4757 C 449.509 -3.40474 -0.654098 0
M  V30 4758 C 448.57 -4.28759 0.215411 0
M  V30 4759 C 447.803 -5.30368 -0.595443 0
M  V30 4760 O 448.026 -5.40211 -1.83107 0
M  V30 4761 O 446.96 -6.019 0.00721351 0
M  V30 4762 H 450.786 -2.86597 1.00478 0
M  V30 4763 H 448.371 -1.38676 0.555818 0
M  V30 4764 H 450.253 -4.05703 -1.13944 0
M  V30 4765 H 448.928 -2.89937 -1.43938 0
M  V30 4766 H 447.835 -3.66554 0.747615 0
M  V30 4767 H 449.168 -4.82661 0.964332 0
M  V30 4768 N 450.82 -0.546701 -1.47814 0
M  V30 4769 C 452.066 -0.0187684 -2.02791 0
M  V30 4770 C 452.399 1.32338 -1.42128 0
M  V30 4771 O 451.674 1.85867 -0.573023 0
M  V30 4772 C 451.957 0.0854985 -3.59998 0
M  V30 4773 C 451.81 -1.283 -4.31114 0
M  V30 4774 C 453.129 0.80412 -4.32691 0
M  V30 4775 H 450.248 -0.0082946 -0.736953 0
M  V30 4776 H 452.89 -0.706962 -1.76358 0
M  V30 4777 H 451.04 0.671609 -3.82651 0
M  V30 4778 H 452.712 -1.91151 -4.19832 0
M  V30 4779 H 450.955 -1.86049 -3.91878 0
M  V30 4780 H 451.626 -1.16287 -5.39612 0
M  V30 4781 H 454.102 0.306576 -4.14969 0
M  V30 4782 H 452.978 0.846011 -5.42341 0
M  V30 4783 H 453.239 1.85802 -4.01161 0
M  V30 4784 N 452.299 1.55045 -0.282633 0
M  V30 4785 C 453.524 2.04628 0.337977 0
M  V30 4786 C 453.949 1.15937 1.48123 0
M  V30 4787 O 453.307 0.159532 1.80597 0
M  V30 4788 C 453.355 3.51854 0.78936 0
M  V30 4789 O 452.459 3.66236 1.89592 0
M  V30 4790 H 451.8 0.660434 0.0687261 0
M  V30 4791 H 454.33 2.00261 -0.419124 0
M  V30 4792 H 454.34 3.93361 1.08311 0
M  V30 4793 H 453.015 4.15873 -0.0470419 0
M  V30 4794 H 451.592 3.36633 1.60413 0
M  V30 4795 N 453.777 0.010035 1.57597 0
M  V30 4796 C 454.724 -0.978122 2.09049 0
M  V30 4797 C 455.694 -1.33509 0.988159 0
M  V30 4798 O 456.879 -1.43172 1.26121 0
M  V30 4799 C 454.019 -2.26158 2.60666 0
M  V30 4800 C 453.132 -1.96275 3.84838 0
M  V30 4801 C 452.267 -3.18776 4.24918 0
M  V30 4802 C 451.306 -2.84625 5.41899 0
M  V30 4803 N 450.443 -3.99693 5.77226 0
M  V30 4804 H 455.283 -0.532431 2.93205 0
M  V30 4805 H 452.82 -0.251234 1.44939 0
M  V30 4806 H 454.778 -3.01202 2.88675 0
M  V30 4807 H 453.408 -2.68378 1.79369 0
M  V30 4808 H 452.46 -1.11555 3.63675 0
M  V30 4809 H 453.772 -1.67111 4.69974 0
M  V30 4810 H 452.926 -4.02157 4.54262 0
M  V30 4811 H 451.665 -3.51087 3.38511 0
M  V30 4812 H 450.67 -1.99653 5.12268 0
M  V30 4813 H 451.895 -2.53551 6.29991 0
M  V30 4814 H 449.841 -4.31882 4.93776 0
M  V30 4815 H 449.758 -3.74087 6.56959 0
M  V30 4816 H 451.026 -4.83834 6.11167 0
M  V30 4817 N 455.255 -1.55392 -0.262866 0
M  V30 4818 C 456.203 -1.8977 -1.345 0
M  V30 4819 C 457.197 -0.775063 -1.50629 0
M  V30 4820 O 458.403 -0.959519 -1.52293 0
M  V30 4821 H 454.778 -0.602467 -0.450041 0
M  V30 4822 H 456.749 -2.80147 -1.02762 0
M  V30 4823 C 455.498 -2.19501 -2.69657 0
M  V30 4824 H 454.821 -3.05378 -2.5804 0
M  V30 4825 H 456.261 -2.47469 -3.44289 0
M  V30 4826 C 454.72 -1.00597 -3.21531 0
M  V30 4827 O 455.25 -0.245768 -4.00947 0
M  V30 4828 N 453.456 -0.800911 -2.79345 0
M  V30 4829 H 453.003 -1.42079 -2.14875 0
M  V30 4830 H 452.961 -0.00697996 -3.14399 0
M  V30 4831 N 456.733 0.527833 -1.48498 0
M  V30 4832 C 458.144 1.10975 -1.50138 0
M  V30 4833 C 458.495 1.943 -0.272378 0
M  V30 4834 O 457.62 2.07319 0.620301 0
M  V30 4835 C 458.215 2.01927 -2.72049 0
M  V30 4836 C 456.774 2.55332 -2.76554 0
M  V30 4837 C 455.921 1.32341 -2.43683 0
M  V30 4838 H 458.872 0.312986 -1.55583 0
M  V30 4839 H 458.893 2.86244 -2.50689 0
M  V30 4840 H 458.405 1.41254 -3.61481 0
M  V30 4841 H 456.506 3.19721 -1.91336 0
M  V30 4842 H 456.619 2.94319 -3.78038 0
M  V30 4843 H 454.983 1.63989 -1.94884 0
M  V30 4844 H 455.766 0.734165 -3.35358 0
M  V30 4845 N 458.211 1.37122 0.776871 0
M  V30 4846 C 459.488 1.22586 1.52421 0
M  V30 4847 C 459.868 -0.182726 2.10308 0
M  V30 4848 O 459.216 -1.18979 1.9508 0
M  V30 4849 C 459.426 2.31782 2.60918 0
M  V30 4850 C 460.774 2.69071 3.2846 0
M  V30 4851 O 461.798 2.3092 2.71209 0
M  V30 4852 O 460.657 3.3478 4.31954 0
M  V30 4853 H 457.751 0.478045 0.674835 0
M  V30 4854 H 460.297 1.48888 0.814275 0
M  V30 4855 H 459.069 3.26131 2.16227 0
M  V30 4856 H 458.692 2.06916 3.39517 0
M  V30 4857 N 459.689 -1.00246 1.21608 0
M  V30 4858 C 460.619 -2.10921 1.00172 0
M  V30 4859 C 461.6 -1.69938 -0.0741587 0
M  V30 4860 O 462.785 -1.94009 0.0861753 0
M  V30 4861 C 459.915 -3.42618 0.568355 0
M  V30 4862 C 458.869 -3.97407 1.58909 0
M  V30 4863 C 458.195 -5.25038 1.01187 0
M  V30 4864 C 459.495 -4.2918 2.97661 0
M  V30 4865 H 461.189 -2.29112 1.92739 0
M  V30 4866 H 458.735 -1.10101 0.928102 0
M  V30 4867 H 460.688 -4.19444 0.405555 0
M  V30 4868 H 459.412 -3.24227 -0.392961 0
M  V30 4869 H 458.071 -3.22703 1.73949 0
M  V30 4870 H 457.719 -5.02982 0.0421965 0
M  V30 4871 H 457.419 -5.62661 1.6937 0
M  V30 4872 H 458.943 -6.04507 0.860448 0
M  V30 4873 H 460.357 -4.96839 2.86049 0
M  V30 4874 H 458.754 -4.77952 3.6288 0
M  V30 4875 H 459.824 -3.3735 3.48315 0
M  V30 4876 N 461.167 -1.02423 -1.1978 0
M  V30 4877 C 462.099 -0.559152 -2.22275 0
M  V30 4878 C 463.112 0.36251 -1.58713 0
M  V30 4879 O 464.301 0.159641 -1.77785 0
M  V30 4880 C 461.401 0.205094 -3.38279 0
M  V30 4881 C 460.574 -0.720361 -4.31427 0
M  V30 4882 C 459.633 -0.00234368 -5.262 0
M  V30 4883 O 458.659 -0.627378 -5.65732 0
M  V30 4884 N 459.861 1.26996 -5.66438 0
M  V30 4885 H 462.626 -1.44064 -2.62804 0
M  V30 4886 H 460.187 -0.902692 -1.34399 0
M  V30 4887 H 462.179 0.694868 -3.9869 0
M  V30 4888 H 460.749 0.987947 -2.96578 0
M  V30 4889 H 459.969 -1.39031 -3.68869 0
M  V30 4890 H 461.257 -1.3495 -4.90577 0
M  V30 4891 H 460.655 1.79858 -5.36347 0
M  V30 4892 H 459.212 1.70432 -6.29123 0
M  V30 4893 N 462.645 1.35699 -0.801477 0
M  V30 4894 C 463.608 2.28199 -0.213994 0
M  V30 4895 C 464.608 1.49359 0.595691 0
M  V30 4896 O 465.798 1.69186 0.414921 0
M  V30 4897 C 462.93 3.33587 0.702297 0
M  V30 4898 H 464.123 2.81666 -1.02976 0
M  V30 4899 H 461.676 1.45467 -0.571759 0
M  V30 4900 H 462.411 2.85297 1.54195 0
M  V30 4901 H 462.196 3.91906 0.123484 0
M  V30 4902 H 463.686 4.02638 1.10783 0
M  V30 4903 N 464.123 0.554532 1.47522 0
M  V30 4904 C 465.372 0.0273458 2.01681 0
M  V30 4905 C 465.685 -1.32962 1.43459 0
M  V30 4906 O 466.891 -1.94657 1.89265 0
M  V30 4907 C 465.347 -0.00159057 3.599 0
M  V30 4908 C 464.955 1.35197 4.27113 0
M  V30 4909 C 466.699 -0.476311 4.21819 0
M  V30 4910 C 464.606 1.28229 5.77331 0
M  V30 4911 H 463.536 0.00645269 0.753972 0
M  V30 4912 H 466.187 0.701985 1.69542 0
M  V30 4913 H 464.569 -0.741821 3.8899 0
M  V30 4914 H 465.743 2.1097 4.09668 0
M  V30 4915 H 464.058 1.76441 3.77171 0
M  V30 4916 H 466.655 -0.5468 5.31897 0
M  V30 4917 H 466.998 -1.4877 3.8881 0
M  V30 4918 H 467.531 0.20898 3.97251 0
M  V30 4919 H 464.27 2.26959 6.14955 0
M  V30 4920 H 463.79 0.566314 5.97121 0
M  V30 4921 H 465.469 0.983226 6.39485 0
M  V30 4922 N 465.601 -1.54893 0.290851 0
M  V30 4923 C 467.017 -1.59476 -0.0628432 0
M  V30 4924 C 467.217 -1.30795 -1.5328 0
M  V30 4925 O 466.273 -1.07644 -2.28406 0
M  V30 4926 C 467.586 -2.98928 0.325962 0
M  V30 4927 C 469.134 -3.11799 0.273882 0
M  V30 4928 C 469.609 -4.53544 0.637359 0
M  V30 4929 N 471.1 -4.59433 0.589507 0
M  V30 4930 C 471.835 -5.67164 0.84335 0
M  V30 4931 N 471.331 -6.82975 1.16263 0
M  V30 4932 N 473.124 -5.56786 0.771091 0
M  V30 4933 H 465.275 -1.71798 1.24896 0
M  V30 4934 H 467.538 -0.801879 0.505663 0
M  V30 4935 H 467.244 -3.24805 1.34887 0
M  V30 4936 H 467.118 -3.75793 -0.325441 0
M  V30 4937 H 469.505 -2.85677 -0.739765 0
M  V30 4938 H 469.586 -2.37112 0.959766 0
M  V30 4939 H 469.23 -4.80394 1.64877 0
M  V30 4940 H 469.16 -5.26553 -0.0704866 0
M  V30 4941 H 471.651 -3.76245 0.353252 0
M  V30 4942 H 471.964 -7.61048 1.34257 0
M  V30 4943 H 470.309 -6.84552 1.20057 0
M  V30 4944 H 473.5 -4.65187 0.521383 0
M  V30 4945 H 473.673 -6.40664 0.972295 0
M  V30 4946 N 467.08 -0.0183926 -1.57589 0
M  V30 4947 C 468.329 0.66185 -1.90532 0
M  V30 4948 C 468.642 1.73904 -0.895366 0
M  V30 4949 O 469.848 2.47518 -1.11566 0
M  V30 4950 C 468.304 1.22844 -3.38286 0
M  V30 4951 C 467.912 0.185103 -4.47617 0
M  V30 4952 C 469.656 1.88581 -3.80312 0
M  V30 4953 C 467.563 0.762723 -5.86461 0
M  V30 4954 H 466.493 0.250972 -0.711006 0
M  V30 4955 H 469.144 -0.0819435 -1.83317 0
M  V30 4956 H 467.526 2.0235 -3.40398 0
M  V30 4957 H 468.7 -0.58671 -4.5705 0
M  V30 4958 H 467.015 -0.372889 -4.14727 0
M  V30 4959 H 469.612 2.32735 -4.81392 0
M  V30 4960 H 469.955 2.72408 -3.14801 0
M  V30 4961 H 470.488 1.15782 -3.80578 0
M  V30 4962 H 467.227 -0.0371713 -6.55489 0
M  V30 4963 H 466.747 1.50327 -5.80656 0
M  V30 4964 H 468.426 1.25576 -6.34697 0
M  V30 4965 N 468.558 1.5553 0.254621 0
M  V30 4966 C 469.521 1.88872 1.29846 0
M  V30 4967 C 470.521 0.764591 1.41459 0
M  V30 4968 O 471.711 1.03265 1.40293 0
M  V30 4969 C 468.843 2.11032 2.67728 0
M  V30 4970 H 470.036 2.82201 1.01502 0
M  V30 4971 H 467.589 1.48303 0.493556 0
M  V30 4972 H 468.324 1.20146 3.01223 0
M  V30 4973 H 468.109 2.92895 2.60682 0
M  V30 4974 H 469.599 2.38038 3.43115 0
M  V30 4975 N 470.036 -0.519951 1.48776 0
M  V30 4976 C 471.261 -1.30447 1.6124 0
M  V30 4977 C 471.686 -1.86055 0.276591 0
M  V30 4978 O 471.044 -1.64915 -0.753183 0
M  V30 4979 C 471.092 -2.42406 2.66967 0
M  V30 4980 O 470.196 -3.45728 2.24824 0
M  V30 4981 H 469.537 -0.385924 0.540332 0
M  V30 4982 H 472.067 -0.624572 1.94834 0
M  V30 4983 H 472.077 -2.88447 2.88552 0
M  V30 4984 H 470.752 -2.01294 3.63941 0
M  V30 4985 H 469.329 -3.05737 2.13494 0
M  V30 4986 N 471.514 -1.37532 -0.769588 0
M  V30 4987 C 472.76 -1.33057 -1.53048 0
M  V30 4988 C 473.093 0.0841865 -1.94017 0
M  V30 4989 O 472.368 1.04198 -1.64235 0
M  V30 4990 C 472.651 -2.27166 -2.79406 0
M  V30 4991 C 472.504 -3.77429 -2.44677 0
M  V30 4992 C 473.823 -2.19683 -3.81349 0
M  V30 4993 H 470.942 -0.484655 -0.555228 0
M  V30 4994 H 473.584 -1.68251 -0.882702 0
M  V30 4995 H 471.734 -1.97283 -3.34682 0
M  V30 4996 H 473.406 -4.17918 -1.953 0
M  V30 4997 H 471.649 -3.95892 -1.77346 0
M  V30 4998 H 472.32 -4.38716 -3.35011 0
M  V30 4999 H 474.796 -2.46029 -3.35573 0
M  V30 5000 H 473.672 -2.87668 -4.67481 0
M  V30 5001 H 473.933 -1.19045 -4.25771 0
M  V30 5002 N 472.992 0.995999 -1.22138 0
M  V30 5003 C 473.94 2.10673 -0.985876 0
M  V30 5004 C 474.934 1.69255 0.0699553 0
M  V30 5005 O 476.14 1.79812 -0.0822176 0
M  V30 5006 H 472.515 0.688865 -0.30161 0
M  V30 5007 H 474.486 2.27711 -1.92848 0
M  V30 5008 C 473.235 3.42881 -0.576909 0
M  V30 5009 H 472.558 3.75191 -1.38101 0
M  V30 5010 H 473.998 4.21589 -0.451518 0
M  V30 5011 C 472.457 3.29265 0.713196 0
M  V30 5012 O 472.987 3.60777 1.76643 0
M  V30 5013 N 471.193 2.82456 0.683162 0
M  V30 5014 H 470.74 2.5701 -0.174242 0
M  V30 5015 H 470.698 2.73727 1.54663 0
M  V30 5016 N 474.47 1.03057 1.19235 0
M  V30 5017 C 475.881 0.757449 1.70645 0
M  V30 5018 C 476.232 -0.722735 1.82403 0
M  V30 5019 O 475.357 -1.56325 1.49638 0
M  V30 5020 C 475.952 1.36833 3.09939 0
M  V30 5021 C 474.511 1.14375 3.58602 0
M  V30 5022 C 473.658 1.46533 2.35422 0
M  V30 5023 H 476.609 1.19828 1.04052 0
M  V30 5024 H 476.63 0.766184 3.72706 0
M  V30 5025 H 476.142 2.44562 3.01349 0
M  V30 5026 H 474.243 0.0847542 3.72504 0
M  V30 5027 H 474.356 1.83366 4.42622 0
M  V30 5028 H 472.72 0.884712 2.38841 0
M  V30 5029 H 473.503 2.55349 2.2946 0
M  V30 5030 N 475.948 -1.35272 0.808662 0
M  V30 5031 C 477.197 -1.97963 0.386483 0
M  V30 5032 C 477.51 -1.64866 -1.05255 0
M  V30 5033 O 478.716 -2.20937 -1.57794 0
M  V30 5034 C 477.172 -3.54162 0.640096 0
M  V30 5035 C 476.78 -3.96166 2.0918 0
M  V30 5036 C 478.524 -4.23553 0.283376 0
M  V30 5037 C 476.431 -5.4522 2.29106 0
M  V30 5038 H 475.361 -0.740742 0.140774 0
M  V30 5039 H 478.012 -1.5431 0.993012 0
M  V30 5040 H 476.394 -3.95983 -0.0364117 0
M  V30 5041 H 477.568 -3.65491 2.80629 0
M  V30 5042 H 475.883 -3.3967 2.40859 0
M  V30 5043 H 478.48 -5.33124 0.410273 0
M  V30 5044 H 478.823 -4.09105 -0.770659 0
M  V30 5045 H 479.356 -3.8716 0.913884 0
M  V30 5046 H 476.095 -5.64638 3.32962 0
M  V30 5047 H 475.615 -5.77457 1.62184 0
M  V30 5048 H 477.294 -6.1171 2.1076 0
M  V30 5049 N 477.426 -0.562348 -1.47226 0
M  V30 5050 C 478.356 0.170627 -2.32876 0
M  V30 5051 C 479.337 0.903748 -1.44106 0
M  V30 5052 O 480.522 0.883206 -1.72954 0
M  V30 5053 C 477.652 1.19786 -3.25989 0
M  V30 5054 C 476.606 0.580875 -4.2404 0
M  V30 5055 C 475.932 1.71311 -5.06514 0
M  V30 5056 C 477.232 -0.468714 -5.20193 0
M  V30 5057 H 478.926 -0.544441 -2.94408 0
M  V30 5058 H 476.472 -0.263271 -1.41573 0
M  V30 5059 H 478.425 1.71884 -3.84752 0
M  V30 5060 H 477.149 1.94294 -2.62521 0
M  V30 5061 H 475.808 0.0811538 -3.6651 0
M  V30 5062 H 475.456 2.44736 -4.39447 0
M  V30 5063 H 475.156 1.30604 -5.72902 0
M  V30 5064 H 476.68 2.23725 -5.68137 0
M  V30 5065 H 478.094 -0.0336028 -5.7329 0
M  V30 5066 H 476.491 -0.794957 -5.94811 0
M  V30 5067 H 477.561 -1.36269 -4.65359 0
M  V30 5068 N 478.904 1.54736 -0.299062 0
M  V30 5069 C 480.181 1.92187 0.363802 0
M  V30 5070 C 480.561 1.22607 1.71845 0
M  V30 5071 O 479.909 0.361141 2.25628 0
M  V30 5072 C 480.119 3.45678 0.480377 0
M  V30 5073 C 481.467 4.17885 0.752147 0
M  V30 5074 O 482.491 3.51702 0.564264 0
M  V30 5075 O 481.35 5.35048 1.11294 0
M  V30 5076 H 478.444 0.801681 0.203066 0
M  V30 5077 H 480.99 1.66115 -0.346978 0
M  V30 5078 H 479.762 3.88443 -0.471999 0
M  V30 5079 H 479.385 3.77779 1.2397 0
M  V30 5080 N 480.382 0.0267497 1.57577 0
M  V30 5081 C 481.793 -0.512413 1.79531 0
M  V30 5082 C 482.144 -1.72391 0.936791 0
M  V30 5083 O 481.269 -2.15903 0.146543 0
M  V30 5084 C 481.864 -0.936378 3.25603 0
M  V30 5085 C 480.423 -1.42067 3.4856 0
M  V30 5086 C 479.57 -0.384278 2.74624 0
M  V30 5087 H 482.521 0.252797 1.56674 0
M  V30 5088 H 482.542 -1.80088 3.35184 0
M  V30 5089 H 482.054 -0.0544332 3.88062 0
M  V30 5090 H 480.155 -2.32262 2.9135 0
M  V30 5091 H 480.268 -1.42968 4.57271 0
M  V30 5092 H 478.632 -0.851855 2.40032 0
M  V30 5093 H 479.415 0.489159 3.39797 0
M  V30 5094 N 481.861 -1.55662 -0.24637 0
M  V30 5095 C 483.107 -1.78698 -0.971525 0
M  V30 5096 C 483.462 -0.59577 -1.82944 0
M  V30 5097 O 482.755 0.41097 -1.87141 0
M  V30 5098 C 482.949 -3.04885 -1.86494 0
M  V30 5099 C 482.778 -4.36165 -1.09501 0
M  V30 5100 C 481.548 -4.98929 -0.799895 0
M  V30 5101 C 483.746 -5.12126 -0.472334 0
M  V30 5102 N 481.728 -6.139 -0.00595299 0
M  V30 5103 C 483.099 -6.1972 0.18616 0
M  V30 5104 C 485.154 -4.96426 -0.382854 0
M  V30 5105 C 483.857 -7.13321 0.925542 0
M  V30 5106 C 485.883 -5.90405 0.342999 0
M  V30 5107 C 485.245 -6.97407 0.990128 0
M  V30 5108 H 481.344 -0.705852 -0.336597 0
M  V30 5109 H 483.928 -1.93157 -0.244615 0
M  V30 5110 H 482.099 -2.91753 -2.56388 0
M  V30 5111 H 483.831 -3.16212 -2.5257 0
M  V30 5112 H 480.586 -4.60365 -1.11181 0
M  V30 5113 H 481.01 -6.75938 0.379127 0
M  V30 5114 H 485.652 -4.13777 -0.868834 0
M  V30 5115 H 483.37 -7.9547 1.42312 0
M  V30 5116 H 486.956 -5.80333 0.412907 0
M  V30 5117 H 485.836 -7.68874 1.54282 0
M  V30 5118 N 483.339 0.512053 -1.4905 0
M  V30 5119 C 484.588 1.26343 -1.57227 0
M  V30 5120 C 484.901 1.93876 -0.259155 0
M  V30 5121 O 486.107 2.70612 -0.219358 0
M  V30 5122 C 484.563 2.29343 -2.77362 0
M  V30 5123 C 484.171 1.67799 -4.15388 0
M  V30 5124 C 485.915 3.05378 -2.94864 0
M  V30 5125 C 483.822 2.68845 -5.2676 0
M  V30 5126 H 482.752 0.475231 -0.585382 0
M  V30 5127 H 485.403 0.53862 -1.75417 0
M  V30 5128 H 483.785 3.04938 -2.52643 0
M  V30 5129 H 484.959 0.982715 -4.50199 0
M  V30 5130 H 483.274 1.04194 -4.03153 0
M  V30 5131 H 485.871 3.80921 -3.75238 0
M  V30 5132 H 486.214 3.62327 -2.05 0
M  V30 5133 H 486.747 2.36898 -3.19569 0
M  V30 5134 H 483.486 2.16692 -6.18647 0
M  V30 5135 H 483.006 3.36647 -4.96416 0
M  V30 5136 H 484.685 3.31487 -5.5563 0
M  V30 5137 N 484.817 1.37938 0.762283 0
M  V30 5138 C 486.047 1.36685 1.54922 0
M  V30 5139 C 486.455 -0.0474099 1.89141 0
M  V30 5140 O 485.798 -1.02213 1.52638 0
M  V30 5141 C 485.86 2.14963 2.88152 0
M  V30 5142 C 485.524 3.6385 2.76518 0
M  V30 5143 C 486.521 4.57531 2.46904 0
M  V30 5144 C 484.206 4.07095 2.94243 0
M  V30 5145 C 486.2 5.92436 2.35156 0
M  V30 5146 C 483.887 5.42083 2.82116 0
M  V30 5147 C 484.885 6.34567 2.52614 0
M  V30 5148 O 484.573 7.67073 2.40529 0
M  V30 5149 H 484.305 0.469586 0.486276 0
M  V30 5150 H 486.859 1.82012 0.951876 0
M  V30 5151 H 485.089 1.6434 3.50042 0
M  V30 5152 H 486.778 2.06224 3.49609 0
M  V30 5153 H 487.544 4.25428 2.32886 0
M  V30 5154 H 483.423 3.35462 3.16206 0
M  V30 5155 H 486.967 6.64591 2.12049 0
M  V30 5156 H 482.864 5.73785 2.95704 0
M  V30 5157 H 483.632 7.77499 2.55807 0
M  V30 5158 N 486.295 -0.989507 1.22664 0
M  V30 5159 C 487.544 -1.72375 1.04737 0
M  V30 5160 C 487.857 -1.91096 -0.417316 0
M  V30 5161 O 489.063 -2.6188 -0.716334 0
M  V30 5162 C 487.519 -3.10161 1.82561 0
M  V30 5163 C 487.127 -2.99358 3.333 0
M  V30 5164 C 488.871 -3.87607 1.73093 0
M  V30 5165 C 486.778 -4.32319 4.03552 0
M  V30 5166 H 485.708 -0.646326 0.388302 0
M  V30 5167 H 488.359 -1.10437 1.46546 0
M  V30 5168 H 486.741 -3.728 1.33552 0
M  V30 5169 H 487.915 -2.45863 3.89728 0
M  V30 5170 H 486.23 -2.35392 3.43481 0
M  V30 5171 H 488.827 -4.86025 2.22899 0
M  V30 5172 H 489.17 -4.10509 0.691976 0
M  V30 5173 H 489.703 -3.31652 2.19663 0
M  V30 5174 H 486.442 -4.14616 5.07714 0
M  V30 5175 H 485.962 -4.85714 3.51911 0
M  V30 5176 H 487.641 -5.01051 4.09337 0
M  V30 5177 N 487.773 -1.03688 -1.18687 0
M  V30 5178 C 488.703 -0.645407 -2.24403 0
M  V30 5179 C 489.684 0.349511 -1.66471 0
M  V30 5180 O 490.869 0.230453 -1.92828 0
M  V30 5181 C 487.999 -0.00365337 -3.473 0
M  V30 5182 C 486.953 -0.921705 -4.17958 0
M  V30 5183 C 486.279 -0.144629 -5.34504 0
M  V30 5184 C 487.579 -2.23909 -4.71871 0
M  V30 5185 H 489.273 -1.52917 -2.57404 0
M  V30 5186 H 486.819 -0.736711 -1.23728 0
M  V30 5187 H 488.772 0.281908 -4.20456 0
M  V30 5188 H 487.496 0.914963 -3.13522 0
M  V30 5189 H 486.155 -1.19159 -3.46694 0
M  V30 5190 H 485.803 0.776274 -4.96974 0
M  V30 5191 H 485.503 -0.756206 -5.82714 0
M  V30 5192 H 487.027 0.134004 -6.10453 0
M  V30 5193 H 488.441 -2.0145 -5.36741 0
M  V30 5194 H 486.838 -2.8033 -5.30599 0
M  V30 5195 H 487.908 -2.88822 -3.895 0
M  V30 5196 N 489.251 1.34841 -0.815825 0
M  V30 5197 C 490.181 2.32187 -0.247298 0
M  V30 5198 C 491.162 1.5791 0.632344 0
M  V30 5199 O 492.347 1.8593 0.560698 0
M  V30 5200 C 489.477 3.42122 0.597466 0
M  V30 5201 C 488.431 4.27602 -0.184446 0
M  V30 5202 C 487.757 5.28942 0.782609 0
M  V30 5203 C 489.057 5.03502 -1.38865 0
M  V30 5204 H 490.751 2.79985 -1.06061 0
M  V30 5205 H 488.297 1.34611 -0.511461 0
M  V30 5206 H 490.25 4.09232 1.00533 0
M  V30 5207 H 488.974 2.92956 1.44376 0
M  V30 5208 H 487.633 3.62085 -0.573592 0
M  V30 5209 H 487.281 4.7604 1.62466 0
M  V30 5210 H 486.981 5.87008 0.263695 0
M  V30 5211 H 488.505 5.98922 1.18848 0
M  V30 5212 H 489.919 5.63506 -1.05518 0
M  V30 5213 H 488.316 5.71108 -1.8427 0
M  V30 5214 H 489.386 4.33608 -2.17054 0
M  V30 5215 N 490.729 0.570148 1.46925 0
M  V30 5216 C 492.145 0.23087 1.57921 0
M  V30 5217 C 492.345 -1.26676 1.56702 0
M  V30 5218 O 491.401 -2.04774 1.47729 0
M  V30 5219 C 492.714 0.868973 2.8787 0
M  V30 5220 C 494.262 0.841397 3.01479 0
M  V30 5221 C 494.737 1.45881 4.34146 0
M  V30 5222 N 496.228 1.42258 4.40814 0
M  V30 5223 C 496.963 1.8698 5.42057 0
M  V30 5224 N 496.459 2.39618 6.50042 0
M  V30 5225 N 498.252 1.77972 5.33181 0
M  V30 5226 H 490.403 1.54301 1.45962 0
M  V30 5227 H 492.666 0.644224 0.69547 0
M  V30 5228 H 492.372 1.922 2.94537 0
M  V30 5229 H 492.246 0.369682 3.75384 0
M  V30 5230 H 494.633 -0.202973 2.94401 0
M  V30 5231 H 494.714 1.37858 2.15474 0
M  V30 5232 H 494.358 2.50231 4.4198 0
M  V30 5233 H 494.288 0.896958 5.18905 0
M  V30 5234 H 496.779 1.03768 3.63374 0
M  V30 5235 H 497.092 2.71633 7.23488 0
M  V30 5236 H 495.437 2.43636 6.50897 0
M  V30 5237 H 498.628 1.36617 4.4772 0
M  V30 5238 H 498.801 2.13143 6.11943 0
M  V30 5239 N 492.207 -1.54576 0.307264 0
M  V30 5240 C 493.154 -2.23751 -0.56604 0
M  V30 5241 C 494.124 -1.22235 -1.12462 0
M  V30 5242 O 495.309 -1.50873 -1.16799 0
M  V30 5243 C 492.449 -2.98661 -1.72903 0
M  V30 5244 C 491.562 -4.14963 -1.20124 0
M  V30 5245 C 490.697 -4.77441 -2.3286 0
M  V30 5246 C 489.736 -5.85875 -1.77247 0
M  V30 5247 N 488.873 -6.42282 -2.8358 0
M  V30 5248 H 493.713 -2.97984 0.0304578 0
M  V30 5249 H 491.25 -1.47076 0.0268015 0
M  V30 5250 H 493.208 -3.40329 -2.41313 0
M  V30 5251 H 491.838 -2.26793 -2.29706 0
M  V30 5252 H 490.89 -3.78193 -0.409198 0
M  V30 5253 H 492.202 -4.93066 -0.754171 0
M  V30 5254 H 491.356 -5.21993 -3.09205 0
M  V30 5255 H 490.095 -3.98684 -2.80896 0
M  V30 5256 H 489.1 -5.40741 -0.993926 0
M  V30 5257 H 490.325 -6.6652 -1.30107 0
M  V30 5258 H 488.271 -5.66406 -3.30939 0
M  V30 5259 H 488.188 -7.1575 -2.43388 0
M  V30 5260 H 489.456 -6.91492 -3.59804 0
M  V30 5261 N 493.685 -0.035106 -1.57561 0
M  V30 5262 C 494.913 0.652258 -1.9635 0
M  V30 5263 C 495.328 1.65317 -0.911897 0
M  V30 5264 O 494.685 1.82194 0.105657 0
M  V30 5265 C 494.736 1.35337 -3.35211 0
M  V30 5266 O 494.457 0.392548 -4.36338 0
M  V30 5267 C 495.958 2.13199 -3.88666 0
M  V30 5268 H 493.178 0.179444 -0.646561 0
M  V30 5269 H 495.722 -0.0966459 -2.04271 0
M  V30 5270 H 493.877 2.05362 -3.28489 0
M  V30 5271 H 494.291 0.891097 -5.16875 0
M  V30 5272 H 495.765 2.577 -4.88154 0
M  V30 5273 H 496.242 2.97353 -3.23231 0
M  V30 5274 H 496.848 1.48118 -3.98674 0
M  V30 5275 N 495.163 1.55791 0.238111 0
M  V30 5276 C 496.409 1.78297 0.966337 0
M  V30 5277 C 496.742 0.601903 1.84637 0
M  V30 5278 O 496.017 -0.399499 1.90353 0
M  V30 5279 C 496.3 3.10758 1.81939 0
M  V30 5280 C 496.153 4.39283 0.966958 0
M  V30 5281 C 497.472 3.39519 2.80027 0
M  V30 5282 H 494.591 0.648654 0.349882 0
M  V30 5283 H 497.233 1.88525 0.236253 0
M  V30 5284 H 495.383 3.02168 2.44185 0
M  V30 5285 H 497.055 4.59873 0.362514 0
M  V30 5286 H 495.298 4.32948 0.271669 0
M  V30 5287 H 495.969 5.28368 1.59784 0
M  V30 5288 H 498.445 3.48128 2.27917 0
M  V30 5289 H 497.321 4.33402 3.36829 0
M  V30 5290 H 497.582 2.60864 3.56934 0
M  V30 5291 N 496.642 -0.504142 1.49319 0
M  V30 5292 C 497.572 -1.61473 1.68667 0
M  V30 5293 C 498.553 -1.61455 0.535378 0
M  V30 5294 O 499.738 -1.78245 0.770868 0
M  V30 5295 C 496.868 -2.99971 1.75028 0
M  V30 5296 C 495.822 -3.14854 2.89916 0
M  V30 5297 C 495.148 -4.54671 2.81387 0
M  V30 5298 C 496.448 -2.95176 4.30893 0
M  V30 5299 H 498.142 -1.45535 2.61648 0
M  V30 5300 H 495.688 -0.698711 1.25913 0
M  V30 5301 H 497.641 -3.77562 1.8715 0
M  V30 5302 H 496.365 -3.1699 0.786441 0
M  V30 5303 H 495.024 -2.39687 2.77391 0
M  V30 5304 H 494.672 -4.68562 1.82917 0
M  V30 5305 H 494.372 -4.6557 3.58494 0
M  V30 5306 H 495.896 -5.34327 2.95512 0
M  V30 5307 H 497.31 -3.62538 4.44116 0
M  V30 5308 H 495.707 -3.17549 5.09198 0
M  V30 5309 H 496.777 -1.91332 4.45556 0
M  V30 5310 N 498.12 -1.38341 -0.754957 0
M  V30 5311 C 499.345 -1.37882 -1.5493 0
M  V30 5312 C 499.77 0.0296385 -1.88077 0
M  V30 5313 O 499.128 1.01133 -1.50472 0
M  V30 5314 C 499.176 -2.23996 -2.82592 0
M  V30 5315 O 498.28 -1.65612 -3.77686 0
M  V30 5316 H 497.621 -0.470384 -0.468652 0
M  V30 5317 H 500.151 -1.82084 -0.933082 0
M  V30 5318 H 500.161 -2.37806 -3.3153 0
M  V30 5319 H 498.836 -3.26365 -2.57796 0
M  V30 5320 H 497.413 -1.60936 -3.36384 0
M  V30 5321 N 499.598 0.982988 -1.23187 0
M  V30 5322 C 500.545 2.07491 -1.01075 0
M  V30 5323 C 501.515 1.65949 0.070905 0
M  V30 5324 O 502.7 1.90629 -0.0806822 0
M  V30 5325 C 499.84 3.39751 -0.605261 0
M  V30 5326 C 498.953 3.94578 -1.75876 0
M  V30 5327 C 498.088 5.15039 -1.3003 0
M  V30 5328 C 497.127 5.62027 -2.42472 0
M  V30 5329 N 496.264 6.73719 -1.97602 0
M  V30 5330 H 501.104 2.25739 -1.9454 0
M  V30 5331 H 498.641 1.10659 -0.969179 0
M  V30 5332 H 500.599 4.15719 -0.351279 0
M  V30 5333 H 499.229 3.21473 0.292382 0
M  V30 5334 H 498.281 3.1539 -2.12681 0
M  V30 5335 H 499.593 4.25422 -2.60418 0
M  V30 5336 H 498.747 5.9833 -1.00429 0
M  V30 5337 H 497.486 4.85843 -0.425216 0
M  V30 5338 H 496.491 4.77318 -2.7285 0
M  V30 5339 H 497.716 5.93244 -3.30512 0
M  V30 5340 H 495.662 6.46287 -1.1247 0
M  V30 5341 H 495.579 7.03934 -2.75705 0
M  V30 5342 H 496.847 7.6049 -1.71098 0
M  V30 5343 N 501.076 1.04316 1.18135 0
M  V30 5344 C 502.039 0.640794 2.2006 0
M  V30 5345 C 503.039 -0.303124 1.57917 0
M  V30 5346 O 504.229 -0.0881855 1.73977 0
M  V30 5347 C 501.361 -0.060148 3.40847 0
M  V30 5348 H 502.554 1.54281 2.57172 0
M  V30 5349 H 500.107 0.836004 1.32063 0
M  V30 5350 H 500.842 -0.975845 3.0927 0
M  V30 5351 H 500.627 0.618319 3.87194 0
M  V30 5352 H 502.117 -0.328082 4.16309 0
M  V30 5353 N 502.554 -1.34406 0.822964 0
M  V30 5354 C 503.803 -1.97542 0.407458 0
M  V30 5355 C 504.116 -1.65973 -1.035 0
M  V30 5356 O 505.322 -2.22598 -1.55442 0
M  V30 5357 C 503.778 -3.53463 0.677623 0
M  V30 5358 C 503.386 -3.93925 2.1337 0
M  V30 5359 C 505.13 -4.23229 0.328284 0
M  V30 5360 C 503.037 -5.42759 2.34876 0
M  V30 5361 H 501.967 -0.739207 0.148623 0
M  V30 5362 H 504.618 -1.53248 1.00932 0
M  V30 5363 H 503 -3.96 0.00558965 0
M  V30 5364 H 504.174 -3.62494 2.8449 0
M  V30 5365 H 502.489 -3.37097 2.44448 0
M  V30 5366 H 505.086 -5.32659 0.466794 0
M  V30 5367 H 505.429 -4.09899 -0.727224 0
M  V30 5368 H 505.962 -3.86169 0.954896 0
M  V30 5369 H 502.701 -5.61075 3.38932 0
M  V30 5370 H 502.221 -5.75704 1.68299 0
M  V30 5371 H 503.9 -6.0944 2.17236 0
M  V30 5372 N 504.032 -0.577932 -1.46621 0
M  V30 5373 C 504.942 0.160651 -2.34049 0
M  V30 5374 C 505.958 0.890911 -1.49462 0
M  V30 5375 O 507.134 0.855166 -1.82343 0
M  V30 5376 C 504.199 1.16447 -3.26559 0
M  V30 5377 C 503.26 0.4394 -4.27045 0
M  V30 5378 C 502.493 1.3954 -5.15135 0
M  V30 5379 O 502.716 2.63162 -5.06065 0
M  V30 5380 O 501.65 0.908585 -5.95003 0
M  V30 5381 H 505.476 -0.557057 -2.98547 0
M  V30 5382 H 503.061 -0.338369 -1.45518 0
M  V30 5383 H 504.943 1.7434 -3.83645 0
M  V30 5384 H 503.618 1.86373 -2.64663 0
M  V30 5385 H 502.525 -0.181247 -3.73661 0
M  V30 5386 H 503.858 -0.218799 -4.91713 0
M  V30 5387 N 505.51 1.54411 -0.315457 0
M  V30 5388 C 506.457 2.24048 0.554166 0
M  V30 5389 C 507.427 1.2283 1.11812 0
M  V30 5390 O 508.612 1.51491 1.15997 0
M  V30 5391 C 505.752 2.99574 1.71316 0
M  V30 5392 C 504.865 4.15594 1.17922 0
M  V30 5393 C 504 4.78669 2.30324 0
M  V30 5394 C 503.039 5.86807 1.74137 0
M  V30 5395 N 502.176 6.43777 2.8017 0
M  V30 5396 H 507.016 2.97964 -0.0462602 0
M  V30 5397 H 504.553 1.47059 -0.0346009 0
M  V30 5398 H 506.511 3.41604 2.39505 0
M  V30 5399 H 505.141 2.28008 2.285 0
M  V30 5400 H 504.193 3.78404 0.389136 0
M  V30 5401 H 505.505 4.93459 0.728012 0
M  V30 5402 H 504.659 5.23626 3.06433 0
M  V30 5403 H 503.398 4.00168 2.78778 0
M  V30 5404 H 502.403 5.41261 0.965236 0
M  V30 5405 H 503.628 6.67201 1.2657 0
M  V30 5406 H 501.574 5.68153 3.2793 0
M  V30 5407 H 501.491 7.17031 2.39588 0
M  V30 5408 H 502.759 6.9339 3.56132 0
M  V30 5409 N 506.988 0.0434614 1.5754 0
M  V30 5410 C 508.237 -0.631454 1.91561 0
M  V30 5411 C 508.55 -1.72457 0.92292 0
M  V30 5412 O 509.756 -2.45712 1.15489 0
M  V30 5413 C 508.212 -1.17447 3.40197 0
M  V30 5414 C 507.82 -0.113867 4.47855 0
M  V30 5415 C 509.564 -1.82507 3.83264 0
M  V30 5416 C 507.471 -0.669326 5.876 0
M  V30 5417 H 506.401 -0.239629 0.714908 0
M  V30 5418 H 509.052 0.111097 1.83163 0
M  V30 5419 H 507.434 -1.96909 3.43574 0
M  V30 5420 H 508.608 0.659348 4.56058 0
M  V30 5421 H 506.923 0.438821 4.14081 0
M  V30 5422 H 509.52 -2.25047 4.85034 0
M  V30 5423 H 509.863 -2.67365 3.19095 0
M  V30 5424 H 510.396 -1.09712 3.82372 0
M  V30 5425 H 507.135 0.141449 6.55347 0
M  V30 5426 H 506.655 -1.4107 5.82974 0
M  V30 5427 H 508.334 -1.15463 6.36614 0
M  V30 5428 N 508.466 -1.55915 -0.229846 0
M  V30 5429 C 509.413 -1.91734 -1.28478 0
M  V30 5430 C 510.383 -0.773539 -1.46988 0
M  V30 5431 O 511.568 -1.02871 -1.60693 0
M  V30 5432 C 508.708 -2.23224 -2.63182 0
M  V30 5433 C 507.821 -3.50497 -2.52539 0
M  V30 5434 C 506.956 -3.71474 -3.79711 0
M  V30 5435 C 505.995 -4.92289 -3.63755 0
M  V30 5436 N 505.132 -5.09698 -4.82858 0
M  V30 5437 H 509.972 -2.81692 -0.972308 0
M  V30 5438 H 507.509 -1.39429 -0.468815 0
M  V30 5439 H 509.467 -2.3949 -3.41614 0
M  V30 5440 H 508.097 -1.36451 -2.92542 0
M  V30 5441 H 507.149 -3.4247 -1.65585 0
M  V30 5442 H 508.461 -4.39079 -2.36666 0
M  V30 5443 H 507.615 -3.87791 -4.66586 0
M  V30 5444 H 506.354 -2.81157 -3.985 0
M  V30 5445 H 505.359 -4.7593 -2.75264 0
M  V30 5446 H 506.584 -5.84083 -3.46445 0
M  V30 5447 H 504.53 -4.22322 -5.01976 0
M  V30 5448 H 504.447 -5.92399 -4.69681 0
M  V30 5449 H 505.715 -5.30443 -5.71183 0
M  V30 5450 N 509.944 0.496216 -1.49584 0
M  V30 5451 C 511.184 1.26015 -1.60933 0
M  V30 5452 C 511.548 1.89772 -0.291646 0
M  V30 5453 O 512.749 2.67334 -0.280357 0
M  V30 5454 C 511.02 2.29506 -2.73974 0
M  V30 5455 S 512.579 3.15175 -3.05303 0
M  V30 5456 H 509.397 0.428194 -0.567601 0
M  V30 5457 H 511.999 0.561484 -1.87263 0
M  V30 5458 H 510.703 1.81205 -3.68229 0
M  V30 5459 H 510.234 3.04036 -2.49651 0
M  V30 5460 H 512.249 4.30244 -2.47193 0
M  V30 5461 N 511.423 1.38739 0.74761 0
M  V30 5462 C 512.353 1.39173 1.87492 0
M  V30 5463 C 513.334 0.256794 1.6815 0
M  V30 5464 O 514.519 0.460762 1.88655 0
M  V30 5465 C 511.649 1.22197 3.25093 0
M  V30 5466 C 510.603 2.32957 3.59047 0
M  V30 5467 C 509.929 2.01082 4.95449 0
M  V30 5468 C 511.229 3.75237 3.6331 0
M  V30 5469 H 512.923 2.3351 1.87386 0
M  V30 5470 H 510.469 1.12399 0.900134 0
M  V30 5471 H 512.422 1.21124 4.03617 0
M  V30 5472 H 511.146 0.243241 3.25693 0
M  V30 5473 H 509.805 2.33226 2.82845 0
M  V30 5474 H 509.453 1.01678 4.92616 0
M  V30 5475 H 509.153 2.75267 5.19136 0
M  V30 5476 H 510.677 2.01638 5.76346 0
M  V30 5477 H 512.091 3.76966 4.31937 0
M  V30 5478 H 510.488 4.48677 3.98509 0
M  V30 5479 H 511.558 4.07122 2.634 0
M  V30 5480 N 512.901 -0.976442 1.23707 0
M  V30 5481 C 514.148 -1.71827 1.07153 0
M  V30 5482 C 514.476 -1.9053 -0.390982 0
M  V30 5483 O 513.731 -1.45779 -1.30564 0
M  V30 5484 C 514.03 -3.11814 1.74662 0
M  V30 5485 C 513.696 -3.12978 3.24585 0
M  V30 5486 C 512.358 -3.13003 3.6549 0
M  V30 5487 C 514.71 -3.07986 4.20469 0
M  V30 5488 C 512.038 -3.05757 5.00729 0
M  V30 5489 C 514.39 -3.02282 5.55705 0
M  V30 5490 C 513.054 -3.00631 5.95968 0
M  V30 5491 H 512.324 -0.628758 0.392102 0
M  V30 5492 H 514.971 -1.14239 1.53693 0
M  V30 5493 H 513.276 -3.72812 1.20492 0
M  V30 5494 H 514.973 -3.67989 1.59328 0
M  V30 5495 H 511.563 -3.13718 2.92026 0
M  V30 5496 H 515.747 -3.07103 3.89874 0
M  V30 5497 H 511.003 -3.02834 5.31132 0
M  V30 5498 H 515.177 -2.97376 6.29714 0
M  V30 5499 H 512.804 -2.94771 7.00724 0
M  V30 5500 N 514.379 -1.04941 -1.1758 0
M  V30 5501 C 515.619 -0.766996 -1.89464 0
M  V30 5502 C 515.983 0.693123 -1.79053 0
M  V30 5503 O 517.184 1.08953 -2.45729 0
M  V30 5504 C 515.455 -1.23108 -3.35528 0
M  V30 5505 S 517.014 -1.07565 -4.25412 0
M  V30 5506 H 513.832 -0.278616 -0.654136 0
M  V30 5507 H 516.434 -1.34352 -1.4202 0
M  V30 5508 H 515.138 -2.28896 -3.40639 0
M  V30 5509 H 514.669 -0.648724 -3.88014 0
M  V30 5510 H 516.684 0.00169467 -4.962 0
M  V30 5511 N 515.857 1.33968 -0.830081 0
M  V30 5512 C 517.273 1.51003 -0.516742 0
M  V30 5513 C 517.473 1.77286 0.957694 0
M  V30 5514 O 516.529 1.82797 1.74188 0
M  V30 5515 C 517.842 2.67036 -1.38247 0
M  V30 5516 C 519.39 2.80919 -1.38034 0
M  V30 5517 C 519.865 4.00004 -2.23071 0
M  V30 5518 N 521.356 4.07224 -2.20733 0
M  V30 5519 C 522.091 4.98541 -2.83275 0
M  V30 5520 N 521.587 5.95033 -3.54835 0
M  V30 5521 N 523.38 4.91469 -2.72791 0
M  V30 5522 H 515.531 1.15168 -1.78466 0
M  V30 5523 H 517.794 0.565443 -0.760906 0
M  V30 5524 H 517.5 2.54266 -2.42985 0
M  V30 5525 H 517.374 3.62226 -1.05225 0
M  V30 5526 H 519.761 2.93127 -0.340713 0
M  V30 5527 H 519.842 1.86517 -1.75057 0
M  V30 5528 H 519.486 3.88557 -3.27087 0
M  V30 5529 H 519.416 4.93634 -1.83394 0
M  V30 5530 H 521.907 3.38162 -1.68687 0
M  V30 5531 H 522.22 6.61357 -3.99784 0
M  V30 5532 H 520.565 5.95135 -3.58942 0
M  V30 5533 H 523.756 4.15048 -2.16456 0
M  V30 5534 H 523.929 5.62439 -3.21818 0
M  V30 5535 N 517.335 0.585699 1.46312 0
M  V30 5536 C 518.584 0.0701192 2.01578 0
M  V30 5537 C 518.897 -1.29889 1.46247 0
M  V30 5538 O 520.103 -1.90598 1.93351 0
M  V30 5539 C 518.559 0.0747499 3.59822 0
M  V30 5540 C 518.167 1.44226 4.24149 0
M  V30 5541 C 519.911 -0.38673 4.22735 0
M  V30 5542 C 517.818 1.40446 5.74481 0
M  V30 5543 H 516.748 0.0224441 0.753666 0
M  V30 5544 H 519.399 0.737789 1.68015 0
M  V30 5545 H 517.781 -0.659144 3.90476 0
M  V30 5546 H 518.955 2.19612 4.05101 0
M  V30 5547 H 517.27 1.84401 3.73343 0
M  V30 5548 H 519.867 -0.433853 5.32937 0
M  V30 5549 H 520.21 -1.40489 3.91878 0
M  V30 5550 H 520.743 0.293195 3.96718 0
M  V30 5551 H 517.482 2.39952 6.10003 0
M  V30 5552 H 517.002 0.692845 5.95785 0
M  V30 5553 H 518.681 1.11865 6.37256 0
M  V30 5554 N 518.813 -1.54241 0.323641 0
M  V30 5555 C 520.061 -2.00174 -0.278359 0
M  V30 5556 C 520.382 -1.2134 -1.52648 0
M  V30 5557 O 519.652 -0.315244 -1.93347 0
M  V30 5558 H 518.232 -0.739463 -0.105845 0
M  V30 5559 H 520.894 -1.89864 0.440204 0
M  V30 5560 H 519.99 -3.07486 -0.5347 0
M  V30 5561 N 520.291 -0.0518155 -1.57515 0
M  V30 5562 C 521.539 0.620595 -1.92336 0
M  V30 5563 C 521.86 1.71345 -0.930907 0
M  V30 5564 O 521.13 1.95885 0.0241341 0
M  V30 5565 H 519.71 0.232226 -0.709986 0
M  V30 5566 H 522.372 -0.104969 -1.94617 0
M  V30 5567 H 521.468 1.05879 -2.93592 0
M  V30 5568 N 521.769 1.56035 0.221574 0
M  V30 5569 C 522.994 1.83476 0.967026 0
M  V30 5570 C 523.419 0.632139 1.7716 0
M  V30 5571 O 522.777 -0.419082 1.7639 0
M  V30 5572 C 522.825 3.08907 1.86034 0
M  V30 5573 O 521.929 2.876 2.95567 0
M  V30 5574 H 521.27 0.604913 0.273817 0
M  V30 5575 H 523.8 2.03247 0.234893 0
M  V30 5576 H 523.81 3.3901 2.27016 0
M  V30 5577 H 522.485 3.96068 1.26898 0
M  V30 5578 H 521.062 2.6873 2.58532 0
M  V30 5579 N 523.247 -0.488276 1.49845 0
M  V30 5580 C 524.663 -0.820566 1.3689 0
M  V30 5581 C 524.863 -1.97248 0.411752 0
M  V30 5582 O 523.919 -2.52042 -0.151931 0
M  V30 5583 C 525.232 -1.1488 2.77891 0
M  V30 5584 C 526.78 -1.25626 2.86683 0
M  V30 5585 C 527.255 -1.61772 4.28479 0
M  V30 5586 N 528.746 -1.68797 4.31349 0
M  V30 5587 C 529.481 -1.98235 5.38043 0
M  V30 5588 N 528.977 -2.2581 6.54967 0
M  V30 5589 N 530.77 -1.99593 5.2547 0
M  V30 5590 H 522.921 0.271123 2.10662 0
M  V30 5591 H 525.184 0.058735 0.946179 0
M  V30 5592 H 524.89 -0.375614 3.49688 0
M  V30 5593 H 524.764 -2.08919 3.14058 0
M  V30 5594 H 527.151 -2.02014 2.15114 0
M  V30 5595 H 527.232 -0.296072 2.54081 0
M  V30 5596 H 526.876 -0.859295 5.00578 0
M  V30 5597 H 526.806 -2.58912 4.58554 0
M  V30 5598 H 529.297 -1.49595 3.4703 0
M  V30 5599 H 529.61 -2.47497 7.32096 0
M  V30 5600 H 527.955 -2.23239 6.58171 0
M  V30 5601 H 531.146 -1.77535 4.33127 0
M  V30 5602 H 531.319 -2.222 6.08713 0
M  V30 5603 N 524.725 -1.39134 -0.740242 0
M  V30 5604 C 526.141 -1.20623 -1.0451 0
M  V30 5605 C 526.341 -0.0641651 -2.01398 0
M  V30 5606 O 525.397 0.585843 -2.4561 0
M  V30 5607 C 526.71 -2.53815 -1.6124 0
M  V30 5608 C 528.258 -2.60615 -1.73346 0
M  V30 5609 C 528.733 -3.94015 -2.33486 0
M  V30 5610 N 530.224 -3.95627 -2.40902 0
M  V30 5611 C 530.959 -4.95616 -2.88361 0
M  V30 5612 N 530.455 -6.06003 -3.35756 0
M  V30 5613 N 532.248 -4.82998 -2.87523 0
M  V30 5614 H 524.399 -2.12176 -0.0975576 0
M  V30 5615 H 526.662 -0.942066 -0.105904 0
M  V30 5616 H 526.368 -3.37911 -0.975144 0
M  V30 5617 H 526.242 -2.73162 -2.6012 0
M  V30 5618 H 528.629 -1.76906 -2.36195 0
M  V30 5619 H 528.71 -2.45123 -0.731336 0
M  V30 5620 H 528.354 -4.78153 -1.71267 0
M  V30 5621 H 528.284 -4.06825 -3.34366 0
M  V30 5622 H 530.775 -3.15903 -2.07398 0
M  V30 5623 H 531.088 -6.78215 -3.70464 0
M  V30 5624 H 529.433 -6.09604 -3.33778 0
M  V30 5625 H 532.624 -3.95866 -2.49816 0
M  V30 5626 H 532.797 -5.61072 -3.24196 0
M  V30 5627 N 526.204 0.969867 -1.24223 0
M  V30 5628 C 527.114 2.09806 -1.0497 0
M  V30 5629 C 528.13 1.73998 0.00886455 0
M  V30 5630 O 529.306 2.00513 -0.188848 0
M  V30 5631 C 526.371 3.40467 -0.654452 0
M  V30 5632 C 525.432 3.90236 -1.78926 0
M  V30 5633 C 524.665 5.14662 -1.41277 0
M  V30 5634 O 524.888 5.69602 -0.301632 0
M  V30 5635 O 523.822 5.58761 -2.23763 0
M  V30 5636 H 527.648 2.28942 -1.99548 0
M  V30 5637 H 525.233 1.08197 -1.03023 0
M  V30 5638 H 527.115 4.19039 -0.445452 0
M  V30 5639 H 525.79 3.22636 0.262216 0
M  V30 5640 H 524.697 3.12735 -2.05299 0
M  V30 5641 H 526.03 4.1254 -2.68462 0
M  V30 5642 N 527.682 1.05563 1.17022 0
M  V30 5643 C 529.098 0.777684 1.39371 0
M  V30 5644 C 529.298 -0.626269 1.91521 0
M  V30 5645 O 528.354 -1.38806 2.10924 0
M  V30 5646 C 529.667 1.83642 2.3811 0
M  V30 5647 C 531.215 1.85907 2.51809 0
M  V30 5648 C 531.69 2.90813 3.53824 0
M  V30 5649 N 533.181 2.898 3.61345 0
M  V30 5650 C 533.916 3.6762 4.40049 0
M  V30 5651 N 533.412 4.55237 5.22237 0
M  V30 5652 N 535.205 3.56044 4.34959 0
M  V30 5653 H 527.356 1.9614 0.815047 0
M  V30 5654 H 529.619 0.849527 0.420722 0
M  V30 5655 H 529.325 2.84425 2.06871 0
M  V30 5656 H 529.199 1.6812 3.37662 0
M  V30 5657 H 531.586 0.857865 2.82356 0
M  V30 5658 H 531.667 2.05506 1.52318 0
M  V30 5659 H 531.311 3.91122 3.24015 0
M  V30 5660 H 531.241 2.68465 4.53028 0
M  V30 5661 H 533.732 2.26274 3.02669 0
M  V30 5662 H 534.045 5.11291 5.79484 0
M  V30 5663 H 532.39 4.59296 5.21605 0
M  V30 5664 H 535.581 2.86986 3.69806 0
M  V30 5665 H 535.754 4.16938 4.96051 0
M  V30 5666 N 529.16 -1.33526 0.837174 0
M  V30 5667 C 530.385 -2.0258 0.444545 0
M  V30 5668 C 530.81 -1.6258 -0.946006 0
M  V30 5669 O 530.168 -0.817548 -1.6182 0
M  V30 5670 C 530.216 -3.5605 0.571006 0
M  V30 5671 O 529.32 -4.10422 -0.403431 0
M  V30 5672 H 528.661 -0.638866 0.180958 0
M  V30 5673 H 531.191 -1.70462 1.13154 0
M  V30 5674 H 531.201 -4.05488 0.452024 0
M  V30 5675 H 529.876 -3.84509 1.58512 0
M  V30 5676 H 528.453 -3.72113 -0.242147 0
M  V30 5677 N 530.638 -0.59345 -1.46 0
M  V30 5678 C 531.886 -0.082988 -2.0193 0
M  V30 5679 C 532.207 1.28569 -1.46612 0
M  V30 5680 O 531.477 1.84629 -0.654909 0
M  V30 5681 H 530.057 -0.0276882 -0.746487 0
M  V30 5682 H 532.719 -0.771657 -1.78973 0
M  V30 5683 H 531.815 -0.022079 -3.12092 0
M  V30 5684 N 532.116 1.54067 -0.331816 0
M  V30 5685 C 533.048 2.22139 0.564538 0
M  V30 5686 C 534.061 1.22408 1.07332 0
M  V30 5687 O 535.25 1.4883 0.985481 0
M  V30 5688 C 532.35 2.87876 1.78831 0
M  V30 5689 C 531.523 4.13817 1.41682 0
M  V30 5690 C 530.582 4.63072 2.49901 0
M  V30 5691 O 529.608 5.27562 2.13699 0
M  V30 5692 N 530.81 4.38001 3.80967 0
M  V30 5693 H 533.575 2.99694 -0.0183736 0
M  V30 5694 H 531.136 1.61153 -0.155396 0
M  V30 5695 H 533.128 3.17747 2.50637 0
M  V30 5696 H 531.698 2.13977 2.27887 0
M  V30 5697 H 530.918 3.9062 0.530044 0
M  V30 5698 H 532.206 4.95762 1.14443 0
M  V30 5699 H 531.604 3.864 4.13173 0
M  V30 5700 H 530.161 4.72507 4.48977 0
M  V30 5701 N 533.594 0.0601682 1.57485 0
M  V30 5702 C 534.544 -0.920969 2.08572 0
M  V30 5703 C 535.528 -1.26617 0.992827 0
M  V30 5704 O 536.72 -1.24708 1.25606 0
M  V30 5705 C 533.849 -2.19267 2.64153 0
M  V30 5706 C 532.935 -1.87447 3.80427 0
M  V30 5707 N 533.326 -1.26025 4.89848 0
M  V30 5708 C 531.624 -2.17265 3.89502 0
M  V30 5709 C 532.325 -1.12036 5.70809 0
M  V30 5710 N 531.301 -1.62624 5.18705 0
M  V30 5711 H 535.103 -0.441561 2.90564 0
M  V30 5712 H 532.617 -0.144043 1.6176 0
M  V30 5713 H 534.614 -2.90462 2.99061 0
M  V30 5714 H 533.274 -2.67806 1.83603 0
M  V30 5715 H 534.285 -0.931336 5.09457 0
M  V30 5716 H 530.962 -2.68262 3.19909 0
M  V30 5717 H 532.352 -0.642783 6.68818 0
M  V30 5718 N 535.072 -1.5615 -0.213296 0
M  V30 5719 C 536.312 -1.81325 -0.943435 0
M  V30 5720 C 536.676 -0.634934 -1.81198 0
M  V30 5721 O 537.877 -0.766166 -2.5765 0
M  V30 5722 C 536.148 -3.11437 -1.75334 0
M  V30 5723 S 537.707 -3.57955 -2.53799 0
M  V30 5724 H 534.525 -0.636538 -0.316766 0
M  V30 5725 H 537.127 -1.94387 -0.208313 0
M  V30 5726 H 535.831 -3.95228 -1.10556 0
M  V30 5727 H 535.362 -3.01204 -2.53061 0
M  V30 5728 H 537.377 -3.21947 -3.77577 0
M  V30 5729 N 536.55 0.480323 -1.50102 0
M  V30 5730 C 537.775 1.26126 -1.64642 0
M  V30 5731 C 538.2 1.85257 -0.325823 0
M  V30 5732 O 537.558 1.66854 0.709194 0
M  V30 5733 C 537.606 2.35243 -2.73301 0
M  V30 5734 O 536.71 3.39646 -2.33911 0
M  V30 5735 H 536.051 0.371463 -0.550374 0
M  V30 5736 H 538.581 0.572696 -1.96421 0
M  V30 5737 H 538.591 2.80695 -2.96098 0
M  V30 5738 H 537.266 1.91574 -3.6915 0
M  V30 5739 H 535.843 2.99969 -2.21525 0
M  V30 5740 N 538.028 1.39524 0.732853 0
M  V30 5741 C 539.305 1.27373 1.48444 0
M  V30 5742 C 539.685 -0.115725 2.10783 0
M  V30 5743 O 539.033 -1.12713 1.98766 0
M  V30 5744 C 539.243 2.39966 2.53412 0
M  V30 5745 C 540.591 2.79384 3.19733 0
M  V30 5746 O 541.615 2.39431 2.63725 0
M  V30 5747 O 540.474 3.48353 4.21085 0
M  V30 5748 H 537.568 0.499272 0.659285 0
M  V30 5749 H 540.114 1.51403 0.766496 0
M  V30 5750 H 538.886 3.32845 2.05742 0
M  V30 5751 H 538.509 2.17612 3.32762 0
M  V30 5752 N 539.506 -0.963266 1.24736 0
M  V30 5753 C 540.731 -1.74699 1.11781 0
M  V30 5754 C 541.156 -1.85267 -0.325258 0
M  V30 5755 O 540.514 -1.32681 -1.23553 0
M  V30 5756 C 540.562 -3.14322 1.76731 0
M  V30 5757 O 539.666 -3.99043 1.04109 0
M  V30 5758 H 539.007 -0.53684 0.390767 0
M  V30 5759 H 541.537 -1.20801 1.65131 0
M  V30 5760 H 541.547 -3.64824 1.82668 0
M  V30 5761 H 540.222 -3.05946 2.81726 0
M  V30 5762 H 538.799 -3.5752 1.05991 0
M  V30 5763 N 540.985 -1.06182 -1.16461 0
M  V30 5764 C 541.917 -0.629584 -2.20383 0
M  V30 5765 C 542.93 0.311834 -1.59786 0
M  V30 5766 O 544.119 0.103 -1.78203 0
M  V30 5767 C 541.219 0.0973695 -3.3876 0
M  V30 5768 C 540.392 -0.857252 -4.28917 0
M  V30 5769 C 539.451 -0.169749 -5.25926 0
M  V30 5770 O 538.477 -0.807044 -5.6345 0
M  V30 5771 N 539.679 1.08911 -5.70192 0
M  V30 5772 H 542.444 -1.52352 -2.58087 0
M  V30 5773 H 540.005 -0.944993 -1.31459 0
M  V30 5774 H 541.997 0.567676 -4.00699 0
M  V30 5775 H 540.567 0.893093 -2.99571 0
M  V30 5776 H 539.787 -1.50696 -3.64259 0
M  V30 5777 H 541.075 -1.50489 -4.86035 0
M  V30 5778 H 540.473 1.62703 -5.41797 0
M  V30 5779 H 539.03 1.50331 -6.34227 0
M  V30 5780 N 542.463 1.3308 -0.844243 0
M  V30 5781 C 543.879 1.50447 -0.532729 0
M  V30 5782 C 544.079 1.78292 0.938837 0
M  V30 5783 O 543.135 1.84635 1.72239 0
M  V30 5784 C 544.448 2.65555 -1.41072 0
M  V30 5785 C 545.996 2.7944 -1.41005 0
M  V30 5786 C 546.471 3.97616 -2.27301 0
M  V30 5787 N 547.962 4.0486 -2.2504 0
M  V30 5788 C 548.697 4.95508 -2.88547 0
M  V30 5789 N 548.193 5.91236 -3.61126 0
M  V30 5790 N 549.986 4.88548 -2.77989 0
M  V30 5791 H 542.137 1.13269 -1.79677 0
M  V30 5792 H 544.4 0.55734 -0.766861 0
M  V30 5793 H 544.106 2.51675 -2.45668 0
M  V30 5794 H 543.98 3.61089 -1.09061 0
M  V30 5795 H 546.367 2.92749 -0.371784 0
M  V30 5796 H 546.448 1.8465 -1.77026 0
M  V30 5797 H 546.092 3.85066 -3.3119 0
M  V30 5798 H 546.022 4.91661 -1.88619 0
M  V30 5799 H 548.513 3.36353 -1.72264 0
M  V30 5800 H 548.826 6.57079 -4.06776 0
M  V30 5801 H 547.171 5.91295 -3.65234 0
M  V30 5802 H 550.362 4.12729 -2.20846 0
M  V30 5803 H 550.535 5.58994 -3.27765 0
M  V30 5804 N 543.941 0.601185 1.45683 0
M  V30 5805 C 545.169 0.100054 2.06658 0
M  V30 5806 C 545.584 -1.21285 1.44691 0
M  V30 5807 O 544.941 -1.73735 0.558772 0
M  V30 5808 C 544.992 -0.0528579 3.61461 0
M  V30 5809 O 544.713 1.20809 4.21114 0
M  V30 5810 C 546.214 -0.586193 4.39407 0
M  V30 5811 H 543.434 0.065905 0.667756 0
M  V30 5812 H 545.978 0.827101 1.87028 0
M  V30 5813 H 544.133 -0.730203 3.80456 0
M  V30 5814 H 544.547 1.03368 5.14213 0
M  V30 5815 H 546.021 -0.642297 5.4825 0
M  V30 5816 H 546.498 -1.60713 4.0874 0
M  V30 5817 H 547.104 0.0568935 4.25262 0
M  V30 5818 N 545.419 -1.53889 0.339982 0
M  V30 5819 C 546.644 -2.05741 -0.261798 0
M  V30 5820 C 547.069 -1.21354 -1.43718 0
M  V30 5821 O 546.427 -0.22645 -1.7988 0
M  V30 5822 C 546.475 -3.54542 -0.658228 0
M  V30 5823 O 545.579 -3.7302 -1.75869 0
M  V30 5824 H 544.92 -0.662529 -0.0441672 0
M  V30 5825 H 547.45 -1.98568 0.493161 0
M  V30 5826 H 547.46 -3.9711 -0.936368 0
M  V30 5827 H 546.135 -4.15412 0.201358 0
M  V30 5828 H 544.712 -3.42355 -1.47809 0
M  V30 5829 N 546.897 -0.0685191 -1.57451 0
M  V30 5830 C 548.122 0.613919 -1.98106 0
M  V30 5831 C 548.547 1.62551 -0.946501 0
M  V30 5832 O 547.905 1.81085 0.0882824 0
M  V30 5833 C 547.953 1.26189 -3.378 0
M  V30 5834 O 547.057 2.37773 -3.36954 0
M  V30 5835 H 546.398 0.158163 -0.644888 0
M  V30 5836 H 548.928 -0.142063 -2.04106 0
M  V30 5837 H 548.938 1.60951 -3.74912 0
M  V30 5838 H 547.613 0.520625 -4.12629 0
M  V30 5839 H 546.19 2.04829 -3.11608 0
M  V30 5840 N 548.375 1.56261 0.205012 0
M  V30 5841 C 549.338 1.92908 1.23771 0
M  V30 5842 C 550.338 0.809208 1.38955 0
M  V30 5843 O 551.528 1.07676 1.36936 0
M  V30 5844 C 548.66 2.19442 2.60879 0
M  V30 5845 H 549.853 2.85287 0.924728 0
M  V30 5846 H 547.406 1.49798 0.446125 0
M  V30 5847 H 548.141 1.29668 2.97248 0
M  V30 5848 H 547.926 3.0104 2.51232 0
M  V30 5849 H 549.416 2.48833 3.35368 0
M  V30 5850 N 549.853 -0.472356 1.50355 0
M  V30 5851 C 550.786 -1.58923 1.63764 0
M  V30 5852 C 551.764 -1.55173 0.485793 0
M  V30 5853 O 552.948 -1.74815 0.705132 0
M  V30 5854 C 550.075 -2.97497 1.61905 0
M  V30 5855 C 549.121 -3.19405 2.82635 0
M  V30 5856 S 549.954 -2.99441 4.43954 0
M  V30 5857 C 551.11 -4.40359 4.44786 0
M  V30 5858 H 551.343 -1.47309 2.58239 0
M  V30 5859 H 548.876 -0.659601 1.39602 0
M  V30 5860 H 550.834 -3.77389 1.61518 0
M  V30 5861 H 549.495 -3.06502 0.686683 0
M  V30 5862 H 548.688 -4.20636 2.77636 0
M  V30 5863 H 548.29 -2.47283 2.80583 0
M  V30 5864 H 550.582 -5.32969 4.1827 0
M  V30 5865 H 551.525 -4.50403 5.46391 0
M  V30 5866 H 551.933 -4.22378 3.74509 0
M  V30 5867 N 551.331 -1.39911 -0.725443 0
M  V30 5868 C 552.556 -1.41137 -1.5197 0
M  V30 5869 C 552.981 -0.010262 -1.88097 0
M  V30 5870 O 552.339 0.979184 -1.52583 0
M  V30 5871 C 552.387 -2.2994 -2.77777 0
M  V30 5872 O 551.491 -1.73586 -3.74088 0
M  V30 5873 H 550.832 -0.480219 -0.458569 0
M  V30 5874 H 553.362 -1.84023 -0.894249 0
M  V30 5875 H 553.372 -2.44785 -3.26411 0
M  V30 5876 H 552.047 -3.31759 -2.50816 0
M  V30 5877 H 550.624 -1.68035 -3.32894 0
M  V30 5878 N 552.809 0.956637 -1.25245 0
M  V30 5879 C 554.057 1.69764 -1.09657 0
M  V30 5880 C 554.378 1.91583 0.363464 0
M  V30 5881 O 553.648 1.50149 1.25825 0
M  V30 5882 H 552.228 0.629097 -0.402798 0
M  V30 5883 H 554.89 1.15026 -1.57337 0
M  V30 5884 H 553.986 2.67769 -1.60331 0
M  V30 5885 N 554.287 1.06798 1.15896 0
M  V30 5886 C 555.237 0.653213 2.18443 0
M  V30 5887 C 556.221 -0.318763 1.57711 0
M  V30 5888 O 557.413 -0.133388 1.76497 0
M  V30 5889 C 554.542 0.0465785 3.43268 0
M  V30 5890 C 553.628 1.04336 4.11066 0
M  V30 5891 N 554.019 2.22084 4.54436 0
M  V30 5892 C 552.317 0.875433 4.37324 0
M  V30 5893 C 553.018 2.85276 5.06944 0
M  V30 5894 N 551.994 2.12973 5.00143 0
M  V30 5895 H 555.796 1.55011 2.49698 0
M  V30 5896 H 553.31 0.940384 1.32403 0
M  V30 5897 H 555.307 -0.26843 4.16035 0
M  V30 5898 H 553.967 -0.845504 3.13499 0
M  V30 5899 H 554.978 2.59833 4.48004 0
M  V30 5900 H 551.655 0.0357721 4.17485 0
M  V30 5901 H 553.045 3.85223 5.50503 0
M  V30 5902 N 555.766 -1.3263 0.851289 0
M  V30 5903 C 556.991 -2.02097 0.466006 0
M  V30 5904 C 557.416 -1.63574 -0.928709 0
M  V30 5905 O 556.774 -0.834665 -1.60944 0
M  V30 5906 C 556.822 -3.55425 0.608737 0
M  V30 5907 O 555.926 -4.10827 -0.359878 0
M  V30 5908 H 555.267 -0.636911 0.187724 0
M  V30 5909 H 557.797 -1.69253 1.14955 0
M  V30 5910 H 557.807 -4.04986 0.495006 0
M  V30 5911 H 556.482 -3.82806 1.62581 0
M  V30 5912 H 555.059 -3.72349 -0.202666 0
M  V30 5913 N 557.244 -0.608902 -1.45362 0
M  V30 5914 C 558.66 -0.272659 -1.57254 0
M  V30 5915 C 558.86 1.22477 -1.60005 0
M  V30 5916 O 557.916 2.00785 -1.53106 0
M  V30 5917 C 559.229 -0.944991 -2.85465 0
M  V30 5918 C 560.777 -0.921033 -2.99142 0
M  V30 5919 C 561.252 -1.5734 -4.30126 0
M  V30 5920 N 562.743 -1.53895 -4.36887 0
M  V30 5921 C 563.478 -2.01286 -5.36909 0
M  V30 5922 N 562.974 -2.56768 -6.43461 0
M  V30 5923 N 564.767 -1.92046 -5.28275 0
M  V30 5924 H 556.918 -1.58117 -1.4182 0
M  V30 5925 H 559.181 -0.662437 -0.678146 0
M  V30 5926 H 558.887 -1.99941 -2.89338 0
M  V30 5927 H 558.761 -0.469079 -3.74272 0
M  V30 5928 H 561.148 0.124846 -2.94836 0
M  V30 5929 H 561.229 -1.43522 -2.11743 0
M  V30 5930 H 560.873 -2.61862 -4.35191 0
M  V30 5931 H 560.803 -1.03422 -5.16344 0
M  V30 5932 H 563.294 -1.13366 -3.60495 0
M  V30 5933 H 563.607 -2.9072 -7.16032 0
M  V30 5934 H 561.952 -2.60808 -6.44208 0
M  V30 5935 H 565.143 -1.48439 -4.43941 0
M  V30 5936 H 565.316 -2.29293 -6.06077 0
M  V30 5937 N 558.722 1.53707 -0.348139 0
M  V30 5938 C 559.947 2.05877 0.250883 0
M  V30 5939 C 560.372 1.22115 1.43072 0
M  V30 5940 O 559.73 0.235986 1.79758 0
M  V30 5941 C 559.778 3.54886 0.639416 0
M  V30 5942 O 558.882 3.73948 1.73888 0
M  V30 5943 H 558.223 0.662754 0.040653 0
M  V30 5944 H 560.753 1.98303 -0.503685 0
M  V30 5945 H 560.763 3.97601 0.915295 0
M  V30 5946 H 559.438 4.153 -0.223386 0
M  V30 5947 H 558.015 3.43134 1.45991 0
M  V30 5948 N 560.2 0.0768682 1.57412 0
M  V30 5949 C 561.447 -0.591085 1.93681 0
M  V30 5950 C 561.775 -1.69311 0.957286 0
M  V30 5951 O 561.03 -1.95682 -0.0262428 0
M  V30 5952 C 561.329 -1.20268 3.36557 0
M  V30 5953 C 560.995 -0.226286 4.50332 0
M  V30 5954 C 559.657 0.0423142 4.81181 0
M  V30 5955 C 562.009 0.441415 5.19327 0
M  V30 5956 C 559.337 0.985616 5.78362 0
M  V30 5957 C 561.689 1.37307 6.17519 0
M  V30 5958 C 560.353 1.65009 6.46783 0
M  V30 5959 H 559.623 -0.216293 0.70873 0
M  V30 5960 H 562.27 0.148824 1.90921 0
M  V30 5961 H 560.575 -2.01844 3.35807 0
M  V30 5962 H 562.272 -1.72688 3.61911 0
M  V30 5963 H 558.862 -0.445821 4.26275 0
M  V30 5964 H 563.046 0.247023 4.95685 0
M  V30 5965 H 558.302 1.20743 5.99359 0
M  V30 5966 H 562.476 1.89637 6.70083 0
M  V30 5967 H 560.103 2.38263 7.21897 0
M  V30 5968 N 561.678 -1.56367 -0.196722 0
M  V30 5969 C 562.927 -1.79724 -0.915539 0
M  V30 5970 C 563.24 -0.649804 -1.84491 0
M  V30 5971 O 564.446 -0.767631 -2.60422 0
M  V30 5972 C 562.902 -3.18369 -1.67836 0
M  V30 5973 C 562.51 -4.4091 -0.793897 0
M  V30 5974 C 564.254 -3.51037 -2.38691 0
M  V30 5975 C 562.161 -5.70577 -1.55549 0
M  V30 5976 H 561.091 -0.67013 -0.345604 0
M  V30 5977 H 563.742 -1.82721 -0.168856 0
M  V30 5978 H 562.124 -3.09617 -2.46887 0
M  V30 5979 H 563.298 -4.60781 -0.042163 0
M  V30 5980 H 561.613 -4.15937 -0.19626 0
M  V30 5981 H 564.21 -4.4515 -2.96219 0
M  V30 5982 H 564.553 -2.74704 -3.12799 0
M  V30 5983 H 565.086 -3.61229 -1.66608 0
M  V30 5984 H 561.825 -6.49871 -0.857226 0
M  V30 5985 H 561.345 -5.54726 -2.2812 0
M  V30 5986 H 563.024 -6.11637 -2.10971 0
M  V30 5987 N 563.156 0.464375 -1.50603 0
M  V30 5988 C 564.381 1.24372 -1.65971 0
M  V30 5989 C 564.806 1.84901 -0.345453 0
M  V30 5990 O 564.164 1.67596 0.691457 0
M  V30 5991 C 564.212 2.32331 -2.7578 0
M  V30 5992 O 563.316 3.37146 -2.375 0
M  V30 5993 H 562.657 0.365604 -0.554283 0
M  V30 5994 H 565.187 0.55183 -1.97018 0
M  V30 5995 H 565.197 2.77539 -2.99059 0
M  V30 5996 H 563.872 1.87648 -3.71162 0
M  V30 5997 H 562.449 2.97602 -2.24694 0
M  V30 5998 N 564.634 1.40294 0.718013 0
M  V30 5999 C 566.05 1.2227 1.02577 0
M  V30 6000 C 566.25 0.0961976 2.0127 0
M  V30 6001 O 565.306 -0.546695 2.46511 0
M  V30 6002 C 566.619 2.56348 1.57182 0
M  V30 6003 C 568.167 2.6334 1.69178 0
M  V30 6004 C 568.642 3.9768 2.27188 0
M  V30 6005 N 570.133 3.99409 2.34578 0
M  V30 6006 C 570.868 5.00141 2.8044 0
M  V30 6007 N 570.364 6.11268 3.26073 0
M  V30 6008 N 572.157 4.87511 2.79802 0
M  V30 6009 H 564.308 2.12304 0.0637899 0
M  V30 6010 H 566.571 0.943632 0.0909036 0
M  V30 6011 H 566.277 3.3942 0.921262 0
M  V30 6012 H 566.151 2.77266 2.55741 0
M  V30 6013 H 568.538 1.80641 2.33351 0
M  V30 6014 H 568.619 2.46255 0.692247 0
M  V30 6015 H 568.263 4.80817 1.63638 0
M  V30 6016 H 568.193 4.12093 3.27852 0
M  V30 6017 H 570.684 3.19162 2.02346 0
M  V30 6018 H 570.997 6.84023 3.59628 0
M  V30 6019 H 569.342 6.14837 3.24038 0
M  V30 6020 H 572.533 3.9979 2.43487 0
M  V30 6021 H 572.706 5.66158 3.15228 0
M  V30 6022 N 566.112 -0.949982 1.2575 0
M  V30 6023 C 567.022 -2.08109 1.08295 0
M  V30 6024 C 568.038 -1.7399 0.0188181 0
M  V30 6025 O 569.214 -2.00187 0.220724 0
M  V30 6026 C 566.279 -3.39383 0.708534 0
M  V30 6027 C 565.34 -3.8734 1.85111 0
M  V30 6028 C 564.573 -5.12349 1.49447 0
M  V30 6029 O 564.796 -5.6905 0.392212 0
M  V30 6030 O 563.73 -5.5513 2.32624 0
M  V30 6031 H 567.556 -2.25738 2.03165 0
M  V30 6032 H 565.141 -1.06545 1.04731 0
M  V30 6033 H 567.023 -4.18277 0.512061 0
M  V30 6034 H 565.698 -3.23013 -0.210854 0
M  V30 6035 H 564.605 -3.09429 2.10248 0
M  V30 6036 H 565.938 -4.08216 2.74991 0
M  V30 6037 N 567.59 -1.07411 -1.15328 0
M  V30 6038 C 568.52 -0.716472 -2.22236 0
M  V30 6039 C 569.501 0.296373 -1.67498 0
M  V30 6040 O 570.686 0.168989 -1.93463 0
M  V30 6041 C 567.816 -0.114142 -3.47112 0
M  V30 6042 C 566.77 -1.05421 -4.14814 0
M  V30 6043 C 566.096 -0.314604 -5.33774 0
M  V30 6044 C 567.396 -2.38808 -4.64508 0
M  V30 6045 H 569.09 -1.61029 -2.52408 0
M  V30 6046 H 566.636 -0.775702 -1.21321 0
M  V30 6047 H 568.589 0.148001 -4.2114 0
M  V30 6048 H 567.313 0.814755 -3.16274 0
M  V30 6049 H 565.972 -1.30128 -3.42728 0
M  V30 6050 H 565.62 0.617772 -4.99192 0
M  V30 6051 H 565.32 -0.941209 -5.80013 0
M  V30 6052 H 566.844 -0.0602747 -6.1057 0
M  V30 6053 H 568.258 -2.18424 -5.3006 0
M  V30 6054 H 566.655 -2.97069 -5.21412 0
M  V30 6055 H 567.725 -3.01067 -3.80114 0
M  V30 6056 N 569.068 1.32177 -0.85831 0
M  V30 6057 C 570.015 2.28794 -0.303607 0
M  V30 6058 C 570.985 1.55213 0.591453 0
M  V30 6059 O 572.17 1.83418 0.525585 0
M  V30 6060 C 569.31 3.41475 0.49889 0
M  V30 6061 C 568.423 4.2993 -0.422373 0
M  V30 6062 C 567.558 5.29743 0.393111 0
M  V30 6063 C 566.597 6.09842 -0.525317 0
M  V30 6064 N 565.734 7.01643 0.253208 0
M  V30 6065 H 570.574 2.75631 -1.13276 0
M  V30 6066 H 568.111 1.35606 -0.570026 0
M  V30 6067 H 570.069 4.05531 0.979826 0
M  V30 6068 H 568.699 2.95779 1.29284 0
M  V30 6069 H 567.751 3.66422 -1.02171 0
M  V30 6070 H 569.063 4.85899 -1.12709 0
M  V30 6071 H 568.217 5.9942 0.937056 0
M  V30 6072 H 566.956 4.744 1.13117 0
M  V30 6073 H 565.961 5.39066 -1.08112 0
M  V30 6074 H 567.186 6.6727 -1.26205 0
M  V30 6075 H 565.132 6.48725 0.974295 0
M  V30 6076 H 565.049 7.54981 -0.392398 0
M  V30 6077 H 566.317 7.756 0.778761 0
M  V30 6078 N 570.547 0.616602 1.45037 0
M  V30 6079 C 571.457 -0.0985401 2.34393 0
M  V30 6080 C 572.473 -0.850971 1.51771 0
M  V30 6081 O 573.649 -0.806521 1.84546 0
M  V30 6082 C 570.714 -1.07748 3.29532 0
M  V30 6083 C 569.775 -0.326022 4.2806 0
M  V30 6084 C 569.008 -1.25833 5.18654 0
M  V30 6085 O 569.231 -2.49652 5.12864 0
M  V30 6086 O 568.165 -0.750512 5.97203 0
M  V30 6087 H 571.991 0.636016 2.96966 0
M  V30 6088 H 569.576 0.376832 1.44569 0
M  V30 6089 H 571.458 -1.64107 3.88133 0
M  V30 6090 H 570.133 -1.79291 2.69512 0
M  V30 6091 H 569.04 0.280253 3.73049 0
M  V30 6092 H 570.373 0.349091 4.9096 0
M  V30 6093 N 572.025 -1.5352 0.356285 0
M  V30 6094 C 573.274 -2.00298 -0.237373 0
M  V30 6095 C 573.587 -1.24784 -1.50627 0
M  V30 6096 O 574.793 -1.62103 -2.17795 0
M  V30 6097 C 573.249 -3.56771 -0.473545 0
M  V30 6098 C 572.857 -4.41154 0.780183 0
M  V30 6099 C 574.601 -4.1193 -1.02537 0
M  V30 6100 C 572.508 -5.89161 0.514108 0
M  V30 6101 H 571.438 -0.748307 -0.092478 0
M  V30 6102 H 574.089 -1.77283 0.473588 0
M  V30 6103 H 572.471 -3.75902 -1.24553 0
M  V30 6104 H 573.645 -4.33797 1.55425 0
M  V30 6105 H 571.96 -3.97052 1.25455 0
M  V30 6106 H 574.557 -5.20133 -1.2396 0
M  V30 6107 H 574.9 -3.65943 -1.98473 0
M  V30 6108 H 575.433 -3.96561 -0.313775 0
M  V30 6109 H 572.172 -6.39408 1.44355 0
M  V30 6110 H 571.692 -5.9939 -0.221632 0
M  V30 6111 H 573.371 -6.46857 0.136122 0
M  V30 6112 N 573.503 -0.0852151 -1.57369 0
M  V30 6113 C 574.728 0.592872 -1.98746 0
M  V30 6114 C 575.153 1.61538 -0.963689 0
M  V30 6115 O 574.511 1.81168 0.069071 0
M  V30 6116 C 574.559 1.22599 -3.39119 0
M  V30 6117 O 573.663 2.34185 -3.39457 0
M  V30 6118 H 573.004 0.151314 -0.646529 0
M  V30 6119 H 575.534 -0.163703 -2.03944 0
M  V30 6120 H 575.544 1.56965 -3.76598 0
M  V30 6121 H 574.219 0.476831 -4.13158 0
M  V30 6122 H 572.796 2.01512 -3.13763 0
M  V30 6123 N 574.981 1.5647 0.188427 0
M  V30 6124 C 576.206 1.85486 0.927891 0
M  V30 6125 C 576.631 0.669575 1.75779 0
M  V30 6126 O 575.989 -0.381573 1.77239 0
M  V30 6127 C 576.037 3.12784 1.7944 0
M  V30 6128 O 575.141 2.93805 2.894 0
M  V30 6129 H 574.482 0.610585 0.260925 0
M  V30 6130 H 577.012 2.037 0.191729 0
M  V30 6131 H 577.022 3.43749 2.19774 0
M  V30 6132 H 575.697 3.98671 1.18468 0
M  V30 6133 H 574.274 2.74153 2.52774 0
M  V30 6134 N 576.459 -0.456382 1.50847 0
M  V30 6135 C 577.687 -1.23026 1.66349 0
M  V30 6136 C 578.102 -1.85473 0.352868 0
M  V30 6137 O 577.459 -1.69885 -0.666739 0
M  V30 6138 C 577.51 -2.32827 2.76539 0
M  V30 6139 O 577.231 -1.72938 4.02522 0
M  V30 6140 C 578.732 -3.23448 3.03144 0
M  V30 6141 H 575.952 -0.371527 0.558756 0
M  V30 6142 H 578.496 -0.543082 1.97157 0
M  V30 6143 H 576.651 -2.97294 2.48384 0
M  V30 6144 H 577.065 -2.45357 4.63573 0
M  V30 6145 H 578.539 -3.96669 3.83872 0
M  V30 6146 H 579.016 -3.83094 2.14793 0
M  V30 6147 H 579.622 -2.64702 3.32886 0
M  V30 6148 N 577.937 -1.40673 -0.710563 0
M  V30 6149 C 579.162 -1.42741 -1.50465 0
M  V30 6150 C 579.587 -0.0302116 -1.88076 0
M  V30 6151 O 578.945 0.962945 -1.53613 0
M  V30 6152 C 578.993 -2.32873 -2.75322 0
M  V30 6153 O 578.097 -1.77544 -3.72226 0
M  V30 6154 H 577.438 -0.485056 -0.45345 0
M  V30 6155 H 579.968 -1.84961 -0.874681 0
M  V30 6156 H 579.978 -2.48233 -3.23797 0
M  V30 6157 H 578.653 -3.34401 -2.47283 0
M  V30 6158 H 577.23 -1.71556 -3.31093 0
M  V30 6159 N 579.415 0.9433 -1.26252 0
M  V30 6160 C 580.347 2.04542 -1.03417 0
M  V30 6161 C 581.36 1.62799 0.0046911 0
M  V30 6162 O 582.549 1.76944 -0.235146 0
M  V30 6163 C 579.649 3.34511 -0.543671 0
M  V30 6164 C 578.822 4.05033 -1.65128 0
M  V30 6165 C 577.881 5.13273 -1.1592 0
M  V30 6166 O 576.907 5.38095 -1.85586 0
M  V30 6167 N 578.109 5.805 -0.00649279 0
M  V30 6168 H 580.874 2.24699 -1.98319 0
M  V30 6169 H 578.435 1.11264 -1.1761 0
M  V30 6170 H 580.427 4.04212 -0.198703 0
M  V30 6171 H 578.997 3.11042 0.311711 0
M  V30 6172 H 578.217 3.29275 -2.16729 0
M  V30 6173 H 579.505 4.48903 -2.39508 0
M  V30 6174 H 578.903 5.62767 0.575347 0
M  V30 6175 H 577.46 6.51201 0.279416 0
M  V30 6176 N 580.893 1.08022 1.14757 0
M  V30 6177 C 582.121 0.828847 1.89572 0
M  V30 6178 C 582.536 -0.618621 1.78377 0
M  V30 6179 O 581.893 -1.42482 1.1404 0
M  V30 6180 C 581.944 1.23677 3.39685 0
M  V30 6181 O 581.665 2.62746 3.50566 0
M  V30 6182 C 583.166 1.01569 4.31507 0
M  V30 6183 H 580.386 0.299196 0.600602 0
M  V30 6184 H 582.93 1.43846 1.45357 0
M  V30 6185 H 581.085 0.671347 3.81539 0
M  V30 6186 H 581.499 2.79573 4.43778 0
M  V30 6187 H 582.973 1.35055 5.35223 0
M  V30 6188 H 583.45 -0.0475433 4.39174 0
M  V30 6189 H 584.056 1.56636 3.95405 0
M  V30 6190 N 582.371 -1.3172 0.865308 0
M  V30 6191 C 583.301 -2.31109 0.333302 0
M  V30 6192 C 584.282 -1.60148 -0.573301 0
M  V30 6193 O 585.467 -1.87882 -0.491305 0
M  V30 6194 C 582.597 -3.44104 -0.470078 0
M  V30 6195 C 581.551 -4.26623 0.343021 0
M  V30 6196 C 580.877 -5.31482 -0.585756 0
M  V30 6197 C 582.177 -4.98001 1.57456 0
M  V30 6198 H 583.871 -2.75855 1.1638 0
M  V30 6199 H 581.417 -1.3262 0.561069 0
M  V30 6200 H 583.37 -4.12682 -0.852752 0
M  V30 6201 H 582.094 -2.98112 -1.33404 0
M  V30 6202 H 580.753 -3.59707 0.707583 0
M  V30 6203 H 580.401 -4.81741 -1.44686 0
M  V30 6204 H 580.101 -5.87582 -0.0456494 0
M  V30 6205 H 581.625 -6.0292 -0.965375 0
M  V30 6206 H 583.039 -5.59201 1.26359 0
M  V30 6207 H 581.436 -5.63876 2.05339 0
M  V30 6208 H 582.506 -4.25253 2.32997 0
M  V30 6209 N 583.85 -0.624285 -1.44708 0
M  V30 6210 C 584.779 0.0717025 -2.3339 0
M  V30 6211 C 585.76 0.841814 -1.47809 0
M  V30 6212 O 586.946 0.809056 -1.76544 0
M  V30 6213 C 584.076 1.05852 -3.30776 0
M  V30 6214 C 583.029 0.400503 -4.26122 0
M  V30 6215 C 582.356 1.49674 -5.13324 0
M  V30 6216 C 583.656 -0.688924 -5.17737 0
M  V30 6217 H 585.35 -0.668819 -2.91834 0
M  V30 6218 H 582.896 -0.32308 -1.40329 0
M  V30 6219 H 584.849 1.5541 -3.91696 0
M  V30 6220 H 583.572 1.82984 -2.70526 0
M  V30 6221 H 582.231 -0.0743687 -3.66525 0
M  V30 6222 H 581.88 2.25877 -4.49431 0
M  V30 6223 H 581.58 1.06188 -5.77926 0
M  V30 6224 H 583.104 1.99427 -5.77115 0
M  V30 6225 H 584.518 -0.276724 -5.72632 0
M  V30 6226 H 582.915 -1.04652 -5.90904 0
M  V30 6227 H 583.985 -1.55884 -4.5916 0
M  V30 6228 N 585.328 1.53329 -0.364422 0
M  V30 6229 C 586.739 1.86345 0.115039 0
M  V30 6230 C 587.09 1.28505 1.4826 0
M  V30 6231 O 586.215 0.606639 2.07723 0
M  V30 6232 C 586.81 3.38114 0.215522 0
M  V30 6233 C 585.369 3.70932 0.639237 0
M  V30 6234 C 584.516 2.76471 -0.214261 0
M  V30 6235 H 587.467 1.47593 -0.583258 0
M  V30 6236 H 587.488 3.66031 1.0393 0
M  V30 6237 H 587 3.80182 -0.779948 0
M  V30 6238 H 585.101 3.3442 1.64298 0
M  V30 6239 H 585.214 4.77302 0.41465 0
M  V30 6240 H 583.578 2.52724 0.316678 0
M  V30 6241 H 584.361 3.21373 -1.20725 0
M  V30 6242 N 586.806 0.0935595 1.57322 0
M  V30 6243 C 588.083 -0.612692 1.85756 0
M  V30 6244 C 588.463 -1.86439 0.99013 0
M  V30 6245 O 587.811 -2.28416 0.0621362 0
M  V30 6246 C 588.021 -0.929547 3.36393 0
M  V30 6247 C 589.369 -1.29366 4.04413 0
M  V30 6248 O 590.393 -1.02061 3.41265 0
M  V30 6249 O 589.252 -1.80498 5.15832 0
M  V30 6250 H 586.346 -0.306444 0.768128 0
M  V30 6251 H 588.892 0.126141 1.69231 0
M  V30 6252 H 587.664 -0.0414766 3.91278 0
M  V30 6253 H 587.287 -1.72441 3.5826 0
M  V30 6254 N 588.284 -1.56567 -0.180126 0
M  V30 6255 C 589.214 -1.98753 -1.22553 0
M  V30 6256 C 590.195 -0.86175 -1.46656 0
M  V30 6257 O 591.38 -1.12719 -1.58139 0
M  V30 6258 C 588.51 -2.33988 -2.56645 0
M  V30 6259 C 587.464 -3.49445 -2.47128 0
M  V30 6260 C 586.79 -3.70397 -3.8563 0
M  V30 6261 C 588.09 -4.83171 -1.98352 0
M  V30 6262 H 589.784 -2.86332 -0.874896 0
M  V30 6263 H 587.33 -1.37757 -0.419414 0
M  V30 6264 H 589.283 -2.62097 -3.29974 0
M  V30 6265 H 588.007 -1.43309 -2.93479 0
M  V30 6266 H 586.666 -3.2145 -1.76254 0
M  V30 6267 H 586.314 -2.77023 -4.19842 0
M  V30 6268 H 586.014 -4.48077 -3.80132 0
M  V30 6269 H 587.538 -4.00897 -4.60558 0
M  V30 6270 H 588.952 -5.10213 -2.61449 0
M  V30 6271 H 587.349 -5.64425 -2.03823 0
M  V30 6272 H 588.419 -4.75753 -0.937402 0
M  V30 6273 N 589.762 0.448376 -1.51087 0
M  V30 6274 C 590.987 1.22605 -1.6728 0
M  V30 6275 C 591.412 1.84524 -0.365045 0
M  V30 6276 O 590.77 1.6832 0.673642 0
M  V30 6277 C 590.818 2.29393 -2.78229 0
M  V30 6278 O 589.922 3.34608 -2.41063 0
M  V30 6279 H 589.263 0.359705 -0.558129 0
M  V30 6280 H 591.793 0.530903 -1.97592 0
M  V30 6281 H 591.803 2.74352 -3.01986 0
M  V30 6282 H 590.478 1.83701 -3.73131 0
M  V30 6283 H 589.055 2.95202 -2.27838 0
M  V30 6284 N 591.24 1.41047 0.703093 0
M  V30 6285 C 592.17 1.45067 1.82969 0
M  V30 6286 C 593.151 0.31016 1.67248 0
M  V30 6287 O 594.336 0.520548 1.87093 0
M  V30 6288 C 591.466 1.32478 3.2104 0
M  V30 6289 C 590.42 2.44262 3.51454 0
M  V30 6290 C 589.746 2.16742 4.88801 0
M  V30 6291 C 591.046 3.86606 3.51189 0
M  V30 6292 H 592.74 2.39353 1.79863 0
M  V30 6293 H 590.286 1.15206 0.863919 0
M  V30 6294 H 592.239 1.33904 3.99559 0
M  V30 6295 H 590.963 0.346735 3.24754 0
M  V30 6296 H 589.622 2.42107 2.75282 0
M  V30 6297 H 589.27 1.17299 4.89132 0
M  V30 6298 H 588.97 2.91643 5.10116 0
M  V30 6299 H 590.494 2.19872 5.69639 0
M  V30 6300 H 591.908 3.90517 4.19725 0
M  V30 6301 H 590.305 4.61128 3.84033 0
M  V30 6302 H 591.375 4.15296 2.50315 0
M  V30 6303 N 592.718 -0.936591 1.26751 0
M  V30 6304 C 594.129 -1.49816 1.1141 0
M  V30 6305 C 594.48 -1.9383 -0.304015 0
M  V30 6306 O 593.605 -1.80346 -1.196 0
M  V30 6307 C 594.2 -2.72271 2.01629 0
M  V30 6308 C 592.759 -3.2468 1.9042 0
M  V30 6309 C 591.906 -1.97444 1.94708 0
M  V30 6310 H 594.857 -0.751604 1.39773 0
M  V30 6311 H 594.878 -3.46741 1.56688 0
M  V30 6312 H 594.39 -2.40205 3.04833 0
M  V30 6313 H 592.491 -3.61525 0.901674 0
M  V30 6314 H 592.604 -3.91476 2.76195 0
M  V30 6315 H 590.968 -2.13545 1.38818 0
M  V30 6316 H 591.751 -1.67703 2.9955 0
M  V30 6317 N 594.196 -1.08629 -1.14182 0
M  V30 6318 C 595.473 -0.73002 -1.81466 0
M  V30 6319 C 595.853 0.785996 -1.95922 0
M  V30 6320 O 595.201 1.70535 -1.52086 0
M  V30 6321 C 595.411 -1.45957 -3.17014 0
M  V30 6322 C 596.759 -1.62008 -3.92477 0
M  V30 6323 O 597.783 -1.42141 -3.26611 0
M  V30 6324 O 596.642 -1.94806 -5.106 0
M  V30 6325 H 593.736 -0.261307 -0.784632 0
M  V30 6326 H 596.282 -1.188 -1.2118 0
M  V30 6327 H 595.054 -2.49221 -3.01669 0
M  V30 6328 H 594.677 -0.993222 -3.84995 0
M  V30 6329 N 595.674 1.31259 -0.872281 0
M  V30 6330 C 596.604 2.30929 -0.345554 0
M  V30 6331 C 597.585 1.60449 0.5648 0
M  V30 6332 O 598.77 1.8814 0.481335 0
M  V30 6333 C 595.9 3.44348 0.451823 0
M  V30 6334 C 594.854 4.26435 -0.365641 0
M  V30 6335 C 594.18 5.31785 0.557562 0
M  V30 6336 C 595.48 4.97159 -1.60095 0
M  V30 6337 H 597.174 2.75234 -1.17841 0
M  V30 6338 H 594.72 1.3232 -0.568094 0
M  V30 6339 H 596.673 4.13128 0.830854 0
M  V30 6340 H 595.397 2.98816 1.31821 0
M  V30 6341 H 594.056 3.59326 -0.726649 0
M  V30 6342 H 593.704 4.82502 1.4213 0
M  V30 6343 H 593.404 5.87598 0.0144878 0
M  V30 6344 H 594.928 6.03424 0.933387 0
M  V30 6345 H 596.342 5.58523 -1.29323 0
M  V30 6346 H 594.739 5.62779 -2.08327 0
M  V30 6347 H 595.809 4.24012 -2.35249 0
M  V30 6348 N 597.152 0.631951 1.44375 0
M  V30 6349 C 598.377 0.142146 2.06912 0
M  V30 6350 C 598.802 -1.17456 1.4692 0
M  V30 6351 O 598.16 -1.72074 0.570975 0
M  V30 6352 C 598.208 0.0417952 3.60576 0
M  V30 6353 O 597.312 -1.00194 4.00044 0
M  V30 6354 H 596.653 0.0851491 0.658518 0
M  V30 6355 H 599.183 0.868863 1.85235 0
M  V30 6356 H 599.193 -0.148517 4.0773 0
M  V30 6357 H 597.868 1.0031 4.03622 0
M  V30 6358 H 596.445 -0.786131 3.64519 0
M  V30 6359 N 598.631 -1.53133 0.372548 0
M  V30 6360 C 599.541 -2.29671 -0.478379 0
M  V30 6361 C 600.557 -1.35913 -1.08644 0
M  V30 6362 O 601.733 -1.68975 -1.09588 0
M  V30 6363 C 598.798 -3.07625 -1.599 0
M  V30 6364 C 597.859 -4.17061 -1.01776 0
M  V30 6365 C 597.092 -4.91289 -2.08497 0
M  V30 6366 O 597.315 -4.65442 -3.29727 0
M  V30 6367 O 596.249 -5.7705 -1.71164 0
M  V30 6368 H 600.075 -3.03355 0.144649 0
M  V30 6369 H 597.66 -1.48773 0.136729 0
M  V30 6370 H 599.542 -3.56281 -2.25038 0
M  V30 6371 H 598.217 -2.3677 -2.2073 0
M  V30 6372 H 597.124 -3.72641 -0.330098 0
M  V30 6373 H 598.457 -4.90102 -0.453915 0
M  V30 6374 N 600.109 -0.101901 -1.5727 0
M  V30 6375 C 601.057 0.872034 -2.15635 0
M  V30 6376 C 602.051 1.28742 -1.10099 0
M  V30 6377 O 603.257 1.26116 -1.28432 0
M  V30 6378 H 599.632 0.299269 -0.689886 0
M  V30 6379 H 601.603 0.355137 -2.96279 0
M  V30 6380 C 600.352 2.11886 -2.7568 0
M  V30 6381 H 599.675 1.80813 -3.56576 0
M  V30 6382 H 601.115 2.78077 -3.20077 0
M  V30 6383 C 599.574 2.89739 -1.7191 0
M  V30 6384 O 600.104 3.84522 -1.16213 0
M  V30 6385 N 598.31 2.53407 -1.42245 0
M  V30 6386 H 597.857 1.76398 -1.87727 0
M  V30 6387 H 597.815 3.05795 -0.730529 0
M  V30 6388 N 601.587 1.56661 0.17182 0
M  V30 6389 C 602.835 1.81606 0.886774 0
M  V30 6390 C 603.156 0.678818 1.82803 0
M  V30 6391 O 602.426 -0.301354 1.93568 0
M  V30 6392 H 601.006 0.669934 0.330451 0
M  V30 6393 H 603.668 1.94142 0.171757 0
M  V30 6394 H 602.764 2.75634 1.46398 0
M  V30 6395 N 603.065 -0.440357 1.51323 0
M  V30 6396 C 603.995 -1.54174 1.75364 0
M  V30 6397 C 604.976 -1.59039 0.603375 0
M  V30 6398 O 606.161 -1.74815 0.845774 0
M  V30 6399 C 603.291 -2.92277 1.87593 0
M  V30 6400 C 602.245 -3.02274 3.03009 0
M  V30 6401 C 601.571 -4.42327 3.00418 0
M  V30 6402 C 602.871 -2.76634 4.43024 0
M  V30 6403 H 604.565 -1.34307 2.67585 0
M  V30 6404 H 602.111 -0.644678 1.28763 0
M  V30 6405 H 604.064 -3.69284 2.02995 0
M  V30 6406 H 602.788 -3.13369 0.920179 0
M  V30 6407 H 601.447 -2.27706 2.87307 0
M  V30 6408 H 601.095 -4.60382 2.02626 0
M  V30 6409 H 600.795 -4.49946 3.77918 0
M  V30 6410 H 602.319 -5.21312 3.17909 0
M  V30 6411 H 603.733 -3.43376 4.59093 0
M  V30 6412 H 602.13 -2.95666 5.22208 0
M  V30 6413 H 603.2 -1.72262 4.5327 0
M  V30 6414 N 604.543 -1.41418 -0.695603 0
M  V30 6415 C 605.791 -1.40496 -1.45277 0
M  V30 6416 C 606.112 -0.0149538 -1.94994 0
M  V30 6417 O 605.382 0.9432 -1.71699 0
M  V30 6418 H 603.962 -0.517147 -0.539044 0
M  V30 6419 H 606.624 -1.76656 -0.823321 0
M  V30 6420 H 605.72 -2.09214 -2.31595 0
M  V30 6421 N 606.021 0.929856 -1.27246 0
M  V30 6422 C 607.269 1.674 -1.13233 0
M  V30 6423 C 607.59 1.92311 0.322744 0
M  V30 6424 O 606.86 1.52784 1.22612 0
M  V30 6425 H 605.44 0.620411 -0.416052 0
M  V30 6426 H 608.102 1.11663 -1.59741 0
M  V30 6427 H 607.198 2.64308 -1.65975 0
M  V30 6428 N 607.499 1.09233 1.13605 0
M  V30 6429 C 608.915 0.82163 1.36826 0
M  V30 6430 C 609.115 -0.565021 1.93416 0
M  V30 6431 O 608.171 -1.32026 2.15234 0
M  V30 6432 C 609.484 1.91124 2.32147 0
M  V30 6433 C 611.032 1.93824 2.45767 0
M  V30 6434 C 611.507 3.01923 3.44393 0
M  V30 6435 N 612.998 3.01149 3.51942 0
M  V30 6436 C 613.733 3.81434 4.2813 0
M  V30 6437 N 613.229 4.71621 5.07489 0
M  V30 6438 N 615.022 3.69702 4.23411 0
M  V30 6439 H 607.173 1.98633 0.752234 0
M  V30 6440 H 609.436 0.862482 0.393482 0
M  V30 6441 H 609.142 2.90862 1.97717 0
M  V30 6442 H 609.016 1.78777 3.32142 0
M  V30 6443 H 611.403 0.94726 2.79483 0
M  V30 6444 H 611.484 2.10248 1.45703 0
M  V30 6445 H 611.128 4.01232 3.11408 0
M  V30 6446 H 611.058 2.82742 4.44257 0
M  V30 6447 H 613.549 2.35789 2.95317 0
M  V30 6448 H 613.862 5.29468 5.62924 0
M  V30 6449 H 612.207 4.75658 5.06729 0
M  V30 6450 H 615.398 2.98606 3.60489 0
M  V30 6451 H 615.571 4.32509 4.82535 0
M  V30 6452 N 608.977 -1.30795 0.87923 0
M  V30 6453 C 609.925 -2.30231 0.331112 0
M  V30 6454 C 610.919 -1.59918 -0.558794 0
M  V30 6455 O 612.125 -1.74441 -0.443866 0
M  V30 6456 H 608.5 -0.746785 0.088409 0
M  V30 6457 H 610.471 -2.73925 1.18353 0
M  V30 6458 C 609.22 -3.44848 -0.444401 0
M  V30 6459 H 608.543 -3.99131 0.231106 0
M  V30 6460 H 609.983 -4.16516 -0.793109 0
M  V30 6461 C 608.442 -2.94329 -1.63926 0
M  V30 6462 O 608.972 -2.93875 -2.73862 0
M  V30 6463 N 607.178 -2.50413 -1.4745 0
M  V30 6464 H 606.725 -2.50982 -0.58015 0
M  V30 6465 H 606.683 -2.16969 -2.27534 0
M  V30 6466 N 610.455 -0.639598 -1.44038 0
M  V30 6467 C 611.385 0.0469443 -2.33453 0
M  V30 6468 C 612.366 0.82609 -1.48694 0
M  V30 6469 O 613.551 0.790285 -1.77393 0
M  V30 6470 C 610.681 1.02338 -3.3188 0
M  V30 6471 C 609.635 0.355284 -4.26523 0
M  V30 6472 C 608.961 1.44221 -5.14883 0
M  V30 6473 C 610.261 -0.743798 -5.16977 0
M  V30 6474 H 611.955 -0.699735 -2.91108 0
M  V30 6475 H 609.501 -0.337946 -1.39978 0
M  V30 6476 H 611.454 1.51247 -3.93322 0
M  V30 6477 H 610.178 1.80105 -2.72451 0
M  V30 6478 H 608.837 -0.113239 -3.66425 0
M  V30 6479 H 608.485 2.21097 -4.51802 0
M  V30 6480 H 608.185 1.00052 -5.79019 0
M  V30 6481 H 609.709 1.93295 -5.79197 0
M  V30 6482 H 611.123 -0.337444 -5.72306 0
M  V30 6483 H 609.52 -1.10914 -5.89761 0
M  V30 6484 H 610.59 -1.60745 -4.57481 0
M  V30 6485 N 611.933 1.52934 -0.380664 0
M  V30 6486 C 612.863 2.29118 0.450268 0
M  V30 6487 C 613.844 1.32153 1.07096 0
M  V30 6488 O 615.029 1.61038 1.08537 0
M  V30 6489 C 612.159 3.09161 1.58231 0
M  V30 6490 C 611.113 4.13938 1.0881 0
M  V30 6491 C 610.439 4.82153 2.31155 0
M  V30 6492 C 611.739 5.22048 0.162146 0
M  V30 6493 H 613.433 2.98826 -0.185361 0
M  V30 6494 H 610.979 1.43715 -0.0905886 0
M  V30 6495 H 612.932 3.61211 2.17036 0
M  V30 6496 H 611.656 2.3717 2.2454 0
M  V30 6497 H 610.315 3.62855 0.522633 0
M  V30 6498 H 609.963 4.06719 2.95953 0
M  V30 6499 H 609.663 5.52966 1.98752 0
M  V30 6500 H 611.187 5.37004 2.90618 0
M  V30 6501 H 612.601 5.6951 0.658126 0
M  V30 6502 H 610.998 6.00057 -0.0717122 0
M  V30 6503 H 612.068 4.78398 -0.791438 0
M  V30 6504 N 613.412 0.11024 1.57214 0
M  V30 6505 C 614.823 -0.416527 1.81994 0
M  V30 6506 C 615.174 -1.67183 1.02686 0
M  V30 6507 O 614.299 -2.14823 0.260782 0
M  V30 6508 C 614.894 -0.762466 3.30109 0
M  V30 6509 C 613.453 -1.23391 3.556 0
M  V30 6510 C 612.6 -0.238166 2.76275 0
M  V30 6511 H 615.551 0.335491 1.55113 0
M  V30 6512 H 615.572 -1.62068 3.44259 0
M  V30 6513 H 615.084 0.151346 3.87805 0
M  V30 6514 H 613.185 -2.16492 3.03253 0
M  V30 6515 H 613.298 -1.18528 4.64207 0
M  V30 6516 H 611.662 -0.723421 2.4421 0
M  V30 6517 H 612.445 0.668591 3.36727 0
M  V30 6518 N 614.89 -1.56749 -0.16351 0
M  V30 6519 C 616.138 -1.82074 -0.87713 0
M  V30 6520 C 616.459 -0.688503 -1.82441 0
M  V30 6521 O 615.729 0.291085 -1.93725 0
M  V30 6522 H 614.309 -0.671677 -0.326893 0
M  V30 6523 H 616.971 -1.9423 -0.161459 0
M  V30 6524 H 616.067 -2.76407 -1.44934 0
M  V30 6525 N 616.368 0.432326 -1.51554 0
M  V30 6526 C 617.614 1.18309 -1.64714 0
M  V30 6527 C 617.947 1.90745 -0.364696 0
M  V30 6528 O 617.222 1.8381 0.635936 0
M  V30 6529 C 617.505 2.1961 -2.85383 0
M  V30 6530 C 617.358 1.51223 -4.23617 0
M  V30 6531 C 618.677 3.20538 -3.01569 0
M  V30 6532 H 615.796 0.428751 -0.599451 0
M  V30 6533 H 618.438 0.471689 -1.84052 0
M  V30 6534 H 616.588 2.8028 -2.69027 0
M  V30 6535 H 618.26 0.938516 -4.51652 0
M  V30 6536 H 616.503 0.814501 -4.26085 0
M  V30 6537 H 617.174 2.25024 -5.04052 0
M  V30 6538 H 619.65 2.69926 -3.16669 0
M  V30 6539 H 618.526 3.88706 -3.87555 0
M  V30 6540 H 618.787 3.86933 -2.13859 0
M  V30 6541 N 617.846 1.41785 0.688094 0
M  V30 6542 C 619.257 1.3701 1.26828 0
M  V30 6543 C 619.608 0.056835 1.96118 0
M  V30 6544 O 618.733 -0.84475 1.99231 0
M  V30 6545 C 619.328 2.48168 2.30648 0
M  V30 6546 C 617.887 2.46766 2.84224 0
M  V30 6547 C 617.034 2.27633 1.58361 0
M  V30 6548 H 619.985 1.51192 0.482351 0
M  V30 6549 H 620.006 2.17655 3.121 0
M  V30 6550 H 619.518 3.43735 1.80188 0
M  V30 6551 H 617.619 1.54978 3.3884 0
M  V30 6552 H 617.732 3.43342 3.34145 0
M  V30 6553 H 616.096 1.75648 1.84445 0
M  V30 6554 H 616.879 3.25238 1.09887 0
M  V30 6555 N 619.324 -0.923095 1.27737 0
M  V30 6556 C 620.572 -1.66797 1.14119 0
M  V30 6557 C 620.893 -1.92479 -0.312541 0
M  V30 6558 O 620.163 -1.53432 -1.218 0
M  V30 6559 H 618.743 -0.618196 0.419336 0
M  V30 6560 H 621.405 -1.10815 1.60331 0
M  V30 6561 H 620.501 -2.63424 1.67374 0
M  V30 6562 N 620.802 -1.09834 -1.13024 0
M  V30 6563 C 621.735 -0.685453 -2.17662 0
M  V30 6564 C 622.713 0.310142 -1.59615 0
M  V30 6565 O 623.897 0.21052 -1.87321 0
M  V30 6566 C 621.024 -0.0104476 -3.38698 0
M  V30 6567 C 620.07 -0.968522 -4.15358 0
M  V30 6568 S 620.903 -2.48272 -4.74469 0
M  V30 6569 C 622.059 -1.82025 -5.98847 0
M  V30 6570 H 622.292 -1.57187 -2.52348 0
M  V30 6571 H 619.825 -0.914728 -1.24387 0
M  V30 6572 H 621.783 0.372694 -4.08805 0
M  V30 6573 H 620.444 0.852673 -3.02305 0
M  V30 6574 H 619.637 -0.443373 -5.02046 0
M  V30 6575 H 619.239 -1.29327 -3.50928 0
M  V30 6576 H 621.531 -1.14678 -6.67724 0
M  V30 6577 H 622.474 -2.66645 -6.55977 0
M  V30 6578 H 622.882 -1.2874 -5.49624 0
M  V30 6579 N 622.28 1.30327 -0.886154 0
M  V30 6580 C 623.528 1.9571 -0.504195 0
M  V30 6581 C 623.849 1.70294 0.950003 0
M  V30 6582 O 623.119 1.02718 1.66811 0
M  V30 6583 H 621.699 0.72412 -0.183465 0
M  V30 6584 H 624.361 1.58835 -1.12949 0
M  V30 6585 H 623.457 3.04704 -0.675431 0
M  V30 6586 N 623.758 0.647228 1.43697 0
M  V30 6587 C 624.688 -0.0345631 2.33474 0
M  V30 6588 C 625.669 -0.818193 1.4913 0
M  V30 6589 O 626.854 -0.780867 1.77809 0
M  V30 6590 C 623.984 -1.00576 3.32418 0
M  V30 6591 C 622.938 -0.33266 4.26705 0
M  V30 6592 C 622.264 -1.41489 5.1564 0
M  V30 6593 C 623.564 0.771204 5.16575 0
M  V30 6594 H 625.258 0.715163 2.90733 0
M  V30 6595 H 622.804 0.345364 1.39797 0
M  V30 6596 H 624.757 -1.49159 3.94119 0
M  V30 6597 H 623.481 -1.78657 2.73403 0
M  V30 6598 H 622.14 0.13267 3.6636 0
M  V30 6599 H 621.788 -2.18698 4.52968 0
M  V30 6600 H 621.488 -0.969799 5.79542 0
M  V30 6601 H 623.012 -1.9022 5.80214 0
M  V30 6602 H 624.426 0.36779 5.72119 0
M  V30 6603 H 622.823 1.1404 5.89165 0
M  V30 6604 H 623.893 1.63169 4.56622 0
M  V30 6605 N 625.236 -1.5273 0.388769 0
M  V30 6606 C 626.199 -2.25043 -0.434544 0
M  V30 6607 C 627.199 -1.26661 -0.990644 0
M  V30 6608 O 628.389 -1.50762 -0.872731 0
M  V30 6609 C 625.521 -3.00507 -1.60961 0
M  V30 6610 H 626.714 -2.99242 0.198549 0
M  V30 6611 H 624.267 -1.55664 0.140875 0
M  V30 6612 H 625.002 -2.30607 -2.28015 0
M  V30 6613 H 624.787 -3.72716 -1.21757 0
M  V30 6614 H 626.277 -3.55413 -2.19251 0
M  V30 6615 N 626.714 -0.118576 -1.57153 0
M  V30 6616 C 627.646 0.862247 -2.12363 0
M  V30 6617 C 628.659 1.23025 -1.06625 0
M  V30 6618 O 629.848 1.17927 -1.33998 0
M  V30 6619 C 626.948 2.16425 -2.60794 0
M  V30 6620 C 626.121 1.96801 -3.90626 0
M  V30 6621 C 625.18 3.10726 -4.2466 0
M  V30 6622 O 624.206 2.83659 -4.93484 0
M  V30 6623 N 625.408 4.37147 -3.81946 0
M  V30 6624 H 628.173 0.390564 -2.97144 0
M  V30 6625 H 625.734 0.0658591 -1.61766 0
M  V30 6626 H 627.726 2.91633 -2.80593 0
M  V30 6627 H 626.296 2.54943 -1.80895 0
M  V30 6628 H 625.516 1.05787 -3.7974 0
M  V30 6629 H 626.804 1.80993 -4.7552 0
M  V30 6630 H 626.202 4.62014 -3.26435 0
M  V30 6631 H 624.759 5.09229 -4.06853 0
M  V30 6632 N 628.193 1.56834 0.155195 0
M  V30 6633 C 629.103 2.009 1.21146 0
M  V30 6634 C 630.119 0.923029 1.475 0
M  V30 6635 O 631.295 1.23189 1.59331 0
M  V30 6636 C 628.36 2.37378 2.52691 0
M  V30 6637 C 627.421 3.59883 2.34057 0
M  V30 6638 C 626.654 3.94612 3.59329 0
M  V30 6639 O 626.877 3.30104 4.65175 0
M  V30 6640 O 625.811 4.87895 3.52479 0
M  V30 6641 H 629.637 2.9105 0.867371 0
M  V30 6642 H 627.222 1.44916 0.363298 0
M  V30 6643 H 629.104 2.61737 3.3026 0
M  V30 6644 H 627.779 1.50385 2.86646 0
M  V30 6645 H 626.686 3.40722 1.54465 0
M  V30 6646 H 628.019 4.47468 2.0502 0
M  V30 6647 N 629.671 -0.424282 1.51781 0
M  V30 6648 C 630.948 -1.18464 1.55646 0
M  V30 6649 C 631.328 -2.08529 0.328438 0
M  V30 6650 O 630.676 -2.17969 -0.685693 0
M  V30 6651 C 630.886 -1.97514 2.87731 0
M  V30 6652 C 632.234 -2.54106 3.40169 0
M  V30 6653 O 633.258 -2.07711 2.89369 0
M  V30 6654 O 632.117 -3.38759 4.28841 0
M  V30 6655 H 629.211 -0.540055 0.626314 0
M  V30 6656 H 631.757 -0.432291 1.64102 0
M  V30 6657 H 630.529 -1.31444 3.68562 0
M  V30 6658 H 630.152 -2.79787 2.82498 0
M  V30 6659 N 631.149 -1.42148 -0.680565 0
M  V30 6660 C 632.377 -1.45696 -1.46902 0
M  V30 6661 C 632.792 -0.0665858 -1.88683 0
M  V30 6662 O 632.149 0.917436 -1.57764 0
M  V30 6663 C 632.2 -2.37898 -2.72188 0
M  V30 6664 O 631.921 -3.71526 -2.32163 0
M  V30 6665 C 633.422 -2.50407 -3.65802 0
M  V30 6666 H 630.642 -0.495729 -0.45221 0
M  V30 6667 H 633.186 -1.866 -0.836709 0
M  V30 6668 H 631.341 -2.00263 -3.31622 0
M  V30 6669 H 631.755 -4.20849 -3.13027 0
M  V30 6670 H 633.229 -3.19056 -4.50452 0
M  V30 6671 H 633.706 -1.5401 -4.11312 0
M  V30 6672 H 634.312 -2.8874 -3.12265 0
M  V30 6673 N 632.627 0.916307 -1.28225 0
M  V30 6674 C 633.855 1.69901 -1.18073 0
M  V30 6675 C 634.27 1.86988 0.260968 0
M  V30 6676 O 633.627 1.39505 1.17663 0
M  V30 6677 C 633.678 3.09254 -1.87201 0
M  V30 6678 O 633.399 2.92959 -3.2574 0
M  V30 6679 C 634.9 4.0362 -1.83319 0
M  V30 6680 H 632.12 0.531181 -0.409985 0
M  V30 6681 H 634.664 1.14703 -1.69303 0
M  V30 6682 H 632.819 3.61277 -1.39848 0
M  V30 6683 H 633.233 3.81139 -3.60324 0
M  V30 6684 H 634.707 4.98873 -2.36282 0
M  V30 6685 H 635.184 4.3176 -0.805007 0
M  V30 6686 H 635.79 3.57524 -2.3034 0
M  V30 6687 N 634.105 1.10431 1.1244 0
M  V30 6688 C 635.33 0.869089 1.88313 0
M  V30 6689 C 635.755 -0.574912 1.79099 0
M  V30 6690 O 635.113 -1.40496 1.14589 0
M  V30 6691 C 635.161 1.32208 3.3549 0
M  V30 6692 O 634.265 0.487092 4.09513 0
M  V30 6693 H 633.606 0.313894 0.585121 0
M  V30 6694 H 636.136 1.47111 1.42195 0
M  V30 6695 H 636.146 1.31201 3.86329 0
M  V30 6696 H 634.821 2.37364 3.41513 0
M  V30 6697 H 633.398 0.562372 3.68635 0
M  V30 6698 N 635.583 -1.29855 0.893053 0
M  V30 6699 C 636.513 -2.3035 0.382249 0
M  V30 6700 C 637.494 -1.61328 -0.539203 0
M  V30 6701 O 638.679 -1.88882 -0.451342 0
M  V30 6702 C 635.809 -3.45024 -0.396983 0
M  V30 6703 C 634.763 -4.258 0.433437 0
M  V30 6704 C 634.089 -5.32605 -0.472889 0
M  V30 6705 C 635.389 -4.94549 1.67984 0
M  V30 6706 H 637.083 -2.73325 1.22205 0
M  V30 6707 H 634.629 -1.314 0.589073 0
M  V30 6708 H 636.582 -4.14398 -0.765024 0
M  V30 6709 H 635.306 -3.00875 -1.2705 0
M  V30 6710 H 633.965 -3.58125 0.783723 0
M  V30 6711 H 633.613 -4.84702 -1.34435 0
M  V30 6712 H 633.313 -5.87547 0.0789958 0
M  V30 6713 H 634.837 -6.04832 -0.837269 0
M  V30 6714 H 636.251 -5.56395 1.38192 0
M  V30 6715 H 634.648 -5.59393 2.17254 0
M  V30 6716 H 635.718 -4.20215 2.41965 0
M  V30 6717 N 637.061 -0.65484 -1.43351 0
M  V30 6718 C 638.477 -0.32255 -1.56307 0
M  V30 6719 C 638.677 1.17324 -1.63821 0
M  V30 6720 O 637.733 1.95813 -1.59417 0
M  V30 6721 C 639.046 -1.03533 -2.82314 0
M  V30 6722 C 640.594 -1.01574 -2.9606 0
M  V30 6723 C 641.069 -1.70945 -4.24902 0
M  V30 6724 N 642.56 -1.67716 -4.3177 0
M  V30 6725 C 643.295 -2.18265 -5.30234 0
M  V30 6726 N 642.791 -2.7711 -6.34966 0
M  V30 6727 N 644.584 -2.08756 -5.21898 0
M  V30 6728 H 636.735 -1.62549 -1.36717 0
M  V30 6729 H 638.998 -0.683676 -0.656727 0
M  V30 6730 H 638.704 -2.09045 -2.8283 0
M  V30 6731 H 638.578 -0.587913 -3.7259 0
M  V30 6732 H 640.965 0.0309834 -2.95084 0
M  V30 6733 H 641.046 -1.50186 -2.07069 0
M  V30 6734 H 640.69 -2.75574 -4.26639 0
M  V30 6735 H 640.62 -1.19797 -5.12793 0
M  V30 6736 H 643.111 -1.24777 -3.56706 0
M  V30 6737 H 643.424 -3.13353 -7.06421 0
M  V30 6738 H 641.769 -2.81171 -6.35585 0
M  V30 6739 H 644.96 -1.62488 -4.38994 0
M  V30 6740 H 645.133 -2.48459 -5.98475 0
M  V30 6741 N 638.539 1.52521 -0.396863 0
M  V30 6742 C 639.767 2.06091 0.18275 0
M  V30 6743 C 640.182 1.26796 1.39886 0
M  V30 6744 O 639.539 0.316585 1.79733 0
M  V30 6745 C 639.59 3.57362 0.545377 0
M  V30 6746 O 639.311 4.33656 -0.622428 0
M  V30 6747 C 640.812 4.27305 1.18004 0
M  V30 6748 H 638.032 0.670504 0.025789 0
M  V30 6749 H 640.576 1.96561 -0.564276 0
M  V30 6750 H 638.731 3.66941 1.2423 0
M  V30 6751 H 639.145 5.23507 -0.322662 0
M  V30 6752 H 640.619 5.34366 1.38408 0
M  V30 6753 H 641.096 3.83 2.1496 0
M  V30 6754 H 641.702 4.22064 0.523671 0
M  V30 6755 N 640.017 0.126909 1.57088 0
M  V30 6756 C 640.947 -0.816847 2.18746 0
M  V30 6757 C 641.928 -1.27161 1.12979 0
M  V30 6758 O 643.113 -1.33279 1.41246 0
M  V30 6759 C 640.243 -2.06398 2.79315 0
M  V30 6760 C 639.197 -1.74673 3.90735 0
M  V30 6761 C 638.523 -3.06482 4.38147 0
M  V30 6762 C 639.823 -1.0089 5.12463 0
M  V30 6763 H 641.517 -0.303032 2.97863 0
M  V30 6764 H 639.063 -0.144314 1.43275 0
M  V30 6765 H 641.016 -2.72885 3.2111 0
M  V30 6766 H 639.74 -2.60118 1.975 0
M  V30 6767 H 638.399 -1.10572 3.49527 0
M  V30 6768 H 638.047 -3.58152 3.5318 0
M  V30 6769 H 637.747 -2.86025 5.13287 0
M  V30 6770 H 639.271 -3.74073 4.82599 0
M  V30 6771 H 640.685 -1.57546 5.51228 0
M  V30 6772 H 639.082 -0.905006 5.93237 0
M  V30 6773 H 640.152 0.00297335 4.849 0
M  V30 6774 N 641.495 -1.56914 -0.146875 0
M  V30 6775 C 642.911 -1.51582 -0.499518 0
M  V30 6776 C 643.111 -0.83535 -1.83369 0
M  V30 6777 O 642.167 -0.405932 -2.49216 0
M  V30 6778 C 643.48 -2.96349 -0.509711 0
M  V30 6779 C 645.028 -3.07288 -0.595217 0
M  V30 6780 C 645.503 -4.53562 -0.636071 0
M  V30 6781 N 646.994 -4.57906 -0.69829 0
M  V30 6782 C 647.729 -5.68462 -0.750886 0
M  V30 6783 N 647.225 -6.88588 -0.76282 0
M  V30 6784 N 649.018 -5.56496 -0.791777 0
M  V30 6785 H 641.169 -1.99547 0.727656 0
M  V30 6786 H 643.432 -0.910113 0.265327 0
M  V30 6787 H 643.138 -3.4939 0.402409 0
M  V30 6788 H 643.012 -3.52307 -1.34758 0
M  V30 6789 H 645.399 -2.54266 -1.49776 0
M  V30 6790 H 645.48 -2.54373 0.2698 0
M  V30 6791 H 645.124 -5.07222 0.262313 0
M  V30 6792 H 645.054 -5.04259 -1.51758 0
M  V30 6793 H 647.545 -3.71429 -0.696362 0
M  V30 6794 H 647.858 -7.68598 -0.804804 0
M  V30 6795 H 646.203 -6.91148 -0.730694 0
M  V30 6796 H 649.394 -4.61562 -0.779624 0
M  V30 6797 H 649.567 -6.42671 -0.829301 0
M  V30 6798 N 642.974 0.416227 -1.52004 0
M  V30 6799 C 644.223 1.16088 -1.64944 0
M  V30 6800 C 644.536 1.91835 -0.381928 0
M  V30 6801 O 645.742 2.6867 -0.391013 0
M  V30 6802 C 644.198 2.1124 -2.91386 0
M  V30 6803 C 643.806 1.41042 -4.25219 0
M  V30 6804 C 645.55 2.86008 -3.13688 0
M  V30 6805 C 643.457 2.34801 -5.42791 0
M  V30 6806 H 642.387 0.437041 -0.61442 0
M  V30 6807 H 645.038 0.425971 -1.78487 0
M  V30 6808 H 643.42 2.88254 -2.71525 0
M  V30 6809 H 644.594 0.694416 -4.55538 0
M  V30 6810 H 642.909 0.78344 -4.08964 0
M  V30 6811 H 645.506 3.56286 -3.98703 0
M  V30 6812 H 645.849 3.48556 -2.27628 0
M  V30 6813 H 646.382 2.16095 -3.33988 0
M  V30 6814 H 643.121 1.7691 -6.31176 0
M  V30 6815 H 642.641 3.04395 -5.16821 0
M  V30 6816 H 644.32 2.9548 -5.75587 0
M  V30 6817 N 644.452 1.42507 0.673017 0
M  V30 6818 C 645.677 1.4668 1.46627 0
M  V30 6819 C 646.102 0.080066 1.8793 0
M  V30 6820 O 645.46 -0.921879 1.56112 0
M  V30 6821 C 645.508 2.40091 2.69051 0
M  V30 6822 O 644.612 1.8735 3.67387 0
M  V30 6823 H 643.953 0.496908 0.44043 0
M  V30 6824 H 646.483 1.87215 0.825334 0
M  V30 6825 H 646.493 2.56731 3.17101 0
M  V30 6826 H 645.168 3.4084 2.3833 0
M  V30 6827 H 643.745 1.80274 3.26429 0
M  V30 6828 N 645.93 -0.909495 1.28709 0
M  V30 6829 C 646.84 -2.04558 1.14861 0
M  V30 6830 C 647.856 -1.73842 0.0741621 0
M  V30 6831 O 649.032 -1.99383 0.2843 0
M  V30 6832 C 646.097 -3.36957 0.816148 0
M  V30 6833 C 645.158 -3.81255 1.97341 0
M  V30 6834 C 644.391 -5.07335 1.65671 0
M  V30 6835 O 644.614 -5.67514 0.573053 0
M  V30 6836 O 643.548 -5.47449 2.50167 0
M  V30 6837 H 647.374 -2.19161 2.10243 0
M  V30 6838 H 644.959 -1.03159 1.08068 0
M  V30 6839 H 646.841 -4.16436 0.644873 0
M  V30 6840 H 645.516 -3.2352 -0.107983 0
M  V30 6841 H 644.423 -3.02584 2.19986 0
M  V30 6842 H 645.756 -3.99261 2.87839 0
M  V30 6843 N 647.408 -1.11026 -1.11852 0
M  V30 6844 C 648.636 -0.878818 -1.87308 0
M  V30 6845 C 649.051 0.57111 -1.79955 0
M  V30 6846 O 648.408 1.39409 -1.17777 0
M  V30 6847 C 648.459 -1.3264 -3.36287 0
M  V30 6848 O 648.18 -2.71948 -3.43476 0
M  V30 6849 C 649.681 -1.12974 -4.28663 0
M  V30 6850 H 646.901 -0.315015 -0.592458 0
M  V30 6851 H 649.445 -1.47649 -1.41492 0
M  V30 6852 H 647.6 -0.772269 -3.79625 0
M  V30 6853 H 648.014 -2.91241 -4.3621 0
M  V30 6854 H 649.488 -1.49198 -5.31454 0
M  V30 6855 H 649.965 -0.0689127 -4.39146 0
M  V30 6856 H 650.571 -1.67064 -3.91113 0
M  V30 6857 N 648.886 1.2938 -0.899927 0
M  V30 6858 C 650.111 2.00228 -0.540692 0
M  V30 6859 C 650.536 1.66909 0.867359 0
M  V30 6860 O 649.894 0.893824 1.57735 0
M  V30 6861 C 649.942 3.52921 -0.740232 0
M  V30 6862 O 649.046 4.11879 0.207154 0
M  V30 6863 H 648.387 0.629505 -0.211233 0
M  V30 6864 H 650.917 1.6487 -1.21158 0
M  V30 6865 H 650.927 4.0287 -0.644973 0
M  V30 6866 H 649.602 3.76508 -1.76677 0
M  V30 6867 H 648.179 3.72845 0.0643315 0
M  V30 6868 N 650.364 0.662433 1.43002 0
M  V30 6869 C 651.641 0.109096 1.95296 0
M  V30 6870 C 652.021 -1.37313 1.60338 0
M  V30 6871 O 651.369 -2.1032 0.893187 0
M  V30 6872 C 651.579 0.365096 3.47085 0
M  V30 6873 C 652.927 0.274964 4.23709 0
M  V30 6874 O 653.951 0.29816 3.5495 0
M  V30 6875 O 652.81 0.206549 5.4611 0
M  V30 6876 H 649.904 -0.00429724 0.826989 0
M  V30 6877 H 652.45 0.736308 1.52894 0
M  V30 6878 H 651.222 1.39237 3.65689 0
M  V30 6879 H 650.845 -0.294733 3.96506 0
M  V30 6880 N 651.842 -1.52309 0.404946 0
M  V30 6881 C 653.067 -2.06666 -0.1743 0
M  V30 6882 C 653.492 -1.27341 -1.38441 0
M  V30 6883 O 652.85 -0.302539 -1.78758 0
M  V30 6884 C 652.898 -3.57014 -0.507262 0
M  V30 6885 O 652.002 -3.80144 -1.59889 0
M  V30 6886 H 651.343 -0.663807 -0.0160273 0
M  V30 6887 H 653.873 -1.96297 0.576937 0
M  V30 6888 H 653.883 -4.00724 -0.767098 0
M  V30 6889 H 652.558 -4.14184 0.377368 0
M  V30 6890 H 651.135 -3.48316 -1.33155 0
M  V30 6891 N 653.32 -0.135238 -1.57019 0
M  V30 6892 C 654.545 0.529343 -2.00531 0
M  V30 6893 C 654.97 1.58391 -1.01459 0
M  V30 6894 O 654.328 1.81296 0.0113986 0
M  V30 6895 C 654.376 1.11748 -3.42848 0
M  V30 6896 O 653.48 2.23267 -3.46736 0
M  V30 6897 H 652.821 0.130669 -0.651016 0
M  V30 6898 H 655.351 -0.228503 -2.0332 0
M  V30 6899 H 655.361 1.44905 -3.81401 0
M  V30 6900 H 654.036 0.345147 -4.14465 0
M  V30 6901 H 652.613 1.91428 -3.20015 0
M  V30 6902 N 654.798 1.5699 0.138552 0
M  V30 6903 C 655.73 1.95515 1.1961 0
M  V30 6904 C 656.743 0.852002 1.38726 0
M  V30 6905 O 657.932 1.13038 1.38147 0
M  V30 6906 C 655.032 2.2213 2.55952 0
M  V30 6907 C 654.205 3.53424 2.57702 0
M  V30 6908 C 653.264 3.6848 3.75645 0
M  V30 6909 O 652.29 4.4079 3.60129 0
M  V30 6910 N 653.492 3.05777 4.93438 0
M  V30 6911 H 656.257 2.86838 0.868557 0
M  V30 6912 H 653.818 1.58542 0.328033 0
M  V30 6913 H 655.81 2.29435 3.33379 0
M  V30 6914 H 654.38 1.3703 2.80965 0
M  V30 6915 H 653.6 3.57484 1.6613 0
M  V30 6916 H 654.888 4.39759 2.55909 0
M  V30 6917 H 654.286 2.46961 5.08947 0
M  V30 6918 H 652.843 3.18631 5.6861 0
M  V30 6919 N 656.276 -0.40816 1.52223 0
M  V30 6920 C 657.524 -1.15274 1.66001 0
M  V30 6921 C 657.845 -1.91003 0.392803 0
M  V30 6922 O 657.115 -1.8673 -0.592336 0
M  V30 6923 H 655.695 -0.428526 0.611861 0
M  V30 6924 H 658.357 -0.46512 1.89269 0
M  V30 6925 H 657.453 -1.86628 2.50153 0
M  V30 6926 N 657.755 -1.42862 -0.66545 0
M  V30 6927 C 658.687 -1.43026 -1.79098 0
M  V30 6928 C 659.7 -0.32803 -1.59461 0
M  V30 6929 O 660.889 -0.591709 -1.68407 0
M  V30 6930 C 657.989 -1.21566 -3.16346 0
M  V30 6931 C 657.162 -2.44399 -3.62751 0
M  V30 6932 C 656.221 -2.18344 -4.78761 0
M  V30 6933 O 655.247 -2.91611 -4.88827 0
M  V30 6934 N 656.449 -1.1924 -5.68122 0
M  V30 6935 H 659.214 -2.40045 -1.79439 0
M  V30 6936 H 656.775 -1.37861 -0.848872 0
M  V30 6937 H 658.767 -1.02037 -3.91625 0
M  V30 6938 H 657.337 -0.330368 -3.10849 0
M  V30 6939 H 656.557 -2.79433 -2.78048 0
M  V30 6940 H 657.845 -3.26173 -3.90498 0
M  V30 6941 H 657.243 -0.586603 -5.6265 0
M  V30 6942 H 655.8 -1.05698 -6.43173 0
M  V30 6943 N 659.233 0.902656 -1.29189 0
M  V30 6944 C 660.51 1.63296 -1.07674 0
M  V30 6945 C 660.89 2.07649 0.380137 0
M  V30 6946 O 660.238 1.82997 1.36837 0
M  V30 6947 C 660.448 2.81603 -2.06158 0
M  V30 6948 C 661.796 3.52359 -2.36914 0
M  V30 6949 O 662.82 2.91767 -2.04329 0
M  V30 6950 O 661.679 4.61586 -2.92576 0
M  V30 6951 H 658.773 0.716889 -0.41231 0
M  V30 6952 H 661.319 0.950984 -1.4055 0
M  V30 6953 H 660.091 2.46004 -3.04299 0
M  V30 6954 H 659.714 3.57508 -1.73993 0
M  V30 6955 N 660.711 1.11618 1.11262 0
M  V30 6956 C 661.936 0.889013 1.8738 0
M  V30 6957 C 662.361 -0.555884 1.79698 0
M  V30 6958 O 661.719 -1.39272 1.16073 0
M  V30 6959 C 661.767 1.35759 3.34069 0
M  V30 6960 O 660.871 0.530499 4.08974 0
M  V30 6961 H 660.212 0.320082 0.581759 0
M  V30 6962 H 662.742 1.48611 1.40627 0
M  V30 6963 H 662.752 1.35291 3.84916 0
M  V30 6964 H 661.427 2.40973 3.38976 0
M  V30 6965 H 660.004 0.601439 3.68018 0
M  V30 6966 N 662.189 -1.289 0.906776 0
M  V30 6967 C 663.099 -2.31256 0.394707 0
M  V30 6968 C 664.115 -1.66231 -0.514121 0
M  V30 6969 O 665.291 -1.97347 -0.401994 0
M  V30 6970 C 662.356 -3.44792 -0.363191 0
M  V30 6971 C 661.417 -4.25391 0.578012 0
M  V30 6972 C 660.65 -5.33506 -0.143811 0
M  V30 6973 O 660.873 -5.53786 -1.36665 0
M  V30 6974 O 659.807 -5.99673 0.5173 0
M  V30 6975 H 663.633 -2.77051 1.24405 0
M  V30 6976 H 661.218 -1.33466 0.671346 0
M  V30 6977 H 663.1 -4.139 -0.791503 0
M  V30 6978 H 661.775 -3.01093 -1.18848 0
M  V30 6979 H 660.682 -3.58899 1.05558 0
M  V30 6980 H 662.015 -4.72752 1.36992 0
M  V30 6981 N 663.667 -0.670007 -1.42649 0
M  V30 6982 C 664.892 -0.196955 -2.06463 0
M  V30 6983 C 665.317 1.1352 -1.49983 0
M  V30 6984 O 664.675 1.705 -0.616397 0
M  V30 6985 C 664.723 -0.137381 -3.60338 0
M  V30 6986 O 663.827 0.895523 -4.02559 0
M  V30 6987 H 663.168 -0.102579 -0.656029 0
M  V30 6988 H 665.698 -0.917669 -1.82866 0
M  V30 6989 H 665.708 0.0403625 -4.0798 0
M  V30 6990 H 664.383 -1.10977 -4.0082 0
M  V30 6991 H 662.96 0.689209 -3.66476 0
M  V30 6992 N 665.145 1.52092 -0.413018 0
M  V30 6993 C 666.391 2.02154 0.161737 0
M  V30 6994 C 666.724 1.29789 1.44459 0
M  V30 6995 O 665.999 0.405378 1.90229 0
M  V30 6996 C 666.282 3.5781 0.405463 0
M  V30 6997 C 666.135 4.40819 -0.894335 0
M  V30 6998 C 667.454 4.23821 1.18591 0
M  V30 6999 H 664.573 0.734769 0.0573077 0
M  V30 7000 H 667.215 1.81948 -0.547247 0
M  V30 7001 H 665.365 3.75158 1.0094 0
M  V30 7002 H 667.037 4.35175 -1.53039 0
M  V30 7003 H 665.28 4.06877 -1.50444 0
M  V30 7004 H 665.951 5.47819 -0.678144 0
M  V30 7005 H 668.427 4.10596 0.674573 0
M  V30 7006 H 667.303 5.32663 1.3252 0
M  V30 7007 H 667.564 3.83038 2.20758 0
M  V30 7008 N 666.623 0.143563 1.56945 0
M  V30 7009 C 667.553 -0.7936 2.196 0
M  V30 7010 C 668.534 -1.25955 1.14321 0
M  V30 7011 O 669.719 -1.31773 1.42651 0
M  V30 7012 C 666.849 -2.03424 2.81489 0
M  V30 7013 C 665.803 -1.70519 3.92565 0
M  V30 7014 C 665.129 -3.01817 4.41373 0
M  V30 7015 C 666.429 -0.95449 5.13504 0
M  V30 7016 H 668.123 -0.271423 2.98167 0
M  V30 7017 H 665.669 -0.12911 1.4342 0
M  V30 7018 H 667.622 -2.69463 3.23987 0
M  V30 7019 H 666.346 -2.58008 2.00248 0
M  V30 7020 H 665.005 -1.06859 3.5068 0
M  V30 7021 H 664.653 -3.54386 3.56959 0
M  V30 7022 H 664.353 -2.80565 5.16292 0
M  V30 7023 H 665.877 -3.68934 4.86539 0
M  V30 7024 H 667.291 -1.5169 5.52868 0
M  V30 7025 H 665.688 -0.842035 5.94163 0
M  V30 7026 H 666.758 0.0544033 4.84869 0
M  V30 7027 N 668.101 -1.57061 -0.130224 0
M  V30 7028 C 669.031 -2.02552 -1.16168 0
M  V30 7029 C 670.012 -0.907971 -1.4384 0
M  V30 7030 O 671.197 -1.17693 -1.54473 0
M  V30 7031 C 668.327 -2.42035 -2.49071 0
M  V30 7032 C 667.281 -3.5713 -2.35886 0
M  V30 7033 C 666.607 -3.82478 -3.7365 0
M  V30 7034 C 667.907 -4.89236 -1.8288 0
M  V30 7035 H 669.601 -2.8897 -0.783359 0
M  V30 7036 H 667.147 -1.39021 -0.375376 0
M  V30 7037 H 669.1 -2.72462 -3.21469 0
M  V30 7038 H 667.824 -1.52573 -2.88771 0
M  V30 7039 H 666.483 -3.26895 -1.65938 0
M  V30 7040 H 666.131 -2.9024 -4.10816 0
M  V30 7041 H 665.831 -4.59944 -3.65685 0
M  V30 7042 H 667.355 -4.15347 -4.47571 0
M  V30 7043 H 668.769 -5.18272 -2.45085 0
M  V30 7044 H 667.166 -5.70624 -1.85763 0
M  V30 7045 H 668.236 -4.78494 -0.785571 0
M  V30 7046 N 669.579 0.400081 -1.52437 0
M  V30 7047 C 670.825 1.14788 -1.67187 0
M  V30 7048 C 671.158 1.89928 -0.405074 0
M  V30 7049 O 670.433 1.85118 0.596804 0
M  V30 7050 C 670.716 2.13507 -2.89977 0
M  V30 7051 C 670.569 1.42204 -4.2673 0
M  V30 7052 C 671.888 3.14069 -3.083 0
M  V30 7053 H 669.007 0.415939 -0.608411 0
M  V30 7054 H 671.649 0.432542 -1.85011 0
M  V30 7055 H 669.799 2.7451 -2.74912 0
M  V30 7056 H 671.471 0.842503 -4.53541 0
M  V30 7057 H 669.714 0.723939 -4.27717 0
M  V30 7058 H 670.385 2.14281 -5.08712 0
M  V30 7059 H 672.861 2.63148 -3.22323 0
M  V30 7060 H 671.737 3.80398 -3.95713 0
M  V30 7061 H 671.998 3.82309 -2.22018 0
M  V30 7062 N 671.057 1.43213 0.657864 0
M  V30 7063 C 672.334 1.35063 1.41483 0
M  V30 7064 C 672.714 -0.0038314 2.111 0
M  V30 7065 O 672.062 -1.02018 2.04462 0
M  V30 7066 C 672.272 2.53061 2.40335 0
M  V30 7067 C 673.62 2.9594 3.04474 0
M  V30 7068 O 674.644 2.53074 2.50663 0
M  V30 7069 O 673.503 3.70184 4.02027 0
M  V30 7070 H 670.597 0.533517 0.631893 0
M  V30 7071 H 673.143 1.55253 0.685162 0
M  V30 7072 H 671.915 3.43283 1.87809 0
M  V30 7073 H 671.538 2.34945 3.20759 0
M  V30 7074 N 672.536 -0.895792 1.29666 0
M  V30 7075 C 673.446 -2.03329 1.17024 0
M  V30 7076 C 674.462 -1.73753 0.0925962 0
M  V30 7077 O 675.638 -1.99071 0.305431 0
M  V30 7078 C 672.703 -3.36072 0.851841 0
M  V30 7079 C 671.764 -3.7914 2.01373 0
M  V30 7080 C 670.997 -5.05549 1.71043 0
M  V30 7081 O 671.22 -5.66874 0.633213 0
M  V30 7082 O 670.154 -5.44764 2.5596 0
M  V30 7083 H 673.98 -2.16918 2.12556 0
M  V30 7084 H 671.565 -1.02007 1.09156 0
M  V30 7085 H 673.447 -4.15729 0.689006 0
M  V30 7086 H 672.122 -3.23616 -0.0736634 0
M  V30 7087 H 671.029 -3.00233 2.23183 0
M  V30 7088 H 672.362 -3.96186 2.92058 0
M  V30 7089 N 674.014 -1.12206 -1.10668 0
M  V30 7090 C 674.977 -0.790867 -2.15123 0
M  V30 7091 C 675.977 0.193618 -1.5963 0
M  V30 7092 O 677.167 -0.0318728 -1.74171 0
M  V30 7093 C 674.299 -0.174797 -3.40452 0
M  V30 7094 H 675.492 -1.7163 -2.45933 0
M  V30 7095 H 673.045 -0.924993 -1.2599 0
M  V30 7096 H 673.78 0.760478 -3.15257 0
M  V30 7097 H 673.565 -0.88358 -3.82015 0
M  V30 7098 H 675.055 0.0405162 -4.1758 0
M  V30 7099 N 675.492 1.28418 -0.913599 0
M  V30 7100 C 676.74 1.94596 -0.545594 0
M  V30 7101 C 677.061 1.7227 0.913668 0
M  V30 7102 O 676.331 1.06233 1.64595 0
M  V30 7103 H 674.911 0.720065 -0.198783 0
M  V30 7104 H 677.573 1.56404 -1.16292 0
M  V30 7105 H 676.669 3.03202 -0.739911 0
M  V30 7106 N 676.97 0.677563 1.42291 0
M  V30 7107 C 678.218 0.200578 2.01102 0
M  V30 7108 C 678.539 -1.19803 1.53858 0
M  V30 7109 O 677.809 -1.80496 0.761439 0
M  V30 7110 H 676.389 0.0711634 0.743603 0
M  V30 7111 H 679.051 0.874691 1.7417 0
M  V30 7112 H 678.147 0.204 3.11433 0
M  V30 7113 N 678.448 -1.51871 0.421078 0
M  V30 7114 C 679.673 -2.0684 -0.152371 0
M  V30 7115 C 680.098 -1.28802 -1.37083 0
M  V30 7116 O 679.456 -0.321482 -1.78427 0
M  V30 7117 C 679.504 -3.57532 -0.469368 0
M  V30 7118 O 678.608 -3.81818 -1.55848 0
M  V30 7119 H 677.949 -0.663939 -0.00898586 0
M  V30 7120 H 680.479 -1.95674 0.597724 0
M  V30 7121 H 680.489 -4.01515 -0.724553 0
M  V30 7122 H 679.164 -4.13761 0.421276 0
M  V30 7123 H 677.741 -3.49709 -1.29453 0
M  V30 7124 N 679.926 -0.151884 -1.56866 0
M  V30 7125 C 681.174 0.497021 -1.95893 0
M  V30 7126 C 681.495 1.65078 -1.03799 0
M  V30 7127 O 680.765 1.95642 -0.10049 0
M  V30 7128 H 679.345 0.186603 -0.723318 0
M  V30 7129 H 682.007 -0.228525 -1.93556 0
M  V30 7130 H 681.103 0.869933 -2.99731 0
M  V30 7131 N 681.404 1.57128 0.121893 0
M  V30 7132 C 682.82 1.52357 0.47534 0
M  V30 7133 C 683.02 0.864417 1.82017 0
M  V30 7134 O 682.076 0.445529 2.48538 0
M  V30 7135 C 683.389 2.97122 0.4625 0
M  V30 7136 C 684.937 3.08196 0.546255 0
M  V30 7137 C 685.412 4.54516 0.563833 0
M  V30 7138 N 686.903 4.58959 0.625353 0
M  V30 7139 C 687.638 5.69585 0.660354 0
M  V30 7140 N 687.134 6.89714 0.653175 0
M  V30 7141 N 688.927 5.57685 0.703143 0
M  V30 7142 H 681.078 1.98364 -0.75931 0
M  V30 7143 H 683.341 0.905777 -0.279772 0
M  V30 7144 H 683.047 3.48706 -0.457943 0
M  V30 7145 H 682.921 3.54406 1.29136 0
M  V30 7146 H 685.308 2.56617 1.45712 0
M  V30 7147 H 685.389 2.53912 -0.310234 0
M  V30 7148 H 685.033 5.06741 -0.342974 0
M  V30 7149 H 684.963 5.06609 1.43716 0
M  V30 7150 H 687.454 3.72489 0.637182 0
M  V30 7151 H 687.767 7.69781 0.682425 0
M  V30 7152 H 686.112 6.92223 0.620646 0
M  V30 7153 H 689.303 4.62744 0.706095 0
M  V30 7154 H 689.476 6.43909 0.726952 0
M  V30 7155 N 682.882 -0.391992 1.52647 0
M  V30 7156 C 683.845 -1.46135 1.7657 0
M  V30 7157 C 684.845 -1.47701 0.635698 0
M  V30 7158 O 686.035 -1.48924 0.903728 0
M  V30 7159 C 683.167 -2.85443 1.86374 0
M  V30 7160 H 684.36 -1.26208 2.72051 0
M  V30 7161 H 681.913 -0.623549 1.43323 0
M  V30 7162 H 682.648 -3.10718 0.928685 0
M  V30 7163 H 682.433 -2.85708 2.68539 0
M  V30 7164 H 683.923 -3.62933 2.06566 0
M  V30 7165 N 684.36 -1.4356 -0.65026 0
M  V30 7166 C 685.608 -1.45046 -1.40734 0
M  V30 7167 C 685.929 -0.0769822 -1.94848 0
M  V30 7168 O 685.199 0.888098 -1.74613 0
M  V30 7169 H 683.779 -0.534034 -0.522318 0
M  V30 7170 H 686.441 -1.79186 -0.766703 0
M  V30 7171 H 685.537 -2.16476 -2.24822 0
M  V30 7172 N 685.838 0.888903 -1.30139 0
M  V30 7173 C 687.249 1.45578 -1.16893 0
M  V30 7174 C 687.6 1.94825 0.231866 0
M  V30 7175 O 686.725 1.84661 1.12824 0
M  V30 7176 C 687.32 2.646 -2.11595 0
M  V30 7177 C 685.879 3.17389 -2.02339 0
M  V30 7178 C 685.026 1.90081 -2.01902 0
M  V30 7179 H 687.977 0.69921 -1.42467 0
M  V30 7180 H 687.998 3.40687 -1.69449 0
M  V30 7181 H 687.51 2.28726 -3.13538 0
M  V30 7182 H 685.611 3.5793 -1.03523 0
M  V30 7183 H 685.724 3.80955 -2.90534 0
M  V30 7184 H 684.088 2.08246 -1.46648 0
M  V30 7185 H 684.871 1.5647 -3.05568 0
M  V30 7186 N 687.317 1.12792 1.10072 0
M  V30 7187 C 688.28 0.802264 2.14701 0
M  V30 7188 C 689.28 -0.18515 1.59731 0
M  V30 7189 O 690.47 0.041109 1.74151 0
M  V30 7190 C 687.602 0.19285 3.40354 0
M  V30 7191 H 688.795 1.72932 2.45019 0
M  V30 7192 H 686.348 0.931662 1.25498 0
M  V30 7193 H 687.083 -0.743748 3.15656 0
M  V30 7194 H 686.868 0.903827 3.81541 0
M  V30 7195 H 688.358 -0.0183704 4.17596 0
M  V30 7196 N 688.795 -1.27931 0.920396 0
M  V30 7197 C 690.206 -1.76707 0.602616 0
M  V30 7198 C 690.557 -1.75249 -0.882159 0
M  V30 7199 O 689.682 -1.35135 -1.69019 0
M  V30 7200 C 690.277 -3.20884 1.08714 0
M  V30 7201 C 688.836 -3.67356 0.820157 0
M  V30 7202 C 687.983 -2.47525 1.25006 0
M  V30 7203 H 690.934 -1.14301 1.10095 0
M  V30 7204 H 690.955 -3.78045 0.431535 0
M  V30 7205 H 690.467 -3.21913 2.1678 0
M  V30 7206 H 688.568 -3.7178 -0.247012 0
M  V30 7207 H 688.681 -4.57181 1.43257 0
M  V30 7208 H 687.045 -2.45765 0.668698 0
M  V30 7209 H 687.828 -2.51269 2.3392 0
M  V30 7210 N 690.273 -0.685099 -1.4193 0
M  V30 7211 C 691.22 -0.0131869 -2.30796 0
M  V30 7212 C 692.19 0.782129 -1.46533 0
M  V30 7213 O 693.375 0.75229 -1.75343 0
M  V30 7214 C 690.515 0.924768 -3.32479 0
M  V30 7215 C 689.628 0.122181 -4.31827 0
M  V30 7216 C 688.763 1.05682 -5.20581 0
M  V30 7217 C 687.802 0.246526 -6.11603 0
M  V30 7218 N 686.939 1.13442 -6.92875 0
M  V30 7219 H 691.779 -0.776789 -2.87698 0
M  V30 7220 H 689.316 -0.394791 -1.41703 0
M  V30 7221 H 691.274 1.48251 -3.89971 0
M  V30 7222 H 689.904 1.65488 -2.77152 0
M  V30 7223 H 688.956 -0.552335 -3.76369 0
M  V30 7224 H 690.268 -0.506473 -4.96222 0
M  V30 7225 H 689.422 1.68415 -5.82856 0
M  V30 7226 H 688.161 1.71935 -4.56388 0
M  V30 7227 H 687.166 -0.393944 -5.48387 0
M  V30 7228 H 688.391 -0.412053 -6.77849 0
M  V30 7229 H 686.337 1.78316 -6.313 0
M  V30 7230 H 686.254 0.561089 -7.53915 0
M  V30 7231 H 687.522 1.74889 -7.59628 0
M  V30 7232 N 691.751 1.51645 -0.429126 0
M  V30 7233 C 692.999 2.01616 0.139802 0
M  V30 7234 C 693.32 1.31568 1.43927 0
M  V30 7235 O 692.59 0.447688 1.90716 0
M  V30 7236 H 691.17 0.744998 0.054654 0
M  V30 7237 H 693.832 1.8638 -0.569952 0
M  V30 7238 H 692.928 3.10439 0.321609 0
M  V30 7239 N 693.229 0.160201 1.56784 0
M  V30 7240 C 694.454 -0.497373 2.01348 0
M  V30 7241 C 694.879 -1.56757 1.03966 0
M  V30 7242 O 694.237 -1.81292 0.0174455 0
M  V30 7243 C 694.285 -1.0628 3.44582 0
M  V30 7244 O 693.389 -2.17723 3.50244 0
M  V30 7245 H 692.73 -0.120295 0.653012 0
M  V30 7246 H 695.26 0.260821 2.02931 0
M  V30 7247 H 695.27 -1.38819 3.83658 0
M  V30 7248 H 693.945 -0.279166 4.14962 0
M  V30 7249 H 692.522 -1.86313 3.2302 0
M  V30 7250 N 694.707 -1.5719 -0.113559 0
M  V30 7251 C 695.932 -1.89702 -0.838336 0
M  V30 7252 C 696.357 -0.752679 -1.72384 0
M  V30 7253 O 695.715 0.296575 -1.78858 0
M  V30 7254 C 695.763 -3.20989 -1.64312 0
M  V30 7255 O 694.867 -3.07278 -2.75053 0
M  V30 7256 H 694.208 -0.622339 -0.231496 0
M  V30 7257 H 696.738 -2.04382 -0.0943228 0
M  V30 7258 H 696.748 -3.53843 -2.03123 0
M  V30 7259 H 695.423 -4.03869 -0.993119 0
M  V30 7260 H 694 -2.85901 -2.39406 0
M  V30 7261 N 696.185 0.383891 -1.52853 0
M  V30 7262 C 697.115 1.47559 -1.80965 0
M  V30 7263 C 698.096 1.5669 -0.661986 0
M  V30 7264 O 699.281 1.71556 -0.910072 0
M  V30 7265 C 696.411 2.85114 -1.98312 0
M  V30 7266 C 695.365 2.9082 -3.14019 0
M  V30 7267 C 694.691 4.30873 -3.16627 0
M  V30 7268 C 695.991 2.60001 -4.52986 0
M  V30 7269 H 697.685 1.24283 -2.72386 0
M  V30 7270 H 695.231 0.596445 -1.31067 0
M  V30 7271 H 697.184 3.61496 -2.16561 0
M  V30 7272 H 695.908 3.09738 -1.03585 0
M  V30 7273 H 694.567 2.16886 -2.9556 0
M  V30 7274 H 694.215 4.52545 -2.19573 0
M  V30 7275 H 693.915 4.3561 -3.94357 0
M  V30 7276 H 695.439 5.09154 -3.37038 0
M  V30 7277 H 696.853 3.261 -4.71521 0
M  V30 7278 H 695.25 2.76081 -5.32822 0
M  V30 7279 H 696.32 1.5532 -4.59351 0
M  V30 7280 N 697.663 1.43903 0.642637 0
M  V30 7281 C 698.595 1.45857 1.768 0
M  V30 7282 C 699.608 0.353358 1.58919 0
M  V30 7283 O 700.797 0.618426 1.67445 0
M  V30 7284 C 697.897 1.26583 3.14372 0
M  V30 7285 C 697.07 2.50139 3.58817 0
M  V30 7286 C 696.129 2.25933 4.75227 0
M  V30 7287 O 695.155 2.99351 4.84125 0
M  V30 7288 N 696.357 1.28263 5.66153 0
M  V30 7289 H 699.122 2.42869 1.75598 0
M  V30 7290 H 696.683 1.39194 0.826832 0
M  V30 7291 H 698.675 1.08255 3.89953 0
M  V30 7292 H 697.245 0.37978 3.10284 0
M  V30 7293 H 696.465 2.83821 2.73568 0
M  V30 7294 H 697.753 3.32344 3.8526 0
M  V30 7295 H 697.151 0.676041 5.61646 0
M  V30 7296 H 695.708 1.15916 6.4141 0
M  V30 7297 N 699.141 -0.881989 1.30609 0
M  V30 7298 C 700.387 -1.63647 1.19781 0
M  V30 7299 C 700.72 -1.92632 -0.246265 0
M  V30 7300 O 699.995 -1.54938 -1.17577 0
M  V30 7301 C 700.278 -2.97437 2.02985 0
M  V30 7302 C 700.131 -2.75406 3.55628 0
M  V30 7303 C 701.45 -3.98397 1.86997 0
M  V30 7304 H 698.569 -0.593841 0.436488 0
M  V30 7305 H 701.211 -1.02041 1.60273 0
M  V30 7306 H 699.361 -3.50018 1.68581 0
M  V30 7307 H 701.033 -2.2959 4.00107 0
M  V30 7308 H 699.276 -2.09856 3.79662 0
M  V30 7309 H 699.947 -3.70552 4.09139 0
M  V30 7310 H 702.423 -3.54986 2.17081 0
M  V30 7311 H 701.299 -4.89916 2.47536 0
M  V30 7312 H 701.56 -4.3424 0.829943 0
M  V30 7313 N 700.619 -1.13374 -1.09472 0
M  V30 7314 C 701.847 -0.918351 -1.85402 0
M  V30 7315 C 702.262 0.53281 -1.81126 0
M  V30 7316 O 701.619 1.36879 -1.20708 0
M  V30 7317 C 701.67 -1.39743 -3.33398 0
M  V30 7318 O 701.391 -2.79172 -3.37631 0
M  V30 7319 C 702.892 -1.22042 -4.2617 0
M  V30 7320 H 700.112 -0.327511 -0.585643 0
M  V30 7321 H 702.656 -1.50617 -1.38328 0
M  V30 7322 H 700.811 -0.852619 -3.77901 0
M  V30 7323 H 701.225 -3.00428 -4.29934 0
M  V30 7324 H 702.699 -1.60438 -5.2817 0
M  V30 7325 H 703.176 -0.162047 -4.38901 0
M  V30 7326 H 703.782 -1.75323 -3.87482 0
M  V30 7327 N 702.098 1.27442 -0.927168 0
M  V30 7328 C 703.345 1.94391 -0.567324 0
M  V30 7329 C 703.673 1.72875 0.891321 0
M  V30 7330 O 702.928 1.05071 1.65102 0
M  V30 7331 C 703.227 3.47413 -0.838994 0
M  V30 7332 C 702.893 3.89049 -2.2793 0
M  V30 7333 C 701.555 4.00127 -2.67305 0
M  V30 7334 C 703.907 4.10154 -3.21595 0
M  V30 7335 C 701.235 4.29697 -3.99471 0
M  V30 7336 C 703.587 4.41208 -4.53341 0
M  V30 7337 C 702.251 4.50499 -4.92551 0
M  V30 7338 H 701.521 0.711325 -0.207598 0
M  V30 7339 H 704.168 1.51523 -1.17103 0
M  V30 7340 H 702.473 3.91503 -0.152609 0
M  V30 7341 H 704.17 3.97354 -0.53955 0
M  V30 7342 H 700.76 3.80962 -1.96381 0
M  V30 7343 H 704.944 4.01036 -2.92377 0
M  V30 7344 H 700.2 4.35099 -4.29533 0
M  V30 7345 H 704.374 4.56486 -5.25922 0
M  V30 7346 H 702.001 4.73167 -5.94994 0
M  V30 7347 N 703.576 0.692616 1.41565 0
M  V30 7348 C 704.987 0.297478 1.84315 0
M  V30 7349 C 705.338 -1.16379 1.57957 0
M  V30 7350 O 704.463 -1.89303 1.0485 0
M  V30 7351 C 705.058 0.533136 3.34579 0
M  V30 7352 C 703.617 0.191944 3.7591 0
M  V30 7353 C 702.764 0.816873 2.64995 0
M  V30 7354 H 705.715 0.893488 1.31158 0
M  V30 7355 H 705.736 -0.209105 3.79925 0
M  V30 7356 H 705.248 1.59674 3.53731 0
M  V30 7357 H 703.349 -0.867512 3.6236 0
M  V30 7358 H 703.462 0.644902 4.7474 0
M  V30 7359 H 701.826 0.246715 2.53502 0
M  V30 7360 H 702.609 1.88429 2.86966 0
M  V30 7361 N 705.054 -1.51416 0.437162 0
M  V30 7362 C 706.279 -2.0699 -0.130424 0
M  V30 7363 C 706.704 -1.30249 -1.35709 0
M  V30 7364 O 706.062 -0.340388 -1.78076 0
M  V30 7365 C 706.11 -3.5801 -0.43142 0
M  V30 7366 O 705.214 -3.8345 -1.5179 0
M  V30 7367 H 704.555 -0.663997 -0.00194339 0
M  V30 7368 H 707.085 -1.95029 0.618445 0
M  V30 7369 H 707.095 -4.02261 -0.681926 0
M  V30 7370 H 705.77 -4.13291 0.465137 0
M  V30 7371 H 704.347 -3.51062 -1.25737 0
M  V30 7372 N 706.532 -0.168513 -1.56696 0
M  V30 7373 C 707.442 0.775435 -2.21414 0
M  V30 7374 C 708.458 1.25529 -1.20492 0
M  V30 7375 O 709.634 1.30801 -1.53144 0
M  V30 7376 C 706.699 1.9886 -2.83999 0
M  V30 7377 C 705.76 1.5559 -4.00113 0
M  V30 7378 C 704.993 2.71124 -4.59704 0
M  V30 7379 O 705.216 3.87917 -4.18182 0
M  V30 7380 O 704.15 2.4536 -5.4962 0
M  V30 7381 H 707.976 0.254416 -3.02632 0
M  V30 7382 H 705.561 0.0595507 -1.49281 0
M  V30 7383 H 707.443 2.69816 -3.23693 0
M  V30 7384 H 706.118 2.49874 -2.05779 0
M  V30 7385 H 705.025 0.815924 -3.65094 0
M  V30 7386 H 706.358 1.09271 -4.79917 0
M  V30 7387 N 708.01 1.57248 0.105221 0
M  V30 7388 C 709.238 1.89768 0.82437 0
M  V30 7389 C 709.653 0.761192 1.72775 0
M  V30 7390 O 709.01 -0.267342 1.80531 0
M  V30 7391 C 709.061 3.2184 1.64625 0
M  V30 7392 O 708.782 4.31115 0.779217 0
M  V30 7393 C 710.283 3.68155 2.46935 0
M  V30 7394 H 707.503 0.628031 0.236259 0
M  V30 7395 H 710.047 2.04321 0.085485 0
M  V30 7396 H 708.202 3.08915 2.33775 0
M  V30 7397 H 708.616 5.06897 1.34745 0
M  V30 7398 H 710.09 4.6329 3.00111 0
M  V30 7399 H 710.567 2.95492 3.24932 0
M  V30 7400 H 711.173 3.83914 1.83002 0
M  V30 7401 N 709.488 -0.375779 1.53054 0
M  V30 7402 C 710.418 -1.46598 1.81745 0
M  V30 7403 C 711.399 -1.56337 0.670286 0
M  V30 7404 O 712.584 -1.71071 0.919158 0
M  V30 7405 C 709.714 -2.84058 1.99821 0
M  V30 7406 C 708.668 -2.8915 3.15557 0
M  V30 7407 C 707.994 -4.29187 3.18908 0
M  V30 7408 C 709.294 -2.57595 4.54359 0
M  V30 7409 H 710.988 -1.22837 2.73041 0
M  V30 7410 H 708.534 -0.589485 1.31381 0
M  V30 7411 H 710.487 -3.60342 2.18475 0
M  V30 7412 H 709.211 -3.09184 1.05226 0
M  V30 7413 H 707.87 -2.15316 2.96706 0
M  V30 7414 H 707.518 -4.51374 2.2197 0
M  V30 7415 H 707.218 -4.33512 3.96662 0
M  V30 7416 H 708.742 -5.07359 3.39734 0
M  V30 7417 H 710.156 -3.23595 4.73243 0
M  V30 7418 H 708.553 -2.73252 5.34279 0
M  V30 7419 H 709.623 -1.52882 4.60169 0
M  V30 7420 N 710.966 -1.44241 -0.634997 0
M  V30 7421 C 711.914 -1.51103 -1.76835 0
M  V30 7422 C 712.908 -0.383051 -1.65012 0
M  V30 7423 O 714.114 -0.557832 -1.71138 0
M  V30 7424 H 710.489 -0.474076 -0.583743 0
M  V30 7425 H 712.46 -2.46499 -1.68169 0
M  V30 7426 C 711.209 -1.4687 -3.15158 0
M  V30 7427 H 710.532 -2.32979 -3.24901 0
M  V30 7428 H 711.972 -1.55731 -3.94365 0
M  V30 7429 C 710.431 -0.188884 -3.3637 0
M  V30 7430 O 710.961 0.742487 -3.94778 0
M  V30 7431 N 709.167 -0.0932516 -2.9045 0
M  V30 7432 H 708.714 -0.852004 -2.43102 0
M  V30 7433 H 708.672 0.762308 -3.05018 0
M  V30 7434 N 712.444 0.87505 -1.31075 0
M  V30 7435 C 713.374 1.99775 -1.20881 0
M  V30 7436 C 714.355 1.69822 -0.0971612 0
M  V30 7437 O 715.54 1.92158 -0.280895 0
M  V30 7438 C 712.67 3.35163 -0.910118 0
M  V30 7439 C 711.624 3.79406 -1.98078 0
M  V30 7440 C 710.95 5.12197 -1.53488 0
M  V30 7441 C 712.25 3.97061 -3.39323 0
M  V30 7442 H 713.944 2.08562 -2.14808 0
M  V30 7443 H 711.49 1.00207 -1.03415 0
M  V30 7444 H 713.443 4.13237 -0.825423 0
M  V30 7445 H 712.167 3.26536 0.064822 0
M  V30 7446 H 710.826 3.03568 -2.05528 0
M  V30 7447 H 710.474 5.00007 -0.547941 0
M  V30 7448 H 710.174 5.4277 -2.2511 0
M  V30 7449 H 711.698 5.92785 -1.46417 0
M  V30 7450 H 713.112 4.65545 -3.34576 0
M  V30 7451 H 711.509 4.39025 -4.09118 0
M  V30 7452 H 712.579 3.00601 -3.80483 0
M  V30 7453 N 713.922 1.13953 1.08869 0
M  V30 7454 C 715.147 0.928559 1.85452 0
M  V30 7455 C 715.572 -0.517642 1.80837 0
M  V30 7456 O 714.93 -1.36779 1.19001 0
M  V30 7457 C 714.978 1.42814 3.31114 0
M  V30 7458 O 714.082 0.617129 4.07756 0
M  V30 7459 H 713.423 0.33235 0.574839 0
M  V30 7460 H 715.953 1.5156 1.37443 0
M  V30 7461 H 715.963 1.43425 3.8196 0
M  V30 7462 H 714.638 2.48109 3.33788 0
M  V30 7463 H 713.215 0.679365 3.66659 0
M  V30 7464 N 715.4 -1.26948 0.933913 0
M  V30 7465 C 716.31 -2.30366 0.443671 0
M  V30 7466 C 717.326 -1.67284 -0.478745 0
M  V30 7467 O 718.502 -1.98156 -0.360043 0
M  V30 7468 C 715.567 -3.45485 -0.289974 0
M  V30 7469 C 714.628 -4.24069 0.668114 0
M  V30 7470 C 713.861 -5.33691 -0.0306138 0
M  V30 7471 O 714.084 -5.5656 -1.24888 0
M  V30 7472 O 713.018 -5.98441 0.644384 0
M  V30 7473 H 716.844 -2.74349 1.30254 0
M  V30 7474 H 714.429 -1.32012 0.699506 0
M  V30 7475 H 716.311 -4.15486 -0.70353 0
M  V30 7476 H 714.986 -3.03546 -1.12435 0
M  V30 7477 H 713.893 -3.56579 1.13147 0
M  V30 7478 H 715.226 -4.69739 1.46989 0
M  V30 7479 N 716.879 -0.700114 -1.41195 0
M  V30 7480 C 717.826 -0.0376652 -2.30769 0
M  V30 7481 C 718.796 0.766544 -1.47354 0
M  V30 7482 O 719.981 0.73365 -1.76131 0
M  V30 7483 C 717.121 0.889452 -3.33441 0
M  V30 7484 C 716.234 0.076373 -4.31932 0
M  V30 7485 C 715.369 1.00155 -5.21673 0
M  V30 7486 C 714.408 0.181644 -6.1183 0
M  V30 7487 N 713.545 1.06087 -6.94039 0
M  V30 7488 H 718.385 -0.80726 -2.86858 0
M  V30 7489 H 715.922 -0.409798 -1.41277 0
M  V30 7490 H 717.88 1.44107 -3.91522 0
M  V30 7491 H 716.51 1.6254 -2.78892 0
M  V30 7492 H 715.562 -0.592223 -3.75762 0
M  V30 7493 H 716.874 -0.559076 -4.95657 0
M  V30 7494 H 716.028 1.62223 -5.8461 0
M  V30 7495 H 714.767 1.67085 -4.58186 0
M  V30 7496 H 713.772 -0.452085 -5.47938 0
M  V30 7497 H 714.997 -0.483925 -6.77374 0
M  V30 7498 H 712.943 1.7161 -6.33156 0
M  V30 7499 H 712.86 0.481094 -7.54468 0
M  V30 7500 H 714.128 1.66822 -7.6144 0
M  V30 7501 N 718.357 1.51182 -0.445186 0
M  V30 7502 C 719.597 2.04061 0.117717 0
M  V30 7503 C 719.961 1.32158 1.39278 0
M  V30 7504 O 721.162 1.75452 2.03642 0
M  V30 7505 C 719.433 3.55933 0.323445 0
M  V30 7506 S 720.992 4.30516 0.848627 0
M  V30 7507 H 717.81 0.710442 0.028165 0
M  V30 7508 H 720.412 1.85858 -0.606391 0
M  V30 7509 H 719.116 4.0583 -0.610764 0
M  V30 7510 H 718.647 3.78444 1.07441 0
M  V30 7511 H 720.662 4.48382 2.12528 0
M  V30 7512 N 719.835 0.176821 1.56605 0
M  V30 7513 C 721.084 -0.466833 1.96223 0
M  V30 7514 C 721.397 -1.64015 1.06576 0
M  V30 7515 O 722.603 -2.3504 1.35898 0
M  V30 7516 C 721.059 -0.881921 3.48927 0
M  V30 7517 C 720.667 0.266102 4.47209 0
M  V30 7518 C 722.411 -1.49368 3.97353 0
M  V30 7519 C 720.318 -0.168923 5.91159 0
M  V30 7520 H 719.248 -0.178178 0.732645 0
M  V30 7521 H 721.899 0.265929 1.81563 0
M  V30 7522 H 720.281 -1.67082 3.59026 0
M  V30 7523 H 721.455 1.04349 4.4883 0
M  V30 7524 H 719.77 0.788178 4.08872 0
M  V30 7525 H 722.367 -1.8313 5.02362 0
M  V30 7526 H 722.71 -2.3936 3.40606 0
M  V30 7527 H 723.243 -0.769114 3.90294 0
M  V30 7528 H 719.982 0.696351 6.51791 0
M  V30 7529 H 719.502 -0.911552 5.92833 0
M  V30 7530 H 721.181 -0.610938 6.44109 0
M  V30 7531 O 721.352 -1.61453 0.0391262 0
M  V30 7532 H 722.043 -1.85062 -0.571999 0
M  V30 END ATOM
M  V30 BEGIN BOND
M  V30 END BOND
M  V30 END CTAB
M  END
$$$$
