drugbank_drug|DB00074 Basiliximab heavy chain
 OpenBabel12092119123D

  0  0  0     0  0            999 V3000
M  V30 BEGIN CTAB
M  V30 COUNTS 6837 6936 0 0 0
M  V30 BEGIN ATOM
M  V30 1 H -0.908 1.98254 -0.117106 0
M  V30 2 N 0 1.576 0 0
M  V30 3 C 0.932 2.05273 1.01958 0
M  V30 4 C 1.945 0.970662 1.30698 0
M  V30 5 O 3.134 1.24746 1.27674 0
M  V30 6 C 0.234 2.43771 2.35433 0
M  V30 7 C -0.593 3.74711 2.25633 0
M  V30 8 C -1.534 4.00077 3.41796 0
M  V30 9 O -2.508 4.70743 3.19984 0
M  V30 10 N -1.306 3.47973 4.64645 0
M  V30 11 H 1.459 2.93363 0.613025 0
M  V30 12 H -0.98 1.60812 0.187383 0
M  V30 13 H 1.012 2.57855 3.11918 0
M  V30 14 H -0.418 1.612 2.67831 0
M  V30 15 H -1.198 3.70705 1.34059 0
M  V30 16 H 0.09 4.60554 2.16258 0
M  V30 17 H -0.512 2.90748 4.85265 0
M  V30 18 H -1.955 3.67386 5.38396 0
M  V30 19 N 1.4781 -0.272755 1.55222 0
M  V30 20 C 2.4081 -1.34136 1.91127 0
M  V30 21 C 3.3891 -1.51513 0.773168 0
M  V30 22 O 4.5741 -1.64552 1.03132 0
M  V30 23 C 1.7041 -2.70083 2.1834 0
M  V30 24 C 0.6581 -2.67437 3.34158 0
M  V30 25 C -0.0159 -4.06938 3.46851 0
M  V30 26 C 1.2841 -2.26686 4.70543 0
M  V30 27 H 2.9781 -1.04333 2.80633 0
M  V30 28 H 0.5241 -0.500454 1.35024 0
M  V30 29 H 2.4771 -3.44952 2.42046 0
M  V30 30 H 1.2011 -3.01469 1.25634 0
M  V30 31 H -0.1399 -1.95026 3.1042 0
M  V30 32 H -0.4919 -4.35547 2.51611 0
M  V30 33 H -0.7919 -4.06062 4.2472 0
M  V30 34 H 0.7321 -4.83545 3.72849 0
M  V30 35 H 2.1461 -2.91277 4.93792 0
M  V30 36 H 0.5431 -2.36971 5.5133 0
M  V30 37 H 1.6131 -1.21818 4.69349 0
M  V30 38 N 2.9562 -1.48159 -0.537278 0
M  V30 39 C 3.8882 -1.58218 -1.65831 0
M  V30 40 C 4.9012 -0.466948 -1.5596 0
M  V30 41 O 6.0902 -0.73747 -1.62553 0
M  V30 42 C 3.1902 -1.48906 -3.04434 0
M  V30 43 C 2.3632 -2.75343 -3.3986 0
M  V30 44 C 1.4222 -2.59588 -4.57712 0
M  V30 45 O 0.4482 -3.33457 -4.61297 0
M  V30 46 N 1.6502 -1.68724 -5.55439 0
M  V30 47 H 4.4152 -2.54891 -1.57641 0
M  V30 48 H 1.9762 -1.4479 -0.724386 0
M  V30 49 H 3.9682 -1.36072 -3.81139 0
M  V30 50 H 2.5382 -0.602368 -3.06741 0
M  V30 51 H 1.7582 -3.02795 -2.52406 0
M  V30 52 H 3.0462 -3.5924 -3.60311 0
M  V30 53 H 2.4442 -1.07898 -5.55315 0
M  V30 54 H 1.0012 -1.61832 -6.3139 0
M  V30 55 N 4.4343 0.785586 -1.36625 0
M  V30 56 C 5.3663 1.90711 -1.2713 0
M  V30 57 C 6.3793 1.61688 -0.189986 0
M  V30 58 O 7.5683 1.72864 -0.445014 0
M  V30 59 C 4.6683 3.25611 -0.939713 0
M  V30 60 C 3.8413 3.82385 -2.12369 0
M  V30 61 C 2.9003 4.95732 -1.76456 0
M  V30 62 O 1.9263 5.12047 -2.48589 0
M  V30 63 N 3.1283 5.76258 -0.700492 0
M  V30 64 H 5.8933 1.99376 -2.23762 0
M  V30 65 H 3.4543 0.964041 -1.30069 0
M  V30 66 H 5.4463 3.98937 -0.680554 0
M  V30 67 H 4.0163 3.12538 -0.0624074 0
M  V30 68 H 3.2363 3.01001 -2.54543 0
M  V30 69 H 4.5243 4.17047 -2.9146 0
M  V30 70 H 3.9223 5.65609 -0.101624 0
M  V30 71 H 2.4793 6.4987 -0.501165 0
M  V30 72 N 5.9124 1.20967 1.01018 0
M  V30 73 C 7.1374 1.0503 1.78839 0
M  V30 74 C 7.5624 -0.395752 1.8389 0
M  V30 75 O 6.9204 -1.28529 1.27867 0
M  V30 76 C 6.9684 1.64602 3.2084 0
M  V30 77 O 6.0724 0.887988 4.02726 0
M  V30 78 H 5.4134 0.369987 0.551367 0
M  V30 79 H 7.9434 1.60399 1.27018 0
M  V30 80 H 7.9534 1.68607 3.71532 0
M  V30 81 H 6.6284 2.69841 3.16479 0
M  V30 82 H 5.2054 0.922648 3.61305 0
M  V30 83 N 7.3905 -1.2043 1.01659 0
M  V30 84 C 8.6385 -1.89423 0.704522 0
M  V30 85 C 8.9595 -1.79231 -0.768197 0
M  V30 86 O 8.2295 -1.1947 -1.55254 0
M  V30 87 H 6.8095 -0.701178 0.257602 0
M  V30 88 H 9.4715 -1.4626 1.28818 0
M  V30 89 H 8.5675 -2.96052 0.987916 0
M  V30 90 N 8.8686 -0.792821 -1.36206 0
M  V30 91 C 10.0966 -0.378825 -2.03402 0
M  V30 92 C 10.5116 1.00586 -1.59774 0
M  V30 93 O 9.8686 1.64574 -0.788764 0
M  V30 94 C 9.9196 -0.43683 -3.58851 0
M  V30 95 O 9.6406 -1.76691 -4.00889 0
M  V30 96 C 11.1416 -0.0138943 -4.43298 0
M  V30 97 H 8.3616 -0.155673 -0.652692 0
M  V30 98 H 10.9056 -1.07261 -1.74113 0
M  V30 99 H 9.0606 0.208575 -3.86838 0
M  V30 100 H 9.4746 -1.72011 -4.95492 0
M  V30 101 H 10.9486 -0.105615 -5.51899 0
M  V30 102 H 11.4256 1.03915 -4.2673 0
M  V30 103 H 12.0316 -0.63192 -4.20579 0
M  V30 104 N 10.3467 1.47872 -0.545128 0
M  V30 105 C 11.5927 2.02793 -0.0166104 0
M  V30 106 C 11.9257 1.41987 1.32489 0
M  V30 107 O 11.2007 0.571045 1.85928 0
M  V30 108 C 11.4837 3.59989 0.0893294 0
M  V30 109 C 11.3367 4.3125 -1.27841 0
M  V30 110 C 12.6557 4.32606 0.808724 0
M  V30 111 H 9.7747 0.736962 -0.00751035 0
M  V30 112 H 12.4167 1.76433 -0.705085 0
M  V30 113 H 10.5667 3.82579 0.675681 0
M  V30 114 H 12.2387 4.20035 -1.90704 0
M  V30 115 H 10.4817 3.92076 -1.85632 0
M  V30 116 H 11.1527 5.39736 -1.15713 0
M  V30 117 H 13.6287 4.14936 0.310992 0
M  V30 118 H 12.5047 5.42251 0.851782 0
M  V30 119 H 12.7657 4.00963 1.86229 0
M  V30 120 N 11.8248 0.280983 1.55075 0
M  V30 121 C 12.7548 -0.597469 2.25727 0
M  V30 122 C 13.7358 -1.15417 1.24952 0
M  V30 123 O 14.9208 -1.18722 1.53684 0
M  V30 124 C 12.0508 -1.7789 2.98283 0
M  V30 125 C 11.0048 -1.35347 4.06036 0
M  V30 126 C 10.3308 -2.61846 4.66198 0
M  V30 127 C 11.6308 -0.499354 5.19907 0
M  V30 128 H 13.3248 -0.00824265 2.99399 0
M  V30 129 H 10.8708 -0.0025244 1.44 0
M  V30 130 H 12.8238 -2.39937 3.46422 0
M  V30 131 H 11.5478 -2.39405 2.22155 0
M  V30 132 H 10.2068 -0.756156 3.58717 0
M  V30 133 H 9.8548 -3.21632 3.86732 0
M  V30 134 H 9.5548 -2.3409 5.38958 0
M  V30 135 H 11.0788 -3.24732 5.1709 0
M  V30 136 H 12.4928 -1.02498 5.64063 0
M  V30 137 H 10.8898 -0.316424 5.99265 0
M  V30 138 H 11.9598 0.480459 4.82514 0
M  V30 139 N 13.3029 -1.57598 0.00835791 0
M  V30 140 C 14.2659 -2.07884 -0.965242 0
M  V30 141 C 15.2659 -0.989825 -1.26725 0
M  V30 142 O 16.4559 -1.25218 -1.21104 0
M  V30 143 C 13.5879 -2.52731 -2.28779 0
M  V30 144 H 14.7809 -2.95178 -0.530112 0
M  V30 145 H 12.3339 -1.54458 -0.239283 0
M  V30 146 H 13.0689 -1.68705 -2.76964 0
M  V30 147 H 12.8539 -3.32272 -2.08177 0
M  V30 148 H 14.3439 -2.91933 -2.98605 0
M  V30 149 N 14.781 0.264519 -1.55364 0
M  V30 150 C 16.197 0.61215 -1.47394 0
M  V30 151 C 16.397 1.89134 -0.695018 0
M  V30 152 O 15.453 2.51563 -0.217275 0
M  V30 153 C 16.766 0.731235 -2.91674 0
M  V30 154 C 18.314 0.82473 -3.01939 0
M  V30 155 C 18.789 0.975522 -4.4749 0
M  V30 156 N 20.28 1.04083 -4.51354 0
M  V30 157 C 21.015 1.17646 -5.61201 0
M  V30 158 N 20.511 1.27874 -6.80896 0
M  V30 159 N 22.304 1.20823 -5.48961 0
M  V30 160 H 14.455 -0.575456 -2.04456 0
M  V30 161 H 16.718 -0.196099 -0.927496 0
M  V30 162 H 16.424 -0.138392 -3.51428 0
M  V30 163 H 16.298 1.60883 -3.41169 0
M  V30 164 H 18.685 1.68482 -2.42276 0
M  V30 165 H 18.766 -0.0776479 -2.55682 0
M  V30 166 H 18.41 0.120058 -5.07758 0
M  V30 167 H 18.34 1.89268 -4.91412 0
M  V30 168 H 20.831 0.973846 -3.65136 0
M  V30 169 H 21.144 1.38081 -7.60364 0
M  V30 170 H 19.489 1.24863 -6.83692 0
M  V30 171 H 22.68 1.12469 -4.54388 0
M  V30 172 H 22.853 1.31049 -6.3461 0
M  V30 173 N 16.2591 1.48442 0.529413 0
M  V30 174 C 17.6701 1.5002 1.11134 0
M  V30 175 C 18.0211 0.27031 1.94329 0
M  V30 176 O 17.1461 -0.622507 2.07253 0
M  V30 177 C 17.7411 2.71834 2.02217 0
M  V30 178 C 16.3001 2.76283 2.55627 0
M  V30 179 C 15.4471 2.43542 1.326 0
M  V30 180 H 18.3981 1.5555 0.314641 0
M  V30 181 H 18.4191 2.50384 2.8651 0
M  V30 182 H 17.9311 3.61331 1.41639 0
M  V30 183 H 16.0321 1.90995 3.19924 0
M  V30 184 H 16.1451 3.77725 2.94721 0
M  V30 185 H 14.5091 1.94709 1.64196 0
M  V30 186 H 15.2921 3.3528 0.737734 0
M  V30 187 N 17.7372 -0.778329 1.37039 0
M  V30 188 C 18.9852 -1.53361 1.31623 0
M  V30 189 C 19.3062 -1.94739 -0.100831 0
M  V30 190 O 18.5762 -1.65797 -1.04347 0
M  V30 191 H 17.1562 -0.568794 0.484234 0
M  V30 192 H 19.8182 -0.926742 1.71457 0
M  V30 193 H 18.9142 -2.43606 1.95096 0
M  V30 194 N 19.2153 -1.21501 -1.00376 0
M  V30 195 C 20.1783 -0.976927 -2.07337 0
M  V30 196 C 21.1783 0.0525322 -1.60714 0
M  V30 197 O 22.3683 -0.184869 -1.73216 0
M  V30 198 C 19.5003 -0.473423 -3.37597 0
M  V30 199 H 20.6933 -1.92587 -2.29892 0
M  V30 200 H 18.2463 -1.03217 -1.17371 0
M  V30 201 H 18.9813 0.480379 -3.20722 0
M  V30 202 H 18.7663 -1.216 -3.72768 0
M  V30 203 H 20.2563 -0.32675 -4.1632 0
M  V30 204 N 20.6934 1.19889 -1.02296 0
M  V30 205 C 21.9184 1.9393 -0.735237 0
M  V30 206 C 22.3434 1.74639 0.698782 0
M  V30 207 O 21.7014 1.04481 1.48167 0
M  V30 208 C 21.7494 3.43916 -1.08417 0
M  V30 209 O 20.8534 4.11917 -0.199446 0
M  V30 210 H 20.1944 0.605645 -0.272196 0
M  V30 211 H 22.7244 1.52137 -1.36804 0
M  V30 212 H 22.7344 3.9456 -1.03856 0
M  V30 213 H 21.4094 3.5728 -2.12894 0
M  V30 214 H 19.9864 3.71666 -0.303136 0
M  V30 215 N 22.1715 0.800033 1.35784 0
M  V30 216 C 23.4175 0.377901 1.99248 0
M  V30 217 C 23.7505 -1.05052 1.63333 0
M  V30 218 O 23.0255 -1.72768 0.893385 0
M  V30 219 C 23.3085 0.553922 3.55814 0
M  V30 220 C 23.1615 2.0268 4.01548 0
M  V30 221 C 24.4805 -0.0244802 4.40093 0
M  V30 222 H 21.5995 0.138782 0.723815 0
M  V30 223 H 24.2415 1.00835 1.61035 0
M  V30 224 H 22.3915 0.0172398 3.88496 0
M  V30 225 H 24.0635 2.62536 3.79305 0
M  V30 226 H 22.3065 2.5256 3.52698 0
M  V30 227 H 22.9775 2.10087 5.10458 0
M  V30 228 H 25.4535 0.433775 4.13833 0
M  V30 229 H 24.3295 0.128637 5.48749 0
M  V30 230 H 24.5905 -1.11758 4.27741 0
M  V30 231 N 23.6496 -1.47581 0.552962 0
M  V30 232 C 24.5966 -2.29957 -0.197108 0
M  V30 233 C 25.5666 -1.38799 -0.912359 0
M  V30 234 O 26.7516 -1.67761 -0.908888 0
M  V30 235 C 23.8916 -3.22672 -1.22379 0
M  V30 236 C 23.0046 -4.28919 -0.515038 0
M  V30 237 C 22.1396 -5.0879 -1.52664 0
M  V30 238 C 21.1786 -6.06815 -0.802631 0
M  V30 239 N 20.3156 -6.7966 -1.76086 0
M  V30 240 H 25.1556 -2.93578 0.511486 0
M  V30 241 H 22.6926 -1.4471 0.264067 0
M  V30 242 H 24.6506 -3.74845 -1.83159 0
M  V30 243 H 23.2806 -2.60925 -1.90047 0
M  V30 244 H 22.3326 -3.79835 0.207192 0
M  V30 245 H 23.6446 -4.98773 0.0523425 0
M  V30 246 H 22.7986 -5.65091 -2.20809 0
M  V30 247 H 21.5376 -4.38828 -2.12794 0
M  V30 248 H 20.5426 -5.49695 -0.107238 0
M  V30 249 H 21.7676 -6.78784 -0.207135 0
M  V30 250 H 19.7136 -6.12432 -2.35081 0
M  V30 251 H 19.6306 -7.45669 -1.24552 0
M  V30 252 H 20.8986 -7.40538 -2.43359 0
M  V30 253 N 25.1277 -0.289203 -1.54924 0
M  V30 254 C 26.0607 0.633823 -2.19221 0
M  V30 255 C 27.0387 1.14174 -1.15772 0
M  V30 256 O 28.2227 1.21211 -1.44361 0
M  V30 257 C 25.3497 1.86592 -2.82668 0
M  V30 258 C 24.3957 1.49227 -3.99542 0
M  V30 259 S 25.2287 0.558312 -5.32582 0
M  V30 260 C 26.3847 1.79847 -5.99505 0
M  V30 261 H 26.6177 0.0875416 -2.97171 0
M  V30 262 H 24.1507 -0.0733899 -1.54225 0
M  V30 263 H 26.1087 2.57305 -3.19851 0
M  V30 264 H 24.7697 2.38335 -2.04585 0
M  V30 265 H 23.9627 2.40945 -4.42676 0
M  V30 266 H 23.5647 0.865193 -3.63855 0
M  V30 267 H 25.8567 2.7406 -6.19595 0
M  V30 268 H 26.7997 1.4099 -6.93922 0
M  V30 269 H 27.2077 1.96982 -5.29016 0
M  V30 270 N 26.6058 1.57591 -0.0167156 0
M  V30 271 C 27.8308 1.9598 0.67872 0
M  V30 272 C 28.2558 0.892546 1.65575 0
M  V30 273 O 27.6138 -0.147772 1.80697 0
M  V30 274 C 27.6618 3.33468 1.37227 0
M  V30 275 O 26.7658 3.28954 2.48722 0
M  V30 276 H 26.1068 0.639339 0.17928 0
M  V30 277 H 28.6368 2.04463 -0.0748802 0
M  V30 278 H 28.6468 3.69417 1.7319 0
M  V30 279 H 27.3218 4.10694 0.656007 0
M  V30 280 H 25.8988 3.04705 2.14963 0
M  V30 281 N 28.0839 -0.256276 1.55502 0
M  V30 282 C 29.3239 -0.993081 1.78654 0
M  V30 283 C 29.6879 -1.8288 0.584724 0
M  V30 284 O 30.8889 -2.59665 0.694822 0
M  V30 285 C 29.1599 -1.83856 3.06483 0
M  V30 286 S 30.7189 -2.63573 3.5082 0
M  V30 287 H 27.5369 -0.334199 0.62756 0
M  V30 288 H 30.1389 -0.26184 1.93739 0
M  V30 289 H 28.8429 -1.21414 3.92029 0
M  V30 290 H 28.3739 -2.61271 2.94111 0
M  V30 291 H 30.3889 -3.86312 3.11412 0
M  V30 292 N 29.562 -1.4872 -0.521534 0
M  V30 293 C 30.509 -1.63871 -1.62527 0
M  V30 294 C 31.479 -0.480559 -1.58996 0
M  V30 295 O 32.664 -0.705085 -1.77294 0
M  V30 296 C 29.804 -1.69227 -3.00759 0
M  V30 297 C 28.917 -2.96207 -3.14461 0
M  V30 298 C 28.052 -2.92671 -4.43303 0
M  V30 299 C 27.091 -4.14318 -4.50563 0
M  V30 300 N 26.228 -4.0881 -5.70805 0
M  V30 301 H 31.068 -2.58123 -1.48918 0
M  V30 302 H 28.605 -1.28 -0.724878 0
M  V30 303 H 30.563 -1.70314 -3.80853 0
M  V30 304 H 29.193 -0.784586 -3.1312 0
M  V30 305 H 28.245 -3.04826 -2.27564 0
M  V30 306 H 29.557 -3.86192 -3.15686 0
M  V30 307 H 28.711 -2.92206 -5.31696 0
M  V30 308 H 27.45 -2.00429 -4.44612 0
M  V30 309 H 26.455 -4.15049 -3.60575 0
M  V30 310 H 27.68 -5.07729 -4.50986 0
M  V30 311 H 25.626 -3.19394 -5.72995 0
M  V30 312 H 25.543 -4.92509 -5.7356 0
M  V30 313 H 26.811 -4.12418 -6.61462 0
M  V30 314 N 31.0401 0.771051 -1.3745 0
M  V30 315 C 32.0031 1.86598 -1.33093 0
M  V30 316 C 33.0031 1.59076 -0.234845 0
M  V30 317 O 34.1931 1.67145 -0.490732 0
M  V30 318 C 31.3251 3.23747 -1.06773 0
M  V30 319 H 32.5181 1.91873 -2.30488 0
M  V30 320 H 30.0711 0.970876 -1.2249 0
M  V30 321 H 30.8061 3.24148 -0.099129 0
M  V30 322 H 30.5911 3.45115 -1.86112 0
M  V30 323 H 32.0811 4.03824 -1.06377 0
M  V30 324 N 32.5182 1.22032 0.997298 0
M  V30 325 C 33.7432 1.06921 1.77715 0
M  V30 326 C 34.1682 -0.376226 1.84299 0
M  V30 327 O 33.5262 -1.27165 1.29223 0
M  V30 328 C 33.5742 1.67996 3.19076 0
M  V30 329 O 32.6782 0.930653 4.01762 0
M  V30 330 H 32.0192 0.375814 0.547412 0
M  V30 331 H 34.5492 1.61737 1.25309 0
M  V30 332 H 34.5592 1.72538 3.69723 0
M  V30 333 H 33.2342 2.73182 3.13599 0
M  V30 334 H 31.8112 0.960917 3.60307 0
M  V30 335 N 33.9963 -1.19345 1.0293 0
M  V30 336 C 35.2443 -1.88665 0.724574 0
M  V30 337 C 35.5653 -1.80036 -0.749144 0
M  V30 338 O 34.8353 -1.2111 -1.53978 0
M  V30 339 H 33.4153 -0.698406 0.265025 0
M  V30 340 H 36.0773 -1.44885 1.30362 0
M  V30 341 H 35.1733 -2.94987 1.01926 0
M  V30 342 N 35.4744 -0.807222 -1.35358 0
M  V30 343 C 36.7044 -0.399796 -2.02695 0
M  V30 344 C 37.1124 0.994176 -1.60974 0
M  V30 345 O 36.4554 1.65209 -0.803226 0
M  V30 346 C 36.5174 -0.404445 -3.57218 0
M  V30 347 C 36.1814 -1.74904 -4.22206 0
M  V30 348 C 37.1784 -2.70743 -4.4384 0
M  V30 349 C 34.8634 -2.03322 -4.5931 0
M  V30 350 C 36.8574 -3.93183 -5.01683 0
M  V30 351 C 34.5444 -3.26026 -5.16866 0
M  V30 352 C 35.5424 -4.20774 -5.37994 0
M  V30 353 O 35.2304 -5.41312 -5.94337 0
M  V30 354 H 34.9624 -0.160517 -0.656666 0
M  V30 355 H 37.5164 -1.09235 -1.73945 0
M  V30 356 H 35.7464 0.344707 -3.85161 0
M  V30 357 H 37.4354 -0.0192429 -4.05895 0
M  V30 358 H 38.2014 -2.5008 -4.15554 0
M  V30 359 H 34.0804 -1.30384 -4.42178 0
M  V30 360 H 37.6244 -4.6715 -5.1809 0
M  V30 361 H 33.5214 -3.46559 -5.44579 0
M  V30 362 H 34.2894 -5.42618 -6.12787 0
M  V30 363 N 36.9525 1.47285 -0.560781 0
M  V30 364 C 38.1775 2.07359 -0.0410566 0
M  V30 365 C 38.6025 1.41017 1.24483 0
M  V30 366 O 37.9605 0.486368 1.74654 0
M  V30 367 C 38.0085 3.6035 0.134123 0
M  V30 368 O 37.1125 3.94681 1.19587 0
M  V30 369 H 36.4535 0.661887 -0.0529291 0
M  V30 370 H 38.9835 1.89252 -0.777482 0
M  V30 371 H 38.9935 4.0652 0.347207 0
M  V30 372 H 37.6685 4.08034 -0.805047 0
M  V30 373 H 36.2455 3.60251 0.962987 0
M  V30 374 N 38.4306 0.297415 1.54768 0
M  V30 375 C 39.6776 -0.312913 2.00068 0
M  V30 376 C 40.0056 -1.54171 1.18582 0
M  V30 377 O 39.2606 -1.94108 0.249133 0
M  V30 378 C 39.5596 -0.717561 3.50123 0
M  V30 379 C 39.2256 0.409095 4.4904 0
M  V30 380 C 37.8876 0.718399 4.75807 0
M  V30 381 C 40.2396 1.16717 5.07963 0
M  V30 382 C 37.5676 1.78896 5.5876 0
M  V30 383 C 39.9196 2.22762 5.92081 0
M  V30 384 C 38.5836 2.54303 6.1716 0
M  V30 385 H 37.8536 -0.114503 0.7321 0
M  V30 386 H 40.5006 0.415767 1.86932 0
M  V30 387 H 38.8056 -1.52627 3.60849 0
M  V30 388 H 40.5026 -1.20091 3.82595 0
M  V30 389 H 37.0926 0.157918 4.28309 0
M  V30 390 H 41.2766 0.941466 4.87289 0
M  V30 391 H 36.5326 2.0381 5.7643 0
M  V30 392 H 40.7066 2.81962 6.36765 0
M  V30 393 H 38.3336 3.3739 6.81229 0
M  V30 394 N 39.9087 -1.5758 0.0250728 0
M  V30 395 C 41.1367 -1.9593 -0.664747 0
M  V30 396 C 41.5517 -0.901352 -1.65895 0
M  V30 397 O 40.9087 0.117255 -1.82123 0
M  V30 398 C 40.9597 -3.34342 -1.37468 0
M  V30 399 O 40.6807 -4.36079 -0.420324 0
M  V30 400 C 42.1817 -3.873 -2.1567 0
M  V30 401 H 39.4017 -0.645405 -0.183557 0
M  V30 402 H 41.9457 -2.04329 0.0836372 0
M  V30 403 H 40.1007 -3.27175 -2.0745 0
M  V30 404 H 40.5147 -5.16297 -0.923991 0
M  V30 405 H 41.9887 -4.86504 -2.60803 0
M  V30 406 H 42.4657 -3.21331 -2.99405 0
M  V30 407 H 43.0717 -3.97723 -1.50654 0
M  V30 408 N 41.3868 0.248026 -1.55636 0
M  V30 409 C 42.8028 0.596483 -1.48035 0
M  V30 410 C 43.0028 1.88386 -0.715039 0
M  V30 411 O 42.0588 2.51319 -0.243944 0
M  V30 412 C 43.3718 0.700258 -2.92433 0
M  V30 413 C 44.9198 0.792659 -3.02797 0
M  V30 414 C 45.3948 0.928005 -4.485 0
M  V30 415 N 46.8858 0.992903 -4.52433 0
M  V30 416 C 47.6208 1.11687 -5.62418 0
M  V30 417 N 47.1168 1.20645 -6.82214 0
M  V30 418 N 48.9098 1.14994 -5.50212 0
M  V30 419 H 41.0608 -0.597109 -2.03834 0
M  V30 420 H 43.3238 -0.205925 -0.925364 0
M  V30 421 H 43.0298 -0.175658 -3.51261 0
M  V30 422 H 42.9038 1.57255 -3.42857 0
M  V30 423 H 45.2908 1.65903 -2.4405 0
M  V30 424 H 45.3718 -0.104762 -2.55585 0
M  V30 425 H 45.0158 0.0661971 -5.07857 0
M  V30 426 H 44.9458 1.84045 -4.93391 0
M  V30 427 H 47.4368 0.935064 -3.66149 0
M  V30 428 H 47.7498 1.30008 -7.61786 0
M  V30 429 H 46.0948 1.17605 -6.84977 0
M  V30 430 H 49.2858 1.07643 -4.55555 0
M  V30 431 H 49.4588 1.24311 -6.35965 0
M  V30 432 N 42.8649 1.48995 0.513639 0
M  V30 433 C 44.0949 1.61297 1.291 0
M  V30 434 C 44.5029 0.278656 1.87137 0
M  V30 435 O 43.8459 -0.744325 1.67945 0
M  V30 436 C 43.9079 2.61326 2.46879 0
M  V30 437 C 43.5719 4.05993 2.09807 0
M  V30 438 C 44.5689 4.93183 1.64519 0
M  V30 439 C 42.2539 4.51642 2.19829 0
M  V30 440 C 44.2479 6.24056 1.2974 0
M  V30 441 C 41.9349 5.82532 1.84662 0
M  V30 442 C 42.9329 6.68562 1.3969 0
M  V30 443 O 42.6209 7.97014 1.04992 0
M  V30 444 H 42.3529 0.546236 0.39825 0
M  V30 445 H 44.9069 1.95673 0.62459 0
M  V30 446 H 43.1369 2.22104 3.16554 0
M  V30 447 H 44.8259 2.6329 3.08923 0
M  V30 448 H 45.5919 4.59147 1.56233 0
M  V30 449 H 41.4709 3.84855 2.53786 0
M  V30 450 H 45.0149 6.91161 0.945659 0
M  V30 451 H 40.9119 6.16099 1.92594 0
M  V30 452 H 41.6799 8.09913 1.18249 0
M  V30 453 N 44.343 -0.763751 1.37857 0
M  V30 454 C 45.589 -1.52396 1.3471 0
M  V30 455 C 45.944 -1.92288 -0.0656435 0
M  V30 456 O 45.237 -1.6181 -1.02606 0
M  V30 457 C 45.431 -2.79499 2.22745 0
M  V30 458 C 45.26 -2.52031 3.72438 0
M  V30 459 C 44.03 -2.45759 4.4151 0
M  V30 460 C 46.228 -2.19489 4.65112 0
M  V30 461 N 44.21 -2.1046 5.76697 0
M  V30 462 C 45.581 -1.94396 5.88736 0
M  V30 463 C 47.636 -2.05712 4.53417 0
M  V30 464 C 46.339 -1.56917 7.01975 0
M  V30 465 C 48.365 -1.69634 5.66549 0
M  V30 466 C 47.727 -1.45407 6.89229 0
M  V30 467 H 43.826 -0.55765 0.548225 0
M  V30 468 H 46.41 -0.890302 1.73152 0
M  V30 469 H 44.581 -3.4069 1.86507 0
M  V30 470 H 46.313 -3.45465 2.10798 0
M  V30 471 H 43.068 -2.61885 3.94605 0
M  V30 472 H 43.492 -1.95484 6.48163 0
M  V30 473 H 48.134 -2.23123 3.59133 0
M  V30 474 H 45.852 -1.38246 7.96187 0
M  V30 475 H 49.438 -1.59621 5.59475 0
M  V30 476 H 48.318 -1.17904 7.75286 0
M  V30 477 N 45.8211 -1.22559 -0.990812 0
M  V30 478 C 46.7541 -0.940773 -2.07905 0
M  V30 479 C 47.7321 0.117082 -1.62178 0
M  V30 480 O 48.9161 -0.0149506 -1.88494 0
M  V30 481 C 46.0431 -0.415321 -3.36144 0
M  V30 482 C 45.0891 -1.45818 -4.00799 0
M  V30 483 S 45.9221 -3.03219 -4.41382 0
M  V30 484 C 47.0781 -2.52317 -5.72789 0
M  V30 485 H 47.3111 -1.8623 -2.31745 0
M  V30 486 H 44.8441 -1.05688 -1.12558 0
M  V30 487 H 46.8021 -0.118747 -4.10328 0
M  V30 488 H 45.4631 0.485121 -3.10331 0
M  V30 489 H 44.6561 -1.04044 -4.93144 0
M  V30 490 H 44.2581 -1.70356 -3.32949 0
M  V30 491 H 46.5501 -1.93688 -6.49224 0
M  V30 492 H 47.4931 -3.43161 -6.19392 0
M  V30 493 H 47.9011 -1.93529 -5.30289 0
M  V30 494 N 47.2992 1.18797 -1.03562 0
M  V30 495 C 48.2492 2.20161 -0.592724 0
M  V30 496 C 49.2332 1.56772 0.362133 0
M  V30 497 O 50.4252 1.76062 0.182009 0
M  V30 498 C 47.5542 3.43266 0.0481024 0
M  V30 499 C 46.6402 4.13786 -0.9296 0
M  V30 500 N 47.0312 4.60388 -2.09467 0
M  V30 501 C 45.3292 4.39572 -0.754499 0
M  V30 502 C 46.0302 5.14619 -2.71187 0
M  V30 503 N 45.0062 5.05826 -1.991 0
M  V30 504 H 48.8082 2.53877 -1.48066 0
M  V30 505 H 46.3222 1.34946 -0.903514 0
M  V30 506 H 48.3192 4.15136 0.383058 0
M  V30 507 H 46.9792 3.11048 0.931636 0
M  V30 508 H 47.9902 4.54999 -2.47379 0
M  V30 509 H 44.6672 4.17425 0.0793713 0
M  V30 510 H 46.0572 5.60917 -3.69895 0
M  V30 511 N 48.7773 0.814389 1.34928 0
M  V30 512 C 50.0233 0.408167 1.99263 0
M  V30 513 C 50.3783 -1.0154 1.63424 0
M  V30 514 O 49.6713 -1.69607 0.891289 0
M  V30 515 C 49.8653 0.537781 3.53331 0
M  V30 516 C 49.6943 1.9724 4.04137 0
M  V30 517 C 48.4643 2.60245 4.33129 0
M  V30 518 C 50.6623 2.93801 4.2212 0
M  V30 519 N 48.6443 3.95036 4.69914 0
M  V30 520 C 50.0153 4.1348 4.6199 0
M  V30 521 C 52.0703 2.9053 4.04348 0
M  V30 522 C 50.7733 5.3033 4.85945 0
M  V30 523 C 52.7993 4.06589 4.29464 0
M  V30 524 C 52.1613 5.25017 4.69613 0
M  V30 525 H 48.2603 0.197289 0.756704 0
M  V30 526 H 50.8443 1.05728 1.63492 0
M  V30 527 H 49.0153 -0.0813868 3.88315 0
M  V30 528 H 50.7473 0.105389 4.04563 0
M  V30 529 H 47.5023 2.11545 4.23728 0
M  V30 530 H 47.9263 4.64455 4.92555 0
M  V30 531 H 52.5683 2.00115 3.72443 0
M  V30 532 H 50.2863 6.21309 5.16721 0
M  V30 533 H 53.8723 4.05447 4.17257 0
M  V30 534 H 52.7523 6.1333 4.88667 0
M  V30 535 N 50.2554 -1.46986 0.568584 0
M  V30 536 C 51.5044 -2.01646 0.0465894 0
M  V30 537 C 51.8174 -1.44721 -1.31587 0
M  V30 538 O 53.0234 -1.91113 -1.92842 0
M  V30 539 C 51.4794 -3.59885 0.032752 0
M  V30 540 C 51.0874 -4.25804 1.39266 0
M  V30 541 C 52.8314 -4.22255 -0.436038 0
M  V30 542 C 50.7384 -5.76081 1.33732 0
M  V30 543 H 49.6684 -0.753876 0.013647 0
M  V30 544 H 52.3194 -1.68864 0.718131 0
M  V30 545 H 50.7014 -3.8968 -0.704669 0
M  V30 546 H 51.8754 -4.07637 2.1487 0
M  V30 547 H 50.1904 -3.7547 1.80032 0
M  V30 548 H 52.7874 -5.32394 -0.49602 0
M  V30 549 H 53.1304 -3.90212 -1.45053 0
M  V30 550 H 53.6634 -3.97033 0.246877 0
M  V30 551 H 50.4024 -6.12761 2.32817 0
M  V30 552 H 49.9224 -5.96553 0.623267 0
M  V30 553 H 51.6014 -6.38518 1.0442 0
M  V30 554 N 51.7335 -0.305618 -1.54608 0
M  V30 555 C 52.6805 0.568421 -2.23691 0
M  V30 556 C 53.6505 1.12592 -1.22116 0
M  V30 557 O 54.8355 1.16959 -1.50749 0
M  V30 558 C 51.9755 1.7322 -2.98477 0
M  V30 559 C 51.0885 1.20566 -4.14835 0
M  V30 560 C 50.2235 2.33368 -4.77193 0
M  V30 561 C 49.2625 1.7787 -5.85686 0
M  V30 562 N 48.3995 2.84263 -6.4198 0
M  V30 563 H 53.2395 -0.0272867 -2.97988 0
M  V30 564 H 50.7765 -0.0252363 -1.47078 0
M  V30 565 H 52.7345 2.41675 -3.40072 0
M  V30 566 H 51.3645 2.29947 -2.26548 0
M  V30 567 H 50.4165 0.413223 -3.78149 0
M  V30 568 H 51.7285 0.759417 -4.92985 0
M  V30 569 H 50.8825 3.09761 -5.21664 0
M  V30 570 H 49.6215 2.8132 -3.98385 0
M  V30 571 H 48.6265 0.99968 -5.40635 0
M  V30 572 H 49.8515 1.30816 -6.66381 0
M  V30 573 H 47.7975 3.31541 -5.66053 0
M  V30 574 H 47.7145 2.44149 -7.15491 0
M  V30 575 H 48.9825 3.6054 -6.91109 0
M  V30 576 N 53.2116 1.57565 -0.0334293 0
M  V30 577 C 54.1436 2.0739 0.975811 0
M  V30 578 C 55.1566 0.998166 1.2861 0
M  V30 579 O 56.3456 1.27426 1.25 0
M  V30 580 C 53.4456 2.4871 2.30209 0
M  V30 581 C 52.6186 3.79413 2.17634 0
M  V30 582 C 51.6776 4.07237 3.33233 0
M  V30 583 O 50.7036 4.77425 3.09927 0
M  V30 584 N 51.9056 3.5775 4.5716 0
M  V30 585 H 54.6706 2.94598 0.55066 0
M  V30 586 H 52.2316 1.61173 0.15323 0
M  V30 587 H 54.2236 2.64413 3.06378 0
M  V30 588 H 52.7936 1.66845 2.64351 0
M  V30 589 H 52.0136 3.73465 1.26165 0
M  V30 590 H 53.3016 4.65038 2.0644 0
M  V30 591 H 52.6996 3.00976 4.78989 0
M  V30 592 H 51.2566 3.78724 5.30482 0
M  V30 593 N 54.6897 -0.239769 1.55765 0
M  V30 594 C 56.1057 -0.588624 1.48349 0
M  V30 595 C 56.3057 -1.88005 0.72502 0
M  V30 596 O 55.3617 -2.51186 0.257269 0
M  V30 597 C 56.6747 -0.68474 2.928 0
M  V30 598 C 58.2227 -0.77659 3.03213 0
M  V30 599 C 58.6977 -0.904207 4.48986 0
M  V30 600 N 60.1887 -0.968896 4.52953 0
M  V30 601 C 60.9237 -1.08703 5.63002 0
M  V30 602 N 60.4197 -1.17026 6.82845 0
M  V30 603 N 62.2127 -1.12074 5.50814 0
M  V30 604 H 54.3637 0.607911 2.03515 0
M  V30 605 H 56.6267 0.21083 0.924259 0
M  V30 606 H 56.3327 0.194284 3.51163 0
M  V30 607 H 56.2067 -1.55435 3.43686 0
M  V30 608 H 58.5937 -1.64606 2.44926 0
M  V30 609 H 58.6747 0.118315 2.55526 0
M  V30 610 H 58.3187 -0.0392633 5.07885 0
M  V30 611 H 58.2487 -1.81426 4.9436 0
M  V30 612 H 60.7397 -0.915633 3.6664 0
M  V30 613 H 61.0527 -1.25966 7.62465 0
M  V30 614 H 59.3977 -1.13971 6.85591 0
M  V30 615 H 62.5887 -1.05226 4.5612 0
M  V30 616 H 62.7617 -1.20936 6.36615 0
M  V30 617 N 56.1678 -1.49265 -0.50573 0
M  V30 618 C 57.5788 -1.51769 -1.08734 0
M  V30 619 C 57.9298 -0.301192 -1.93874 0
M  V30 620 O 57.0548 0.589456 -2.08217 0
M  V30 621 C 57.6498 -2.75017 -1.97867 0
M  V30 622 C 56.2088 -2.80314 -2.51199 0
M  V30 623 C 55.3558 -2.4562 -1.28709 0
M  V30 624 H 58.3068 -1.56031 -0.289855 0
M  V30 625 H 58.3278 -2.5491 -2.82491 0
M  V30 626 H 57.8398 -3.63539 -1.35873 0
M  V30 627 H 55.9408 -1.96061 -3.16845 0
M  V30 628 H 56.0538 -3.82366 -2.88675 0
M  V30 629 H 54.4178 -1.97297 -1.61078 0
M  V30 630 H 55.2008 -3.36411 -0.6843 0
M  V30 631 N 57.6459 0.756429 -1.3826 0
M  V30 632 C 58.8939 1.51248 -1.34047 0
M  V30 633 C 59.2149 1.94875 0.0698372 0
M  V30 634 O 58.4849 1.67436 1.01696 0
M  V30 635 H 57.0649 0.561018 -0.493222 0
M  V30 636 H 59.7269 0.899347 -1.7291 0
M  V30 637 H 58.8229 2.40472 -1.98947 0
M  V30 638 N 59.124 1.23083 0.984299 0
M  V30 639 C 60.056 0.96636 2.07832 0
M  V30 640 C 61.069 -0.0582135 1.62696 0
M  V30 641 O 62.258 0.176843 1.77622 0
M  V30 642 C 59.358 0.433397 3.36117 0
M  V30 643 C 58.531 1.51722 4.10243 0
M  V30 644 C 57.59 0.989821 5.16807 0
M  V30 645 O 56.616 1.67794 5.43906 0
M  V30 646 N 57.818 -0.184367 5.80207 0
M  V30 647 H 60.583 1.90824 2.31098 0
M  V30 648 H 58.144 1.13888 1.1507 0
M  V30 649 H 60.136 0.065699 4.04647 0
M  V30 650 H 58.706 -0.413806 3.09849 0
M  V30 651 H 57.926 2.05786 3.36223 0
M  V30 652 H 59.214 2.24619 4.56534 0
M  V30 653 H 58.612 -0.760062 5.60571 0
M  V30 654 H 57.169 -0.493366 6.4993 0
M  V30 655 N 60.6021 -1.18246 1.0419 0
M  V30 656 C 61.8501 -1.87886 0.744543 0
M  V30 657 C 62.1711 -1.8082 -0.730006 0
M  V30 658 O 61.4411 -1.22736 -1.52685 0
M  V30 659 H 60.0211 -0.695556 0.272417 0
M  V30 660 H 62.6831 -1.43494 1.31892 0
M  V30 661 H 61.7791 -2.9389 1.05049 0
M  V30 662 N 62.0802 -0.821533 -1.34494 0
M  V30 663 C 63.0102 -0.257138 -2.3208 0
M  V30 664 C 63.9912 0.625645 -1.58176 0
M  V30 665 O 65.1762 0.552811 -1.86166 0
M  V30 666 C 62.3062 0.582958 -3.42372 0
M  V30 667 C 61.2602 -0.202571 -4.2752 0
M  V30 668 C 60.5862 0.760179 -5.29269 0
M  V30 669 C 61.8862 -1.40998 -5.02908 0
M  V30 670 H 63.5802 -1.07247 -2.79532 0
M  V30 671 H 61.1262 -0.517163 -1.34393 0
M  V30 672 H 63.0792 0.987972 -4.09655 0
M  V30 673 H 61.8032 1.43133 -2.93565 0
M  V30 674 H 60.4622 -0.588936 -3.61838 0
M  V30 675 H 60.1102 1.60447 -4.76724 0
M  V30 676 H 59.8102 0.238809 -5.87115 0
M  V30 677 H 61.3342 1.16308 -5.9942 0
M  V30 678 H 62.7482 -1.07905 -5.63054 0
M  V30 679 H 61.1452 -1.86689 -5.70322 0
M  V30 680 H 62.2152 -2.1889 -4.32684 0
M  V30 681 N 63.5583 1.46682 -0.576371 0
M  V30 682 C 64.4683 2.34032 0.163141 0
M  V30 683 C 65.4843 1.49367 0.892501 0
M  V30 684 O 66.6603 1.82252 0.857106 0
M  V30 685 C 63.7253 3.26435 1.16795 0
M  V30 686 C 62.7863 4.26998 0.443944 0
M  V30 687 C 62.0193 5.14986 1.40088 0
M  V30 688 O 62.2423 5.05785 2.637 0
M  V30 689 O 61.1763 5.94906 0.914917 0
M  V30 690 H 65.0023 2.98607 -0.55388 0
M  V30 691 H 62.5873 1.45554 -0.336821 0
M  V30 692 H 64.4693 3.83459 1.74748 0
M  V30 693 H 63.1443 2.64465 1.86655 0
M  V30 694 H 62.0513 3.7368 -0.177271 0
M  V30 695 H 63.3843 4.91736 -0.213566 0
M  V30 696 N 65.0364 0.313813 1.54444 0
M  V30 697 C 66.2824 -0.284918 2.01395 0
M  V30 698 C 66.6374 -1.50537 1.19818 0
M  V30 699 O 65.9304 -1.89692 0.269748 0
M  V30 700 C 66.1244 -0.680386 3.50864 0
M  V30 701 C 65.9534 0.500198 4.4691 0
M  V30 702 C 64.7234 0.996248 4.95382 0
M  V30 703 C 66.9214 1.34928 4.96285 0
M  V30 704 N 64.9034 2.14226 5.75309 0
M  V30 705 C 66.2744 2.3426 5.7404 0
M  V30 706 C 68.3294 1.37818 4.78446 0
M  V30 707 C 67.0324 3.36272 6.35856 0
M  V30 708 C 69.0584 2.38695 5.4109 0
M  V30 709 C 68.4204 3.36755 6.18688 0
M  V30 710 H 64.5194 -0.0683689 0.779006 0
M  V30 711 H 67.1034 0.44664 1.89508 0
M  V30 712 H 65.2744 -1.38109 3.63016 0
M  V30 713 H 67.0064 -1.25975 3.84594 0
M  V30 714 H 63.7614 0.56912 4.70168 0
M  V30 715 H 64.1854 2.72005 6.19953 0
M  V30 716 H 68.8274 0.633747 4.18023 0
M  V30 717 H 66.5454 4.11627 6.95405 0
M  V30 718 H 70.1314 2.41721 5.29209 0
M  V30 719 H 69.0114 4.13535 6.66302 0
M  V30 720 N 66.5145 -1.57545 0.0417849 0
M  V30 721 C 67.7635 -1.91494 -0.633492 0
M  V30 722 C 68.0765 -0.921084 -1.72556 0
M  V30 723 O 69.2825 -1.15228 -2.45835 0
M  V30 724 C 67.7385 -3.40072 -1.17808 0
M  V30 725 C 67.3465 -4.47843 -0.118633 0
M  V30 726 C 69.0905 -3.8307 -1.82915 0
M  V30 727 C 66.9975 -5.87529 -0.675578 0
M  V30 728 H 65.9275 -0.714653 -0.24039 0
M  V30 729 H 68.5785 -1.83175 0.109148 0
M  V30 730 H 66.9605 -3.43364 -1.97274 0
M  V30 731 H 68.1345 -4.56128 0.654494 0
M  V30 732 H 66.4495 -4.14128 0.434414 0
M  V30 733 H 69.0465 -4.84794 -2.25563 0
M  V30 734 H 69.3895 -3.1881 -2.67705 0
M  V30 735 H 69.9225 -3.82255 -1.10119 0
M  V30 736 H 66.6615 -6.55362 0.134475 0
M  V30 737 H 66.1815 -5.82824 -1.4169 0
M  V30 738 H 67.8605 -6.36491 -1.1614 0
M  V30 739 N 67.9926 0.231505 -1.5589 0
M  V30 740 C 69.2406 0.955461 -1.78088 0
M  V30 741 C 69.5616 1.85262 -0.608533 0
M  V30 742 O 68.8316 1.92277 0.375035 0
M  V30 743 H 67.4116 0.355787 -0.656829 0
M  V30 744 H 70.0736 0.245751 -1.93344 0
M  V30 745 H 69.1696 1.56814 -2.69844 0
M  V30 746 N 69.4707 1.49531 0.497807 0
M  V30 747 C 70.4337 1.65916 1.58128 0
M  V30 748 C 71.4337 0.530825 1.51786 0
M  V30 749 O 72.6237 0.797342 1.54881 0
M  V30 750 C 69.7557 1.65951 2.9778 0
M  V30 751 H 70.9487 2.62556 1.44929 0
M  V30 752 H 68.5017 1.38611 0.722275 0
M  V30 753 H 69.2367 0.709065 3.16453 0
M  V30 754 H 69.0217 2.47897 3.03792 0
M  V30 755 H 70.5117 1.80673 3.76493 0
M  V30 756 N 70.9488 -0.749086 1.3866 0
M  V30 757 C 72.1978 -1.50371 1.3443 0
M  V30 758 C 72.5108 -1.95503 -0.0616397 0
M  V30 759 O 73.7168 -2.70554 -0.226489 0
M  V30 760 C 72.1728 -2.71644 2.36088 0
M  V30 761 C 71.7808 -2.3352 3.82325 0
M  V30 762 C 73.5248 -3.49518 2.40909 0
M  V30 763 C 71.4318 -3.51431 4.75658 0
M  V30 764 H 70.3618 -0.564628 0.499712 0
M  V30 765 H 73.0128 -0.818449 1.64237 0
M  V30 766 H 71.3948 -3.42175 1.9933 0
M  V30 767 H 72.5688 -1.70627 4.28046 0
M  V30 768 H 70.8838 -1.6877 3.80665 0
M  V30 769 H 73.4808 -4.37197 3.07836 0
M  V30 770 H 73.8238 -3.90992 1.42937 0
M  V30 771 H 74.3568 -2.86005 2.76489 0
M  V30 772 H 71.0958 -3.15019 5.74842 0
M  V30 773 H 70.6158 -4.13352 4.34627 0
M  V30 774 H 72.2948 -4.17953 4.93887 0
M  V30 775 N 72.4269 -1.23603 -0.977757 0
M  V30 776 C 73.6569 -1.09487 -1.75203 0
M  V30 777 C 74.0649 0.356321 -1.85814 0
M  V30 778 O 73.4079 1.25816 -1.33851 0
M  V30 779 C 73.4699 -1.64905 -3.19447 0
M  V30 780 C 73.1339 -3.13688 -3.32338 0
M  V30 781 C 74.1309 -4.10953 -3.18455 0
M  V30 782 C 71.8159 -3.53449 -3.56902 0
M  V30 783 C 73.8099 -5.45962 -3.28944 0
M  V30 784 C 71.4969 -4.88602 -3.6703 0
M  V30 785 C 72.4949 -5.84668 -3.53062 0
M  V30 786 O 72.1829 -7.17365 -3.62826 0
M  V30 787 H 71.9149 -0.38367 -0.556573 0
M  V30 788 H 74.4689 -1.6398 -1.23693 0
M  V30 789 H 72.6989 -1.04835 -3.72218 0
M  V30 790 H 74.3879 -1.46226 -3.78646 0
M  V30 791 H 75.1539 -3.81577 -2.99372 0
M  V30 792 H 71.0329 -2.79188 -3.66844 0
M  V30 793 H 74.5769 -6.20925 -3.17958 0
M  V30 794 H 70.4739 -5.17653 -3.85623 0
M  V30 795 H 71.2419 -7.2515 -3.79605 0
M  V30 796 N 73.905 1.17692 -1.04816 0
M  V30 797 C 75.316 1.69501 -0.782698 0
M  V30 798 C 75.667 1.83456 0.695577 0
M  V30 799 O 74.792 1.51942 1.54086 0
M  V30 800 C 75.387 3.07874 -1.41419 0
M  V30 801 C 73.946 3.56864 -1.19686 0
M  V30 802 C 73.093 2.3322 -1.50012 0
M  V30 803 H 76.044 1.02262 -1.2136 0
M  V30 804 H 76.065 3.71528 -0.821428 0
M  V30 805 H 75.577 2.97685 -2.49009 0
M  V30 806 H 73.678 3.72337 -0.140043 0
M  V30 807 H 73.791 4.39851 -1.89916 0
M  V30 808 H 72.155 2.37501 -0.920071 0
M  V30 809 H 72.938 2.25644 -2.58727 0
M  V30 810 N 75.3831 0.828654 1.34056 0
M  V30 811 C 76.6311 0.41863 1.97717 0
M  V30 812 C 76.9521 -1.02314 1.66002 0
M  V30 813 O 76.2221 -1.71119 0.953683 0
M  V30 814 H 74.8021 0.151809 0.731412 0
M  V30 815 H 77.4641 1.05936 1.63596 0
M  V30 816 H 76.5601 0.542318 3.07352 0
M  V30 817 N 76.8612 -1.46375 0.584142 0
M  V30 818 C 77.8092 -2.32042 -0.161047 0
M  V30 819 C 78.8032 -1.44569 -0.882966 0
M  V30 820 O 80.0092 -1.61186 -0.801191 0
M  V30 821 H 76.3842 -0.748659 -0.0708033 0
M  V30 822 H 78.3552 -2.92704 0.580269 0
M  V30 823 C 77.1042 -3.27762 -1.1605 0
M  V30 824 H 76.4272 -3.95051 -0.614419 0
M  V30 825 H 77.8672 -3.90481 -1.65228 0
M  V30 826 C 76.3262 -2.53218 -2.22221 0
M  V30 827 O 76.8562 -2.29628 -3.29597 0
M  V30 828 N 75.0622 -2.13756 -1.96868 0
M  V30 829 H 74.6092 -2.33142 -1.09557 0
M  V30 830 H 74.5672 -1.642 -2.68115 0
M  V30 831 N 78.3393 -0.321999 -1.54275 0
M  V30 832 C 79.5643 0.285791 -2.05422 0
M  V30 833 C 79.9893 1.45124 -1.19669 0
M  V30 834 O 79.3473 1.80132 -0.205441 0
M  V30 835 C 79.3953 0.69956 -3.53749 0
M  V30 836 O 78.4993 1.8021 -3.70942 0
M  V30 837 H 77.8403 0.0518962 -0.661969 0
M  V30 838 H 80.3703 -0.469954 -1.9913 0
M  V30 839 H 80.3803 0.982649 -3.9599 0
M  V30 840 H 79.0553 -0.152864 -4.15619 0
M  V30 841 H 77.6323 1.51794 -3.40607 0
M  V30 842 N 79.8174 1.5752 -0.0501392 0
M  V30 843 C 81.0944 1.83996 0.663685 0
M  V30 844 C 81.4744 0.938339 1.89099 0
M  V30 845 O 80.8224 -0.00087759 2.285 0
M  V30 846 C 81.0324 3.33702 1.02196 0
M  V30 847 C 82.3804 4.00691 1.40469 0
M  V30 848 O 83.4044 3.38321 1.11433 0
M  V30 849 O 82.2634 5.10658 1.94654 0
M  V30 850 H 79.3574 0.759385 0.32751 0
M  V30 851 H 81.9034 1.69514 -0.0794238 0
M  V30 852 H 80.6754 3.91015 0.149364 0
M  V30 853 H 80.2984 3.53368 1.82255 0
M  V30 854 N 81.2955 -0.223234 1.56011 0
M  V30 855 C 82.5235 -0.964812 1.83027 0
M  V30 856 C 82.9385 -1.78013 0.62904 0
M  V30 857 O 82.2955 -1.78008 -0.402414 0
M  V30 858 C 82.3465 -1.88373 3.08542 0
M  V30 859 O 82.0675 -1.10137 4.2403 0
M  V30 860 C 83.5685 -2.73934 3.48533 0
M  V30 861 H 80.7885 -0.282842 0.608475 0
M  V30 862 H 83.3325 -0.238971 2.03099 0
M  V30 863 H 81.4875 -2.56354 2.9045 0
M  V30 864 H 81.9015 -1.72501 4.95322 0
M  V30 865 H 83.3755 -3.34117 4.39397 0
M  V30 866 H 83.8525 -3.46244 2.70207 0
M  V30 867 H 84.4585 -2.11369 3.69057 0
M  V30 868 N 82.7736 -1.49793 -0.48987 0
M  V30 869 C 83.9986 -1.63836 -1.27172 0
M  V30 870 C 84.4236 -0.31402 -1.8546 0
M  V30 871 O 83.7816 0.719803 -1.66399 0
M  V30 872 C 83.8296 -2.71797 -2.36978 0
M  V30 873 O 82.9336 -2.31744 -3.41128 0
M  V30 874 H 82.2746 -0.547997 -0.37496 0
M  V30 875 H 84.8046 -1.96053 -0.585191 0
M  V30 876 H 84.8146 -2.94305 -2.82575 0
M  V30 877 H 83.4896 -3.67923 -1.93921 0
M  V30 878 H 82.0666 -2.1961 -3.01373 0
M  V30 879 N 84.2517 0.741722 -1.39055 0
M  V30 880 C 85.4817 1.52876 -1.3897 0
M  V30 881 C 85.8897 1.8919 0.0193266 0
M  V30 882 O 85.2327 1.54138 0.999356 0
M  V30 883 C 85.2947 2.84929 -2.19216 0
M  V30 884 C 84.9587 2.71086 -3.67915 0
M  V30 885 C 85.9557 2.40084 -4.61146 0
M  V30 886 C 83.6407 2.88168 -4.11418 0
M  V30 887 C 85.6347 2.26335 -5.95862 0
M  V30 888 C 83.3217 2.74037 -5.46211 0
M  V30 889 C 84.3197 2.43166 -6.38247 0
M  V30 890 O 84.0077 2.29115 -7.70559 0
M  V30 891 H 83.7397 0.479252 -0.476753 0
M  V30 892 H 86.2937 0.924751 -1.83405 0
M  V30 893 H 84.5237 3.47564 -1.69518 0
M  V30 894 H 86.2127 3.46509 -2.11392 0
M  V30 895 H 86.9787 2.26545 -4.28838 0
M  V30 896 H 82.8577 3.11191 -3.40119 0
M  V30 897 H 86.4017 2.0216 -6.67665 0
M  V30 898 H 82.2987 2.87153 -5.78112 0
M  V30 899 H 83.0667 2.44237 -7.81211 0
M  V30 900 N 85.7298 1.2412 0.971189 0
M  V30 901 C 86.6778 1.02812 2.08644 0
M  V30 902 C 87.6718 -0.0358403 1.69362 0
M  V30 903 O 88.8778 0.118429 1.7961 0
M  V30 904 H 85.2528 0.315428 0.682649 0
M  V30 905 H 87.2238 1.97397 2.23779 0
M  V30 906 C 85.9728 0.645874 3.41649 0
M  V30 907 H 85.2958 1.45632 3.72332 0
M  V30 908 H 86.7358 0.536366 4.20594 0
M  V30 909 C 85.1948 -0.646713 3.30635 0
M  V30 910 O 85.7248 -1.69338 3.64263 0
M  V30 911 N 83.9308 -0.626115 2.83775 0
M  V30 912 H 83.4778 0.225988 2.56607 0
M  V30 913 H 83.4358 -1.49117 2.76788 0
M  V30 914 N 87.2079 -1.17134 1.05439 0
M  V30 915 C 88.1399 -2.2078 0.615539 0
M  V30 916 C 89.1529 -1.59584 -0.322001 0
M  V30 917 O 90.3419 -1.78133 -0.114344 0
M  V30 918 C 87.4419 -3.38691 -0.118938 0
M  V30 919 C 86.6149 -4.29454 0.829924 0
M  V30 920 C 85.6739 -5.26024 0.136258 0
M  V30 921 O 84.6999 -5.63952 0.77115 0
M  V30 922 N 85.9019 -5.69487 -1.1254 0
M  V30 923 H 88.6669 -2.59052 1.50705 0
M  V30 924 H 86.2279 -1.32058 0.936603 0
M  V30 925 H 88.2199 -4.00329 -0.593179 0
M  V30 926 H 86.7899 -2.98996 -0.91215 0
M  V30 927 H 86.0099 -3.65211 1.48373 0
M  V30 928 H 87.2979 -4.86984 1.47392 0
M  V30 929 H 86.6959 -5.4075 -1.6615 0
M  V30 930 H 85.2529 -6.33257 -1.54366 0
M  V30 931 N 88.686 -0.835752 -1.33615 0
M  V30 932 C 89.633 -0.26473 -2.29277 0
M  V30 933 C 90.603 0.617712 -1.54187 0
M  V30 934 O 91.788 0.556641 -1.825 0
M  V30 935 C 88.928 0.556777 -3.40579 0
M  V30 936 C 88.041 -0.349339 -4.30585 0
M  V30 937 C 87.176 0.482969 -5.29 0
M  V30 938 C 86.215 -0.421732 -6.10645 0
M  V30 939 N 85.352 0.372262 -7.01112 0
M  V30 940 H 90.192 -1.08582 -2.77514 0
M  V30 941 H 87.729 -0.546927 -1.36554 0
M  V30 942 H 89.687 1.04852 -4.03809 0
M  V30 943 H 88.317 1.34286 -2.93542 0
M  V30 944 H 87.369 -0.959372 -3.68104 0
M  V30 945 H 88.681 -1.04445 -4.87742 0
M  V30 946 H 87.835 1.03866 -5.97743 0
M  V30 947 H 86.574 1.21153 -4.72412 0
M  V30 948 H 85.579 -0.989464 -5.40823 0
M  V30 949 H 86.804 -1.14861 -6.69316 0
M  V30 950 H 84.75 1.08426 -6.46977 0
M  V30 951 H 84.667 -0.264198 -7.55538 0
M  V30 952 H 85.935 0.910293 -7.74167 0
M  V30 953 N 90.1641 1.46063 -0.591896 0
M  V30 954 C 91.4111 2.02338 -0.0809991 0
M  V30 955 C 91.7391 1.46228 1.28249 0
M  V30 956 O 90.9941 0.620818 1.85592 0
M  V30 957 C 91.2931 3.57391 0.0249813 0
M  V30 958 C 90.9591 4.32583 -1.27211 0
M  V30 959 C 89.6211 4.52844 -1.62745 0
M  V30 960 C 91.9731 4.75687 -2.13005 0
M  V30 961 C 89.3011 5.13462 -2.83855 0
M  V30 962 C 91.6531 5.37644 -3.3335 0
M  V30 963 C 90.3171 5.5613 -3.69155 0
M  V30 964 H 89.5871 0.740407 -0.0296397 0
M  V30 965 H 92.2341 1.75321 -0.770374 0
M  V30 966 H 90.5391 3.83597 0.797537 0
M  V30 967 H 92.2361 3.98621 0.436184 0
M  V30 968 H 88.8261 4.17116 -0.985499 0
M  V30 969 H 93.0101 4.59782 -1.86855 0
M  V30 970 H 88.2661 5.25965 -3.11722 0
M  V30 971 H 92.4401 5.7 -4.00092 0
M  V30 972 H 90.0671 6.0287 -4.63089 0
M  V30 973 N 91.6422 0.330177 1.54103 0
M  V30 974 C 92.5522 -0.541534 2.28264 0
M  V30 975 C 93.5682 -1.12351 1.32866 0
M  V30 976 O 94.7442 -1.14206 1.65888 0
M  V30 977 C 91.8092 -1.68322 3.03098 0
M  V30 978 C 90.8702 -1.13238 4.14096 0
M  V30 979 C 90.1032 -2.21966 4.85352 0
M  V30 980 O 90.3262 -3.42437 4.56172 0
M  V30 981 O 89.2602 -1.87013 5.7211 0
M  V30 982 H 93.0862 0.060938 3.03639 0
M  V30 983 H 90.6712 0.09565 1.49093 0
M  V30 984 H 92.5532 -2.34777 3.49939 0
M  V30 985 H 91.2282 -2.27176 2.30593 0
M  V30 986 H 90.1352 -0.432736 3.71589 0
M  V30 987 H 91.4682 -0.588898 4.88664 0
M  V30 988 N 93.1203 -1.57491 0.0584922 0
M  V30 989 C 94.3683 -1.92597 -0.612436 0
M  V30 990 C 94.6893 -0.938162 -1.70949 0
M  V30 991 O 93.9593 0.0158301 -1.95894 0
M  V30 992 H 92.5393 -0.710964 -0.229214 0
M  V30 993 H 95.2013 -1.94571 0.113218 0
M  V30 994 H 94.2973 -2.94038 -1.04633 0
M  V30 995 N 94.5984 0.214957 -1.56127 0
M  V30 996 C 95.5454 1.26642 -1.92952 0
M  V30 997 C 96.5154 1.46244 -0.78753 0
M  V30 998 O 97.7004 1.59704 -1.04399 0
M  V30 999 C 94.8404 2.6104 -2.25726 0
M  V30 1000 C 93.9534 2.49183 -3.52891 0
M  V30 1001 C 93.0884 3.76149 -3.7508 0
M  V30 1002 C 92.1274 3.59041 -4.95738 0
M  V30 1003 N 91.2644 4.77972 -5.14283 0
M  V30 1004 H 96.1044 0.945384 -2.82607 0
M  V30 1005 H 93.6414 0.455489 -1.3987 0
M  V30 1006 H 95.5994 3.39313 -2.42739 0
M  V30 1007 H 94.2294 2.91227 -1.39236 0
M  V30 1008 H 93.2814 1.6231 -3.44034 0
M  V30 1009 H 94.5934 2.32466 -4.41318 0
M  V30 1010 H 93.7474 4.62865 -3.92226 0
M  V30 1011 H 92.4864 3.95799 -2.84947 0
M  V30 1012 H 91.4914 2.7071 -4.78535 0
M  V30 1013 H 92.7164 3.40856 -5.87362 0
M  V30 1014 H 90.6624 4.97923 -4.27093 0
M  V30 1015 H 90.5794 4.64006 -5.96853 0
M  V30 1016 H 91.8474 5.66096 -5.35869 0
M  V30 1017 N 96.0765 1.50051 0.48192 0
M  V30 1018 C 97.0395 1.67584 1.5636 0
M  V30 1019 C 98.0395 0.546894 1.51214 0
M  V30 1020 O 99.2295 0.813725 1.54026 0
M  V30 1021 C 96.3615 1.691 2.96003 0
M  V30 1022 H 97.5545 2.64078 1.42136 0
M  V30 1023 H 95.1075 1.39369 0.707533 0
M  V30 1024 H 95.8425 0.742589 3.15684 0
M  V30 1025 H 95.6275 2.51105 3.01146 0
M  V30 1026 H 97.1175 1.84656 3.74556 0
M  V30 1027 N 97.5546 -0.734337 1.39446 0
M  V30 1028 C 98.5016 -1.84835 1.38219 0
M  V30 1029 C 99.4716 -1.64331 0.24179 0
M  V30 1030 O 100.657 -1.85728 0.437002 0
M  V30 1031 C 97.7966 -3.22355 1.23212 0
M  V30 1032 C 96.9096 -3.5456 2.46801 0
M  V30 1033 C 96.0446 -4.81485 2.24377 0
M  V30 1034 C 95.0836 -5.06536 3.43639 0
M  V30 1035 N 94.2206 -6.24665 3.20528 0
M  V30 1036 H 99.0606 -1.85219 2.33448 0
M  V30 1037 H 96.5976 -0.905039 1.15963 0
M  V30 1038 H 98.5556 -4.0174 1.12522 0
M  V30 1039 H 97.1856 -3.21248 0.316121 0
M  V30 1040 H 96.2376 -2.69872 2.68092 0
M  V30 1041 H 97.5496 -3.6899 3.3563 0
M  V30 1042 H 96.7036 -5.68852 2.10933 0
M  V30 1043 H 95.4426 -4.6923 1.32944 0
M  V30 1044 H 94.4476 -4.17632 3.5758 0
M  V30 1045 H 95.6726 -5.20676 4.35974 0
M  V30 1046 H 93.6186 -6.13696 2.3176 0
M  V30 1047 H 93.5356 -6.39685 4.02913 0
M  V30 1048 H 94.8036 -7.14868 3.10779 0
M  V30 1049 N 99.0327 -1.24633 -0.964593 0
M  V30 1050 C 99.9627 -1.06611 -2.07741 0
M  V30 1051 C 100.944 0.0218666 -1.70086 0
M  V30 1052 O 102.129 -0.145793 -1.93652 0
M  V30 1053 C 99.2587 -0.673444 -3.40708 0
M  V30 1054 C 98.2127 -1.71054 -3.92332 0
M  V30 1055 C 97.5387 -1.17285 -5.21678 0
M  V30 1056 C 98.8387 -3.10718 -4.19824 0
M  V30 1057 H 100.533 -1.99693 -2.23076 0
M  V30 1058 H 98.0787 -0.96152 -1.07195 0
M  V30 1059 H 100.032 -0.534345 -4.17998 0
M  V30 1060 H 98.7557 0.293073 -3.25282 0
M  V30 1061 H 97.4147 -1.83791 -3.17201 0
M  V30 1062 H 97.0627 -0.196847 -5.02615 0
M  V30 1063 H 96.7627 -1.86592 -5.57187 0
M  V30 1064 H 98.2867 -1.04593 -6.01575 0
M  V30 1065 H 99.7007 -3.01192 -4.87808 0
M  V30 1066 H 98.0977 -3.77406 -4.66567 0
M  V30 1067 H 99.1677 -3.58524 -3.26479 0
M  V30 1068 N 100.511 1.16574 -1.06058 0
M  V30 1069 C 101.739 1.90952 -0.796552 0
M  V30 1070 C 102.154 1.77302 0.648808 0
M  V30 1071 O 101.511 1.11605 1.44397 0
M  V30 1072 C 101.562 3.41736 -1.17894 0
M  V30 1073 O 101.283 3.54975 -2.56758 0
M  V30 1074 C 102.784 4.33169 -0.942308 0
M  V30 1075 H 100.004 0.605594 -0.288959 0
M  V30 1076 H 102.548 1.47777 -1.41358 0
M  V30 1077 H 100.703 3.82623 -0.606491 0
M  V30 1078 H 101.117 4.4846 -2.72 0
M  V30 1079 H 102.591 5.37439 -1.25952 0
M  V30 1080 H 103.068 4.3903 0.122078 0
M  V30 1081 H 103.674 3.98007 -1.49902 0
M  V30 1082 N 101.989 0.842826 1.3317 0
M  V30 1083 C 102.952 0.284065 2.27433 0
M  V30 1084 C 103.952 -0.54948 1.5112 0
M  V30 1085 O 105.142 -0.362699 1.70382 0
M  V30 1086 C 102.274 -0.599384 3.35589 0
M  V30 1087 H 103.467 1.11589 2.78366 0
M  V30 1088 H 101.02 0.616221 1.4364 0
M  V30 1089 H 101.755 -1.45349 2.89904 0
M  V30 1090 H 101.54 -0.00291266 3.921 0
M  V30 1091 H 103.03 -0.983488 4.05854 0
M  V30 1092 N 103.467 -1.45747 0.599634 0
M  V30 1093 C 104.713 -2.02592 0.0918643 0
M  V30 1094 C 105.046 -1.46806 -1.27128 0
M  V30 1095 O 104.321 -0.639658 -1.83681 0
M  V30 1096 C 104.604 -3.60073 0.0443398 0
M  V30 1097 C 104.457 -4.26208 1.43759 0
M  V30 1098 C 105.776 -4.35309 -0.647608 0
M  V30 1099 H 102.895 -0.736175 0.034857 0
M  V30 1100 H 105.537 -1.73694 0.770081 0
M  V30 1101 H 103.687 -3.84823 -0.533224 0
M  V30 1102 H 105.359 -4.12668 2.06162 0
M  V30 1103 H 103.602 -3.84916 2.00056 0
M  V30 1104 H 104.273 -5.35069 1.35665 0
M  V30 1105 H 106.749 -4.15805 -0.156776 0
M  V30 1106 H 105.625 -5.45038 -0.649942 0
M  V30 1107 H 105.886 -4.07598 -1.71219 0
M  V30 1108 N 104.945 -0.338344 -1.53925 0
M  V30 1109 C 106.173 0.261298 -2.05243 0
M  V30 1110 C 106.588 1.44625 -1.21363 0
M  V30 1111 O 105.945 1.80811 -0.247736 0
M  V30 1112 C 105.996 0.681412 -3.5502 0
M  V30 1113 O 105.717 -0.456414 -4.35716 0
M  V30 1114 C 107.218 1.34232 -4.22489 0
M  V30 1115 H 104.438 0.0513685 -0.669031 0
M  V30 1116 H 106.982 -0.488822 -1.98572 0
M  V30 1117 H 105.137 1.38148 -3.61931 0
M  V30 1118 H 105.551 -0.122564 -5.24357 0
M  V30 1119 H 107.025 1.58708 -5.28693 0
M  V30 1120 H 107.502 2.29426 -3.74514 0
M  V30 1121 H 108.108 0.684424 -4.19757 0
M  V30 1122 N 106.423 1.57458 -0.0668435 0
M  V30 1123 C 107.648 1.9804 0.616027 0
M  V30 1124 C 108.073 0.944771 1.62652 0
M  V30 1125 O 107.431 -0.0902094 1.81075 0
M  V30 1126 C 107.479 3.37665 1.26549 0
M  V30 1127 O 106.583 3.36701 2.38131 0
M  V30 1128 H 105.924 0.644719 0.158849 0
M  V30 1129 H 108.454 2.04121 -0.139891 0
M  V30 1130 H 108.464 3.7474 1.6135 0
M  V30 1131 H 107.139 4.12573 0.525016 0
M  V30 1132 H 105.716 3.1139 2.0516 0
M  V30 1133 N 107.901 -0.206675 1.56239 0
M  V30 1134 C 108.864 -1.23976 1.92776 0
M  V30 1135 C 109.864 -1.39041 0.807729 0
M  V30 1136 O 111.054 -1.37051 1.0753 0
M  V30 1137 C 108.186 -2.61112 2.19165 0
M  V30 1138 H 109.379 -0.927764 2.85189 0
M  V30 1139 H 106.932 -0.447718 1.4975 0
M  V30 1140 H 107.667 -2.97386 1.29352 0
M  V30 1141 H 107.452 -2.51552 3.00772 0
M  V30 1142 H 108.942 -3.35633 2.48476 0
M  V30 1143 N 109.379 -1.50304 -0.473955 0
M  V30 1144 C 110.604 -1.65175 -1.25427 0
M  V30 1145 C 111.029 -0.333673 -1.85117 0
M  V30 1146 O 110.387 0.702114 -1.67153 0
M  V30 1147 C 110.435 -2.74295 -2.34082 0
M  V30 1148 O 109.539 -2.35349 -3.38651 0
M  V30 1149 H 108.88 -0.551944 -0.369126 0
M  V30 1150 H 111.41 -1.96662 -0.564364 0
M  V30 1151 H 111.42 -2.97285 -2.79438 0
M  V30 1152 H 110.095 -3.69959 -1.90008 0
M  V30 1153 H 108.672 -2.22794 -2.99027 0
M  V30 1154 N 110.857 0.726932 -1.39834 0
M  V30 1155 C 112.085 1.51613 -1.40787 0
M  V30 1156 C 112.5 1.88799 -0.00451505 0
M  V30 1157 O 111.857 1.54662 0.968809 0
M  V30 1158 C 111.908 2.79863 -2.28821 0
M  V30 1159 O 111.629 2.44253 -3.63692 0
M  V30 1160 C 113.13 3.73837 -2.38245 0
M  V30 1161 H 110.35 0.468264 -0.480593 0
M  V30 1162 H 112.894 0.897607 -1.83748 0
M  V30 1163 H 111.049 3.38027 -1.89252 0
M  V30 1164 H 111.463 3.26695 -4.1033 0
M  V30 1165 H 112.937 4.60699 -3.04073 0
M  V30 1166 H 113.414 4.16153 -1.40403 0
M  V30 1167 H 114.02 3.21589 -2.78317 0
M  V30 1168 N 112.336 1.25143 0.95797 0
M  V30 1169 C 113.299 1.05321 2.03569 0
M  V30 1170 C 114.299 0.007152 1.60798 0
M  V30 1171 O 115.489 0.24903 1.72411 0
M  V30 1172 C 112.621 0.598394 3.35607 0
M  V30 1173 H 113.814 2.00986 2.22586 0
M  V30 1174 H 111.367 1.07502 1.13459 0
M  V30 1175 H 112.102 -0.361014 3.22284 0
M  V30 1176 H 111.887 1.35351 3.67998 0
M  V30 1177 H 113.377 0.48104 4.1482 0
M  V30 1178 N 113.814 -1.1601 1.06675 0
M  V30 1179 C 115.044 -1.90251 0.805497 0
M  V30 1180 C 115.452 -1.77891 -0.64431 0
M  V30 1181 O 114.795 -1.12383 -1.45313 0
M  V30 1182 C 114.857 -3.41419 1.12576 0
M  V30 1183 C 114.521 -3.77564 2.57477 0
M  V30 1184 C 115.518 -3.79161 3.55715 0
M  V30 1185 C 113.203 -4.08079 2.92877 0
M  V30 1186 C 115.197 -4.10767 4.8739 0
M  V30 1187 C 112.884 -4.39351 4.24751 0
M  V30 1188 C 113.882 -4.40675 5.21818 0
M  V30 1189 O 113.57 -4.71202 6.51325 0
M  V30 1190 H 113.302 -0.610018 0.291297 0
M  V30 1191 H 115.856 -1.47958 1.4247 0
M  V30 1192 H 114.086 -3.84079 0.449503 0
M  V30 1193 H 115.775 -3.9694 0.84814 0
M  V30 1194 H 116.541 -3.55693 3.29708 0
M  V30 1195 H 112.42 -4.06211 2.17976 0
M  V30 1196 H 115.964 -4.11715 5.63148 0
M  V30 1197 H 111.861 -4.62285 4.50514 0
M  V30 1198 H 112.629 -4.88996 6.56373 0
M  V30 1199 N 115.292 -0.849877 -1.32721 0
M  V30 1200 C 116.225 -0.235903 -2.26977 0
M  V30 1201 C 117.203 0.623355 -1.50177 0
M  V30 1202 O 118.387 0.581207 -1.79316 0
M  V30 1203 C 115.514 0.667712 -3.32053 0
M  V30 1204 C 114.56 -0.11753 -4.26338 0
M  V30 1205 S 115.393 -1.48277 -5.14562 0
M  V30 1206 C 116.549 -0.584741 -6.23163 0
M  V30 1207 H 116.782 -1.03495 -2.78704 0
M  V30 1208 H 114.315 -0.64724 -1.40179 0
M  V30 1209 H 116.273 1.18343 -3.93072 0
M  V30 1210 H 114.934 1.44052 -2.7912 0
M  V30 1211 H 114.127 0.57051 -5.00761 0
M  V30 1212 H 113.729 -0.564668 -3.69713 0
M  V30 1213 H 116.021 0.212968 -6.77165 0
M  V30 1214 H 116.964 -1.29947 -6.96074 0
M  V30 1215 H 117.372 -0.161202 -5.6427 0
M  V30 1216 N 116.77 1.45427 -0.607355 0
M  V30 1217 C 117.68 2.34325 0.113463 0
M  V30 1218 C 118.696 1.51226 0.860617 0
M  V30 1219 O 119.872 1.84029 0.818255 0
M  V30 1220 C 116.937 3.28839 1.09844 0
M  V30 1221 C 115.998 4.27844 0.353271 0
M  V30 1222 C 115.231 5.17842 1.29133 0
M  V30 1223 O 115.454 5.11264 2.52913 0
M  V30 1224 O 114.388 5.96713 0.788523 0
M  V30 1225 H 118.214 2.97364 -0.617094 0
M  V30 1226 H 115.799 1.44807 -0.367619 0
M  V30 1227 H 117.681 3.8708 1.66575 0
M  V30 1228 H 116.356 2.68365 1.81003 0
M  V30 1229 H 115.263 3.7322 -0.256494 0
M  V30 1230 H 116.596 4.91173 -0.317822 0
M  V30 1231 N 118.248 0.346503 1.53744 0
M  V30 1232 C 119.178 -0.501193 2.28058 0
M  V30 1233 C 120.159 -1.10014 1.29734 0
M  V30 1234 O 121.344 -1.12097 1.58581 0
M  V30 1235 C 118.474 -1.65078 3.05559 0
M  V30 1236 C 117.428 -1.18003 4.11411 0
M  V30 1237 C 116.754 -2.41837 4.76884 0
M  V30 1238 C 118.054 -0.278394 5.21558 0
M  V30 1239 H 119.748 0.11875 2.99164 0
M  V30 1240 H 117.294 0.0585531 1.43881 0
M  V30 1241 H 119.247 -2.25028 3.56287 0
M  V30 1242 H 117.971 -2.29767 2.32109 0
M  V30 1243 H 116.63 -0.603331 3.61601 0
M  V30 1244 H 116.278 -3.0494 4.00026 0
M  V30 1245 H 115.978 -2.1102 5.48402 0
M  V30 1246 H 117.502 -3.02508 5.30397 0
M  V30 1247 H 118.916 -0.784823 5.67903 0
M  V30 1248 H 117.313 -0.0619707 6.00068 0
M  V30 1249 H 118.383 0.684677 4.80042 0
M  V30 1250 N 119.726 -1.57421 0.075193 0
M  V30 1251 C 120.951 -1.98364 -0.605515 0
M  V30 1252 C 121.376 -0.953383 -1.62149 0
M  V30 1253 O 120.734 0.0806053 -1.81121 0
M  V30 1254 C 120.782 -3.38332 -1.24756 0
M  V30 1255 O 119.886 -3.37959 -2.36342 0
M  V30 1256 H 119.227 -0.645553 -0.155428 0
M  V30 1257 H 121.757 -2.04044 0.150714 0
M  V30 1258 H 121.767 -3.75591 -1.5936 0
M  V30 1259 H 120.442 -4.12846 -0.503129 0
M  V30 1260 H 119.019 -3.12474 -2.03506 0
M  V30 1261 N 121.204 0.198386 -1.56346 0
M  V30 1262 C 122.429 0.939682 -1.84891 0
M  V30 1263 C 122.854 1.76202 -0.658369 0
M  V30 1264 O 122.212 1.76993 0.392851 0
M  V30 1265 C 122.26 1.81428 -3.11635 0
M  V30 1266 O 121.364 2.91265 -2.91956 0
M  V30 1267 H 120.705 0.264807 -0.608912 0
M  V30 1268 H 123.235 0.204695 -2.03573 0
M  V30 1269 H 123.245 2.21958 -3.42343 0
M  V30 1270 H 121.92 1.21004 -3.97908 0
M  V30 1271 H 120.497 2.54514 -2.72538 0
M  V30 1272 N 122.682 1.50554 0.465978 0
M  V30 1273 C 123.612 1.72722 1.57128 0
M  V30 1274 C 124.593 0.576294 1.6004 0
M  V30 1275 O 125.778 0.81598 1.76225 0
M  V30 1276 C 122.908 1.82605 2.95419 0
M  V30 1277 C 121.862 2.97835 3.07373 0
M  V30 1278 C 121.188 2.92867 4.47363 0
M  V30 1279 C 122.488 4.38265 2.84114 0
M  V30 1280 H 124.182 2.65267 1.38829 0
M  V30 1281 H 121.728 1.2765 0.666441 0
M  V30 1282 H 123.681 1.96698 3.72677 0
M  V30 1283 H 122.405 0.866858 3.14886 0
M  V30 1284 H 121.064 2.83401 2.3255 0
M  V30 1285 H 120.712 1.94783 4.63755 0
M  V30 1286 H 120.412 3.70227 4.56296 0
M  V30 1287 H 121.936 3.09015 5.26633 0
M  V30 1288 H 123.35 4.53198 3.51118 0
M  V30 1289 H 121.747 5.17115 3.04487 0
M  V30 1290 H 122.817 4.50281 1.7993 0
M  V30 1291 N 124.16 -0.719506 1.40217 0
M  V30 1292 C 125.388 -1.50864 1.41589 0
M  V30 1293 C 125.803 -1.88794 0.0145275 0
M  V30 1294 O 125.16 -1.55174 -0.960594 0
M  V30 1295 C 125.211 -2.78646 2.30302 0
M  V30 1296 O 124.932 -2.42321 3.64983 0
M  V30 1297 C 126.433 -3.72569 2.40224 0
M  V30 1298 H 123.653 -0.465709 0.48307 0
M  V30 1299 H 126.197 -0.88785 1.84221 0
M  V30 1300 H 124.352 -3.37019 1.91042 0
M  V30 1301 H 124.766 -3.24514 4.12057 0
M  V30 1302 H 126.24 -4.5908 3.06512 0
M  V30 1303 H 126.717 -4.15403 1.42608 0
M  V30 1304 H 127.323 -3.20109 2.80019 0
M  V30 1305 N 125.638 -1.25649 -0.95132 0
M  V30 1306 C 126.588 -1.03004 -2.03406 0
M  V30 1307 C 127.572 0.034187 -1.60864 0
M  V30 1308 O 128.764 -0.181549 -1.76066 0
M  V30 1309 C 125.893 -0.654255 -3.37008 0
M  V30 1310 C 124.979 -1.75542 -3.86065 0
M  V30 1311 N 125.37 -2.99113 -4.07879 0
M  V30 1312 C 123.668 -1.63669 -4.14884 0
M  V30 1313 C 124.369 -3.70611 -4.48356 0
M  V30 1314 N 123.345 -2.98247 -4.54477 0
M  V30 1315 H 127.147 -1.96813 -2.1827 0
M  V30 1316 H 124.661 -1.16017 -1.13639 0
M  V30 1317 H 126.658 -0.473206 -4.14206 0
M  V30 1318 H 125.318 0.276468 -3.23521 0
M  V30 1319 H 126.329 -3.35124 -3.94857 0
M  V30 1320 H 123.006 -0.775161 -4.10241 0
M  V30 1321 H 124.396 -4.76695 -4.73509 0
M  V30 1322 N 127.117 1.15442 -1.07289 0
M  V30 1323 C 128.027 2.23786 -0.704057 0
M  V30 1324 C 129.043 1.7166 0.284413 0
M  V30 1325 O 130.219 2.00972 0.131205 0
M  V30 1326 C 127.284 3.46535 -0.106792 0
M  V30 1327 C 126.345 4.13654 -1.14842 0
M  V30 1328 C 125.578 5.30544 -0.57956 0
M  V30 1329 O 125.801 5.67187 0.604585 0
M  V30 1330 O 124.735 5.87154 -1.32414 0
M  V30 1331 H 128.561 2.57664 -1.60757 0
M  V30 1332 H 126.146 1.23152 -0.845803 0
M  V30 1333 H 128.028 4.20804 0.224048 0
M  V30 1334 H 126.703 3.14407 0.770049 0
M  V30 1335 H 125.61 3.4131 -1.5316 0
M  V30 1336 H 126.943 4.49861 -1.99714 0
M  V30 1337 N 128.595 0.856903 1.32268 0
M  V30 1338 C 129.872 0.382583 1.91822 0
M  V30 1339 C 130.252 -1.13407 1.78051 0
M  V30 1340 O 129.6 -1.95673 1.18001 0
M  V30 1341 C 129.81 0.849446 3.38505 0
M  V30 1342 C 131.158 0.867936 4.15634 0
M  V30 1343 O 132.182 0.794232 3.47232 0
M  V30 1344 O 131.041 0.972286 5.37781 0
M  V30 1345 H 128.135 0.112014 0.819379 0
M  V30 1346 H 130.681 0.943952 1.41024 0
M  V30 1347 H 129.453 1.89267 3.42482 0
M  V30 1348 H 129.076 0.265652 3.96712 0
M  V30 1349 N 130.073 -1.45103 0.615059 0
M  V30 1350 C 131.298 -2.07064 0.117988 0
M  V30 1351 C 131.723 -1.4554 -1.19163 0
M  V30 1352 O 131.081 -0.550855 -1.72729 0
M  V30 1353 C 131.129 -3.606 -0.000288387 0
M  V30 1354 O 130.233 -3.98847 -1.04856 0
M  V30 1355 H 129.574 -0.659467 0.0774581 0
M  V30 1356 H 132.104 -1.86236 0.847186 0
M  V30 1357 H 132.114 -4.07529 -0.196091 0
M  V30 1358 H 130.789 -4.04765 0.955932 0
M  V30 1359 H 129.366 -3.63577 -0.828619 0
M  V30 1360 N 131.551 -0.354651 -1.53558 0
M  V30 1361 C 132.514 0.484566 -2.24019 0
M  V30 1362 C 133.514 1.01861 -1.24422 0
M  V30 1363 O 134.704 0.906097 -1.4878 0
M  V30 1364 C 131.836 1.67615 -2.96847 0
M  V30 1365 H 133.029 -0.131843 -2.9961 0
M  V30 1366 H 130.582 -0.106165 -1.55939 0
M  V30 1367 H 131.317 2.33095 -2.25471 0
M  V30 1368 H 131.102 1.30029 -3.69912 0
M  V30 1369 H 132.592 2.27114 -3.50441 0
M  V30 1370 N 133.029 1.57378 -0.0835403 0
M  V30 1371 C 134.275 1.94217 0.583733 0
M  V30 1372 C 134.608 0.964653 1.68547 0
M  V30 1373 O 133.883 -0.00422258 1.945 0
M  V30 1374 C 134.166 3.41253 1.14972 0
M  V30 1375 C 134.019 4.49768 0.0538277 0
M  V30 1376 C 135.338 3.89352 2.05166 0
M  V30 1377 H 132.457 0.706233 0.210724 0
M  V30 1378 H 135.099 1.89392 -0.1519 0
M  V30 1379 H 133.249 3.45496 1.77665 0
M  V30 1380 H 134.921 4.57641 -0.579851 0
M  V30 1381 H 133.164 4.29432 -0.614068 0
M  V30 1382 H 133.835 5.49817 0.490452 0
M  V30 1383 H 136.311 3.87189 1.52393 0
M  V30 1384 H 135.187 4.92822 2.41698 0
M  V30 1385 H 135.448 3.27973 2.96456 0
M  V30 1386 N 134.507 -0.190092 1.56449 0
M  V30 1387 C 135.737 -0.92443 1.84764 0
M  V30 1388 C 136.145 -1.77146 0.664529 0
M  V30 1389 O 135.488 -1.79812 -0.375957 0
M  V30 1390 C 135.55 -1.86651 3.07248 0
M  V30 1391 C 135.214 -1.20094 4.40938 0
M  V30 1392 C 136.211 -0.575445 5.16706 0
M  V30 1393 C 133.896 -1.2033 4.87674 0
M  V30 1394 C 135.89 0.0388111 6.37388 0
M  V30 1395 C 133.577 -0.585214 6.08291 0
M  V30 1396 C 134.575 0.0347578 6.82991 0
M  V30 1397 O 134.263 0.643147 8.01323 0
M  V30 1398 H 133.995 -0.274974 0.617548 0
M  V30 1399 H 136.549 -0.200788 2.04416 0
M  V30 1400 H 134.779 -2.62998 2.83494 0
M  V30 1401 H 136.468 -2.46907 3.22167 0
M  V30 1402 H 137.234 -0.565728 4.81689 0
M  V30 1403 H 133.113 -1.67526 4.29484 0
M  V30 1404 H 136.657 0.523329 6.95634 0
M  V30 1405 H 132.554 -0.592451 6.42775 0
M  V30 1406 H 133.322 0.540545 8.16713 0
M  V30 1407 N 135.985 -1.50799 -0.457987 0
M  V30 1408 C 137.215 -1.65977 -1.23025 0
M  V30 1409 C 137.623 -0.347918 -1.85974 0
M  V30 1410 O 136.966 0.68148 -1.70592 0
M  V30 1411 C 137.028 -2.70309 -2.3701 0
M  V30 1412 C 136.692 -4.135 -1.94594 0
M  V30 1413 C 137.689 -4.98949 -1.46101 0
M  V30 1414 C 135.374 -4.5949 -2.02915 0
M  V30 1415 C 137.368 -6.28442 -1.06489 0
M  V30 1416 C 135.055 -5.88984 -1.62914 0
M  V30 1417 C 136.053 -6.73286 -1.1478 0
M  V30 1418 O 135.741 -8.00362 -0.75339 0
M  V30 1419 H 135.473 -0.56064 -0.377702 0
M  V30 1420 H 138.027 -1.97857 -0.551537 0
M  V30 1421 H 136.257 -2.337 -3.08093 0
M  V30 1422 H 137.946 -2.74574 -2.98938 0
M  V30 1423 H 138.712 -4.6463 -1.39084 0
M  V30 1424 H 134.591 -3.94009 -2.39328 0
M  V30 1425 H 138.135 -6.94194 -0.688488 0
M  V30 1426 H 134.032 -6.22822 -1.69595 0
M  V30 1427 H 134.8 -8.13744 -0.88108 0
M  V30 1428 N 137.463 0.71206 -1.40597 0
M  V30 1429 C 138.703 1.48438 -1.40519 0
M  V30 1430 C 139.067 1.91998 -0.00767611 0
M  V30 1431 O 140.268 2.6854 0.118239 0
M  V30 1432 C 138.539 2.67514 -2.37004 0
M  V30 1433 S 140.098 3.56875 -2.55315 0
M  V30 1434 H 136.916 0.507457 -0.498005 0
M  V30 1435 H 139.518 0.832355 -1.76896 0
M  V30 1436 H 138.222 2.33689 -3.37368 0
M  V30 1437 H 137.753 3.37625 -2.01923 0
M  V30 1438 H 139.768 4.62081 -1.8082 0
M  V30 1439 N 138.941 1.26152 0.944643 0
M  V30 1440 C 140.166 1.14363 1.7302 0
M  V30 1441 C 140.591 -0.29772 1.85729 0
M  V30 1442 O 139.949 -1.2157 1.34501 0
M  V30 1443 C 139.997 1.81378 3.11664 0
M  V30 1444 O 139.101 1.10022 3.97453 0
M  V30 1445 H 138.442 0.398694 0.53098 0
M  V30 1446 H 140.972 1.66906 1.18337 0
M  V30 1447 H 140.982 1.88064 3.62072 0
M  V30 1448 H 139.657 2.86237 3.0173 0
M  V30 1449 H 138.234 1.11287 3.55907 0
M  V30 1450 N 140.419 -1.14872 1.07899 0
M  V30 1451 C 141.835 -1.37776 0.805606 0
M  V30 1452 C 142.035 -1.92743 -0.587555 0
M  V30 1453 O 141.091 -2.13678 -1.34528 0
M  V30 1454 C 142.404 -2.34361 1.88402 0
M  V30 1455 C 143.952 -2.48012 1.90942 0
M  V30 1456 C 144.427 -3.47893 2.97883 0
M  V30 1457 N 145.918 -3.55433 2.97021 0
M  V30 1458 C 146.653 -4.32553 3.76412 0
M  V30 1459 N 146.149 -5.12959 4.65666 0
M  V30 1460 N 147.942 -4.27697 3.64735 0
M  V30 1461 H 140.093 -0.775365 1.97742 0
M  V30 1462 H 142.356 -0.403521 0.857831 0
M  V30 1463 H 142.062 -2.01098 2.88535 0
M  V30 1464 H 141.936 -3.34206 1.74889 0
M  V30 1465 H 144.323 -2.8057 0.914579 0
M  V30 1466 H 144.404 -1.48147 2.08534 0
M  V30 1467 H 144.048 -3.16069 3.97571 0
M  V30 1468 H 143.978 -4.47527 2.77538 0
M  V30 1469 H 146.469 -2.98048 2.32326 0
M  V30 1470 H 146.782 -5.69065 5.22862 0
M  V30 1471 H 145.127 -5.12245 4.69712 0
M  V30 1472 H 148.318 -3.63949 2.94378 0
M  V30 1473 H 148.491 -4.8755 4.26848 0
M  V30 1474 N 141.898 -0.863906 -1.31812 0
M  V30 1475 C 143.175 -0.39275 -1.91616 0
M  V30 1476 C 143.555 1.12461 -1.7865 0
M  V30 1477 O 142.903 1.95045 -1.19037 0
M  V30 1478 C 143.113 -0.867385 -3.38049 0
M  V30 1479 C 144.461 -0.889966 -4.15168 0
M  V30 1480 O 145.485 -0.812635 -3.46806 0
M  V30 1481 O 144.344 -1.00079 -5.37258 0
M  V30 1482 H 141.438 -0.116358 -0.818773 0
M  V30 1483 H 143.984 -0.951418 -1.40521 0
M  V30 1484 H 142.756 -1.91081 -3.41473 0
M  V30 1485 H 142.379 -0.286687 -3.96565 0
M  V30 1486 N 143.376 1.44774 -0.622745 0
M  V30 1487 C 144.606 2.06187 -0.130532 0
M  V30 1488 C 145.014 1.46547 1.19669 0
M  V30 1489 O 144.357 0.579636 1.74316 0
M  V30 1490 C 144.419 3.59437 0.0674983 0
M  V30 1491 C 144.083 4.41496 -1.18026 0
M  V30 1492 C 145.08 4.75512 -2.102 0
M  V30 1493 C 142.765 4.82007 -1.41333 0
M  V30 1494 C 144.759 5.48912 -3.23998 0
M  V30 1495 C 142.446 5.55157 -2.55429 0
M  V30 1496 C 143.444 5.88528 -3.46589 0
M  V30 1497 O 143.132 6.60191 -4.58697 0
M  V30 1498 H 142.864 0.672045 -0.0730162 0
M  V30 1499 H 145.418 1.86768 -0.854802 0
M  V30 1500 H 143.648 3.77314 0.846825 0
M  V30 1501 H 145.337 4.02642 0.513209 0
M  V30 1502 H 146.103 4.4476 -1.93425 0
M  V30 1503 H 141.982 4.55457 -0.712709 0
M  V30 1504 H 145.526 5.74877 -3.95174 0
M  V30 1505 H 141.423 5.85324 -2.72151 0
M  V30 1506 H 142.191 6.78654 -4.57571 0
M  V30 1507 N 144.854 0.36279 1.53368 0
M  V30 1508 C 146.102 -0.227326 2.00817 0
M  V30 1509 C 146.423 -1.49511 1.25186 0
M  V30 1510 O 145.693 -1.92482 0.364348 0
M  V30 1511 H 144.273 -0.0869923 0.741917 0
M  V30 1512 H 146.935 0.488381 1.88682 0
M  V30 1513 H 146.031 -0.456273 3.08747 0
M  V30 1514 N 146.332 -1.57332 0.0918853 0
M  V30 1515 C 147.562 -1.98286 -0.580205 0
M  V30 1516 C 147.97 -0.969713 -1.6246 0
M  V30 1517 O 147.313 0.0493501 -1.83634 0
M  V30 1518 C 147.375 -3.35603 -1.28882 0
M  V30 1519 C 147.039 -4.55285 -0.395559 0
M  V30 1520 C 148.036 -5.18687 0.355002 0
M  V30 1521 C 145.721 -5.01314 -0.314556 0
M  V30 1522 C 147.715 -6.26484 1.17458 0
M  V30 1523 C 145.402 -6.08979 0.508677 0
M  V30 1524 C 146.4 -6.71429 1.2519 0
M  V30 1525 O 146.088 -7.77018 2.06151 0
M  V30 1526 H 145.82 -0.656678 -0.160466 0
M  V30 1527 H 148.374 -2.04721 0.16688 0
M  V30 1528 H 146.604 -3.25842 -2.08241 0
M  V30 1529 H 148.293 -3.61026 -1.85512 0
M  V30 1530 H 149.059 -4.84058 0.302134 0
M  V30 1531 H 144.938 -4.5247 -0.882697 0
M  V30 1532 H 148.482 -6.75159 1.75518 0
M  V30 1533 H 144.379 -6.4304 0.563037 0
M  V30 1534 H 145.147 -7.93991 1.98799 0
M  V30 1535 N 147.81 0.181792 -1.56548 0
M  V30 1536 C 149.04 0.914618 -1.85252 0
M  V30 1537 C 149.448 1.76791 -0.673914 0
M  V30 1538 O 148.791 1.80009 0.366416 0
M  V30 1539 C 148.853 1.85019 -3.08234 0
M  V30 1540 C 148.517 1.17754 -4.41569 0
M  V30 1541 C 149.514 0.548035 -5.17003 0
M  V30 1542 C 147.199 1.17742 -4.88305 0
M  V30 1543 C 149.193 -0.0726128 -6.37359 0
M  V30 1544 C 146.88 0.552946 -6.08593 0
M  V30 1545 C 147.878 -0.070978 -6.82963 0
M  V30 1546 O 147.566 -0.685635 -8.00971 0
M  V30 1547 H 147.298 0.271695 -0.618998 0
M  V30 1548 H 149.852 0.189944 -2.0452 0
M  V30 1549 H 148.082 2.61491 -2.84885 0
M  V30 1550 H 149.771 2.45195 -3.23472 0
M  V30 1551 H 150.537 0.540174 -4.81982 0
M  V30 1552 H 146.416 1.65246 -4.30366 0
M  V30 1553 H 149.96 -0.560213 -6.95347 0
M  V30 1554 H 145.857 0.558354 -6.43081 0
M  V30 1555 H 146.625 -0.58385 -8.16415 0
M  V30 1556 N 149.288 1.51039 0.449983 0
M  V30 1557 C 150.535 1.63081 1.20045 0
M  V30 1558 C 150.863 0.341024 1.91487 0
M  V30 1559 O 150.118 -0.674276 1.83717 0
M  V30 1560 C 150.417 2.77556 2.25161 0
M  V30 1561 C 150.083 4.17289 1.70823 0
M  V30 1562 C 148.745 4.55305 1.55725 0
M  V30 1563 C 151.097 5.04536 1.3074 0
M  V30 1564 C 148.425 5.78287 0.989999 0
M  V30 1565 C 150.777 6.28085 0.754482 0
M  V30 1566 C 149.441 6.64885 0.590308 0
M  V30 1567 H 148.711 0.596755 0.439277 0
M  V30 1568 H 151.358 1.85037 0.49333 0
M  V30 1569 H 149.663 2.49771 3.01863 0
M  V30 1570 H 151.36 2.84073 2.83026 0
M  V30 1571 H 147.95 3.8731 1.83546 0
M  V30 1572 H 152.134 4.75782 1.41229 0
M  V30 1573 H 147.39 6.05456 0.850451 0
M  V30 1574 H 151.564 6.95038 0.435324 0
M  V30 1575 H 149.191 7.60055 0.14862 0
M  V30 1576 N 150.766 -0.704594 1.40972 0
M  V30 1577 C 152.043 -1.45847 1.30338 0
M  V30 1578 C 152.423 -2.10973 -0.0732344 0
M  V30 1579 O 151.771 -2.00997 -1.08685 0
M  V30 1580 C 151.981 -2.48525 2.45023 0
M  V30 1581 C 153.329 -3.1404 2.8577 0
M  V30 1582 O 154.353 -2.58848 2.44696 0
M  V30 1583 O 153.212 -4.13981 3.56766 0
M  V30 1584 H 150.306 -0.649092 0.512454 0
M  V30 1585 H 152.852 -0.735836 1.52917 0
M  V30 1586 H 151.624 -1.98994 3.36923 0
M  V30 1587 H 151.247 -3.2831 2.24272 0
M  V30 1588 N 152.244 -1.26651 -0.937939 0
M  V30 1589 C 153.491 -1.12387 -1.6845 0
M  V30 1590 C 153.819 0.332208 -1.91642 0
M  V30 1591 O 153.074 1.2602 -1.49725 0
M  V30 1592 C 153.373 -1.84168 -3.06295 0
M  V30 1593 C 153.039 -3.34056 -3.02849 0
M  V30 1594 C 151.701 -3.74942 -3.01616 0
M  V30 1595 C 154.053 -4.29741 -2.9491 0
M  V30 1596 C 151.381 -5.09894 -2.90215 0
M  V30 1597 C 153.733 -5.64738 -2.8505 0
M  V30 1598 C 152.397 -6.0493 -2.82162 0
M  V30 1599 H 151.667 -0.411252 -0.616403 0
M  V30 1600 H 154.314 -1.57134 -1.09459 0
M  V30 1601 H 152.619 -1.319 -3.6893 0
M  V30 1602 H 154.316 -1.70569 -3.62915 0
M  V30 1603 H 150.906 -3.01534 -3.0459 0
M  V30 1604 H 155.09 -3.99133 -2.94969 0
M  V30 1605 H 150.346 -5.40194 -2.86358 0
M  V30 1606 H 154.52 -6.38561 -2.77872 0
M  V30 1607 H 152.147 -7.09457 -2.73084 0
M  V30 1608 N 153.722 1.14298 -1.08507 0
M  V30 1609 C 154.968 1.85854 -0.826438 0
M  V30 1610 C 155.323 1.81413 0.640878 0
M  V30 1611 O 154.616 1.23463 1.46518 0
M  V30 1612 C 154.81 3.33547 -1.28379 0
M  V30 1613 C 154.639 3.52369 -2.79403 0
M  V30 1614 C 153.409 3.67159 -3.47164 0
M  V30 1615 C 155.607 3.49203 -3.77573 0
M  V30 1616 N 153.589 3.74149 -4.86709 0
M  V30 1617 C 154.96 3.6245 -5.03021 0
M  V30 1618 C 157.015 3.32547 -3.70563 0
M  V30 1619 C 155.718 3.60761 -6.2229 0
M  V30 1620 C 157.744 3.32162 -4.89308 0
M  V30 1621 C 157.106 3.45949 -6.13595 0
M  V30 1622 H 153.205 0.696705 -0.355143 0
M  V30 1623 H 155.789 1.36981 -1.38362 0
M  V30 1624 H 153.96 3.81008 -0.754166 0
M  V30 1625 H 155.692 3.92867 -0.971469 0
M  V30 1626 H 152.447 3.68433 -2.9758 0
M  V30 1627 H 152.871 3.81359 -5.5937 0
M  V30 1628 H 157.513 3.20797 -2.75407 0
M  V30 1629 H 155.231 3.71286 -7.17755 0
M  V30 1630 H 158.817 3.20485 -4.85573 0
M  V30 1631 H 157.697 3.456 -7.03939 0
M  V30 1632 N 155.201 0.870884 1.31352 0
M  V30 1633 C 156.449 0.48132 1.96285 0
M  V30 1634 C 156.77 -0.969813 1.69173 0
M  V30 1635 O 156.04 -1.67998 1.00764 0
M  V30 1636 H 154.62 0.175002 0.726212 0
M  V30 1637 H 157.282 1.11087 1.60143 0
M  V30 1638 H 156.378 0.639825 3.05471 0
M  V30 1639 N 156.679 -1.44442 0.630414 0
M  V30 1640 C 157.611 -2.2892 -0.113347 0
M  V30 1641 C 158.624 -1.41243 -0.80959 0
M  V30 1642 O 159.813 -1.65402 -0.671156 0
M  V30 1643 C 156.913 -3.17594 -1.18266 0
M  V30 1644 C 156.086 -4.33682 -0.569073 0
M  V30 1645 C 155.145 -5.03397 -1.53226 0
M  V30 1646 O 154.171 -5.59438 -1.04967 0
M  V30 1647 N 155.373 -5.04783 -2.86661 0
M  V30 1648 H 158.138 -2.93392 0.611636 0
M  V30 1649 H 155.699 -1.54881 0.471523 0
M  V30 1650 H 157.691 -3.61097 -1.82732 0
M  V30 1651 H 156.261 -2.54876 -1.80988 0
M  V30 1652 H 155.481 -3.9338 0.254187 0
M  V30 1653 H 156.769 -5.08608 -0.139767 0
M  V30 1654 H 156.167 -4.60584 -3.28449 0
M  V30 1655 H 154.724 -5.52077 -3.46489 0
M  V30 1656 N 158.157 -0.370918 -1.53173 0
M  V30 1657 C 159.405 0.216673 -2.00935 0
M  V30 1658 C 159.726 1.48845 -1.25977 0
M  V30 1659 O 158.996 1.92286 -0.374551 0
M  V30 1660 H 157.576 0.0830565 -0.742368 0
M  V30 1661 H 160.238 -0.49838 -1.8842 0
M  V30 1662 H 159.334 0.439893 -3.08984 0
M  V30 1663 N 159.635 1.57281 -0.100228 0
M  V30 1664 C 160.863 1.98879 0.570509 0
M  V30 1665 C 161.278 0.979476 1.61405 0
M  V30 1666 O 160.635 -0.0302288 1.82475 0
M  V30 1667 C 160.686 3.4052 1.2136 0
M  V30 1668 O 160.407 4.37588 0.211786 0
M  V30 1669 C 161.908 3.97149 1.96945 0
M  V30 1670 H 159.128 0.653428 0.152555 0
M  V30 1671 H 161.672 2.03697 -0.18103 0
M  V30 1672 H 159.827 3.367 1.91603 0
M  V30 1673 H 160.241 5.20118 0.676607 0
M  V30 1674 H 161.715 4.98393 2.37294 0
M  V30 1675 H 162.192 3.3525 2.83733 0
M  V30 1676 H 162.798 4.04458 1.31506 0
M  V30 1677 N 161.113 -0.173488 1.56642 0
M  V30 1678 C 162.341 -0.906095 1.86004 0
M  V30 1679 C 162.756 -1.75921 0.685355 0
M  V30 1680 O 162.113 -1.79198 -0.345578 0
M  V30 1681 C 162.164 -1.78462 3.14378 0
M  V30 1682 O 161.885 -0.965914 4.27319 0
M  V30 1683 C 163.386 -2.62707 3.57071 0
M  V30 1684 H 160.606 -0.263341 0.617165 0
M  V30 1685 H 163.15 -0.174236 2.03756 0
M  V30 1686 H 161.305 -2.46984 2.98459 0
M  V30 1687 H 161.719 -1.56655 5.00559 0
M  V30 1688 H 163.193 -3.19969 4.49804 0
M  V30 1689 H 163.67 -3.37472 2.81086 0
M  V30 1690 H 164.276 -1.99521 3.75595 0
M  V30 1691 N 162.591 -1.51276 -0.441967 0
M  V30 1692 C 163.521 -1.752 -1.54361 0
M  V30 1693 C 164.502 -0.601682 -1.59103 0
M  V30 1694 O 165.687 -0.843913 -1.74905 0
M  V30 1695 C 162.817 -1.87282 -2.92477 0
M  V30 1696 C 161.771 -3.02687 -3.02596 0
M  V30 1697 C 161.097 -2.99947 -4.42647 0
M  V30 1698 C 162.397 -4.4273 -2.77106 0
M  V30 1699 H 164.091 -2.67442 -1.34592 0
M  V30 1700 H 161.637 -1.28694 -0.646048 0
M  V30 1701 H 163.59 -2.02602 -3.695 0
M  V30 1702 H 162.314 -0.916844 -3.13467 0
M  V30 1703 H 160.973 -2.87065 -2.28012 0
M  V30 1704 H 160.621 -2.02136 -4.60597 0
M  V30 1705 H 160.321 -3.77439 -4.50348 0
M  V30 1706 H 161.845 -3.17354 -5.2165 0
M  V30 1707 H 163.259 -4.58727 -3.43864 0
M  V30 1708 H 161.656 -5.21893 -2.96222 0
M  V30 1709 H 162.726 -4.53087 -1.72744 0
M  V30 1710 N 164.069 0.697108 -1.41344 0
M  V30 1711 C 165.297 1.48593 -1.43972 0
M  V30 1712 C 165.712 1.88747 -0.0445612 0
M  V30 1713 O 165.069 1.56682 0.935785 0
M  V30 1714 C 165.12 2.74946 -2.34706 0
M  V30 1715 O 164.841 2.36484 -3.68791 0
M  V30 1716 C 166.342 3.687 -2.46121 0
M  V30 1717 H 163.562 0.457964 -0.490418 0
M  V30 1718 H 166.106 0.858429 -1.8561 0
M  V30 1719 H 164.261 3.33937 -1.9638 0
M  V30 1720 H 164.675 3.17918 -4.17167 0
M  V30 1721 H 166.149 4.54145 -3.13777 0
M  V30 1722 H 166.626 4.13081 -1.49199 0
M  V30 1723 H 167.232 3.15613 -2.85076 0
M  V30 1724 N 165.547 1.27147 0.931209 0
M  V30 1725 C 166.793 1.13446 1.68101 0
M  V30 1726 C 167.126 -0.319628 1.91552 0
M  V30 1727 O 166.401 -1.23407 1.50336 0
M  V30 1728 C 166.684 1.91482 3.0497 0
M  V30 1729 C 166.537 3.44855 2.88782 0
M  V30 1730 C 167.856 1.71651 4.05246 0
M  V30 1731 H 164.975 0.413498 0.610072 0
M  V30 1732 H 167.617 1.56261 1.08086 0
M  V30 1733 H 165.767 1.55095 3.56199 0
M  V30 1734 H 167.439 3.9105 2.44698 0
M  V30 1735 H 165.682 3.71373 2.24198 0
M  V30 1736 H 166.353 3.94694 3.85902 0
M  V30 1737 H 168.829 2.0337 3.63015 0
M  V30 1738 H 167.705 2.28651 4.99009 0
M  V30 1739 H 167.966 0.663555 4.37092 0
M  V30 1740 N 167.025 -1.13721 1.09112 0
M  V30 1741 C 168.25 -1.89314 0.847053 0
M  V30 1742 C 168.675 -1.78416 -0.595774 0
M  V30 1743 O 168.033 -1.12942 -1.41823 0
M  V30 1744 C 168.081 -3.3701 1.28284 0
M  V30 1745 O 167.185 -4.10054 0.439267 0
M  V30 1746 H 166.526 -0.588745 0.307044 0
M  V30 1747 H 169.056 -1.43902 1.45442 0
M  V30 1748 H 169.066 -3.87834 1.26683 0
M  V30 1749 H 167.741 -3.4426 2.33363 0
M  V30 1750 H 166.318 -3.69266 0.519312 0
M  V30 1751 N 168.503 -0.877838 -1.30888 0
M  V30 1752 C 169.728 -0.506629 -2.01117 0
M  V30 1753 C 170.153 0.895564 -1.65412 0
M  V30 1754 O 169.511 1.5923 -0.866922 0
M  V30 1755 C 169.559 -0.680223 -3.54126 0
M  V30 1756 O 168.663 0.277033 -4.11468 0
M  V30 1757 H 168.004 -0.200518 -0.633 0
M  V30 1758 H 170.534 -1.18342 -1.66902 0
M  V30 1759 H 170.544 -0.5765 -4.03907 0
M  V30 1760 H 169.219 -1.70261 -3.79452 0
M  V30 1761 H 167.796 0.127606 -3.72682 0
M  V30 1762 N 169.982 1.44106 -0.638065 0
M  V30 1763 C 170.945 2.29138 0.0531013 0
M  V30 1764 C 171.945 1.41409 0.765506 0
M  V30 1765 O 173.135 1.63206 0.609046 0
M  V30 1766 C 170.267 3.23144 1.08584 0
M  V30 1767 H 171.46 2.91739 -0.694883 0
M  V30 1768 H 169.013 1.51134 -0.398538 0
M  V30 1769 H 169.748 2.65408 1.86357 0
M  V30 1770 H 169.533 3.87804 0.578852 0
M  V30 1771 H 171.023 3.87004 1.56899 0
M  V30 1772 N 171.46 0.379036 1.52974 0
M  V30 1773 C 172.685 -0.209353 2.06341 0
M  V30 1774 C 173.11 -1.40583 1.24972 0
M  V30 1775 O 172.468 -1.79246 0.272155 0
M  V30 1776 C 172.516 -0.567786 3.56102 0
M  V30 1777 O 171.62 -1.66318 3.77375 0
M  V30 1778 H 170.961 -0.0272919 0.663439 0
M  V30 1779 H 173.491 0.543536 1.97248 0
M  V30 1780 H 173.501 -0.835003 3.99364 0
M  V30 1781 H 172.176 0.307013 4.14765 0
M  V30 1782 H 170.753 -1.39048 3.46006 0
M  V30 1783 N 172.938 -1.57226 0.108567 0
M  V30 1784 C 174.166 -1.99179 -0.559954 0
M  V30 1785 C 174.581 -0.988022 -1.60884 0
M  V30 1786 O 173.938 0.0205512 -1.82488 0
M  V30 1787 C 173.989 -3.41159 -1.19552 0
M  V30 1788 O 173.71 -4.37694 -0.188577 0
M  V30 1789 C 175.211 -3.98188 -1.94837 0
M  V30 1790 H 172.431 -0.654228 -0.149088 0
M  V30 1791 H 174.975 -2.03598 0.19183 0
M  V30 1792 H 173.13 -3.37711 -1.89815 0
M  V30 1793 H 173.544 -5.20469 -0.649014 0
M  V30 1794 H 175.018 -4.99644 -2.34648 0
M  V30 1795 H 175.495 -3.3675 -2.81951 0
M  V30 1796 H 176.101 -4.0515 -1.2936 0
M  V30 1797 N 174.416 0.165178 -1.56732 0
M  V30 1798 C 175.363 1.2044 -1.96883 0
M  V30 1799 C 176.333 1.43664 -0.833657 0
M  V30 1800 O 177.518 1.56302 -1.09427 0
M  V30 1801 C 174.658 2.53727 -2.33916 0
M  V30 1802 C 173.771 2.3783 -3.6064 0
M  V30 1803 C 172.906 3.64026 -3.86857 0
M  V30 1804 C 171.945 3.43088 -5.06909 0
M  V30 1805 N 171.082 4.61369 -5.29229 0
M  V30 1806 H 175.922 0.854996 -2.85471 0
M  V30 1807 H 173.459 0.41076 -1.41249 0
M  V30 1808 H 175.417 3.31419 -2.53411 0
M  V30 1809 H 174.047 2.8665 -1.48431 0
M  V30 1810 H 173.099 1.51282 -3.49024 0
M  V30 1811 H 174.411 2.18308 -4.4849 0
M  V30 1812 H 173.565 4.50152 -4.06753 0
M  V30 1813 H 172.304 3.86533 -2.97394 0
M  V30 1814 H 171.309 2.55349 -4.86906 0
M  V30 1815 H 172.534 3.21997 -5.97909 0
M  V30 1816 H 170.48 4.84084 -4.42718 0
M  V30 1817 H 170.397 4.44783 -6.11313 0
M  V30 1818 H 171.665 5.48761 -5.53608 0
M  V30 1819 N 175.894 1.51508 0.433938 0
M  V30 1820 C 177.142 1.6402 1.18075 0
M  V30 1821 C 177.463 0.360328 1.91642 0
M  V30 1822 O 176.733 -0.623945 1.85698 0
M  V30 1823 H 175.313 0.6045 0.43885 0
M  V30 1824 H 177.975 1.88452 0.497178 0
M  V30 1825 H 177.071 2.46949 1.90847 0
M  V30 1826 N 177.372 -0.689602 1.41712 0
M  V30 1827 C 178.783 -1.26973 1.36875 0
M  V30 1828 C 179.134 -1.96124 0.054748 0
M  V30 1829 O 178.259 -1.99141 -0.84687 0
M  V30 1830 C 178.854 -2.30912 2.47922 0
M  V30 1831 C 177.413 -2.84486 2.46464 0
M  V30 1832 C 176.56 -1.58603 2.27465 0
M  V30 1833 H 179.511 -0.48396 1.51141 0
M  V30 1834 H 179.532 -3.12331 2.17323 0
M  V30 1835 H 179.044 -1.80554 3.43543 0
M  V30 1836 H 177.145 -3.39005 1.54617 0
M  V30 1837 H 177.258 -3.34511 3.42986 0
M  V30 1838 H 175.622 -1.84632 1.75451 0
M  V30 1839 H 176.405 -1.10233 3.25121 0
M  V30 1840 N 178.85 -1.27639 -0.924453 0
M  V30 1841 C 180.075 -1.17101 -1.71179 0
M  V30 1842 C 180.5 0.268134 -1.86179 0
M  V30 1843 O 179.858 1.19415 -1.36418 0
M  V30 1844 C 179.906 -1.86313 -3.08739 0
M  V30 1845 O 179.01 -1.16331 -3.95652 0
M  V30 1846 H 178.351 -0.407091 -0.524569 0
M  V30 1847 H 180.881 -1.68767 -1.15666 0
M  V30 1848 H 180.891 -1.938 -3.59034 0
M  V30 1849 H 179.566 -2.91001 -2.97138 0
M  V30 1850 H 178.143 -1.16935 -3.54091 0
M  V30 1851 N 180.328 1.1314 -1.09713 0
M  V30 1852 C 181.574 1.84757 -0.836224 0
M  V30 1853 C 181.907 1.8347 0.636598 0
M  V30 1854 O 181.182 1.27491 1.46889 0
M  V30 1855 C 181.465 3.32782 -1.37578 0
M  V30 1856 C 181.318 3.42567 -2.91493 0
M  V30 1857 C 182.637 4.28307 -1.01198 0
M  V30 1858 H 179.756 0.67082 -0.305236 0
M  V30 1859 H 182.398 1.3278 -1.35903 0
M  V30 1860 H 180.548 3.77177 -0.931097 0
M  V30 1861 H 182.22 3.06862 -3.44432 0
M  V30 1862 H 180.463 2.83349 -3.28475 0
M  V30 1863 H 181.134 4.46674 -3.24324 0
M  V30 1864 H 183.61 3.91999 -1.39556 0
M  V30 1865 H 182.486 5.30307 -1.41653 0
M  V30 1866 H 182.747 4.42029 0.0794833 0
M  V30 1867 N 181.806 0.884767 1.30421 0
M  V30 1868 C 183.053 0.503105 1.96151 0
M  V30 1869 C 183.381 -0.947676 1.69851 0
M  V30 1870 O 182.636 -1.68467 0.995861 0
M  V30 1871 C 182.935 0.724318 3.49983 0
M  V30 1872 C 182.601 2.15015 3.96332 0
M  V30 1873 C 181.263 2.54005 4.08699 0
M  V30 1874 C 183.615 3.07936 4.20505 0
M  V30 1875 C 180.943 3.85128 4.42599 0
M  V30 1876 C 183.295 4.3859 4.55874 0
M  V30 1877 C 181.959 4.77474 4.66449 0
M  V30 1878 H 181.229 0.184099 0.717766 0
M  V30 1879 H 183.876 1.12058 1.55291 0
M  V30 1880 H 182.181 0.0238086 3.91793 0
M  V30 1881 H 183.878 0.408617 3.98913 0
M  V30 1882 H 180.468 1.8375 3.87213 0
M  V30 1883 H 184.652 2.79033 4.10431 0
M  V30 1884 H 179.908 4.14996 4.48986 0
M  V30 1885 H 184.082 5.10629 4.7353 0
M  V30 1886 H 181.709 5.79115 4.92473 0
M  V30 1887 N 183.284 -1.43765 0.645699 0
M  V30 1888 C 184.695 -1.85193 0.236719 0
M  V30 1889 C 185.046 -1.54045 -1.21509 0
M  V30 1890 O 184.171 -0.985694 -1.92647 0
M  V30 1891 C 184.766 -3.36151 0.422845 0
M  V30 1892 C 183.325 -3.76338 0.0682492 0
M  V30 1893 C 182.472 -2.67538 0.729306 0
M  V30 1894 H 185.423 -1.34025 0.849883 0
M  V30 1895 H 185.444 -3.79032 -0.333904 0
M  V30 1896 H 184.956 -3.5879 1.47958 0
M  V30 1897 H 183.057 -3.59312 -0.986179 0
M  V30 1898 H 183.17 -4.76603 0.488469 0
M  V30 1899 H 181.534 -2.54176 0.163235 0
M  V30 1900 H 182.317 -2.93006 1.78892 0
M  V30 1901 N 184.763 -0.387143 -1.52771 0
M  V30 1902 C 185.693 0.440551 -2.29306 0
M  V30 1903 C 186.674 1.06535 -1.32606 0
M  V30 1904 O 187.859 1.07853 -1.61497 0
M  V30 1905 C 184.989 1.56919 -3.09829 0
M  V30 1906 C 183.943 1.07054 -4.14395 0
M  V30 1907 C 183.269 2.29109 -4.83129 0
M  V30 1908 C 184.569 0.140015 -5.22112 0
M  V30 1909 H 186.263 -0.198026 -2.98744 0
M  V30 1910 H 183.809 -0.09668 -1.43675 0
M  V30 1911 H 185.762 2.15503 -3.62128 0
M  V30 1912 H 184.486 2.23532 -2.3812 0
M  V30 1913 H 183.145 0.507247 -3.63074 0
M  V30 1914 H 182.793 2.94227 -4.0797 0
M  V30 1915 H 182.493 1.96406 -5.53804 0
M  V30 1916 H 184.017 2.88339 -5.38231 0
M  V30 1917 H 185.431 0.633978 -5.69784 0
M  V30 1918 H 183.828 -0.0971485 -6.00021 0
M  V30 1919 H 184.898 -0.811711 -4.78058 0
M  V30 1920 N 186.241 1.57166 -0.116904 0
M  V30 1921 C 187.204 2.14039 0.819742 0
M  V30 1922 C 188.204 1.07477 1.19605 0
M  V30 1923 O 189.394 1.33263 1.1219 0
M  V30 1924 C 186.526 2.67891 2.10826 0
M  V30 1925 H 187.719 2.98128 0.325511 0
M  V30 1926 H 185.272 1.55739 0.132312 0
M  V30 1927 H 186.007 1.87384 2.64685 0
M  V30 1928 H 185.792 3.45823 1.84793 0
M  V30 1929 H 187.282 3.11809 2.77785 0
M  V30 1930 N 187.719 -0.156864 1.56817 0
M  V30 1931 C 189.13 -0.717916 1.72345 0
M  V30 1932 C 189.481 -1.82124 0.729747 0
M  V30 1933 O 188.606 -2.16141 -0.105781 0
M  V30 1934 C 189.201 -1.30904 3.12489 0
M  V30 1935 C 187.76 -1.81676 3.29653 0
M  V30 1936 C 186.907 -0.701349 2.68284 0
M  V30 1937 H 189.858 0.0686989 1.58551 0
M  V30 1938 H 189.879 -2.17882 3.11942 0
M  V30 1939 H 189.391 -0.505796 3.8479 0
M  V30 1940 H 187.492 -2.64598 2.62333 0
M  V30 1941 H 187.605 -1.95226 4.3752 0
M  V30 1942 H 185.969 -1.12548 2.28484 0
M  V30 1943 H 186.752 0.0902846 3.43181 0
M  V30 1944 N 189.197 -1.51736 -0.425897 0
M  V30 1945 C 190.422 -1.69082 -1.20108 0
M  V30 1946 C 190.847 -0.392398 -1.83962 0
M  V30 1947 O 190.205 0.64858 -1.69302 0
M  V30 1948 C 190.253 -2.81604 -2.25237 0
M  V30 1949 O 189.357 -2.46004 -3.30992 0
M  V30 1950 H 188.698 -0.563408 -0.35138 0
M  V30 1951 H 191.228 -1.98358 -0.501512 0
M  V30 1952 H 191.238 -3.06025 -2.69838 0
M  V30 1953 H 189.913 -3.75817 -1.78142 0
M  V30 1954 H 188.49 -2.32195 -2.91787 0
M  V30 1955 N 190.675 0.682077 -1.42076 0
M  V30 1956 C 191.9 1.47558 -1.45744 0
M  V30 1957 C 192.325 1.87977 -0.0680981 0
M  V30 1958 O 191.683 1.55522 0.9318 0
M  V30 1959 C 191.731 2.70575 -2.38373 0
M  V30 1960 O 190.835 3.68573 -1.85007 0
M  V30 1961 H 190.176 0.443585 -0.494093 0
M  V30 1962 H 192.706 0.837238 -1.86686 0
M  V30 1963 H 192.716 3.18729 -2.54707 0
M  V30 1964 H 191.391 2.40495 -3.39315 0
M  V30 1965 H 189.968 3.2757 -1.78192 0
M  V30 1966 N 192.153 1.28127 0.917671 0
M  V30 1967 C 193.1 1.11717 2.0196 0
M  V30 1968 C 194.07 0.0153929 1.66093 0
M  V30 1969 O 195.255 0.179596 1.89953 0
M  V30 1970 C 192.395 0.780927 3.36148 0
M  V30 1971 C 191.508 1.96135 3.84909 0
M  V30 1972 C 190.643 1.56609 5.0759 0
M  V30 1973 C 189.682 2.71339 5.48673 0
M  V30 1974 N 188.819 2.32332 6.62545 0
M  V30 1975 H 193.659 2.06003 2.15329 0
M  V30 1976 H 191.196 1.02535 1.05475 0
M  V30 1977 H 193.154 0.56675 4.13333 0
M  V30 1978 H 191.784 -0.124998 3.22558 0
M  V30 1979 H 190.836 2.28777 3.03916 0
M  V30 1980 H 192.148 2.82165 4.1132 0
M  V30 1981 H 191.302 1.31374 5.92305 0
M  V30 1982 H 190.041 0.677014 4.82978 0
M  V30 1983 H 189.046 2.97276 4.62501 0
M  V30 1984 H 190.271 3.60882 5.75274 0
M  V30 1985 H 188.217 1.45889 6.39572 0
M  V30 1986 H 188.134 3.11899 6.88662 0
M  V30 1987 H 189.402 2.10371 7.50576 0
M  V30 1988 N 193.631 -1.12557 1.10312 0
M  V30 1989 C 194.856 -1.88405 0.867085 0
M  V30 1990 C 195.281 -1.79038 -0.576817 0
M  V30 1991 O 194.639 -1.14439 -1.40618 0
M  V30 1992 C 194.687 -3.3563 1.31851 0
M  V30 1993 O 193.791 -4.09565 0.482734 0
M  V30 1994 H 193.132 -0.585455 0.313271 0
M  V30 1995 H 195.662 -1.42352 1.4696 0
M  V30 1996 H 195.672 -3.86469 1.3079 0
M  V30 1997 H 194.347 -3.41765 2.37001 0
M  V30 1998 H 192.924 -3.68695 0.558448 0
M  V30 1999 N 195.109 -0.891671 -1.2995 0
M  V30 2000 C 196.337 -0.52866 -2.00032 0
M  V30 2001 C 196.752 0.884574 -1.66795 0
M  V30 2002 O 196.109 1.5827 -0.908669 0
M  V30 2003 C 196.16 -0.701814 -3.54622 0
M  V30 2004 O 195.881 -2.05942 -3.86678 0
M  V30 2005 C 197.382 -0.342683 -4.41973 0
M  V30 2006 H 194.602 -0.203659 -0.639347 0
M  V30 2007 H 197.146 -1.19881 -1.65677 0
M  V30 2008 H 195.301 -0.0789468 -3.8732 0
M  V30 2009 H 195.715 -2.08291 -4.81368 0
M  V30 2010 H 197.189 -0.514709 -5.49595 0
M  V30 2011 H 197.666 0.71975 -4.33262 0
M  V30 2012 H 198.272 -0.942154 -4.14733 0
M  V30 2013 N 196.587 1.43421 -0.653314 0
M  V30 2014 C 197.812 2.06678 -0.172846 0
M  V30 2015 C 198.237 1.48648 1.15262 0
M  V30 2016 O 197.595 0.596457 1.71208 0
M  V30 2017 C 197.643 3.60474 -0.0953184 0
M  V30 2018 O 196.747 4.01487 0.942442 0
M  V30 2019 H 196.088 0.657181 -0.0949155 0
M  V30 2020 H 198.618 1.83925 -0.896265 0
M  V30 2021 H 198.628 4.07905 0.0879728 0
M  V30 2022 H 197.303 4.02088 -1.06291 0
M  V30 2023 H 195.88 3.65646 0.731932 0
M  V30 2024 N 198.065 0.39524 1.52563 0
M  V30 2025 C 199.313 -0.184678 2.01254 0
M  V30 2026 C 199.634 -1.46822 1.28329 0
M  V30 2027 O 198.904 -1.91666 0.405094 0
M  V30 2028 H 197.484 -0.0712355 0.743596 0
M  V30 2029 H 200.146 0.528293 1.87603 0
M  V30 2030 H 199.242 -0.390681 3.09645 0
M  V30 2031 N 199.544 -1.57102 0.125237 0
M  V30 2032 C 200.792 -1.95021 -0.530198 0
M  V30 2033 C 201.113 -1.00982 -1.66816 0
M  V30 2034 O 200.383 -0.0672693 -1.95784 0
M  V30 2035 H 198.963 -0.720046 -0.198853 0
M  V30 2036 H 201.625 -1.93916 0.19564 0
M  V30 2037 H 200.721 -2.98211 -0.920681 0
M  V30 2038 N 201.022 0.148545 -1.56898 0
M  V30 2039 C 202.25 0.876389 -1.87422 0
M  V30 2040 C 202.665 1.74809 -0.713256 0
M  V30 2041 O 202.022 1.79725 0.317025 0
M  V30 2042 C 202.073 1.73438 -3.17178 0
M  V30 2043 O 201.794 0.897809 -4.28802 0
M  V30 2044 C 203.295 2.56993 -3.61205 0
M  V30 2045 H 200.515 0.253489 -0.621277 0
M  V30 2046 H 203.059 0.141798 -2.04008 0
M  V30 2047 H 201.214 2.42205 -3.0235 0
M  V30 2048 H 201.628 1.48672 -5.02988 0
M  V30 2049 H 203.102 3.12773 -4.54838 0
M  V30 2050 H 203.579 3.32958 -2.86419 0
M  V30 2051 H 204.185 1.9352 -3.78722 0
M  V30 2052 N 202.5 1.5196 0.417844 0
M  V30 2053 C 203.463 1.74065 1.49111 0
M  V30 2054 C 204.463 0.610537 1.48758 0
M  V30 2055 O 205.653 0.87832 1.50437 0
M  V30 2056 C 202.785 1.81502 2.88565 0
M  V30 2057 H 203.978 2.69869 1.30807 0
M  V30 2058 H 201.531 1.42244 0.647785 0
M  V30 2059 H 202.266 0.875813 3.1225 0
M  V30 2060 H 202.051 2.63651 2.90225 0
M  V30 2061 H 203.541 2.00376 3.66387 0
M  V30 2062 N 203.978 -0.674533 1.42435 0
M  V30 2063 C 204.941 -1.76986 1.45632 0
M  V30 2064 C 205.941 -1.5708 0.343871 0
M  V30 2065 O 207.131 -1.63367 0.604709 0
M  V30 2066 C 204.263 -3.15623 1.28822 0
M  V30 2067 H 205.456 -1.75539 2.43158 0
M  V30 2068 H 203.009 -0.884189 1.28887 0
M  V30 2069 H 203.744 -3.22696 0.322193 0
M  V30 2070 H 203.529 -3.31475 2.09444 0
M  V30 2071 H 205.019 -3.95537 1.33942 0
M  V30 2072 N 205.456 -1.28612 -0.910864 0
M  V30 2073 C 206.386 -1.15326 -2.03032 0
M  V30 2074 C 207.367 -0.0502924 -1.70026 0
M  V30 2075 O 208.552 -0.227797 -1.92859 0
M  V30 2076 C 205.682 -0.817343 -3.37545 0
M  V30 2077 C 204.636 -1.8754 -3.84724 0
M  V30 2078 C 203.962 -1.39305 -5.16235 0
M  V30 2079 C 205.262 -3.28244 -4.06267 0
M  V30 2080 H 206.956 -2.08975 -2.14406 0
M  V30 2081 H 204.502 -1.00612 -1.03021 0
M  V30 2082 H 206.455 -0.711151 -4.15356 0
M  V30 2083 H 205.179 0.154846 -3.26233 0
M  V30 2084 H 203.838 -1.97079 -3.09121 0
M  V30 2085 H 203.486 -0.409846 -5.01328 0
M  V30 2086 H 203.186 -2.10057 -5.48771 0
M  V30 2087 H 204.71 -1.30014 -5.96598 0
M  V30 2088 H 206.124 -3.21611 -4.74594 0
M  V30 2089 H 204.521 -3.96855 -4.5014 0
M  V30 2090 H 205.591 -3.72048 -3.10979 0
M  V30 2091 N 206.934 1.1197 -1.10907 0
M  V30 2092 C 208.182 1.83225 -0.852819 0
M  V30 2093 C 208.503 1.84769 0.623341 0
M  V30 2094 O 207.773 1.3143 1.45269 0
M  V30 2095 H 206.353 0.67849 -0.312507 0
M  V30 2096 H 209.015 1.3556 -1.40033 0
M  V30 2097 H 208.111 2.87265 -1.22005 0
M  V30 2098 N 208.412 0.89855 1.29475 0
M  V30 2099 C 209.652 0.530771 1.97388 0
M  V30 2100 C 210.016 -0.905832 1.69289 0
M  V30 2101 O 211.217 -1.38042 2.30646 0
M  V30 2102 C 209.488 0.81369 3.48014 0
M  V30 2103 S 211.047 0.550048 4.35339 0
M  V30 2104 H 207.865 0.196956 0.683176 0
M  V30 2105 H 210.467 1.16074 1.57312 0
M  V30 2106 H 209.171 1.85749 3.65958 0
M  V30 2107 H 208.702 0.171795 3.93025 0
M  V30 2108 H 210.717 -0.605423 4.92493 0
M  V30 2109 N 209.89 -1.43072 0.660911 0
M  V30 2110 C 210.82 -2.33497 -0.0122829 0
M  V30 2111 C 211.801 -1.49903 -0.803925 0
M  V30 2112 O 212.986 -1.78546 -0.763864 0
M  V30 2113 C 210.116 -3.33363 -0.973994 0
M  V30 2114 C 209.07 -4.27003 -0.291928 0
M  V30 2115 C 208.396 -5.16967 -1.36562 0
M  V30 2116 C 209.696 -5.15816 0.820462 0
M  V30 2117 H 211.39 -2.90038 0.742873 0
M  V30 2118 H 208.936 -1.39461 0.358688 0
M  V30 2119 H 210.889 -3.95524 -1.45392 0
M  V30 2120 H 209.613 -2.75095 -1.7604 0
M  V30 2121 H 208.272 -3.66217 0.167623 0
M  V30 2122 H 207.92 -4.55034 -2.14366 0
M  V30 2123 H 207.62 -5.80441 -0.914454 0
M  V30 2124 H 209.144 -5.82003 -1.84675 0
M  V30 2125 H 210.558 -5.71742 0.422366 0
M  V30 2126 H 208.955 -5.8805 1.19656 0
M  V30 2127 H 210.025 -4.55045 1.67518 0
M  V30 2128 N 211.368 -0.403325 -1.52352 0
M  V30 2129 C 212.614 0.174605 -2.02047 0
M  V30 2130 C 212.947 1.45282 -1.28867 0
M  V30 2131 O 212.222 1.90483 -0.393257 0
M  V30 2132 C 212.505 0.428238 -3.57545 0
M  V30 2133 C 212.358 -0.866248 -4.4138 0
M  V30 2134 C 213.677 1.21287 -4.23057 0
M  V30 2135 H 210.796 0.0619851 -0.734389 0
M  V30 2136 H 213.438 -0.53565 -1.82293 0
M  V30 2137 H 211.588 1.03327 -3.74507 0
M  V30 2138 H 213.26 -1.50265 -4.3614 0
M  V30 2139 H 211.503 -1.47851 -4.07827 0
M  V30 2140 H 212.174 -0.643249 -5.48239 0
M  V30 2141 H 214.65 0.700703 -4.10158 0
M  V30 2142 H 213.526 1.35909 -5.31808 0
M  V30 2143 H 213.787 2.23193 -3.81625 0
M  V30 2144 N 212.846 1.57033 -0.133567 0
M  V30 2145 C 213.793 2.16074 0.811208 0
M  V30 2146 C 214.763 1.08979 1.2535 0
M  V30 2147 O 215.948 1.36958 1.32843 0
M  V30 2148 C 213.088 2.77595 2.05024 0
M  V30 2149 C 212.201 3.99042 1.65498 0
M  V30 2150 C 211.336 4.48603 2.84479 0
M  V30 2151 C 210.375 5.62547 2.41262 0
M  V30 2152 N 209.512 6.06787 3.53206 0
M  V30 2153 H 214.352 2.96477 0.300906 0
M  V30 2154 H 211.889 1.46462 0.136822 0
M  V30 2155 H 213.847 3.11402 2.77642 0
M  V30 2156 H 212.477 1.99859 2.53488 0
M  V30 2157 H 211.529 3.71302 0.826981 0
M  V30 2158 H 212.841 4.81629 1.29748 0
M  V30 2159 H 211.995 4.84395 3.65303 0
M  V30 2160 H 210.734 3.64995 3.23465 0
M  V30 2161 H 209.739 5.26345 1.58874 0
M  V30 2162 H 210.964 6.47931 2.03377 0
M  V30 2163 H 208.91 5.26117 3.91838 0
M  V30 2164 H 208.827 6.84266 3.21427 0
M  V30 2165 H 210.095 6.4722 4.34427 0
M  V30 2166 N 214.325 -0.140222 1.56975 0
M  V30 2167 C 215.602 -0.880769 1.74648 0
M  V30 2168 C 215.982 -1.99036 0.703404 0
M  V30 2169 O 215.33 -2.26821 -0.27648 0
M  V30 2170 C 215.54 -1.417 3.18939 0
M  V30 2171 C 216.888 -1.87774 3.80823 0
M  V30 2172 O 217.912 -1.51427 3.2241 0
M  V30 2173 O 216.771 -2.54827 4.83452 0
M  V30 2174 H 213.865 -0.416713 0.714338 0
M  V30 2175 H 216.411 -0.125618 1.69234 0
M  V30 2176 H 215.183 -0.619902 3.86359 0
M  V30 2177 H 214.806 -2.23546 3.28805 0
M  V30 2178 N 215.803 -1.52179 -0.40978 0
M  V30 2179 C 217.033 -1.69807 -1.17682 0
M  V30 2180 C 217.441 -0.406908 -1.84773 0
M  V30 2181 O 216.784 0.626863 -1.72673 0
M  V30 2182 C 216.846 -2.77712 -2.2829 0
M  V30 2183 C 216.51 -4.19481 -1.81341 0
M  V30 2184 C 217.507 -5.03345 -1.30154 0
M  V30 2185 C 215.192 -4.65713 -1.88194 0
M  V30 2186 C 217.186 -6.31511 -0.864416 0
M  V30 2187 C 214.873 -5.93869 -1.44093 0
M  V30 2188 C 215.871 -6.76597 -0.933023 0
M  V30 2189 O 215.559 -8.02354 -0.49838 0
M  V30 2190 H 215.291 -0.572372 -0.359675 0
M  V30 2191 H 217.845 -1.99511 -0.488311 0
M  V30 2192 H 216.075 -2.43383 -3.00502 0
M  V30 2193 H 217.764 -2.83946 -2.90051 0
M  V30 2194 H 218.53 -4.68819 -1.24232 0
M  V30 2195 H 214.409 -4.01424 -2.26671 0
M  V30 2196 H 217.953 -6.96033 -0.467286 0
M  V30 2197 H 213.85 -6.27903 -1.49694 0
M  V30 2198 H 214.618 -8.16135 -0.621747 0
M  V30 2199 N 217.281 0.66697 -1.42791 0
M  V30 2200 C 218.528 1.42699 -1.43678 0
M  V30 2201 C 218.856 1.94419 -0.0560425 0
M  V30 2202 O 218.111 1.7182 0.936831 0
M  V30 2203 C 218.41 2.6349 -2.4147 0
M  V30 2204 C 218.076 2.30267 -3.8767 0
M  V30 2205 C 216.738 2.20918 -4.27491 0
M  V30 2206 C 219.09 2.03435 -4.79858 0
M  V30 2207 C 216.418 1.82873 -5.57471 0
M  V30 2208 C 218.77 1.66892 -6.10188 0
M  V30 2209 C 217.434 1.56058 -6.49001 0
M  V30 2210 H 216.704 0.522171 -0.525755 0
M  V30 2211 H 219.351 0.759785 -1.75783 0
M  V30 2212 H 217.656 3.35279 -2.0272 0
M  V30 2213 H 219.353 3.21684 -2.39417 0
M  V30 2214 H 215.943 2.38449 -3.56146 0
M  V30 2215 H 220.127 2.09586 -4.49875 0
M  V30 2216 H 215.383 1.7306 -5.86396 0
M  V30 2217 H 219.557 1.45157 -6.81104 0
M  V30 2218 H 217.184 1.26348 -7.49627 0
M  V30 2219 N 218.759 1.29093 0.90403 0
M  V30 2220 C 220.17 1.15186 1.46932 0
M  V30 2221 C 220.521 -0.254587 1.94541 0
M  V30 2222 O 219.646 -1.14972 1.83332 0
M  V30 2223 C 220.241 2.08492 2.67051 0
M  V30 2224 C 218.8 1.98621 3.19729 0
M  V30 2225 C 217.947 1.9967 1.92425 0
M  V30 2226 H 220.898 1.41641 0.715789 0
M  V30 2227 H 220.919 1.65461 3.42641 0
M  V30 2228 H 220.431 3.10847 2.3237 0
M  V30 2229 H 218.532 0.993389 3.59114 0
M  V30 2230 H 218.645 2.86068 3.8432 0
M  V30 2231 H 217.009 1.44208 2.09943 0
M  V30 2232 H 217.792 3.03721 1.60026 0
M  V30 2233 N 220.237 -1.11381 1.11499 0
M  V30 2234 C 221.147 -2.21019 0.786628 0
M  V30 2235 C 222.163 -1.72597 -0.220507 0
M  V30 2236 O 223.339 -2.01321 -0.0565251 0
M  V30 2237 C 220.404 -3.459 0.235333 0
M  V30 2238 C 219.465 -4.09107 1.30115 0
M  V30 2239 C 218.698 -5.28027 0.776068 0
M  V30 2240 O 218.921 -5.6904 -0.393661 0
M  V30 2241 O 217.855 -5.81835 1.54114 0
M  V30 2242 H 221.681 -2.51521 1.70209 0
M  V30 2243 H 219.266 -1.19928 0.890928 0
M  V30 2244 H 221.148 -4.21346 -0.067715 0
M  V30 2245 H 219.823 -3.17049 -0.652828 0
M  V30 2246 H 218.73 -3.35391 1.65722 0
M  V30 2247 H 220.063 -4.42139 2.16273 0
M  V30 2248 N 221.715 -0.905404 -1.28997 0
M  V30 2249 C 223.126 -0.581953 -1.77398 0
M  V30 2250 C 223.477 0.902552 -1.74208 0
M  V30 2251 O 222.602 1.70584 -1.33154 0
M  V30 2252 C 223.197 -1.04961 -3.22131 0
M  V30 2253 C 221.756 -0.777229 -3.68288 0
M  V30 2254 C 220.903 -1.22109 -2.48967 0
M  V30 2255 H 223.854 -1.08754 -1.15578 0
M  V30 2256 H 223.875 -0.387387 -3.78523 0
M  V30 2257 H 223.387 -2.13008 -3.24421 0
M  V30 2258 H 221.488 0.290383 -3.71467 0
M  V30 2259 H 221.601 -1.37911 -4.58822 0
M  V30 2260 H 219.965 -0.639971 -2.46529 0
M  V30 2261 H 220.748 -2.30972 -2.53982 0
M  V30 2262 N 223.193 1.4272 -0.668489 0
M  V30 2263 C 224.439 2.01923 -0.188419 0
M  V30 2264 C 224.772 1.52704 1.19979 0
M  V30 2265 O 224.047 0.726566 1.8042 0
M  V30 2266 C 224.33 3.59451 -0.216085 0
M  V30 2267 C 224.183 4.18864 -1.6393 0
M  V30 2268 C 225.502 4.37903 0.439179 0
M  V30 2269 H 222.621 0.733674 -0.0699412 0
M  V30 2270 H 225.263 1.69822 -0.852076 0
M  V30 2271 H 223.413 3.86929 0.349012 0
M  V30 2272 H 225.085 4.02362 -2.25616 0
M  V30 2273 H 223.328 3.74933 -2.18193 0
M  V30 2274 H 223.999 5.27987 -1.61039 0
M  V30 2275 H 226.475 4.16079 -0.0417878 0
M  V30 2276 H 225.351 5.47519 0.389157 0
M  V30 2277 H 225.612 4.15303 1.51577 0
M  V30 2278 N 224.671 0.411399 1.52136 0
M  V30 2279 C 225.899 -0.163076 2.06256 0
M  V30 2280 C 226.314 -1.3867 1.28125 0
M  V30 2281 O 225.671 -1.79423 0.333721 0
M  V30 2282 C 225.722 -0.511252 3.57867 0
M  V30 2283 O 225.443 0.66378 4.33042 0
M  V30 2284 C 226.944 -1.13921 4.28412 0
M  V30 2285 H 224.164 -0.0193897 0.67072 0
M  V30 2286 H 226.708 0.583007 1.96013 0
M  V30 2287 H 224.863 -1.20723 3.6811 0
M  V30 2288 H 225.277 0.372601 5.23175 0
M  V30 2289 H 226.751 -1.33302 5.35663 0
M  V30 2290 H 227.228 -2.11296 3.85033 0
M  V30 2291 H 227.834 -0.483373 4.22544 0
M  V30 2292 N 226.149 -1.5696 0.141893 0
M  V30 2293 C 227.395 -1.9625 -0.511248 0
M  V30 2294 C 227.728 -1.02654 -1.64851 0
M  V30 2295 O 227.003 -0.0679676 -1.94381 0
M  V30 2296 C 227.286 -3.45285 -1.02227 0
M  V30 2297 C 227.139 -4.49658 0.113138 0
M  V30 2298 C 228.458 -3.96698 -1.90574 0
M  V30 2299 H 225.577 -0.713567 -0.184367 0
M  V30 2300 H 228.219 -1.88698 0.222087 0
M  V30 2301 H 226.369 -3.51852 -1.64719 0
M  V30 2302 H 228.041 -4.55174 0.749302 0
M  V30 2303 H 226.284 -4.26857 0.773026 0
M  V30 2304 H 226.955 -5.51258 -0.286053 0
M  V30 2305 H 229.431 -3.92578 -1.37918 0
M  V30 2306 H 228.307 -5.01453 -2.2324 0
M  V30 2307 H 228.568 -3.3875 -2.84079 0
M  V30 2308 N 227.627 0.131896 -1.57047 0
M  V30 2309 C 228.852 0.860418 -1.8871 0
M  V30 2310 C 229.277 1.73251 -0.73251 0
M  V30 2311 O 228.635 1.785 0.317429 0
M  V30 2312 C 228.683 1.68047 -3.19049 0
M  V30 2313 O 227.787 2.7862 -3.04047 0
M  V30 2314 H 227.128 0.238743 -0.619595 0
M  V30 2315 H 229.658 0.118169 -2.04258 0
M  V30 2316 H 229.668 2.07238 -3.51449 0
M  V30 2317 H 228.343 1.04018 -4.02682 0
M  V30 2318 H 226.92 2.42726 -2.83088 0
M  V30 2319 N 229.106 1.52395 0.401703 0
M  V30 2320 C 230.352 1.68019 1.14635 0
M  V30 2321 C 230.707 0.408722 1.88009 0
M  V30 2322 O 230 -0.597133 1.82057 0
M  V30 2323 C 230.194 2.84578 2.16217 0
M  V30 2324 C 230.023 4.22938 1.5282 0
M  V30 2325 C 228.793 4.88352 1.29772 0
M  V30 2326 C 230.991 5.04778 0.985094 0
M  V30 2327 N 228.973 6.10726 0.623455 0
M  V30 2328 C 230.344 6.1845 0.438172 0
M  V30 2329 C 232.399 4.90057 0.880275 0
M  V30 2330 C 231.102 7.19013 -0.203306 0
M  V30 2331 C 233.128 5.9086 0.252639 0
M  V30 2332 C 232.49 7.03829 -0.283573 0
M  V30 2333 H 228.589 0.668413 0.405892 0
M  V30 2334 H 231.173 1.89717 0.437674 0
M  V30 2335 H 229.344 2.64483 2.84435 0
M  V30 2336 H 231.076 2.89202 2.83098 0
M  V30 2337 H 227.831 4.46846 1.56926 0
M  V30 2338 H 228.255 6.76323 0.302733 0
M  V30 2339 H 232.897 4.02938 1.28065 0
M  V30 2340 H 230.615 8.05751 -0.615726 0
M  V30 2341 H 234.201 5.81543 0.172954 0
M  V30 2342 H 233.081 7.80493 -0.761575 0
M  V30 2343 N 230.584 -0.659388 1.43143 0
M  V30 2344 C 231.532 -1.79374 1.4808 0
M  V30 2345 C 232.526 -1.65639 0.354988 0
M  V30 2346 O 233.732 -1.7206 0.528704 0
M  V30 2347 H 230.107 -0.591705 0.4641 0
M  V30 2348 H 232.078 -1.72329 2.43609 0
M  V30 2349 C 230.827 -3.17606 1.41499 0
M  V30 2350 H 230.15 -3.28809 2.27431 0
M  V30 2351 H 231.59 -3.96951 1.49015 0
M  V30 2352 C 230.049 -3.36642 0.131765 0
M  V30 2353 O 230.579 -3.93461 -0.809386 0
M  V30 2354 N 228.785 -2.90567 0.0439396 0
M  V30 2355 H 228.332 -2.44513 0.810619 0
M  V30 2356 H 228.29 -3.03681 -0.813969 0
M  V30 2357 N 232.062 -1.29571 -0.897171 0
M  V30 2358 C 233.287 -1.20705 -1.68656 0
M  V30 2359 C 233.712 0.228582 -1.86706 0
M  V30 2360 O 233.07 1.16494 -1.3892 0
M  V30 2361 C 233.118 -1.9282 -3.04717 0
M  V30 2362 O 232.222 -1.24697 -3.93096 0
M  V30 2363 H 231.563 -0.418126 -0.515816 0
M  V30 2364 H 234.093 -1.71183 -1.12061 0
M  V30 2365 H 234.103 -2.01372 -3.54843 0
M  V30 2366 H 232.778 -2.97239 -2.90899 0
M  V30 2367 H 231.355 -1.2442 -3.51531 0
M  V30 2368 N 233.54 1.10788 -1.12088 0
M  V30 2369 C 234.788 1.8231 -0.872205 0
M  V30 2370 C 235.109 1.85419 0.603709 0
M  V30 2371 O 234.379 1.32963 1.43867 0
M  V30 2372 H 232.959 0.675137 -0.319686 0
M  V30 2373 H 235.621 1.34068 -1.41463 0
M  V30 2374 H 234.717 2.85955 -1.25045 0
M  V30 2375 N 235.018 0.912232 1.28515 0
M  V30 2376 C 235.981 0.404223 2.25607 0
M  V30 2377 C 236.981 -0.468602 1.53821 0
M  V30 2378 O 238.171 -0.271873 1.72065 0
M  V30 2379 C 235.303 -0.420653 3.38295 0
M  V30 2380 H 236.496 1.26188 2.7206 0
M  V30 2381 H 234.049 0.691495 1.40171 0
M  V30 2382 H 234.784 -1.29777 2.97201 0
M  V30 2383 H 234.569 0.204935 3.91564 0
M  V30 2384 H 236.059 -0.766971 4.10496 0
M  V30 2385 N 236.496 -1.42363 0.676048 0
M  V30 2386 C 237.426 -2.33497 0.0124832 0
M  V30 2387 C 238.407 -1.50748 -0.787981 0
M  V30 2388 O 239.592 -1.79346 -0.744884 0
M  V30 2389 C 236.722 -3.34377 -0.938582 0
M  V30 2390 C 235.676 -4.27289 -0.246622 0
M  V30 2391 C 235.002 -5.18386 -1.31071 0
M  V30 2392 C 236.302 -5.14916 0.875125 0
M  V30 2393 H 237.996 -2.89233 0.773593 0
M  V30 2394 H 235.542 -1.39073 0.37346 0
M  V30 2395 H 237.495 -3.97044 -1.41188 0
M  V30 2396 H 236.219 -2.76947 -1.73113 0
M  V30 2397 H 234.878 -3.66018 0.206456 0
M  V30 2398 H 234.526 -4.57282 -2.09528 0
M  V30 2399 H 234.226 -5.81378 -0.852839 0
M  V30 2400 H 235.75 -5.83929 -1.78492 0
M  V30 2401 H 237.164 -5.71262 0.482983 0
M  V30 2402 H 235.561 -5.86747 1.25887 0
M  V30 2403 H 236.631 -4.53242 1.72335 0
M  V30 2404 N 237.974 -0.419461 -1.51915 0
M  V30 2405 C 239.202 0.152136 -2.0634 0
M  V30 2406 C 239.617 1.37988 -1.28859 0
M  V30 2407 O 238.974 1.79243 -0.343232 0
M  V30 2408 C 239.025 0.492266 -3.58133 0
M  V30 2409 O 238.746 -0.686736 -4.32684 0
M  V30 2410 C 240.247 1.11648 -4.2901 0
M  V30 2411 H 237.467 0.0158325 -0.670813 0
M  V30 2412 H 240.011 -0.593394 -1.95702 0
M  V30 2413 H 238.166 1.18769 -3.68745 0
M  V30 2414 H 238.58 -0.400341 -5.2297 0
M  V30 2415 H 240.054 1.3046 -5.36362 0
M  V30 2416 H 240.531 2.09251 -3.86148 0
M  V30 2417 H 241.137 0.460958 -4.22795 0
M  V30 2418 N 239.452 1.56882 -0.150215 0
M  V30 2419 C 240.677 2.01027 0.510184 0
M  V30 2420 C 241.102 1.02966 1.57415 0
M  V30 2421 O 240.46 0.00590158 1.81299 0
M  V30 2422 C 240.508 3.43899 1.08472 0
M  V30 2423 O 239.612 3.4885 2.19948 0
M  V30 2424 H 238.953 0.652233 0.124451 0
M  V30 2425 H 241.483 2.03093 -0.247894 0
M  V30 2426 H 241.493 3.82766 1.41259 0
M  V30 2427 H 240.168 4.14776 0.305582 0
M  V30 2428 H 238.745 3.21827 1.88366 0
M  V30 2429 N 240.93 -0.123565 1.57115 0
M  V30 2430 C 242.178 -0.83051 1.84247 0
M  V30 2431 C 242.499 -1.80629 0.73471 0
M  V30 2432 O 241.769 -1.94403 -0.241688 0
M  V30 2433 H 240.349 -0.309694 0.679778 0
M  V30 2434 H 243.011 -0.111976 1.94578 0
M  V30 2435 H 242.107 -1.37852 2.80006 0
M  V30 2436 N 242.408 -1.52605 -0.393616 0
M  V30 2437 C 243.654 -1.67672 -1.14079 0
M  V30 2438 C 243.987 -0.413121 -1.89755 0
M  V30 2439 O 243.262 0.588952 -1.85369 0
M  V30 2440 C 243.545 -2.9088 -2.12276 0
M  V30 2441 C 243.398 -4.27329 -1.40394 0
M  V30 2442 C 244.717 -3.09628 -3.12759 0
M  V30 2443 H 241.836 -0.610168 -0.413356 0
M  V30 2444 H 244.478 -1.85193 -0.424696 0
M  V30 2445 H 242.628 -2.76073 -2.73342 0
M  V30 2446 H 244.3 -4.53894 -0.82327 0
M  V30 2447 H 242.543 -4.2802 -0.705801 0
M  V30 2448 H 243.214 -5.09615 -2.12123 0
M  V30 2449 H 245.69 -3.23436 -2.61779 0
M  V30 2450 H 244.566 -3.97322 -3.78717 0
M  V30 2451 H 244.827 -2.23637 -3.81365 0
M  V30 2452 N 243.887 0.651787 -1.4349 0
M  V30 2453 C 244.837 1.75783 -1.45205 0
M  V30 2454 C 245.821 1.57679 -0.320328 0
M  V30 2455 O 247.013 1.67767 -0.564211 0
M  V30 2456 C 244.142 3.14377 -1.3792 0
M  V30 2457 C 243.228 3.38023 -2.56127 0
M  V30 2458 N 243.619 3.32135 -3.81471 0
M  V30 2459 C 241.917 3.68747 -2.50882 0
M  V30 2460 C 242.618 3.55902 -4.60118 0
M  V30 2461 N 241.594 3.77783 -3.90872 0
M  V30 2462 H 245.396 1.69657 -2.39987 0
M  V30 2463 H 242.91 0.853508 -1.38163 0
M  V30 2464 H 244.907 3.93666 -1.37231 0
M  V30 2465 H 243.567 3.21683 -0.441596 0
M  V30 2466 H 244.578 3.11515 -4.13738 0
M  V30 2467 H 241.255 3.8316 -1.65816 0
M  V30 2468 H 242.645 3.57116 -5.69138 0
M  V30 2469 N 245.365 1.30045 0.890287 0
M  V30 2470 C 246.593 1.21472 1.67487 0
M  V30 2471 C 247.008 -0.223241 1.87476 0
M  V30 2472 O 246.365 -1.14828 1.41847 0
M  V30 2473 C 246.416 1.93394 3.05419 0
M  V30 2474 O 246.137 3.31576 2.86337 0
M  V30 2475 C 247.638 1.91414 3.99844 0
M  V30 2476 H 244.858 0.420604 0.522813 0
M  V30 2477 H 247.402 1.7158 1.11268 0
M  V30 2478 H 245.557 1.47099 3.58386 0
M  V30 2479 H 245.971 3.67929 3.73802 0
M  V30 2480 H 247.445 2.46285 4.94012 0
M  V30 2481 H 247.922 0.891833 4.3005 0
M  V30 2482 H 248.528 2.37496 3.52811 0
M  V30 2483 N 246.843 -1.10192 1.12674 0
M  V30 2484 C 248.09 -1.82205 0.883606 0
M  V30 2485 C 248.418 -1.8532 -0.590492 0
M  V30 2486 O 247.673 -1.31137 -1.45264 0
M  V30 2487 C 247.972 -3.28552 1.4067 0
M  V30 2488 C 247.638 -3.45582 2.89627 0
M  V30 2489 C 246.3 -3.49937 3.30299 0
M  V30 2490 C 248.652 -3.50768 3.85501 0
M  V30 2491 C 245.98 -3.57049 4.65546 0
M  V30 2492 C 248.332 -3.59414 5.20581 0
M  V30 2493 C 246.996 -3.62034 5.60792 0
M  V30 2494 H 246.266 -0.666735 0.323334 0
M  V30 2495 H 248.913 -1.29868 1.40736 0
M  V30 2496 H 247.218 -3.83473 0.80347 0
M  V30 2497 H 248.915 -3.82788 1.19475 0
M  V30 2498 H 245.505 -3.42871 2.57172 0
M  V30 2499 H 249.689 -3.46651 3.55171 0
M  V30 2500 H 244.945 -3.57361 4.96088 0
M  V30 2501 H 249.119 -3.62371 5.94693 0
M  V30 2502 H 246.746 -3.67298 6.6558 0
M  V30 2503 N 248.321 -0.919034 -1.28029 0
M  V30 2504 C 249.732 -0.600735 -1.76771 0
M  V30 2505 C 250.083 0.884024 -1.75156 0
M  V30 2506 O 249.208 1.69163 -1.34956 0
M  V30 2507 C 249.803 -1.08372 -3.21 0
M  V30 2508 C 248.362 -0.816248 -3.67443 0
M  V30 2509 C 247.509 -1.24742 -2.47658 0
M  V30 2510 H 250.46 -1.09974 -1.14418 0
M  V30 2511 H 250.481 -0.427512 -3.78091 0
M  V30 2512 H 249.993 -2.16437 -3.22144 0
M  V30 2513 H 248.094 0.250968 -3.71754 0
M  V30 2514 H 248.207 -1.4277 -4.57333 0
M  V30 2515 H 246.571 -0.666083 -2.45836 0
M  V30 2516 H 247.354 -2.33653 -2.51518 0
M  V30 2517 N 249.799 1.42003 -0.683588 0
M  V30 2518 C 250.762 2.29191 -0.0198243 0
M  V30 2519 C 251.762 1.43773 0.72013 0
M  V30 2520 O 252.952 1.65061 0.556815 0
M  V30 2521 C 250.084 3.26435 0.982487 0
M  V30 2522 H 251.277 2.8938 -0.787345 0
M  V30 2523 H 248.83 1.49789 -0.446418 0
M  V30 2524 H 249.565 2.71203 1.77819 0
M  V30 2525 H 249.35 3.89449 0.455182 0
M  V30 2526 H 250.84 3.918 1.44508 0
M  V30 2527 N 251.277 0.427512 1.51691 0
M  V30 2528 C 252.523 -0.142439 2.02299 0
M  V30 2529 C 252.856 -1.43214 1.31162 0
M  V30 2530 O 252.131 -1.89833 0.423511 0
M  V30 2531 C 252.414 -0.371301 3.58181 0
M  V30 2532 C 252.267 0.936358 4.39946 0
M  V30 2533 C 253.586 -1.14542 4.24933 0
M  V30 2534 H 250.705 -0.0502937 0.735282 0
M  V30 2535 H 253.347 0.564584 1.81418 0
M  V30 2536 H 251.497 -0.973559 3.76104 0
M  V30 2537 H 253.169 1.57184 4.33694 0
M  V30 2538 H 251.412 1.5432 4.05423 0
M  V30 2539 H 252.083 0.730388 5.47147 0
M  V30 2540 H 254.559 -0.635362 4.11221 0
M  V30 2541 H 253.435 -1.27431 5.33903 0
M  V30 2542 H 253.696 -2.17093 3.85127 0
M  V30 2543 N 252.755 -1.56801 0.158532 0
M  V30 2544 C 253.685 -2.20347 -0.772609 0
M  V30 2545 C 254.666 -1.15518 -1.24859 0
M  V30 2546 O 255.851 -1.43902 -1.30406 0
M  V30 2547 C 252.981 -2.83417 -2.00729 0
M  V30 2548 C 251.935 -3.94174 -1.66765 0
M  V30 2549 C 251.261 -4.44233 -2.97592 0
M  V30 2550 C 252.561 -5.14392 -0.905447 0
M  V30 2551 H 254.255 -2.98413 -0.242959 0
M  V30 2552 H 251.801 -1.43537 -0.115419 0
M  V30 2553 H 253.754 -3.26543 -2.6636 0
M  V30 2554 H 252.478 -2.02701 -2.56086 0
M  V30 2555 H 251.137 -3.51684 -1.03508 0
M  V30 2556 H 250.785 -3.60325 -3.50963 0
M  V30 2557 H 250.485 -5.18945 -2.75626 0
M  V30 2558 H 252.009 -4.90037 -3.64274 0
M  V30 2559 H 253.423 -5.5429 -1.46408 0
M  V30 2560 H 251.82 -5.9494 -0.7853 0
M  V30 2561 H 252.89 -4.84795 0.100668 0
M  V30 2562 N 254.233 0.115231 -1.57178 0
M  V30 2563 C 255.165 1.16694 -1.97269 0
M  V30 2564 C 256.178 1.37445 -0.872502 0
M  V30 2565 O 257.367 1.36454 -1.15077 0
M  V30 2566 C 254.467 2.52627 -2.25905 0
M  V30 2567 C 253.64 2.52427 -3.57211 0
M  V30 2568 C 252.699 3.70134 -3.74016 0
M  V30 2569 O 251.725 3.53546 -4.46087 0
M  V30 2570 N 252.927 4.88844 -3.13068 0
M  V30 2571 H 255.692 0.82588 -2.88096 0
M  V30 2572 H 253.253 0.304461 -1.59011 0
M  V30 2573 H 255.245 3.29937 -2.34359 0
M  V30 2574 H 253.815 2.789 -1.41186 0
M  V30 2575 H 253.035 1.60805 -3.5991 0
M  V30 2576 H 254.323 2.49353 -4.43509 0
M  V30 2577 H 253.721 5.05225 -2.54489 0
M  V30 2578 H 252.278 5.63817 -3.27037 0
M  V30 2579 N 255.711 1.52812 0.385517 0
M  V30 2580 C 256.936 1.72207 1.15583 0
M  V30 2581 C 257.361 0.441034 1.82857 0
M  V30 2582 O 256.719 -0.603465 1.70962 0
M  V30 2583 C 256.767 2.87476 2.17692 0
M  V30 2584 O 255.871 2.54693 3.24354 0
M  V30 2585 H 255.212 0.572526 0.336319 0
M  V30 2586 H 257.742 1.99618 0.448744 0
M  V30 2587 H 257.752 3.13072 2.6163 0
M  V30 2588 H 256.427 3.80408 1.68115 0
M  V30 2589 H 255.004 2.3985 2.85529 0
M  V30 2590 N 257.189 -0.644168 1.43834 0
M  V30 2591 C 258.414 -1.43642 1.49605 0
M  V30 2592 C 258.839 -1.8773 0.117913 0
M  V30 2593 O 258.197 -1.57938 -0.890239 0
M  V30 2594 C 258.245 -2.6416 2.45463 0
M  V30 2595 O 257.349 -3.63538 1.94714 0
M  V30 2596 H 256.69 -0.430329 0.50568 0
M  V30 2597 H 259.22 -0.787448 1.8884 0
M  V30 2598 H 259.23 -3.11864 2.63068 0
M  V30 2599 H 257.905 -2.31414 3.45572 0
M  V30 2600 H 256.482 -3.2273 1.86814 0
M  V30 2601 N 258.668 -1.30515 -0.883378 0
M  V30 2602 C 259.916 -1.19194 -1.63209 0
M  V30 2603 C 260.237 0.253205 -1.93349 0
M  V30 2604 O 259.507 1.17025 -1.57105 0
M  V30 2605 H 258.087 -0.438148 -0.605009 0
M  V30 2606 H 260.749 -1.63663 -1.05832 0
M  V30 2607 H 259.845 -1.75396 -2.58153 0
M  V30 2608 N 260.146 1.09593 -1.13257 0
M  V30 2609 C 261.076 2.18214 -0.830946 0
M  V30 2610 C 262.057 1.68812 0.208966 0
M  V30 2611 O 263.242 1.9408 0.0682666 0
M  V30 2612 C 260.372 3.46051 -0.294296 0
M  V30 2613 C 259.326 4.08778 -1.26826 0
M  V30 2614 C 258.652 5.31419 -0.591449 0
M  V30 2615 C 259.952 4.51476 -2.62615 0
M  V30 2616 H 261.646 2.43703 -1.73923 0
M  V30 2617 H 259.192 1.17128 -0.837675 0
M  V30 2618 H 261.145 4.2134 -0.0709606 0
M  V30 2619 H 259.869 3.20079 0.649366 0
M  V30 2620 H 258.528 3.35505 -1.47756 0
M  V30 2621 H 258.176 5.01727 0.357633 0
M  V30 2622 H 257.876 5.74341 -1.24123 0
M  V30 2623 H 259.4 6.09433 -0.377355 0
M  V30 2624 H 260.814 5.17999 -2.45663 0
M  V30 2625 H 259.211 5.05277 -3.23752 0
M  V30 2626 H 260.281 3.63962 -3.20406 0
M  V30 2627 N 261.624 0.925811 1.2754 0
M  V30 2628 C 262.854 0.580666 1.98272 0
M  V30 2629 C 263.262 -0.845207 1.69272 0
M  V30 2630 O 262.605 -1.57306 0.948707 0
M  V30 2631 C 262.667 0.724418 3.52126 0
M  V30 2632 C 262.331 2.12206 4.04744 0
M  V30 2633 C 263.328 3.09604 4.17662 0
M  V30 2634 C 261.013 2.4385 4.39138 0
M  V30 2635 C 263.007 4.36755 4.64246 0
M  V30 2636 C 260.694 3.71237 4.85414 0
M  V30 2637 C 261.692 4.67503 4.97926 0
M  V30 2638 O 261.38 5.92624 5.43187 0
M  V30 2639 H 261.112 0.218987 0.639547 0
M  V30 2640 H 263.666 1.24452 1.63404 0
M  V30 2641 H 261.896 0.0034663 3.867 0
M  V30 2642 H 263.585 0.384607 4.04074 0
M  V30 2643 H 264.351 2.86478 3.91351 0
M  V30 2644 H 260.23 1.69665 4.28643 0
M  V30 2645 H 263.774 5.11898 4.73927 0
M  V30 2646 H 259.671 3.94182 5.11166 0
M  V30 2647 H 260.439 5.95585 5.61445 0
M  V30 2648 N 263.102 -1.41638 0.69111 0
M  V30 2649 C 264.327 -2.06148 0.227583 0
M  V30 2650 C 264.752 -1.51652 -1.11281 0
M  V30 2651 O 264.11 -0.64164 -1.69566 0
M  V30 2652 C 264.158 -3.60095 0.190858 0
M  V30 2653 O 263.262 -4.03845 -0.835664 0
M  V30 2654 H 262.603 -0.654434 0.112306 0
M  V30 2655 H 265.133 -1.81484 0.944714 0
M  V30 2656 H 265.143 -4.07995 0.020207 0
M  V30 2657 H 263.818 -3.99129 1.16915 0
M  V30 2658 H 262.395 -3.67458 -0.63473 0
M  V30 2659 N 264.58 -0.43555 -1.51462 0
M  V30 2660 C 265.51 0.367376 -2.30592 0
M  V30 2661 C 266.491 1.02263 -1.35928 0
M  V30 2662 O 267.676 1.02661 -1.64847 0
M  V30 2663 C 264.806 1.46983 -3.14664 0
M  V30 2664 C 263.76 0.938161 -4.17591 0
M  V30 2665 C 263.086 2.13622 -4.90173 0
M  V30 2666 C 264.386 -0.0261621 -5.22293 0
M  V30 2667 H 266.08 -0.292969 -2.97963 0
M  V30 2668 H 263.626 -0.14234 -1.43295 0
M  V30 2669 H 265.579 2.03873 -3.688 0
M  V30 2670 H 264.303 2.15843 -2.4511 0
M  V30 2671 H 262.962 0.391481 -3.64504 0
M  V30 2672 H 262.61 2.81098 -4.17124 0
M  V30 2673 H 262.31 1.78688 -5.59772 0
M  V30 2674 H 263.834 2.7107 -5.47132 0
M  V30 2675 H 265.248 0.452384 -5.71512 0
M  V30 2676 H 263.645 -0.287992 -5.99409 0
M  V30 2677 H 264.715 -0.963391 -4.75233 0
M  V30 2678 N 266.058 1.56714 -0.166846 0
M  V30 2679 C 267.283 2.01557 0.488833 0
M  V30 2680 C 267.708 1.0463 1.56314 0
M  V30 2681 O 267.066 0.0251304 1.81283 0
M  V30 2682 C 267.114 3.4503 1.04818 0
M  V30 2683 O 266.218 3.51163 2.16236 0
M  V30 2684 H 265.559 0.653516 0.117526 0
M  V30 2685 H 268.089 2.02818 -0.269421 0
M  V30 2686 H 268.099 3.84243 1.37191 0
M  V30 2687 H 266.774 4.15077 0.261572 0
M  V30 2688 H 265.351 3.23807 1.84942 0
M  V30 2689 N 267.536 -0.106894 1.57237 0
M  V30 2690 C 268.761 -0.830287 1.90055 0
M  V30 2691 C 269.186 -1.72064 0.75998 0
M  V30 2692 O 268.544 -1.78982 -0.288991 0
M  V30 2693 C 268.592 -1.6295 3.21683 0
M  V30 2694 O 267.696 -2.73748 3.08441 0
M  V30 2695 H 267.037 -0.228855 0.623315 0
M  V30 2696 H 269.567 -0.085658 2.04421 0
M  V30 2697 H 269.577 -2.01621 3.54701 0
M  V30 2698 H 268.252 -0.975989 4.04286 0
M  V30 2699 H 266.829 -2.38192 2.86913 0
M  V30 2700 N 269.014 -1.53014 -0.377408 0
M  V30 2701 C 270.26 -1.68872 -1.12294 0
M  V30 2702 C 270.593 -0.433224 -1.89306 0
M  V30 2703 O 269.868 0.569258 -1.85983 0
M  V30 2704 C 270.151 -2.93115 -2.09179 0
M  V30 2705 C 270.004 -4.28794 -1.35853 0
M  V30 2706 C 271.323 -3.12928 -3.09458 0
M  V30 2707 H 268.442 -0.614518 -0.406862 0
M  V30 2708 H 271.084 -1.85633 -0.40503 0
M  V30 2709 H 269.234 -2.78956 -2.70399 0
M  V30 2710 H 270.906 -4.54742 -0.775082 0
M  V30 2711 H 269.149 -4.28744 -0.660364 0
M  V30 2712 H 269.82 -5.11837 -2.06706 0
M  V30 2713 H 272.296 -3.26194 -2.58334 0
M  V30 2714 H 271.172 -4.01316 -3.74482 0
M  V30 2715 H 271.433 -2.27669 -3.78971 0
M  V30 2716 N 270.492 0.636531 -1.44174 0
M  V30 2717 C 271.738 1.39826 -1.4689 0
M  V30 2718 C 272.071 1.93947 -0.0990585 0
M  V30 2719 O 271.346 1.73325 0.882544 0
M  V30 2720 C 271.629 2.56751 -2.5249 0
M  V30 2721 C 271.482 2.08014 -3.98811 0
M  V30 2722 C 272.801 3.58946 -2.54649 0
M  V30 2723 H 269.92 0.507075 -0.53483 0
M  V30 2724 H 272.562 0.720188 -1.75822 0
M  V30 2725 H 270.712 3.14597 -2.2795 0
M  V30 2726 H 272.384 1.5504 -4.34466 0
M  V30 2727 H 270.627 1.39242 -4.10846 0
M  V30 2728 H 271.298 2.92169 -4.68339 0
M  V30 2729 H 273.774 3.1089 -2.76563 0
M  V30 2730 H 272.65 4.38286 -3.3045 0
M  V30 2731 H 272.911 4.12655 -1.58646 0
M  V30 2732 N 271.97 1.30982 0.876444 0
M  V30 2733 C 273.198 1.23242 1.6619 0
M  V30 2734 C 273.613 -0.203345 1.87702 0
M  V30 2735 O 272.97 -1.13317 1.43057 0
M  V30 2736 C 273.021 1.96623 3.03351 0
M  V30 2737 O 272.742 3.34594 2.82804 0
M  V30 2738 C 274.243 1.95644 3.97792 0
M  V30 2739 H 271.463 0.426126 0.518322 0
M  V30 2740 H 274.007 1.7275 1.09442 0
M  V30 2741 H 272.162 1.50892 3.56806 0
M  V30 2742 H 272.576 3.71873 3.69879 0
M  V30 2743 H 274.05 2.51511 4.91372 0
M  V30 2744 H 274.527 0.937395 4.2908 0
M  V30 2745 H 275.133 2.41225 3.50272 0
M  V30 2746 N 273.449 -1.08991 1.13837 0
M  V30 2747 C 274.695 -1.81526 0.90422 0
M  V30 2748 C 275.028 -1.85706 -0.568066 0
M  V30 2749 O 274.303 -1.32855 -1.42056 0
M  V30 2750 C 274.586 -3.27447 1.49835 0
M  V30 2751 C 274.439 -3.31512 3.04006 0
M  V30 2752 C 275.758 -4.24256 1.17025 0
M  V30 2753 H 272.877 -0.659029 0.329923 0
M  V30 2754 H 275.519 -1.27644 1.40737 0
M  V30 2755 H 273.669 -3.73462 1.07044 0
M  V30 2756 H 275.341 -2.93867 3.55584 0
M  V30 2757 H 273.584 -2.70963 3.38765 0
M  V30 2758 H 274.255 -4.34329 3.40679 0
M  V30 2759 H 276.731 -3.86549 1.54009 0
M  V30 2760 H 275.607 -5.24684 1.61237 0
M  V30 2761 H 275.868 -4.42019 0.0846274 0
M  V30 2762 N 274.927 -0.932562 -1.27047 0
M  V30 2763 C 276.338 -0.619451 -1.76124 0
M  V30 2764 C 276.689 0.865397 -1.76083 0
M  V30 2765 O 275.814 1.67722 -1.36742 0
M  V30 2766 C 276.409 -1.11771 -3.19832 0
M  V30 2767 C 274.968 -0.855174 -3.66557 0
M  V30 2768 C 274.115 -1.27362 -2.46321 0
M  V30 2769 H 277.066 -1.11181 -1.13245 0
M  V30 2770 H 277.087 -0.46759 -3.77616 0
M  V30 2771 H 276.599 -2.19842 -3.1983 0
M  V30 2772 H 274.7 0.211524 -3.71999 0
M  V30 2773 H 274.813 -1.47613 -4.55793 0
M  V30 2774 H 273.177 -0.692119 -2.45116 0
M  V30 2775 H 273.96 -2.36307 -2.49025 0
M  V30 2776 N 276.405 1.4127 -0.698611 0
M  V30 2777 C 277.63 2.06024 -0.238512 0
M  V30 2778 C 278.055 1.5224 1.10475 0
M  V30 2779 O 277.413 0.650623 1.69223 0
M  V30 2780 C 277.461 3.59988 -0.209952 0
M  V30 2781 O 276.565 4.04282 0.814235 0
M  V30 2782 H 275.906 0.653829 -0.115775 0
M  V30 2783 H 278.436 1.8098 -0.954326 0
M  V30 2784 H 278.446 4.07979 -0.0418436 0
M  V30 2785 H 277.121 3.98503 -1.1903 0
M  V30 2786 H 275.698 3.6779 0.615234 0
M  V30 2787 N 277.883 0.443576 1.51229 0
M  V30 2788 C 279.108 -0.121648 2.07043 0
M  V30 2789 C 279.533 -1.35156 1.30823 0
M  V30 2790 O 278.891 -1.7793 0.347934 0
M  V30 2791 C 278.939 -0.41624 3.5819 0
M  V30 2792 O 278.043 -1.50163 3.8409 0
M  V30 2793 H 277.384 0.000871367 0.663999 0
M  V30 2794 H 279.914 0.626706 1.94765 0
M  V30 2795 H 279.924 -0.664867 4.02546 0
M  V30 2796 H 278.599 0.482653 4.1309 0
M  V30 2797 H 277.176 -1.24248 3.51592 0
M  V30 2798 N 279.361 -1.56624 0.175154 0
M  V30 2799 C 280.586 -2.01813 -0.478137 0
M  V30 2800 C 281.011 -1.05457 -1.55757 0
M  V30 2801 O 280.369 -0.0347439 -1.81267 0
M  V30 2802 C 280.417 -3.45581 -1.02987 0
M  V30 2803 O 279.521 -3.52305 -2.14371 0
M  V30 2804 H 278.862 -0.65413 -0.114059 0
M  V30 2805 H 281.392 -2.02673 0.280173 0
M  V30 2806 H 281.402 -3.84965 -1.35151 0
M  V30 2807 H 280.077 -4.1521 -0.239556 0
M  V30 2808 H 278.654 -3.24783 -1.83222 0
M  V30 2809 N 280.839 0.0985539 -1.57292 0
M  V30 2810 C 281.769 1.12064 -2.04851 0
M  V30 2811 C 282.75 1.41981 -0.936767 0
M  V30 2812 O 283.935 1.52071 -1.20781 0
M  V30 2813 C 281.065 2.44144 -2.47004 0
M  V30 2814 C 280.019 2.28643 -3.6181 0
M  V30 2815 C 279.345 3.65869 -3.89929 0
M  V30 2816 C 280.645 1.72986 -4.92822 0
M  V30 2817 H 282.339 0.724979 -2.9049 0
M  V30 2818 H 279.885 0.34729 -1.39749 0
M  V30 2819 H 281.838 3.15914 -2.78884 0
M  V30 2820 H 280.562 2.85639 -1.5836 0
M  V30 2821 H 279.221 1.59318 -3.30172 0
M  V30 2822 H 278.869 4.04885 -2.98458 0
M  V30 2823 H 278.569 3.56344 -4.67218 0
M  V30 2824 H 280.093 4.39112 -4.2428 0
M  V30 2825 H 281.507 2.34593 -5.23105 0
M  V30 2826 H 279.904 1.74229 -5.74251 0
M  V30 2827 H 280.974 0.689007 -4.7998 0
M  V30 2828 N 282.317 1.53212 0.369288 0
M  V30 2829 C 283.565 1.68881 1.11012 0
M  V30 2830 C 283.886 0.441285 1.89941 0
M  V30 2831 O 283.156 -0.544623 1.88177 0
M  V30 2832 H 281.736 0.622569 0.412816 0
M  V30 2833 H 284.398 1.90391 0.416802 0
M  V30 2834 H 283.494 2.54822 1.80201 0
M  V30 2835 N 283.795 -0.628877 1.44509 0
M  V30 2836 C 285.023 -1.41554 1.50897 0
M  V30 2837 C 285.438 -1.8832 0.134564 0
M  V30 2838 O 284.795 -1.60969 -0.859965 0
M  V30 2839 C 284.846 -2.63435 2.47556 0
M  V30 2840 O 284.567 -2.18619 3.79654 0
M  V30 2841 C 286.068 -3.56537 2.63431 0
M  V30 2842 H 283.288 -0.434044 0.511709 0
M  V30 2843 H 285.832 -0.768895 1.89495 0
M  V30 2844 H 283.987 -3.24187 2.12089 0
M  V30 2845 H 284.401 -2.97652 4.31861 0
M  V30 2846 H 285.875 -4.38657 3.35088 0
M  V30 2847 H 286.352 -4.05493 1.68738 0
M  V30 2848 H 286.958 -3.01653 2.9981 0
M  V30 2849 N 285.273 -1.31445 -0.869486 0
M  V30 2850 C 286.205 -1.14955 -1.98287 0
M  V30 2851 C 287.218 -0.0885037 -1.62559 0
M  V30 2852 O 288.407 -0.336044 -1.75308 0
M  V30 2853 C 285.507 -0.734255 -3.3085 0
M  V30 2854 C 284.68 -1.88042 -3.94917 0
M  V30 2855 C 283.739 -1.4511 -5.05796 0
M  V30 2856 O 282.765 -2.16082 -5.2659 0
M  V30 2857 N 283.967 -0.338763 -5.79511 0
M  V30 2858 H 286.732 -2.10856 -2.12979 0
M  V30 2859 H 284.293 -1.23786 -1.04349 0
M  V30 2860 H 286.285 -0.42975 -4.02412 0
M  V30 2861 H 284.855 0.133158 -3.12316 0
M  V30 2862 H 284.075 -2.35222 -3.1633 0
M  V30 2863 H 285.363 -2.6481 -4.34457 0
M  V30 2864 H 284.761 0.252274 -5.65137 0
M  V30 2865 H 283.318 -0.0937925 -6.51733 0
M  V30 2866 N 286.751 1.08385 -1.14413 0
M  V30 2867 C 287.979 1.84517 -0.936001 0
M  V30 2868 C 288.394 1.81626 0.515503 0
M  V30 2869 O 287.751 1.22008 1.35721 0
M  V30 2870 C 287.802 3.32049 -1.42918 0
M  V30 2871 O 287.523 3.34951 -2.82381 0
M  V30 2872 C 289.024 4.24986 -1.26103 0
M  V30 2873 H 286.244 0.582491 -0.333084 0
M  V30 2874 H 288.788 1.36885 -1.5193 0
M  V30 2875 H 286.943 3.7707 -0.888641 0
M  V30 2876 H 287.357 4.27048 -3.04517 0
M  V30 2877 H 288.831 5.26615 -1.6547 0
M  V30 2878 H 289.308 4.38726 -0.20392 0
M  V30 2879 H 289.914 3.85791 -1.79012 0
M  V30 2880 N 288.23 0.939286 1.26551 0
M  V30 2881 C 289.46 0.601663 1.97645 0
M  V30 2882 C 289.868 -0.827206 1.70159 0
M  V30 2883 O 289.211 -1.56291 0.965338 0
M  V30 2884 C 289.273 0.761725 3.51337 0
M  V30 2885 C 288.937 2.16487 4.0247 0
M  V30 2886 C 289.934 3.14016 4.14355 0
M  V30 2887 C 287.619 2.48494 4.36527 0
M  V30 2888 C 289.613 4.41654 4.59587 0
M  V30 2889 C 287.3 3.76364 4.81449 0
M  V30 2890 C 288.298 4.72758 4.92939 0
M  V30 2891 O 287.986 5.98352 5.36871 0
M  V30 2892 H 287.718 0.225758 0.637189 0
M  V30 2893 H 290.272 1.26178 1.62075 0
M  V30 2894 H 288.502 0.0444808 3.86674 0
M  V30 2895 H 290.191 0.427442 4.03643 0
M  V30 2896 H 290.957 2.90613 3.8829 0
M  V30 2897 H 286.836 1.74202 4.26819 0
M  V30 2898 H 290.38 5.16896 4.68471 0
M  V30 2899 H 286.277 3.99582 5.06956 0
M  V30 2900 H 287.045 6.01507 5.55096 0
M  V30 2901 N 289.708 -1.40897 0.706093 0
M  V30 2902 C 290.957 -2.00284 0.238574 0
M  V30 2903 C 291.27 -1.56604 -1.17194 0
M  V30 2904 O 292.476 -2.08624 -1.73748 0
M  V30 2905 C 290.932 -3.57934 0.375623 0
M  V30 2906 C 290.54 -4.10591 1.79217 0
M  V30 2907 C 292.284 -4.24488 -0.0315857 0
M  V30 2908 C 290.191 -5.60712 1.88032 0
M  V30 2909 H 289.121 -0.749144 0.0854398 0
M  V30 2910 H 291.772 -1.61251 0.875813 0
M  V30 2911 H 290.154 -3.94622 -0.330042 0
M  V30 2912 H 291.328 -3.85301 2.52745 0
M  V30 2913 H 289.643 -3.56601 2.15 0
M  V30 2914 H 292.24 -5.34698 0.0136842 0
M  V30 2915 H 292.583 -4.02261 -1.072 0
M  V30 2916 H 293.116 -3.92873 0.624181 0
M  V30 2917 H 289.855 -5.87781 2.90161 0
M  V30 2918 H 289.375 -5.87896 1.18903 0
M  V30 2919 H 291.054 -6.25658 1.64805 0
M  V30 2920 N 291.186 -0.45159 -1.50991 0
M  V30 2921 C 292.426 0.109066 -2.04109 0
M  V30 2922 C 292.79 1.38716 -1.32747 0
M  V30 2923 O 293.991 2.02896 -1.76314 0
M  V30 2924 C 292.262 0.308354 -3.56067 0
M  V30 2925 S 293.821 0.830369 -4.30872 0
M  V30 2926 H 290.639 0.0251531 -0.710555 0
M  V30 2927 H 293.241 -0.614264 -1.85599 0
M  V30 2928 H 291.945 -0.627962 -4.05567 0
M  V30 2929 H 291.476 1.05836 -3.78896 0
M  V30 2930 H 293.491 2.10626 -4.49279 0
M  V30 2931 N 292.664 1.56529 -0.183458 0
M  V30 2932 C 293.612 2.19873 0.758845 0
M  V30 2933 C 294.606 1.16638 1.22849 0
M  V30 2934 O 295.812 1.3481 1.19274 0
M  V30 2935 H 292.187 0.7045 0.263029 0
M  V30 2936 H 294.158 2.97724 0.200755 0
M  V30 2937 C 292.907 2.86314 1.9728 0
M  V30 2938 H 292.23 3.65487 1.62047 0
M  V30 2939 H 293.67 3.3409 2.61075 0
M  V30 2940 C 292.129 1.86729 2.80418 0
M  V30 2941 O 292.659 1.36031 3.77966 0
M  V30 2942 N 290.865 1.55216 2.45675 0
M  V30 2943 H 290.412 1.96636 1.66409 0
M  V30 2944 H 290.37 0.888388 3.01588 0
M  V30 2945 N 294.142 -0.090211 1.57342 0
M  V30 2946 C 295.388 -0.793982 1.86611 0
M  V30 2947 C 295.721 -1.78142 0.773252 0
M  V30 2948 O 294.996 -1.93271 -0.218304 0
M  V30 2949 C 295.279 -1.51839 3.26523 0
M  V30 2950 C 295.132 -0.548609 4.46442 0
M  V30 2951 C 296.451 -2.46779 3.64401 0
M  V30 2952 H 293.57 -0.287186 0.678744 0
M  V30 2953 H 296.212 -0.0575076 1.89913 0
M  V30 2954 H 294.362 -2.14617 3.23839 0
M  V30 2955 H 296.034 0.0725513 4.61243 0
M  V30 2956 H 294.277 0.137614 4.33582 0
M  V30 2957 H 294.948 -1.09271 5.41076 0
M  V30 2958 H 297.424 -1.94089 3.68061 0
M  V30 2959 H 296.3 -2.94479 4.63221 0
M  V30 2960 H 296.561 -3.30758 2.93346 0
M  V30 2961 N 295.62 -1.53406 -0.361157 0
M  V30 2962 C 296.568 -1.80832 -1.46296 0
M  V30 2963 C 297.562 -0.677699 -1.55253 0
M  V30 2964 O 298.768 -0.860723 -1.58087 0
M  V30 2965 H 295.143 -0.572627 -0.487445 0
M  V30 2966 H 297.114 -2.73045 -1.20371 0
M  V30 2967 C 295.863 -2.01907 -2.8307 0
M  V30 2968 H 295.186 -2.88349 -2.76938 0
M  V30 2969 H 296.626 -2.25072 -3.59331 0
M  V30 2970 C 295.085 -0.799449 -3.27277 0
M  V30 2971 O 295.615 0.00971761 -4.01699 0
M  V30 2972 N 293.821 -0.621637 -2.83873 0
M  V30 2973 H 293.368 -1.28126 -2.23476 0
M  V30 2974 H 293.326 0.19298 -3.13807 0
M  V30 2975 N 297.098 0.621204 -1.44841 0
M  V30 2976 C 298.048 1.72663 -1.48901 0
M  V30 2977 C 299.032 1.56964 -0.353702 0
M  V30 2978 O 300.224 1.66532 -0.599669 0
M  V30 2979 C 297.353 3.11381 -1.44557 0
M  V30 2980 C 296.439 3.32514 -2.6324 0
M  V30 2981 N 296.83 3.23969 -3.8843 0
M  V30 2982 C 295.128 3.63343 -2.58647 0
M  V30 2983 C 295.829 3.46062 -4.67564 0
M  V30 2984 N 294.805 3.69407 -3.98797 0
M  V30 2985 H 298.607 1.64529 -2.43531 0
M  V30 2986 H 296.121 0.82401 -1.39942 0
M  V30 2987 H 298.118 3.90667 -1.4555 0
M  V30 2988 H 296.778 3.20674 -0.509731 0
M  V30 2989 H 297.789 3.02669 -4.20252 0
M  V30 2990 H 294.466 3.79556 -1.73906 0
M  V30 2991 H 295.856 3.44963 -5.76585 0
M  V30 2992 N 298.576 1.31904 0.862503 0
M  V30 2993 C 299.523 1.20182 1.9704 0
M  V30 2994 C 300.493 0.0858247 1.65878 0
M  V30 2995 O 301.678 0.26 1.8902 0
M  V30 2996 C 298.818 0.922797 3.32533 0
M  V30 2997 C 297.931 2.12284 3.76244 0
M  V30 2998 C 297.066 1.77996 5.00491 0
M  V30 2999 C 296.105 2.94366 5.36671 0
M  V30 3000 N 295.242 2.60223 6.52095 0
M  V30 3001 H 300.082 2.14951 2.06398 0
M  V30 3002 H 297.619 1.06917 1.01031 0
M  V30 3003 H 299.577 0.741548 4.10557 0
M  V30 3004 H 298.207 0.0119227 3.22798 0
M  V30 3005 H 297.259 2.41461 2.9394 0
M  V30 3006 H 298.571 2.99357 3.98982 0
M  V30 3007 H 297.725 1.56377 5.862 0
M  V30 3008 H 296.464 0.881252 4.79672 0
M  V30 3009 H 295.469 3.16625 4.49476 0
M  V30 3010 H 296.694 3.84957 5.59451 0
M  V30 3011 H 294.64 1.72884 6.32809 0
M  V30 3012 H 294.557 3.40827 6.74814 0
M  V30 3013 H 295.825 2.42016 7.40978 0
M  V30 3014 N 300.054 -1.07777 1.14986 0
M  V30 3015 C 301.465 -1.61766 0.932127 0
M  V30 3016 C 301.816 -1.88974 -0.527581 0
M  V30 3017 O 300.941 -1.65198 -1.39781 0
M  V30 3018 C 301.536 -2.93891 1.68563 0
M  V30 3019 C 300.095 -3.44639 1.5133 0
M  V30 3020 C 299.242 -2.18767 1.704 0
M  V30 3021 H 302.193 -0.909201 1.30074 0
M  V30 3022 H 302.214 -3.62623 1.15259 0
M  V30 3023 H 301.726 -2.74057 2.74799 0
M  V30 3024 H 299.827 -3.69564 0.474702 0
M  V30 3025 H 299.94 -4.20966 2.28746 0
M  V30 3026 H 298.304 -2.28253 1.13016 0
M  V30 3027 H 299.087 -2.01433 2.77992 0
M  V30 3028 N 301.532 -0.945985 -1.26051 0
M  V30 3029 C 302.757 -0.612525 -1.98149 0
M  V30 3030 C 303.182 0.806623 -1.69927 0
M  V30 3031 O 302.54 1.54411 -0.950108 0
M  V30 3032 C 302.588 -0.866981 -3.50023 0
M  V30 3033 O 301.692 0.0585333 -4.12358 0
M  V30 3034 H 301.033 -0.23379 -0.621481 0
M  V30 3035 H 303.563 -1.27023 -1.60395 0
M  V30 3036 H 303.573 -0.789792 -4.00283 0
M  V30 3037 H 302.248 -1.90135 -3.69894 0
M  V30 3038 H 300.825 -0.0701241 -3.72834 0
M  V30 3039 N 303.011 1.40521 -0.713556 0
M  V30 3040 C 303.959 2.32549 -0.0485227 0
M  V30 3041 C 304.953 1.51931 0.74922 0
M  V30 3042 O 306.159 1.67745 0.652816 0
M  V30 3043 H 302.534 0.751994 0.00311138 0
M  V30 3044 H 304.505 2.86291 -0.841443 0
M  V30 3045 C 303.254 3.36879 0.860687 0
M  V30 3046 H 302.577 3.98978 0.256246 0
M  V30 3047 H 304.017 4.03772 1.294 0
M  V30 3048 C 302.476 2.72197 1.9852 0
M  V30 3049 O 303.006 2.5837 3.07584 0
M  V30 3050 N 301.212 2.30612 1.76823 0
M  V30 3051 H 300.759 2.42059 0.881217 0
M  V30 3052 H 300.717 1.87672 2.52243 0
M  V30 3053 N 304.489 0.459591 1.5075 0
M  V30 3054 C 305.717 -0.0973749 2.06671 0
M  V30 3055 C 306.132 -1.34524 1.32472 0
M  V30 3056 O 305.489 -1.7827 0.390634 0
M  V30 3057 C 305.54 -0.39714 3.59312 0
M  V30 3058 O 305.261 0.801214 4.30711 0
M  V30 3059 C 306.762 -1.00234 4.31819 0
M  V30 3060 H 303.982 0.00195854 0.670997 0
M  V30 3061 H 306.526 0.645072 1.94059 0
M  V30 3062 H 304.681 -1.08951 3.71764 0
M  V30 3063 H 305.095 0.538857 5.21725 0
M  V30 3064 H 306.569 -1.16193 5.39632 0
M  V30 3065 H 307.046 -1.98939 3.91561 0
M  V30 3066 H 307.652 -0.348699 4.23868 0
M  V30 3067 N 305.967 -1.56429 0.191757 0
M  V30 3068 C 306.914 -2.18936 -0.730454 0
M  V30 3069 C 307.884 -1.13557 -1.21219 0
M  V30 3070 O 309.069 -1.41794 -1.27668 0
M  V30 3071 C 306.209 -2.85013 -1.9458 0
M  V30 3072 C 305.322 -4.04909 -1.50574 0
M  V30 3073 C 304.457 -4.58853 -2.67634 0
M  V30 3074 C 303.496 -5.71114 -2.20217 0
M  V30 3075 N 302.633 -6.19478 -3.30442 0
M  V30 3076 H 307.473 -2.97389 -0.190664 0
M  V30 3077 H 305.01 -1.46869 -0.0823694 0
M  V30 3078 H 306.968 -3.21492 -2.65893 0
M  V30 3079 H 305.598 -2.09129 -2.45896 0
M  V30 3080 H 304.65 -3.74115 -0.688605 0
M  V30 3081 H 305.962 -4.86113 -1.11784 0
M  V30 3082 H 305.116 -4.97619 -3.47074 0
M  V30 3083 H 303.855 -3.76749 -3.09696 0
M  V30 3084 H 302.86 -5.31879 -1.3923 0
M  V30 3085 H 304.085 -6.55033 -1.79189 0
M  V30 3086 H 302.031 -5.40297 -3.72041 0
M  V30 3087 H 301.948 -6.95725 -2.9581 0
M  V30 3088 H 303.216 -6.62898 -4.10106 0
M  V30 3089 N 307.445 0.0818655 -1.57387 0
M  V30 3090 C 308.691 0.784074 -1.8703 0
M  V30 3091 C 309.024 1.77729 -0.782689 0
M  V30 3092 O 308.299 1.93384 0.208051 0
M  V30 3093 C 308.582 1.50105 -3.27323 0
M  V30 3094 C 308.435 0.524925 -4.46727 0
M  V30 3095 C 309.754 2.44843 -3.65705 0
M  V30 3096 H 306.873 0.283582 -0.680257 0
M  V30 3097 H 309.515 0.0474352 -1.89941 0
M  V30 3098 H 307.665 2.12897 -3.24972 0
M  V30 3099 H 309.337 -0.0970111 -4.61198 0
M  V30 3100 H 307.58 -0.160606 -4.33503 0
M  V30 3101 H 308.251 1.064 -5.41648 0
M  V30 3102 H 310.727 1.92135 -3.69085 0
M  V30 3103 H 309.603 2.92018 -4.64776 0
M  V30 3104 H 309.864 3.29197 -2.95096 0
M  V30 3105 N 308.923 1.53595 0.353017 0
M  V30 3106 C 310.2 1.61002 1.11075 0
M  V30 3107 C 310.58 0.425356 2.0677 0
M  V30 3108 O 309.928 -0.583267 2.2093 0
M  V30 3109 C 310.138 2.96631 1.83877 0
M  V30 3110 C 311.486 3.51653 2.37961 0
M  V30 3111 O 312.51 2.98743 1.93987 0
M  V30 3112 O 311.369 4.44177 3.18386 0
M  V30 3113 H 308.463 0.650825 0.510251 0
M  V30 3114 H 311.009 1.6594 0.35527 0
M  V30 3115 H 309.781 3.74293 1.14108 0
M  V30 3116 H 309.404 2.95242 2.66304 0
M  V30 3117 N 310.401 -0.613514 1.45168 0
M  V30 3118 C 311.348 -1.72456 1.53387 0
M  V30 3119 C 312.318 -1.6169 0.380191 0
M  V30 3120 O 313.503 -1.81356 0.592836 0
M  V30 3121 C 310.643 -3.10753 1.50088 0
M  V30 3122 C 309.756 -3.32368 2.75963 0
M  V30 3123 C 308.891 -4.60737 2.64376 0
M  V30 3124 C 307.93 -4.7559 3.85332 0
M  V30 3125 N 307.067 -5.95253 3.72315 0
M  V30 3126 H 311.907 -1.64768 2.48305 0
M  V30 3127 H 309.444 -0.803503 1.23216 0
M  V30 3128 H 311.402 -3.90758 1.46164 0
M  V30 3129 H 310.032 -3.17413 0.587243 0
M  V30 3130 H 309.084 -2.4618 2.89999 0
M  V30 3131 H 310.396 -3.39218 3.65695 0
M  V30 3132 H 309.55 -5.48928 2.58385 0
M  V30 3133 H 308.289 -4.56275 1.72233 0
M  V30 3134 H 307.294 -3.85824 3.91688 0
M  V30 3135 H 308.519 -4.81854 4.78533 0
M  V30 3136 H 306.465 -5.91847 2.82937 0
M  V30 3137 H 306.382 -6.03236 4.55677 0
M  V30 3138 H 307.65 -6.85958 3.70246 0
M  V30 3139 N 311.879 -1.3236 -0.855495 0
M  V30 3140 C 313.295 -1.11332 -1.14356 0
M  V30 3141 C 313.495 0.106751 -2.01217 0
M  V30 3142 O 312.551 0.791891 -2.39761 0
M  V30 3143 C 313.864 -2.39237 -1.82171 0
M  V30 3144 C 315.412 -2.44986 -1.9481 0
M  V30 3145 C 315.887 -3.7281 -2.66039 0
M  V30 3146 N 317.378 -3.73787 -2.73565 0
M  V30 3147 C 318.113 -4.69394 -3.29327 0
M  V30 3148 N 317.609 -5.75367 -3.85907 0
M  V30 3149 N 319.402 -4.56893 -3.27423 0
M  V30 3150 H 311.553 -2.10586 -0.277027 0
M  V30 3151 H 313.816 -0.929701 -0.185364 0
M  V30 3152 H 313.522 -3.28431 -1.25802 0
M  V30 3153 H 313.396 -2.50134 -2.82335 0
M  V30 3154 H 315.783 -1.56252 -2.50338 0
M  V30 3155 H 315.864 -2.38043 -0.936448 0
M  V30 3156 H 315.508 -4.61918 -2.11174 0
M  V30 3157 H 315.438 -3.77024 -3.67642 0
M  V30 3158 H 317.929 -2.97189 -2.33424 0
M  V30 3159 H 318.242 -6.44378 -4.26611 0
M  V30 3160 H 316.587 -5.79123 -3.84242 0
M  V30 3161 H 319.778 -3.73269 -2.82467 0
M  V30 3162 H 319.951 -5.31577 -3.7058 0
M  V30 3163 N 313.357 1.07166 -1.15556 0
M  V30 3164 C 314.603 1.80065 -0.932984 0
M  V30 3165 C 314.936 1.86586 0.53845 0
M  V30 3166 O 314.211 1.35098 1.39924 0
M  V30 3167 C 314.494 3.25022 -1.55025 0
M  V30 3168 C 314.347 3.26634 -3.09242 0
M  V30 3169 C 315.666 4.22341 -1.2376 0
M  V30 3170 H 312.785 0.653697 -0.340366 0
M  V30 3171 H 315.427 1.25389 -1.4275 0
M  V30 3172 H 313.577 3.71712 -1.12972 0
M  V30 3173 H 315.249 2.88173 -3.60214 0
M  V30 3174 H 313.492 2.65539 -3.43033 0
M  V30 3175 H 314.163 4.28854 -3.47546 0
M  V30 3176 H 316.639 3.8405 -1.60139 0
M  V30 3177 H 315.515 5.22053 -1.69564 0
M  V30 3178 H 315.776 4.41828 -0.154938 0
M  V30 3179 N 314.835 0.952656 1.25548 0
M  V30 3180 C 315.745 0.47782 2.29682 0
M  V30 3181 C 316.761 -0.453859 1.67977 0
M  V30 3182 O 317.937 -0.330587 1.98668 0
M  V30 3183 C 315.002 -0.238655 3.45878 0
M  V30 3184 C 314.063 0.730994 4.23031 0
M  V30 3185 C 313.296 0.0486165 5.33678 0
M  V30 3186 O 313.519 -1.16612 5.58353 0
M  V30 3187 O 312.453 0.733152 5.97418 0
M  V30 3188 H 316.279 1.34312 2.72386 0
M  V30 3189 H 313.864 0.719026 1.30959 0
M  V30 3190 H 315.746 -0.641774 4.16484 0
M  V30 3191 H 314.421 -1.07916 3.05181 0
M  V30 3192 H 313.328 1.18428 3.5486 0
M  V30 3193 H 314.661 1.53946 4.67506 0
M  V30 3194 N 316.313 -1.40141 0.720998 0
M  V30 3195 C 317.724 -1.83678 0.334553 0
M  V30 3196 C 318.075 -1.6027 -1.13173 0
M  V30 3197 O 317.2 -1.08643 -1.87152 0
M  V30 3198 C 317.795 -3.33437 0.600437 0
M  V30 3199 C 316.354 -3.75447 0.267642 0
M  V30 3200 C 315.501 -2.63296 0.870097 0
M  V30 3201 H 318.452 -1.29331 0.919732 0
M  V30 3202 H 318.473 -3.80269 -0.132517 0
M  V30 3203 H 317.985 -3.50442 1.66768 0
M  V30 3204 H 316.086 -3.64035 -0.794329 0
M  V30 3205 H 316.199 -4.73344 0.74042 0
M  V30 3206 H 314.563 -2.52954 0.297739 0
M  V30 3207 H 315.346 -2.83112 1.94172 0
M  V30 3208 N 317.792 -0.46758 -1.50504 0
M  V30 3209 C 319.203 -0.0116166 -1.86696 0
M  V30 3210 C 319.554 1.39202 -1.38265 0
M  V30 3211 O 318.679 2.0313 -0.746132 0
M  V30 3212 C 319.274 -0.0143044 -3.38797 0
M  V30 3213 C 317.833 0.386175 -3.74414 0
M  V30 3214 C 316.98 -0.401287 -2.74381 0
M  V30 3215 H 319.931 -0.682022 -1.43297 0
M  V30 3216 H 319.952 0.788641 -3.72237 0
M  V30 3217 H 319.464 -1.03602 -3.74016 0
M  V30 3218 H 317.565 1.41237 -3.44794 0
M  V30 3219 H 317.678 0.0899596 -4.79016 0
M  V30 3220 H 316.042 0.144536 -2.5429 0
M  V30 3221 H 316.825 -1.42244 -3.12444 0
M  V30 3222 N 319.27 1.56325 -0.20005 0
M  V30 3223 C 320.217 2.1932 0.718833 0
M  V30 3224 C 321.187 1.14198 1.20615 0
M  V30 3225 O 322.372 1.42469 1.26914 0
M  V30 3226 C 319.512 2.86041 1.93066 0
M  V30 3227 C 318.625 4.05702 1.48425 0
M  V30 3228 C 317.76 4.60266 2.65196 0
M  V30 3229 C 316.799 5.72273 2.17185 0
M  V30 3230 N 315.936 6.21221 3.27152 0
M  V30 3231 H 320.776 2.97486 0.17489 0
M  V30 3232 H 318.313 1.46911 0.0745794 0
M  V30 3233 H 320.271 3.22897 2.64184 0
M  V30 3234 H 318.901 2.1043 2.44783 0
M  V30 3235 H 317.953 3.74475 0.668755 0
M  V30 3236 H 319.265 4.86699 1.09204 0
M  V30 3237 H 318.419 4.99453 3.4443 0
M  V30 3238 H 317.158 3.78386 3.07693 0
M  V30 3239 H 316.163 5.3261 1.36407 0
M  V30 3240 H 317.388 6.55974 1.75713 0
M  V30 3241 H 315.334 5.42263 3.69171 0
M  V30 3242 H 315.251 6.97284 2.92116 0
M  V30 3243 H 316.519 6.65063 4.06585 0
M  V30 3244 N 320.748 -0.0735177 1.57428 0
M  V30 3245 C 321.973 -0.789787 1.91774 0
M  V30 3246 C 322.398 -1.70413 0.796306 0
M  V30 3247 O 321.756 -1.79555 -0.250961 0
M  V30 3248 C 321.804 -1.5609 3.25067 0
M  V30 3249 O 320.908 -2.67144 3.14178 0
M  V30 3250 H 320.249 -0.215582 0.628029 0
M  V30 3251 H 322.779 -0.0422781 2.04556 0
M  V30 3252 H 322.789 -1.94052 3.58898 0
M  V30 3253 H 321.464 -0.890015 4.06265 0
M  V30 3254 H 320.041 -2.32052 2.91901 0
M  V30 3255 N 322.226 -1.5378 -0.344866 0
M  V30 3256 C 323.466 -1.72677 -1.09371 0
M  V30 3257 C 323.83 -0.479084 -1.85927 0
M  V30 3258 O 325.031 -0.54505 -2.63216 0
M  V30 3259 C 323.302 -2.95457 -2.01097 0
M  V30 3260 S 324.861 -3.35158 -2.83222 0
M  V30 3261 H 321.679 -0.607402 -0.369573 0
M  V30 3262 H 324.281 -1.91922 -0.372307 0
M  V30 3263 H 322.985 -3.84437 -1.43655 0
M  V30 3264 H 322.516 -2.78673 -2.77678 0
M  V30 3265 H 324.531 -2.88789 -4.03504 0
M  V30 3266 N 323.704 0.605807 -1.45491 0
M  V30 3267 C 324.981 1.36522 -1.40075 0
M  V30 3268 C 325.361 2.10976 -0.0722744 0
M  V30 3269 O 324.709 2.08007 0.945808 0
M  V30 3270 C 324.919 2.31056 -2.61561 0
M  V30 3271 C 326.267 2.93608 -3.06724 0
M  V30 3272 O 327.291 2.41376 -2.61946 0
M  V30 3273 O 326.15 3.88421 -3.84437 0
M  V30 3274 H 323.244 0.612248 -0.555951 0
M  V30 3275 H 325.79 0.628747 -1.57623 0
M  V30 3276 H 324.562 1.75311 -3.49831 0
M  V30 3277 H 324.185 3.12081 -2.46356 0
M  V30 3278 N 325.182 1.32811 0.848464 0
M  V30 3279 C 326.129 1.22265 1.95755 0
M  V30 3280 C 327.099 0.103413 1.65778 0
M  V30 3281 O 328.284 0.280033 1.88734 0
M  V30 3282 C 325.424 0.958014 3.31536 0
M  V30 3283 C 324.537 2.16262 3.73971 0
M  V30 3284 C 323.672 1.83295 4.98575 0
M  V30 3285 C 322.711 3.00041 5.33518 0
M  V30 3286 N 321.848 2.67125 6.49299 0
M  V30 3287 H 326.688 2.17128 2.04107 0
M  V30 3288 H 324.225 1.07982 0.998913 0
M  V30 3289 H 326.183 0.785052 4.09747 0
M  V30 3290 H 324.813 0.046159 3.22767 0
M  V30 3291 H 323.865 2.44565 2.91362 0
M  V30 3292 H 325.177 3.03572 3.95785 0
M  V30 3293 H 324.331 1.62586 5.84509 0
M  V30 3294 H 323.07 0.932078 4.7871 0
M  V30 3295 H 322.075 3.21374 4.46093 0
M  V30 3296 H 323.3 3.90869 5.55336 0
M  V30 3297 H 321.246 1.79586 6.3094 0
M  V30 3298 H 321.163 3.47965 6.71161 0
M  V30 3299 H 322.431 2.49861 7.3837 0
M  V30 3300 N 326.66 -1.06551 1.16123 0
M  V30 3301 C 327.888 -1.83005 0.965237 0
M  V30 3302 C 328.303 -1.82423 -0.486542 0
M  V30 3303 O 327.66 -1.24152 -1.33763 0
M  V30 3304 C 327.711 -3.29733 1.48183 0
M  V30 3305 O 327.432 -3.30416 2.87674 0
M  V30 3306 C 328.933 -4.22926 1.32848 0
M  V30 3307 H 326.153 -0.577118 0.342309 0
M  V30 3308 H 328.697 -1.3445 1.54089 0
M  V30 3309 H 326.852 -3.75609 0.948517 0
M  V30 3310 H 327.266 -4.22149 3.11272 0
M  V30 3311 H 328.74 -5.23916 1.73827 0
M  V30 3312 H 329.217 -4.38346 0.273692 0
M  V30 3313 H 329.823 -3.82894 1.85127 0
M  V30 3314 N 328.138 -0.959301 -1.25041 0
M  V30 3315 C 329.088 -0.453888 -2.23436 0
M  V30 3316 C 330.072 0.459461 -1.542 0
M  V30 3317 O 331.264 0.291752 -1.74579 0
M  V30 3318 C 328.393 0.262667 -3.42294 0
M  V30 3319 C 327.479 -0.669022 -4.1879 0
M  V30 3320 N 327.87 -1.80267 -4.72586 0
M  V30 3321 C 326.168 -0.47814 -4.4343 0
M  V30 3322 C 326.869 -2.38475 -5.3057 0
M  V30 3323 N 325.845 -1.67078 -5.17287 0
M  V30 3324 H 329.647 -1.319 -2.6264 0
M  V30 3325 H 327.161 -0.817358 -1.40332 0
M  V30 3326 H 329.158 0.641911 -4.11929 0
M  V30 3327 H 327.818 1.12432 -3.04613 0
M  V30 3328 H 328.829 -2.18442 -4.69578 0
M  V30 3329 H 325.506 0.340249 -4.16111 0
M  V30 3330 H 326.896 -3.34094 -5.8295 0
M  V30 3331 N 329.616 1.39756 -0.72842 0
M  V30 3332 C 330.844 2.04948 -0.283528 0
M  V30 3333 C 331.259 1.54908 1.0793 0
M  V30 3334 O 330.616 0.711135 1.68075 0
M  V30 3335 C 330.667 3.60498 -0.268957 0
M  V30 3336 O 330.388 4.08695 -1.57798 0
M  V30 3337 C 331.889 4.4288 0.192912 0
M  V30 3338 H 329.109 0.659243 -0.125056 0
M  V30 3339 H 331.653 1.78927 -0.990226 0
M  V30 3340 H 329.808 3.85444 0.388801 0
M  V30 3341 H 330.222 5.02977 -1.48709 0
M  V30 3342 H 331.696 5.51791 0.151952 0
M  V30 3343 H 332.173 4.21418 1.23708 0
M  V30 3344 H 332.779 4.23069 -0.435039 0
M  V30 3345 N 331.094 0.475555 1.50254 0
M  V30 3346 C 332.334 -0.0765802 2.04256 0
M  V30 3347 C 332.698 -1.36587 1.34937 0
M  V30 3348 O 333.899 -2.00066 1.79519 0
M  V30 3349 C 332.17 -0.251668 3.56513 0
M  V30 3350 S 333.729 -0.761716 4.32138 0
M  V30 3351 H 330.547 -0.0138456 0.710865 0
M  V30 3352 H 333.149 0.643714 1.84598 0
M  V30 3353 H 331.853 0.692404 4.04517 0
M  V30 3354 H 331.384 -0.997946 3.80532 0
M  V30 3355 H 333.399 -2.03451 4.52573 0
M  V30 3356 N 332.573 -1.56217 0.208337 0
M  V30 3357 C 333.984 -1.84243 -0.301904 0
M  V30 3358 C 334.335 -1.12939 -1.60434 0
M  V30 3359 O 333.46 -0.39461 -2.12772 0
M  V30 3360 C 334.055 -3.34231 -0.554543 0
M  V30 3361 C 332.614 -3.62621 -1.00912 0
M  V30 3362 C 331.761 -2.77224 -0.064933 0
M  V30 3363 H 334.712 -1.52712 0.431833 0
M  V30 3364 H 334.733 -3.5372 -1.40223 0
M  V30 3365 H 334.245 -3.86099 0.393561 0
M  V30 3366 H 332.346 -3.16197 -1.97104 0
M  V30 3367 H 332.459 -4.7071 -0.892674 0
M  V30 3368 H 330.823 -2.48256 -0.56929 0
M  V30 3369 H 331.606 -3.31887 0.877851 0
M  V30 3370 N 334.051 0.0651679 -1.57465 0
M  V30 3371 C 335.462 0.616213 -1.76238 0
M  V30 3372 C 335.813 1.7756 -0.834689 0
M  V30 3373 O 334.938 2.1639 -0.0204156 0
M  V30 3374 C 335.533 1.12462 -3.1959 0
M  V30 3375 C 334.092 1.62147 -3.39684 0
M  V30 3376 C 333.239 0.543739 -2.71917 0
M  V30 3377 H 336.19 -0.161022 -1.57881 0
M  V30 3378 H 336.211 1.99324 -3.24114 0
M  V30 3379 H 335.723 0.280592 -3.87084 0
M  V30 3380 H 333.824 2.48854 -2.77313 0
M  V30 3381 H 333.937 1.69385 -4.48158 0
M  V30 3382 H 332.301 0.990352 -2.34657 0
M  V30 3383 H 333.084 -0.290216 -3.42071 0
M  V30 3384 N 335.529 1.53961 0.336706 0
M  V30 3385 C 336.769 1.73254 1.08454 0
M  V30 3386 C 337.133 0.488937 1.8567 0
M  V30 3387 O 338.334 0.559001 2.62923 0
M  V30 3388 C 336.605 2.96519 1.99528 0
M  V30 3389 S 338.164 3.36655 2.81441 0
M  V30 3390 H 334.982 0.609353 0.366347 0
M  V30 3391 H 337.584 1.92117 0.362124 0
M  V30 3392 H 336.288 3.85193 1.41614 0
M  V30 3393 H 335.819 2.80142 2.76196 0
M  V30 3394 H 337.834 2.90925 4.01967 0
M  V30 3395 N 337.007 -0.598083 1.45811 0
M  V30 3396 C 338.418 -1.18011 1.44673 0
M  V30 3397 C 338.769 -1.95378 0.179364 0
M  V30 3398 O 337.894 -2.04124 -0.718509 0
M  V30 3399 C 338.489 -2.14677 2.62105 0
M  V30 3400 C 337.048 -2.68236 2.64057 0
M  V30 3401 C 336.195 -1.43816 2.37091 0
M  V30 3402 H 339.146 -0.38686 1.53913 0
M  V30 3403 H 339.167 -2.97878 2.36746 0
M  V30 3404 H 338.679 -1.5834 3.5433 0
M  V30 3405 H 336.78 -3.28486 1.75864 0
M  V30 3406 H 336.893 -3.12021 3.63566 0
M  V30 3407 H 335.257 -1.731 1.86838 0
M  V30 3408 H 336.04 -0.893333 3.31473 0
M  V30 3409 N 338.485 -1.33259 -0.841409 0
M  V30 3410 C 339.448 -1.23221 -1.9326 0
M  V30 3411 C 340.448 -0.151895 -1.60081 0
M  V30 3412 O 341.638 -0.403246 -1.69468 0
M  V30 3413 C 338.77 -0.898123 -3.28856 0
M  V30 3414 H 339.963 -2.2021 -2.03587 0
M  V30 3415 H 337.516 -1.17281 -1.03319 0
M  V30 3416 H 338.251 0.0693841 -3.24226 0
M  V30 3417 H 338.036 -1.67934 -3.54317 0
M  V30 3418 H 339.526 -0.852563 -4.08805 0
M  V30 3419 N 339.963 1.05934 -1.16686 0
M  V30 3420 C 341.374 1.60263 -0.957745 0
M  V30 3421 C 341.725 1.89789 0.49745 0
M  V30 3422 O 340.85 1.67401 1.37135 0
M  V30 3423 C 341.445 2.91172 -1.73218 0
M  V30 3424 C 340.004 3.42188 -1.56794 0
M  V30 3425 C 339.151 2.16028 -1.73859 0
M  V30 3426 H 342.102 0.888392 -1.31504 0
M  V30 3427 H 342.123 3.60744 -1.21014 0
M  V30 3428 H 341.635 2.6965 -2.79124 0
M  V30 3429 H 339.736 3.68762 -0.533437 0
M  V30 3430 H 339.849 4.17273 -2.35414 0
M  V30 3431 H 338.213 2.26426 -1.16633 0
M  V30 3432 H 338.996 1.96985 -2.81161 0
M  V30 3433 N 341.441 0.965919 1.2453 0
M  V30 3434 C 342.351 0.502154 2.29163 0
M  V30 3435 C 343.367 -0.436017 1.68448 0
M  V30 3436 O 344.543 -0.309497 1.99008 0
M  V30 3437 C 341.608 -0.201956 3.46111 0
M  V30 3438 C 340.669 0.775821 4.22232 0
M  V30 3439 C 339.902 0.105217 5.33596 0
M  V30 3440 O 340.125 -1.10683 5.59558 0
M  V30 3441 O 339.059 0.796475 5.96607 0
M  V30 3442 H 342.885 1.37194 2.70946 0
M  V30 3443 H 340.47 0.732875 1.30189 0
M  V30 3444 H 342.352 -0.597564 4.17142 0
M  V30 3445 H 341.027 -1.04673 3.06309 0
M  V30 3446 H 339.934 1.22185 3.53584 0
M  V30 3447 H 341.267 1.58896 4.65846 0
M  V30 3448 N 342.919 -1.39368 0.735821 0
M  V30 3449 C 343.849 -2.33234 0.111506 0
M  V30 3450 C 344.83 -1.53954 -0.723334 0
M  V30 3451 O 346.015 -1.82344 -0.668147 0
M  V30 3452 C 343.145 -3.38057 -0.795917 0
M  V30 3453 C 342.099 -4.2795 -0.065172 0
M  V30 3454 C 341.425 -5.23479 -1.08967 0
M  V30 3455 C 342.725 -5.10741 1.09273 0
M  V30 3456 H 344.419 -2.85692 0.895571 0
M  V30 3457 H 341.965 -1.37364 0.432109 0
M  V30 3458 H 343.918 -4.02675 -1.24221 0
M  V30 3459 H 342.642 -2.8404 -1.61211 0
M  V30 3460 H 341.301 -3.64813 0.361511 0
M  V30 3461 H 340.949 -4.65758 -1.89944 0
M  V30 3462 H 340.649 -5.84472 -0.605489 0
M  V30 3463 H 342.173 -5.90974 -1.53565 0
M  V30 3464 H 343.587 -5.68699 0.724841 0
M  V30 3465 H 341.984 -5.8088 1.50659 0
M  V30 3466 H 343.054 -4.45525 1.91404 0
M  V30 3467 N 344.397 -0.483516 -1.5 0
M  V30 3468 C 345.327 0.293829 -2.31644 0
M  V30 3469 C 346.308 0.978864 -1.39112 0
M  V30 3470 O 347.493 0.973644 -1.68029 0
M  V30 3471 C 344.623 1.36897 -3.19181 0
M  V30 3472 C 343.577 0.804833 -4.20365 0
M  V30 3473 C 342.903 1.9792 -4.96721 0
M  V30 3474 C 344.203 -0.192313 -5.21946 0
M  V30 3475 H 345.897 -0.387616 -2.9688 0
M  V30 3476 H 343.443 -0.187856 -1.42769 0
M  V30 3477 H 345.396 1.92037 -3.751 0
M  V30 3478 H 344.12 2.07936 -2.51853 0
M  V30 3479 H 342.779 0.275319 -3.65565 0
M  V30 3480 H 342.427 2.67686 -4.25856 0
M  V30 3481 H 342.127 1.60789 -5.65173 0
M  V30 3482 H 343.651 2.53526 -5.55479 0
M  V30 3483 H 345.065 0.270333 -5.72662 0
M  V30 3484 H 343.462 -0.478543 -5.98189 0
M  V30 3485 H 344.532 -1.11409 -4.71928 0
M  V30 3486 N 345.875 1.56104 -0.216619 0
M  V30 3487 C 347.123 1.97781 0.415593 0
M  V30 3488 C 347.444 1.10536 1.60645 0
M  V30 3489 O 346.714 0.181303 1.95059 0
M  V30 3490 H 345.294 0.730415 0.156534 0
M  V30 3491 H 347.956 1.92445 -0.308366 0
M  V30 3492 H 347.052 3.03072 0.74525 0
M  V30 3493 N 347.353 -0.0568162 1.57498 0
M  V30 3494 C 348.601 -0.751617 1.87604 0
M  V30 3495 C 348.922 -1.77351 0.81066 0
M  V30 3496 O 348.192 -1.95254 -0.159018 0
M  V30 3497 H 346.772 -0.280583 0.692302 0
M  V30 3498 H 349.434 -0.0293483 1.94878 0
M  V30 3499 H 348.53 -1.25852 2.856 0
M  V30 3500 N 348.832 -1.54138 -0.328536 0
M  V30 3501 C 350.243 -1.63395 -0.903272 0
M  V30 3502 C 350.594 -0.524828 -1.8905 0
M  V30 3503 O 349.719 0.343068 -2.13663 0
M  V30 3504 C 350.314 -2.9618 -1.64507 0
M  V30 3505 C 348.873 -3.0765 -2.1686 0
M  V30 3506 C 348.02 -2.58933 -0.992416 0
M  V30 3507 H 350.971 -1.58344 -0.106253 0
M  V30 3508 H 350.992 -2.86061 -2.50897 0
M  V30 3509 H 350.504 -3.76884 -0.926302 0
M  V30 3510 H 348.605 -2.31611 -2.91868 0
M  V30 3511 H 348.718 -4.1337 -2.42202 0
M  V30 3512 H 347.082 -2.14706 -1.37016 0
M  V30 3513 H 347.865 -3.42089 -0.288041 0
M  V30 3514 N 350.31 0.590341 -1.46126 0
M  V30 3515 C 351.535 1.37991 -1.54833 0
M  V30 3516 C 351.96 1.87163 -0.187506 0
M  V30 3517 O 351.318 1.61133 0.831008 0
M  V30 3518 C 351.366 2.54867 -2.55098 0
M  V30 3519 O 350.47 3.56061 -2.08073 0
M  V30 3520 H 349.811 0.411265 -0.521303 0
M  V30 3521 H 352.341 0.716819 -1.91632 0
M  V30 3522 H 352.351 3.01886 -2.74461 0
M  V30 3523 H 351.026 2.18429 -3.53923 0
M  V30 3524 H 349.603 3.15574 -1.98664 0
M  V30 3525 N 351.788 1.33704 0.83433 0
M  V30 3526 C 353.034 1.25603 1.59222 0
M  V30 3527 C 353.367 -0.176659 1.93395 0
M  V30 3528 O 352.642 -1.11915 1.59076 0
M  V30 3529 C 352.925 2.13576 2.89926 0
M  V30 3530 C 352.778 3.65326 2.62406 0
M  V30 3531 C 354.097 2.01238 3.91397 0
M  V30 3532 H 351.216 0.457613 0.577719 0
M  V30 3533 H 353.858 1.63848 0.961972 0
M  V30 3534 H 352.008 1.8109 3.43713 0
M  V30 3535 H 353.68 4.08124 2.15017 0
M  V30 3536 H 351.923 3.8698 1.96033 0
M  V30 3537 H 352.594 4.22232 3.55562 0
M  V30 3538 H 355.07 2.29738 3.46929 0
M  V30 3539 H 353.946 2.65036 4.80673 0
M  V30 3540 H 354.207 0.985951 4.30966 0
M  V30 3541 N 353.266 -1.05314 1.17247 0
M  V30 3542 C 354.513 -1.78293 0.960091 0
M  V30 3543 C 354.841 -1.87658 -0.51136 0
M  V30 3544 O 354.096 -1.3718 -1.39571 0
M  V30 3545 C 354.395 -3.2229 1.54479 0
M  V30 3546 C 354.061 -3.32987 3.04024 0
M  V30 3547 C 352.723 -3.35613 3.44844 0
M  V30 3548 C 355.075 -3.34102 4.00031 0
M  V30 3549 C 352.403 -3.36982 4.8027 0
M  V30 3550 C 354.755 -3.3701 5.35357 0
M  V30 3551 C 353.419 -3.37923 5.75642 0
M  V30 3552 H 352.689 -0.652422 0.351322 0
M  V30 3553 H 355.336 -1.23782 1.46117 0
M  V30 3554 H 353.641 -3.7972 0.965391 0
M  V30 3555 H 355.338 -3.77376 1.35603 0
M  V30 3556 H 351.928 -3.31655 2.71483 0
M  V30 3557 H 356.112 -3.31276 3.69554 0
M  V30 3558 H 351.368 -3.35999 5.10798 0
M  V30 3559 H 355.542 -3.36822 6.09528 0
M  V30 3560 H 353.169 -3.38738 6.80559 0
M  V30 3561 N 354.744 -0.972509 -1.24016 0
M  V30 3562 C 355.674 -0.525548 -2.27509 0
M  V30 3563 C 356.655 0.437262 -1.64384 0
M  V30 3564 O 357.84 0.332343 -1.91335 0
M  V30 3565 C 354.97 0.180448 -3.46831 0
M  V30 3566 C 353.924 -0.698859 -4.22256 0
M  V30 3567 C 353.25 0.138903 -5.3452 0
M  V30 3568 C 354.55 -1.98582 -4.83076 0
M  V30 3569 H 356.244 -1.39058 -2.65148 0
M  V30 3570 H 353.79 -0.67009 -1.27459 0
M  V30 3571 H 355.743 0.504387 -4.18371 0
M  V30 3572 H 354.467 1.07987 -3.08231 0
M  V30 3573 H 353.126 -1.00614 -3.52523 0
M  V30 3574 H 352.774 1.03862 -4.9216 0
M  V30 3575 H 352.474 -0.446259 -5.85903 0
M  V30 3576 H 353.998 0.457404 -6.08884 0
M  V30 3577 H 355.412 -1.72715 -5.46665 0
M  V30 3578 H 353.809 -2.5181 -5.44713 0
M  V30 3579 H 354.879 -2.67769 -4.04262 0
M  V30 3580 N 356.222 1.38976 -0.743202 0
M  V30 3581 C 357.469 2.00343 -0.294752 0
M  V30 3582 C 357.797 1.58983 1.12047 0
M  V30 3583 O 357.052 0.813809 1.77977 0
M  V30 3584 C 357.351 3.55647 -0.353517 0
M  V30 3585 C 357.017 4.16685 -1.72292 0
M  V30 3586 C 355.679 4.3307 -2.09771 0
M  V30 3587 C 358.031 4.50464 -2.62168 0
M  V30 3588 C 355.359 4.80526 -3.36618 0
M  V30 3589 C 357.711 4.99332 -3.88395 0
M  V30 3590 C 356.375 5.13924 -4.25956 0
M  V30 3591 H 355.645 0.733108 -0.107857 0
M  V30 3592 H 358.292 1.6618 -0.951651 0
M  V30 3593 H 356.597 3.89884 0.386954 0
M  V30 3594 H 358.294 4.00998 0.0117269 0
M  V30 3595 H 354.884 4.04339 -1.42155 0
M  V30 3596 H 359.068 4.37416 -2.3448 0
M  V30 3597 H 354.324 4.90008 -3.65653 0
M  V30 3598 H 358.498 5.2444 -4.58187 0
M  V30 3599 H 356.125 5.50457 -5.2431 0
M  V30 3600 N 357.7 0.491464 1.49741 0
M  V30 3601 C 359.111 0.0413169 1.86654 0
M  V30 3602 C 359.462 -1.36985 1.40462 0
M  V30 3603 O 358.587 -2.01917 0.778354 0
M  V30 3604 C 359.182 0.0682023 3.38731 0
M  V30 3605 C 357.741 -0.32656 3.74981 0
M  V30 3606 C 356.888 0.444888 2.73708 0
M  V30 3607 H 359.839 0.704733 1.42194 0
M  V30 3608 H 359.86 -0.729322 3.73445 0
M  V30 3609 H 359.372 1.09539 3.72321 0
M  V30 3610 H 357.473 -1.35734 3.46997 0
M  V30 3611 H 357.586 -0.013741 4.79098 0
M  V30 3612 H 355.95 -0.104062 2.54487 0
M  V30 3613 H 356.733 1.47197 3.10142 0
M  V30 3614 N 359.178 -1.55987 0.224894 0
M  V30 3615 C 360.589 -1.84553 -0.282345 0
M  V30 3616 C 360.94 -1.14634 -1.59227 0
M  V30 3617 O 360.065 -0.417155 -2.12341 0
M  V30 3618 C 360.66 -3.348 -0.519062 0
M  V30 3619 C 359.219 -3.63671 -0.970604 0
M  V30 3620 C 358.366 -2.77277 -0.0355261 0
M  V30 3621 H 361.317 -1.52245 0.448006 0
M  V30 3622 H 361.338 -3.55187 -1.36463 0
M  V30 3623 H 360.85 -3.8566 0.43449 0
M  V30 3624 H 358.951 -3.1827 -1.9374 0
M  V30 3625 H 359.064 -4.71631 -0.842698 0
M  V30 3626 H 357.428 -2.48846 -0.542927 0
M  V30 3627 H 358.211 -3.30937 0.913003 0
M  V30 3628 N 360.656 0.0484629 -1.57525 0
M  V30 3629 C 361.603 1.05504 -2.05275 0
M  V30 3630 C 362.573 1.37084 -0.937927 0
M  V30 3631 O 363.758 1.47754 -1.2072 0
M  V30 3632 C 360.898 2.35676 -2.52093 0
M  V30 3633 C 360.011 2.10423 -3.77288 0
M  V30 3634 C 359.146 3.34327 -4.12794 0
M  V30 3635 C 358.185 3.04542 -5.30962 0
M  V30 3636 N 357.322 4.20841 -5.61994 0
M  V30 3637 H 362.162 0.640885 -2.91027 0
M  V30 3638 H 359.699 0.304854 -1.43906 0
M  V30 3639 H 361.657 3.11709 -2.77297 0
M  V30 3640 H 360.287 2.7485 -1.69285 0
M  V30 3641 H 359.339 1.24976 -3.59284 0
M  V30 3642 H 360.651 1.84438 -4.63448 0
M  V30 3643 H 359.805 4.1874 -4.39024 0
M  V30 3644 H 358.544 3.63408 -3.25247 0
M  V30 3645 H 357.549 2.18528 -5.04505 0
M  V30 3646 H 358.774 2.76758 -6.20146 0
M  V30 3647 H 356.72 4.4991 -4.77406 0
M  V30 3648 H 356.637 3.98212 -6.42622 0
M  V30 3649 H 357.905 5.06184 -5.92789 0
M  V30 3650 N 362.134 1.5431 0.320358 0
M  V30 3651 C 363.545 1.63872 0.894594 0
M  V30 3652 C 363.896 0.534847 1.88769 0
M  V30 3653 O 363.021 -0.331732 2.13842 0
M  V30 3654 C 363.616 2.97049 1.62934 0
M  V30 3655 C 362.175 3.08796 2.15226 0
M  V30 3656 C 361.322 2.59456 0.978671 0
M  V30 3657 H 364.273 1.58398 0.0978544 0
M  V30 3658 H 364.294 2.87388 2.49376 0
M  V30 3659 H 363.806 3.7737 0.906302 0
M  V30 3660 H 361.907 2.33156 2.90636 0
M  V30 3661 H 362.02 4.14649 2.40006 0
M  V30 3662 H 360.384 2.1543 1.35875 0
M  V30 3663 H 361.167 3.42237 0.269895 0
M  V30 3664 N 363.613 -0.582584 1.46437 0
M  V30 3665 C 364.56 -1.69164 1.5701 0
M  V30 3666 C 365.53 -1.60847 0.414403 0
M  V30 3667 O 366.715 -1.80058 0.631171 0
M  V30 3668 C 363.855 -3.075 1.56646 0
M  V30 3669 C 362.968 -3.2644 2.82951 0
M  V30 3670 C 362.103 -4.55026 2.7409 0
M  V30 3671 C 361.142 -4.6731 3.95333 0
M  V30 3672 N 360.279 -5.87221 3.84858 0
M  V30 3673 H 365.119 -1.59464 2.51744 0
M  V30 3674 H 362.656 -0.777186 1.24893 0
M  V30 3675 H 364.614 -3.8757 1.5442 0
M  V30 3676 H 363.244 -3.16096 0.654439 0
M  V30 3677 H 362.296 -2.39974 2.95155 0
M  V30 3678 H 363.608 -3.31385 3.72808 0
M  V30 3679 H 362.762 -5.43324 2.6997 0
M  V30 3680 H 361.501 -4.52519 1.81873 0
M  V30 3681 H 360.506 -3.77429 3.99784 0
M  V30 3682 H 361.731 -4.71595 4.88646 0
M  V30 3683 H 359.677 -5.85712 2.95427 0
M  V30 3684 H 359.594 -5.93435 4.6837 0
M  V30 3685 H 360.862 -6.7795 3.84713 0
M  V30 3686 N 365.091 -1.34144 -0.827227 0
M  V30 3687 C 366.368 -1.16844 -1.56865 0
M  V30 3688 C 366.748 0.260654 -2.09485 0
M  V30 3689 O 366.096 1.26138 -1.9053 0
M  V30 3690 C 366.306 -2.21939 -2.6934 0
M  V30 3691 C 367.654 -2.56695 -3.3822 0
M  V30 3692 O 368.678 -2.20695 -2.79593 0
M  V30 3693 O 367.537 -3.18518 -4.44082 0
M  V30 3694 H 364.631 -0.452669 -0.692112 0
M  V30 3695 H 367.177 -1.45763 -0.868973 0
M  V30 3696 H 365.949 -3.17882 -2.28182 0
M  V30 3697 H 365.572 -1.94172 -3.46962 0
M  V30 3698 N 366.569 1.04691 -1.17803 0
M  V30 3699 C 367.797 1.81446 -0.99423 0
M  V30 3700 C 368.212 1.83174 0.457459 0
M  V30 3701 O 367.569 1.26265 1.31771 0
M  V30 3702 C 367.62 3.27334 -1.5341 0
M  V30 3703 O 367.341 3.25798 -2.92895 0
M  V30 3704 C 368.842 4.20759 -1.39559 0
M  V30 3705 H 366.062 0.571599 -0.351447 0
M  V30 3706 H 368.606 1.31982 -1.56208 0
M  V30 3707 H 366.761 3.74052 -1.00815 0
M  V30 3708 H 367.175 4.17144 -3.17949 0
M  V30 3709 H 368.649 5.21084 -1.82141 0
M  V30 3710 H 369.126 4.37856 -0.343394 0
M  V30 3711 H 369.732 3.79901 -1.91195 0
M  V30 3712 N 368.047 0.979072 1.23499 0
M  V30 3713 C 368.977 0.537606 2.27227 0
M  V30 3714 C 369.958 -0.428539 1.64613 0
M  V30 3715 O 371.143 -0.322191 1.91509 0
M  V30 3716 C 368.273 -0.162052 3.46922 0
M  V30 3717 C 367.227 0.721242 4.21879 0
M  V30 3718 C 366.553 -0.110555 5.34586 0
M  V30 3719 C 367.853 2.01141 4.82016 0
M  V30 3720 H 369.547 1.40462 2.64406 0
M  V30 3721 H 367.093 0.67684 1.27102 0
M  V30 3722 H 369.046 -0.482192 4.18632 0
M  V30 3723 H 367.77 -1.06351 3.08799 0
M  V30 3724 H 366.429 1.02482 3.51984 0
M  V30 3725 H 366.077 -1.0125 4.92704 0
M  V30 3726 H 365.777 0.477325 5.85658 0
M  V30 3727 H 367.301 -0.425107 6.09118 0
M  V30 3728 H 368.715 1.75612 5.45741 0
M  V30 3729 H 367.112 2.54695 5.43369 0
M  V30 3730 H 368.182 2.69909 4.02836 0
M  V30 3731 N 369.525 -1.3858 0.750561 0
M  V30 3732 C 370.458 -2.28095 0.0693139 0
M  V30 3733 C 371.436 -1.45217 -0.731491 0
M  V30 3734 O 372.62 -1.74587 -0.71076 0
M  V30 3735 C 369.747 -3.26282 -0.90871 0
M  V30 3736 C 368.793 -4.26056 -0.194507 0
M  V30 3737 S 369.626 -5.24026 1.10257 0
M  V30 3738 C 370.782 -6.2577 0.127542 0
M  V30 3739 H 371.015 -2.85526 0.8284 0
M  V30 3740 H 368.548 -1.44536 0.543014 0
M  V30 3741 H 370.506 -3.83367 -1.46766 0
M  V30 3742 H 369.167 -2.6784 -1.64075 0
M  V30 3743 H 368.36 -4.95249 -0.93512 0
M  V30 3744 H 367.962 -3.72852 0.292837 0
M  V30 3745 H 370.254 -6.73796 -0.707516 0
M  V30 3746 H 371.197 -7.03712 0.787044 0
M  V30 3747 H 371.605 -5.63938 -0.251803 0
M  V30 3748 N 371.003 -0.499398 -1.49478 0
M  V30 3749 C 372.252 0.0475259 -2.01644 0
M  V30 3750 C 372.565 1.38195 -1.38425 0
M  V30 3751 O 373.771 2.01547 -1.8191 0
M  V30 3752 C 372.227 0.135164 -3.59646 0
M  V30 3753 C 371.835 -1.19252 -4.31837 0
M  V30 3754 C 373.579 0.632538 -4.19761 0
M  V30 3755 C 371.486 -1.06713 -5.81693 0
M  V30 3756 H 370.416 0.0215349 -0.753692 0
M  V30 3757 H 373.067 -0.638577 -1.7203 0
M  V30 3758 H 371.449 0.885681 -3.85969 0
M  V30 3759 H 372.623 -1.9562 -4.17216 0
M  V30 3760 H 370.938 -1.62321 -3.83459 0
M  V30 3761 H 373.535 0.743833 -5.29501 0
M  V30 3762 H 373.878 1.63098 -3.83021 0
M  V30 3763 H 374.411 -0.0613987 -3.97753 0
M  V30 3764 H 371.15 -2.03979 -6.22955 0
M  V30 3765 H 370.67 -0.344307 -5.98811 0
M  V30 3766 H 372.349 -0.745208 -6.42694 0
M  V30 3767 N 372.481 1.55866 -0.233164 0
M  V30 3768 C 373.706 2.03449 0.402906 0
M  V30 3769 C 374.131 1.11166 1.51736 0
M  V30 3770 O 373.489 0.101996 1.81013 0
M  V30 3771 C 373.537 3.49165 0.9009 0
M  V30 3772 O 372.641 3.60019 2.01147 0
M  V30 3773 H 371.982 0.657913 0.0897025 0
M  V30 3774 H 374.512 2.01493 -0.355201 0
M  V30 3775 H 374.522 3.89716 1.2077 0
M  V30 3776 H 373.197 4.15813 0.0852889 0
M  V30 3777 H 371.774 3.3136 1.71042 0
M  V30 3778 N 373.959 -0.0401083 1.57549 0
M  V30 3779 C 375.375 -0.395556 1.54621 0
M  V30 3780 C 375.575 -1.77281 0.957799 0
M  V30 3781 O 374.631 -2.45888 0.574031 0
M  V30 3782 C 375.944 -0.307535 2.99123 0
M  V30 3783 C 377.492 -0.385425 3.10618 0
M  V30 3784 C 377.967 -0.326973 4.56831 0
M  V30 3785 N 379.458 -0.386102 4.61588 0
M  V30 3786 C 380.193 -0.363591 5.72246 0
M  V30 3787 N 379.689 -0.29402 6.92176 0
M  V30 3788 N 381.482 -0.412503 5.60584 0
M  V30 3789 H 373.633 0.861325 1.94152 0
M  V30 3790 H 375.896 0.326445 0.890021 0
M  V30 3791 H 375.602 0.638461 3.45856 0
M  V30 3792 H 375.476 -1.10552 3.60636 0
M  V30 3793 H 377.863 -1.32185 2.63839 0
M  V30 3794 H 377.944 0.44171 2.51957 0
M  V30 3795 H 377.588 0.605738 5.04275 0
M  V30 3796 H 377.518 -1.17207 5.13391 0
M  V30 3797 H 380.009 -0.442832 3.75296 0
M  V30 3798 H 380.322 -0.28164 7.72287 0
M  V30 3799 H 378.667 -0.260232 6.94513 0
M  V30 3800 H 381.858 -0.464769 4.65787 0
M  V30 3801 H 382.031 -0.391492 6.46816 0
M  V30 3802 N 375.437 -1.54477 -0.31217 0
M  V30 3803 C 376.665 -1.77205 -1.068 0
M  V30 3804 C 377.08 -0.526114 -1.81321 0
M  V30 3805 O 376.437 0.503647 -1.75413 0
M  V30 3806 C 376.488 -2.97253 -2.05725 0
M  V30 3807 O 376.209 -4.1703 -1.34228 0
M  V30 3808 C 377.71 -3.32281 -2.93435 0
M  V30 3809 H 374.93 -0.591287 -0.317208 0
M  V30 3810 H 377.474 -2.01398 -0.354834 0
M  V30 3811 H 375.629 -2.753 -2.72559 0
M  V30 3812 H 376.043 -4.84636 -2.00571 0
M  V30 3813 H 377.517 -4.19551 -3.58721 0
M  V30 3814 H 377.994 -2.49945 -3.61143 0
M  V30 3815 H 378.6 -3.56353 -2.32147 0
M  V30 3816 N 376.915 0.57481 -1.46744 0
M  V30 3817 C 378.326 1.15695 -1.46532 0
M  V30 3818 C 378.677 1.95068 -0.210425 0
M  V30 3819 O 377.802 2.05241 0.685944 0
M  V30 3820 C 378.397 2.1048 -2.65487 0
M  V30 3821 C 376.956 2.64002 -2.68291 0
M  V30 3822 C 376.103 1.40026 -2.39349 0
M  V30 3823 H 379.054 0.362325 -1.54509 0
M  V30 3824 H 379.075 2.94074 -2.41455 0
M  V30 3825 H 378.587 1.52683 -3.56805 0
M  V30 3826 H 376.688 3.25646 -1.81067 0
M  V30 3827 H 376.801 3.06197 -3.68483 0
M  V30 3828 H 375.165 1.70106 -1.89568 0
M  V30 3829 H 375.948 0.840485 -3.32852 0
M  V30 3830 N 378.394 1.34581 0.820102 0
M  V30 3831 C 379.304 1.28471 1.96297 0
M  V30 3832 C 380.32 0.191902 1.72939 0
M  V30 3833 O 381.496 0.418879 1.96996 0
M  V30 3834 C 378.561 1.04281 3.30645 0
M  V30 3835 C 377.622 2.22745 3.66992 0
M  V30 3836 C 376.855 1.997 4.9493 0
M  V30 3837 O 377.078 0.956656 5.6232 0
M  V30 3838 O 376.012 2.86723 5.2922 0
M  V30 3839 H 379.838 2.24624 2.04396 0
M  V30 3840 H 377.423 1.14816 0.955913 0
M  V30 3841 H 379.305 0.925841 4.11104 0
M  V30 3842 H 377.98 0.111697 3.23507 0
M  V30 3843 H 376.887 2.40003 2.86966 0
M  V30 3844 H 378.22 3.14257 3.78819 0
M  V30 3845 N 379.872 -1.04064 1.18357 0
M  V30 3846 C 381.118 -1.77528 0.980397 0
M  V30 3847 C 381.451 -1.87948 -0.48879 0
M  V30 3848 O 380.726 -1.3876 -1.36293 0
M  V30 3849 C 381.009 -3.20797 1.63588 0
M  V30 3850 C 380.862 -3.1832 3.17793 0
M  V30 3851 C 382.181 -4.18911 1.34914 0
M  V30 3852 H 379.3 -0.644443 0.357578 0
M  V30 3853 H 381.942 -1.2156 1.46024 0
M  V30 3854 H 380.092 -3.68586 1.22788 0
M  V30 3855 H 381.764 -2.78521 3.67728 0
M  V30 3856 H 380.007 -2.56351 3.49952 0
M  V30 3857 H 380.678 -4.19489 3.58794 0
M  V30 3858 H 383.154 -3.7967 1.70265 0
M  V30 3859 H 382.03 -5.17374 1.83346 0
M  V30 3860 H 382.291 -4.41262 0.272027 0
M  V30 3861 N 381.35 -0.985608 -1.22978 0
M  V30 3862 C 382.578 -0.675582 -1.95559 0
M  V30 3863 C 382.993 0.758413 -1.72897 0
M  V30 3864 O 382.35 1.51094 -1.02357 0
M  V30 3865 C 382.401 -0.96293 -3.48439 0
M  V30 3866 O 382.122 -2.34057 -3.70336 0
M  V30 3867 C 383.623 -0.669585 -4.38214 0
M  V30 3868 H 380.843 -0.250523 -0.622478 0
M  V30 3869 H 383.387 -1.3184 -1.56328 0
M  V30 3870 H 381.542 -0.366033 -3.85667 0
M  V30 3871 H 381.956 -2.43424 -4.64591 0
M  V30 3872 H 383.43 -0.920967 -5.44263 0
M  V30 3873 H 383.907 0.396383 -4.37408 0
M  V30 3874 H 384.513 -1.2472 -4.06602 0
M  V30 3875 N 382.828 1.3818 -0.7579 0
M  V30 3876 C 384.068 2.01864 -0.320968 0
M  V30 3877 C 384.432 1.58863 1.07827 0
M  V30 3878 O 385.633 2.14908 1.61456 0
M  V30 3879 C 383.904 3.54626 -0.44446 0
M  V30 3880 S 385.463 4.38706 -0.0907467 0
M  V30 3881 H 382.281 0.700056 -0.124268 0
M  V30 3882 H 384.883 1.68611 -0.989468 0
M  V30 3883 H 383.587 3.83411 -1.4637 0
M  V30 3884 H 383.118 3.92661 0.241073 0
M  V30 3885 H 385.133 4.83435 1.11826 0
M  V30 3886 N 384.306 0.507319 1.49211 0
M  V30 3887 C 385.552 -0.0350047 2.0277 0
M  V30 3888 C 385.885 -1.3606 1.38569 0
M  V30 3889 O 385.16 -1.87321 0.523542 0
M  V30 3890 C 385.443 -0.180916 3.59645 0
M  V30 3891 C 385.296 1.16825 4.34364 0
M  V30 3892 C 386.615 -0.918558 4.30407 0
M  V30 3893 H 383.734 -0.0112473 0.736914 0
M  V30 3894 H 386.376 0.659956 1.7817 0
M  V30 3895 H 384.526 -0.772826 3.80736 0
M  V30 3896 H 386.198 1.79952 4.24753 0
M  V30 3897 H 384.441 1.75594 3.96673 0
M  V30 3898 H 385.112 1.01939 5.42506 0
M  V30 3899 H 387.588 -0.41649 4.1401 0
M  V30 3900 H 386.464 -0.989505 5.39907 0
M  V30 3901 H 386.725 -1.96373 3.96093 0
M  V30 3902 N 385.784 -1.5574 0.241426 0
M  V30 3903 C 387.03 -1.99104 -0.385406 0
M  V30 3904 C 387.363 -1.1293 -1.57988 0
M  V30 3905 O 386.638 -0.191449 -1.93555 0
M  V30 3906 C 386.921 -3.51087 -0.800616 0
M  V30 3907 C 386.774 -4.48028 0.398874 0
M  V30 3908 C 388.093 -4.08015 -1.64959 0
M  V30 3909 H 385.212 -0.723848 -0.138614 0
M  V30 3910 H 387.854 -1.86903 0.341642 0
M  V30 3911 H 386.004 -3.61615 -1.4201 0
M  V30 3912 H 387.676 -4.49487 1.03726 0
M  V30 3913 H 385.919 -4.21077 1.04293 0
M  V30 3914 H 386.59 -5.51962 0.0651056 0
M  V30 3915 H 389.066 -4.00555 -1.12672 0
M  V30 3916 H 387.942 -5.14635 -1.90898 0
M  V30 3917 H 388.203 -3.56131 -2.61961 0
M  V30 3918 N 387.262 0.0317525 -1.57568 0
M  V30 3919 C 388.508 0.724175 -1.8943 0
M  V30 3920 C 388.841 1.75149 -0.838836 0
M  V30 3921 O 388.116 1.93948 0.146422 0
M  V30 3922 C 388.399 1.39615 -3.31933 0
M  V30 3923 C 388.252 0.382537 -4.4817 0
M  V30 3924 C 389.571 2.33084 -3.73309 0
M  V30 3925 H 386.69 0.261797 -0.688935 0
M  V30 3926 H 389.332 -0.013017 -1.89996 0
M  V30 3927 H 387.482 2.02451 -3.31581 0
M  V30 3928 H 389.154 -0.243689 -4.60656 0
M  V30 3929 H 387.397 -0.29844 -4.32772 0
M  V30 3930 H 388.068 0.891145 -5.44759 0
M  V30 3931 H 390.544 1.80295 -3.7501 0
M  V30 3932 H 389.42 2.77084 -4.73831 0
M  V30 3933 H 389.681 3.19643 -3.05419 0
M  V30 3934 N 388.74 1.54641 0.303973 0
M  V30 3935 C 390.017 1.64455 1.05896 0
M  V30 3936 C 390.397 0.490923 2.05312 0
M  V30 3937 O 389.745 -0.512685 2.22674 0
M  V30 3938 C 389.955 3.02331 1.74347 0
M  V30 3939 C 391.303 3.59045 2.26653 0
M  V30 3940 O 392.327 3.04764 1.84384 0
M  V30 3941 O 391.186 4.54081 3.04093 0
M  V30 3942 H 388.28 0.666729 0.489287 0
M  V30 3943 H 390.826 1.66986 0.302298 0
M  V30 3944 H 389.598 3.77734 1.02142 0
M  V30 3945 H 389.221 3.03565 2.56777 0
M  V30 3946 N 390.218 -0.567019 1.47046 0
M  V30 3947 C 391.464 -1.32658 1.53394 0
M  V30 3948 C 391.797 -1.93254 0.19148 0
M  V30 3949 O 391.072 -1.77338 -0.798844 0
M  V30 3950 C 391.355 -2.44412 2.64452 0
M  V30 3951 C 391.208 -1.88749 4.08282 0
M  V30 3952 C 392.527 -3.46387 2.71485 0
M  V30 3953 H 389.646 -0.48098 0.558415 0
M  V30 3954 H 392.288 -0.635481 1.79058 0
M  V30 3955 H 390.438 -3.03363 2.427 0
M  V30 3956 H 392.11 -1.34134 4.41368 0
M  V30 3957 H 390.353 -1.19481 4.17021 0
M  V30 3958 H 391.024 -2.69491 4.81745 0
M  V30 3959 H 393.5 -2.9734 2.91081 0
M  V30 3960 H 392.376 -4.2202 3.50985 0
M  V30 3961 H 392.637 -4.04616 1.78153 0
M  V30 3962 N 391.696 -1.35014 -0.812953 0
M  V30 3963 C 392.921 -1.31187 -1.60639 0
M  V30 3964 C 393.346 0.109382 -1.87782 0
M  V30 3965 O 392.704 1.07424 -1.46047 0
M  V30 3966 C 392.752 -2.11809 -2.91838 0
M  V30 3967 O 391.856 -1.49444 -3.8437 0
M  V30 3968 H 391.197 -0.450084 -0.488181 0
M  V30 3969 H 393.727 -1.77963 -1.00947 0
M  V30 3970 H 393.737 -2.23531 -3.41318 0
M  V30 3971 H 392.412 -3.15137 -2.71407 0
M  V30 3972 H 390.989 -1.46524 -3.42907 0
M  V30 3973 N 393.175 1.03435 -1.18907 0
M  V30 3974 C 394.125 2.09924 -0.889706 0
M  V30 3975 C 395.109 1.60261 0.143216 0
M  V30 3976 O 396.301 1.76892 -0.0617122 0
M  V30 3977 C 393.43 3.40669 -0.424168 0
M  V30 3978 C 392.516 3.97082 -1.48952 0
M  V30 3979 N 392.907 4.27227 -2.70759 0
M  V30 3980 C 391.205 4.25029 -1.35152 0
M  V30 3981 C 391.906 4.7246 -3.39347 0
M  V30 3982 N 390.882 4.7366 -2.66735 0
M  V30 3983 H 394.684 2.31116 -1.81555 0
M  V30 3984 H 392.198 1.21246 -1.08042 0
M  V30 3985 H 394.195 4.16461 -0.191176 0
M  V30 3986 H 392.855 3.20901 0.495263 0
M  V30 3987 H 393.866 4.16678 -3.0757 0
M  V30 3988 H 390.543 4.14554 -0.495126 0
M  V30 3989 H 391.933 5.04751 -4.43481 0
M  V30 3990 N 394.653 0.992116 1.22453 0
M  V30 3991 C 395.563 0.55065 2.28046 0
M  V30 3992 C 396.579 -0.400189 1.69335 0
M  V30 3993 O 397.755 -0.267215 1.99619 0
M  V30 3994 C 394.82 -0.128496 3.46462 0
M  V30 3995 C 393.881 0.865208 4.20491 0
M  V30 3996 C 393.114 0.218377 5.33253 0
M  V30 3997 O 393.337 -0.987894 5.6178 0
M  V30 3998 O 392.271 0.922845 5.94783 0
M  V30 3999 H 396.097 1.4291 2.67975 0
M  V30 4000 H 393.682 0.760326 1.28606 0
M  V30 4001 H 395.564 -0.508947 4.18315 0
M  V30 4002 H 394.239 -0.981526 3.0846 0
M  V30 4003 H 393.146 1.29658 3.50913 0
M  V30 4004 H 394.479 1.68741 4.62371 0
M  V30 4005 N 396.131 -1.37776 0.765217 0
M  V30 4006 C 397.408 -1.93975 0.251596 0
M  V30 4007 C 397.788 -1.69949 -1.25222 0
M  V30 4008 O 397.136 -1.04457 -2.03226 0
M  V30 4009 C 397.346 -3.43487 0.617895 0
M  V30 4010 C 398.694 -4.20564 0.584029 0
M  V30 4011 O 399.718 -3.5182 0.556888 0
M  V30 4012 O 398.577 -5.43138 0.605291 0
M  V30 4013 H 395.671 -0.82509 0.0561806 0
M  V30 4014 H 398.217 -1.47101 0.846128 0
M  V30 4015 H 396.989 -3.5453 1.65602 0
M  V30 4016 H 396.612 -3.976 -0.00403411 0
M  V30 4017 N 397.609 -0.515225 -1.4894 0
M  V30 4018 C 399.02 -0.0710067 -1.86565 0
M  V30 4019 C 399.371 1.34733 -1.42623 0
M  V30 4020 O 398.496 2.00653 -0.810379 0
M  V30 4021 C 399.091 -0.122083 -3.3858 0
M  V30 4022 C 397.65 0.266863 -3.75453 0
M  V30 4023 C 396.797 -0.488376 -2.72966 0
M  V30 4024 H 399.748 -0.727266 -1.41055 0
M  V30 4025 H 399.769 0.669818 -3.74558 0
M  V30 4026 H 399.281 -1.15448 -3.70531 0
M  V30 4027 H 397.382 1.30196 -3.49113 0
M  V30 4028 H 397.495 -0.0624811 -4.79059 0
M  V30 4029 H 395.859 0.0635622 -2.54621 0
M  V30 4030 H 396.642 -1.52113 -3.07761 0
M  V30 4031 N 399.087 1.5561 -0.249682 0
M  V30 4032 C 399.997 2.25143 0.659375 0
M  V30 4033 C 401.013 1.2685 1.19101 0
M  V30 4034 O 402.189 1.59732 1.22669 0
M  V30 4035 C 399.254 2.93945 1.8384 0
M  V30 4036 C 398.315 4.07655 1.34596 0
M  V30 4037 C 397.548 4.73167 2.46878 0
M  V30 4038 O 397.771 4.37768 3.65671 0
M  V30 4039 O 396.705 5.61623 2.16478 0
M  V30 4040 H 400.531 3.03545 0.0968698 0
M  V30 4041 H 398.116 1.49389 -0.018074 0
M  V30 4042 H 399.998 3.37271 2.52638 0
M  V30 4043 H 398.673 2.18481 2.38847 0
M  V30 4044 H 397.58 3.68839 0.625174 0
M  V30 4045 H 398.913 4.84946 0.841941 0
M  V30 4046 N 400.565 -0.0233959 1.57583 0
M  V30 4047 C 401.811 -0.714119 1.89811 0
M  V30 4048 C 402.144 -1.74702 0.848113 0
M  V30 4049 O 401.419 -1.94023 -0.136135 0
M  V30 4050 C 401.702 -1.37853 3.32669 0
M  V30 4051 C 401.555 -0.358764 4.48367 0
M  V30 4052 C 402.874 -2.31101 3.7454 0
M  V30 4053 H 399.993 -0.25814 0.690314 0
M  V30 4054 H 402.635 0.0230927 1.89986 0
M  V30 4055 H 400.785 -2.00689 3.3265 0
M  V30 4056 H 402.457 0.268115 4.6052 0
M  V30 4057 H 400.7 0.321387 4.32608 0
M  V30 4058 H 401.371 -0.862242 5.45224 0
M  V30 4059 H 403.847 -1.78304 3.75961 0
M  V30 4060 H 402.723 -2.74567 4.75294 0
M  V30 4061 H 402.984 -3.18018 3.0711 0
M  V30 4062 N 402.043 -1.548 -0.295768 0
M  V30 4063 C 402.99 -1.86113 -1.36494 0
M  V30 4064 C 403.96 -0.7105 -1.50137 0
M  V30 4065 O 405.145 -0.959626 -1.64912 0
M  V30 4066 C 402.285 -2.11861 -2.72413 0
M  V30 4067 C 401.398 -3.39471 -2.67177 0
M  V30 4068 C 400.533 -3.55035 -3.95125 0
M  V30 4069 C 399.572 -4.76418 -3.84308 0
M  V30 4070 N 398.709 -4.8876 -5.04042 0
M  V30 4071 H 403.549 -2.77314 -1.09091 0
M  V30 4072 H 401.086 -1.37315 -0.52753 0
M  V30 4073 H 403.044 -2.24786 -3.51464 0
M  V30 4074 H 401.674 -1.2392 -2.98066 0
M  V30 4075 H 400.726 -3.35139 -1.79962 0
M  V30 4076 H 402.038 -4.28646 -2.55076 0
M  V30 4077 H 401.192 -3.67653 -4.82614 0
M  V30 4078 H 399.931 -2.64002 -4.10066 0
M  V30 4079 H 398.936 -4.63827 -2.95202 0
M  V30 4080 H 400.161 -5.68863 -3.70906 0
M  V30 4081 H 398.107 -4.00652 -5.19436 0
M  V30 4082 H 398.024 -5.71945 -4.94384 0
M  V30 4083 H 399.292 -5.0574 -5.93167 0
M  V30 4084 N 403.521 0.559213 -1.47345 0
M  V30 4085 C 404.768 1.31648 -1.53867 0
M  V30 4086 C 405.096 1.93468 -0.200104 0
M  V30 4087 O 404.351 1.78295 0.806799 0
M  V30 4088 C 404.65 2.44853 -2.6035 0
M  V30 4089 C 404.316 2.00876 -4.03683 0
M  V30 4090 C 402.978 1.88599 -4.42701 0
M  V30 4091 C 405.33 1.67279 -4.93626 0
M  V30 4092 C 402.658 1.41017 -5.69501 0
M  V30 4093 C 405.01 1.21169 -6.20887 0
M  V30 4094 C 403.674 1.07487 -6.58789 0
M  V30 4095 H 402.944 0.481734 -0.56304 0
M  V30 4096 H 405.591 0.627301 -1.80934 0
M  V30 4097 H 403.896 3.19318 -2.27032 0
M  V30 4098 H 405.593 3.03039 -2.62619 0
M  V30 4099 H 402.183 2.11374 -3.72853 0
M  V30 4100 H 406.367 1.75638 -4.64182 0
M  V30 4101 H 401.623 1.29086 -5.97618 0
M  V30 4102 H 405.797 0.942345 -6.89995 0
M  V30 4103 H 403.424 0.703946 -7.56934 0
M  V30 4104 N 404.999 1.35443 0.805782 0
M  V30 4105 C 405.947 1.28465 1.93906 0
M  V30 4106 C 406.941 0.17943 1.68447 0
M  V30 4107 O 408.147 0.345459 1.76654 0
M  V30 4108 H 404.522 0.399528 0.637088 0
M  V30 4109 H 406.493 2.24206 1.96912 0
M  V30 4110 C 405.242 1.07432 3.30687 0
M  V30 4111 H 404.565 1.91716 3.50835 0
M  V30 4112 H 406.005 1.06591 4.10383 0
M  V30 4113 C 404.464 -0.22179 3.36169 0
M  V30 4114 O 404.994 -1.21731 3.82811 0
M  V30 4115 N 403.2 -0.260841 2.89427 0
M  V30 4116 H 402.747 0.549884 2.51663 0
M  V30 4117 H 402.705 -1.12777 2.93477 0
M  V30 4118 N 406.477 -1.02803 1.19454 0
M  V30 4119 C 407.723 -1.76598 1.0092 0
M  V30 4120 C 408.078 -1.86939 -0.455142 0
M  V30 4121 O 407.371 -1.37575 -1.33355 0
M  V30 4122 C 407.565 -3.18941 1.6128 0
M  V30 4123 C 407.394 -3.22476 3.13431 0
M  V30 4124 C 406.164 -3.30375 3.82336 0
M  V30 4125 C 408.362 -3.09451 4.10785 0
M  V30 4126 N 406.344 -3.23292 5.21877 0
M  V30 4127 C 407.715 -3.10012 5.36929 0
M  V30 4128 C 409.77 -2.93585 4.02135 0
M  V30 4129 C 408.473 -2.96334 6.55423 0
M  V30 4130 C 410.499 -2.81256 5.20239 0
M  V30 4131 C 409.861 -2.82472 6.45282 0
M  V30 4132 H 405.96 -0.657447 0.423424 0
M  V30 4133 H 408.544 -1.22369 1.5144 0
M  V30 4134 H 406.715 -3.71489 1.1336 0
M  V30 4135 H 408.447 -3.81102 1.36173 0
M  V30 4136 H 405.202 -3.3663 3.33132 0
M  V30 4137 H 405.626 -3.23156 5.94894 0
M  V30 4138 H 410.268 -2.91466 3.0628 0
M  V30 4139 H 407.986 -2.97203 7.51463 0
M  V30 4140 H 411.572 -2.70014 5.15348 0
M  V30 4141 H 410.452 -2.73036 7.35133 0
M  V30 4142 N 407.956 -0.998596 -1.21925 0
M  V30 4143 C 409.186 -0.695276 -1.94549 0
M  V30 4144 C 409.594 0.745079 -1.73911 0
M  V30 4145 O 408.937 1.51507 -1.03881 0
M  V30 4146 C 408.999 -0.928485 -3.47303 0
M  V30 4147 C 408.663 -2.35443 -3.91683 0
M  V30 4148 C 409.66 -3.33428 -3.98901 0
M  V30 4149 C 407.345 -2.69038 -4.24174 0
M  V30 4150 C 409.339 -4.63079 -4.37992 0
M  V30 4151 C 407.026 -3.98906 -4.62944 0
M  V30 4152 C 408.024 -4.95738 -4.69822 0
M  V30 4153 O 407.712 -6.23285 -5.07711 0
M  V30 4154 H 407.444 -0.255902 -0.625692 0
M  V30 4155 H 409.998 -1.33767 -1.5587 0
M  V30 4156 H 408.228 -0.228917 -3.86022 0
M  V30 4157 H 409.917 -0.619539 -4.01144 0
M  V30 4158 H 410.683 -3.08807 -3.73983 0
M  V30 4159 H 406.562 -1.94367 -4.18022 0
M  V30 4160 H 410.106 -5.38658 -4.43275 0
M  V30 4161 H 406.003 -4.23314 -4.87314 0
M  V30 4162 H 406.771 -6.27306 -5.25766 0
M  V30 4163 N 409.434 1.37368 -0.772513 0
M  V30 4164 C 410.68 1.99969 -0.337681 0
M  V30 4165 C 411.013 1.61184 1.08321 0
M  V30 4166 O 410.288 0.858395 1.74533 0
M  V30 4167 C 410.571 3.56858 -0.482121 0
M  V30 4168 C 410.424 4.0555 -1.94549 0
M  V30 4169 C 411.743 4.39955 0.113143 0
M  V30 4170 H 408.862 0.726464 -0.124171 0
M  V30 4171 H 411.504 1.63034 -0.975699 0
M  V30 4172 H 409.654 3.88452 0.0610361 0
M  V30 4173 H 411.326 3.84518 -2.54841 0
M  V30 4174 H 409.569 3.57715 -2.45403 0
M  V30 4175 H 410.24 5.14587 -1.9976 0
M  V30 4176 H 412.716 4.14623 -0.35031 0
M  V30 4177 H 411.592 5.48897 -0.0180514 0
M  V30 4178 H 411.853 4.25403 1.20354 0
M  V30 4179 N 410.912 0.523116 1.48665 0
M  V30 4180 C 412.189 -0.0775449 1.95446 0
M  V30 4181 C 412.569 -1.5197 1.4652 0
M  V30 4182 O 411.917 -2.17876 0.688657 0
M  V30 4183 C 412.127 0.0326135 3.48985 0
M  V30 4184 C 413.475 -0.130141 4.24401 0
M  V30 4185 O 414.499 -0.0415142 3.56176 0
M  V30 4186 O 413.358 -0.31491 5.45592 0
M  V30 4187 H 410.452 -0.0831012 0.822814 0
M  V30 4188 H 412.998 0.587227 1.59216 0
M  V30 4189 H 411.77 1.03748 3.77296 0
M  V30 4190 H 411.393 -0.671317 3.91892 0
M  V30 4191 N 412.39 -1.55475 0.257931 0
M  V30 4192 C 413.638 -1.98813 -0.363009 0
M  V30 4193 C 413.959 -1.14757 -1.57657 0
M  V30 4194 O 413.229 -0.232956 -1.9451 0
M  V30 4195 H 411.809 -0.734308 -0.137113 0
M  V30 4196 H 414.471 -1.9156 0.359281 0
M  V30 4197 H 413.567 -3.04941 -0.664634 0
M  V30 4198 N 413.868 0.0150385 -1.57593 0
M  V30 4199 C 415.114 0.704043 -1.90187 0
M  V30 4200 C 415.447 1.74249 -0.857366 0
M  V30 4201 O 414.722 1.94092 0.125843 0
M  V30 4202 C 415.005 1.36087 -3.33395 0
M  V30 4203 C 414.858 0.334981 -4.48551 0
M  V30 4204 C 416.177 2.29112 -3.7576 0
M  V30 4205 H 413.296 0.254475 -0.691673 0
M  V30 4206 H 415.938 -0.0331678 -1.89971 0
M  V30 4207 H 414.088 1.98922 -3.3371 0
M  V30 4208 H 415.76 -0.292534 -4.60372 0
M  V30 4209 H 414.003 -0.344325 -4.32431 0
M  V30 4210 H 414.674 0.833316 -5.45674 0
M  V30 4211 H 417.15 1.76308 -3.76902 0
M  V30 4212 H 416.026 2.72043 -4.76743 0
M  V30 4213 H 416.287 3.16385 -3.08793 0
M  V30 4214 N 415.346 1.54954 0.287554 0
M  V30 4215 C 416.256 1.8991 1.37736 0
M  V30 4216 C 417.272 0.794701 1.54792 0
M  V30 4217 O 418.448 1.09243 1.69198 0
M  V30 4218 C 415.513 2.15108 2.71899 0
M  V30 4219 C 414.574 3.38752 2.63715 0
M  V30 4220 C 413.807 3.62739 3.91479 0
M  V30 4221 O 414.03 2.89492 4.91478 0
M  V30 4222 O 412.964 4.56267 3.92561 0
M  V30 4223 H 416.79 2.82652 1.11092 0
M  V30 4224 H 414.375 1.41315 0.484807 0
M  V30 4225 H 416.257 2.32806 3.51254 0
M  V30 4226 H 414.932 1.25551 2.9836 0
M  V30 4227 H 413.839 3.26405 1.82786 0
M  V30 4228 H 415.172 4.28483 2.42205 0
M  V30 4229 N 416.824 -0.551391 1.4764 0
M  V30 4230 C 418.07 -1.31024 1.54792 0
M  V30 4231 C 418.403 -1.9304 0.211967 0
M  V30 4232 O 417.678 -1.78175 -0.77999 0
M  V30 4233 C 417.961 -2.41593 2.67029 0
M  V30 4234 C 417.814 -1.84408 4.10261 0
M  V30 4235 C 419.133 -3.43488 2.75143 0
M  V30 4236 H 416.252 -0.475031 0.563485 0
M  V30 4237 H 418.894 -0.616454 1.79722 0
M  V30 4238 H 417.044 -3.00772 2.45904 0
M  V30 4239 H 418.716 -1.29445 4.42766 0
M  V30 4240 H 416.959 -1.15051 4.18265 0
M  V30 4241 H 417.63 -2.64367 4.84576 0
M  V30 4242 H 420.106 -2.94236 2.94218 0
M  V30 4243 H 418.982 -4.18274 3.55441 0
M  V30 4244 H 419.243 -4.02703 1.82435 0
M  V30 4245 N 418.302 -1.35869 -0.798587 0
M  V30 4246 C 419.252 -1.25982 -1.90033 0
M  V30 4247 C 420.236 -0.153303 -1.60168 0
M  V30 4248 O 421.428 -0.38527 -1.72756 0
M  V30 4249 C 418.557 -1.04211 -3.27101 0
M  V30 4250 C 417.643 -2.19289 -3.63006 0
M  V30 4251 N 418.034 -3.44559 -3.70287 0
M  V30 4252 C 416.332 -2.10852 -3.93011 0
M  V30 4253 C 417.033 -4.20283 -4.02166 0
M  V30 4254 N 416.009 -3.49124 -4.16669 0
M  V30 4255 H 419.811 -2.20883 -1.93876 0
M  V30 4256 H 417.325 -1.28457 -0.993614 0
M  V30 4257 H 419.322 -0.952155 -4.05881 0
M  V30 4258 H 417.982 -0.102013 -3.2454 0
M  V30 4259 H 418.993 -3.7881 -3.53162 0
M  V30 4260 H 415.67 -1.24744 -3.98428 0
M  V30 4261 H 417.06 -5.28575 -4.14799 0
M  V30 4262 N 419.78 1.02168 -1.19998 0
M  V30 4263 C 420.728 2.12717 -0.940967 0
M  V30 4264 C 421.722 1.69069 0.105841 0
M  V30 4265 O 422.928 1.79946 -0.0440583 0
M  V30 4266 H 419.303 0.695108 -0.28693 0
M  V30 4267 H 421.274 2.3175 -1.87975 0
M  V30 4268 C 420.023 3.44027 -0.504049 0
M  V30 4269 H 419.346 3.78036 -1.30112 0
M  V30 4270 H 420.786 4.22452 -0.361991 0
M  V30 4271 C 419.245 3.27678 0.782878 0
M  V30 4272 O 419.775 3.56949 1.84256 0
M  V30 4273 N 417.981 2.80943 0.742921 0
M  V30 4274 H 417.528 2.57322 -0.119687 0
M  V30 4275 H 417.486 2.70385 1.60435 0
M  V30 4276 N 421.258 1.00505 1.21394 0
M  V30 4277 C 422.221 0.570459 2.21987 0
M  V30 4278 C 423.221 -0.353211 1.56873 0
M  V30 4279 O 424.411 -0.14349 1.73608 0
M  V30 4280 C 421.543 -0.168555 3.40483 0
M  V30 4281 H 422.736 1.46021 2.6195 0
M  V30 4282 H 420.289 0.793565 1.34656 0
M  V30 4283 H 421.024 -1.07374 3.06009 0
M  V30 4284 H 420.809 0.494823 3.88965 0
M  V30 4285 H 422.299 -0.460362 4.15055 0
M  V30 4286 N 422.737 -1.36956 0.779787 0
M  V30 4287 C 423.684 -2.30175 0.169697 0
M  V30 4288 C 424.654 -1.51501 -0.68094 0
M  V30 4289 O 425.839 -1.80042 -0.631629 0
M  V30 4290 C 422.979 -3.37985 -0.697131 0
M  V30 4291 C 422.092 -4.31661 0.170992 0
M  V30 4292 C 421.227 -5.2655 -0.701298 0
M  V30 4293 C 420.266 -6.11867 0.168869 0
M  V30 4294 N 419.403 -6.98973 -0.661855 0
M  V30 4295 H 424.243 -2.81767 0.970135 0
M  V30 4296 H 421.78 -1.38699 0.489994 0
M  V30 4297 H 423.738 -3.99128 -1.2146 0
M  V30 4298 H 422.368 -2.87739 -1.46309 0
M  V30 4299 H 421.42 -3.71756 0.80634 0
M  V30 4300 H 422.732 -4.91644 0.841875 0
M  V30 4301 H 421.886 -5.92937 -1.28494 0
M  V30 4302 H 420.625 -4.66998 -1.40584 0
M  V30 4303 H 419.63 -5.44452 0.764986 0
M  V30 4304 H 420.855 -6.73493 0.870863 0
M  V30 4305 H 418.801 -6.41941 -1.35086 0
M  V30 4306 H 418.718 -7.55984 -0.0484447 0
M  V30 4307 H 419.986 -7.6974 -1.22963 0
M  V30 4308 N 424.215 -0.530993 -1.48385 0
M  V30 4309 C 425.443 -0.00134122 -2.069 0
M  V30 4310 C 425.858 1.2805 -1.3874 0
M  V30 4311 O 425.215 1.76204 -0.475244 0
M  V30 4312 C 425.266 0.225256 -3.60798 0
M  V30 4313 O 424.987 -1.0058 -4.26398 0
M  V30 4314 C 426.488 0.795172 -4.3611 0
M  V30 4315 H 423.708 -0.0339704 -0.67014 0
M  V30 4316 H 426.252 -0.736926 -1.90761 0
M  V30 4317 H 424.407 0.910891 -3.76539 0
M  V30 4318 H 424.821 -0.787165 -5.1856 0
M  V30 4319 H 426.295 0.903143 -5.44562 0
M  V30 4320 H 426.772 1.80031 -4.00606 0
M  V30 4321 H 427.378 0.146069 -4.25049 0
M  V30 4322 N 425.693 1.55336 -0.266172 0
M  V30 4323 C 426.64 2.22172 0.625165 0
M  V30 4324 C 427.61 1.19211 1.15663 0
M  V30 4325 O 428.795 1.47723 1.20758 0
M  V30 4326 C 425.935 2.93972 1.8076 0
M  V30 4327 C 425.048 4.11632 1.31084 0
M  V30 4328 C 424.183 4.71099 2.45436 0
M  V30 4329 C 423.222 5.8097 1.92718 0
M  V30 4330 N 422.359 6.34538 3.00509 0
M  V30 4331 H 427.199 2.9796 0.0485582 0
M  V30 4332 H 424.736 1.47095 0.0122024 0
M  V30 4333 H 426.694 3.33811 2.50251 0
M  V30 4334 H 425.324 2.20623 2.35638 0
M  V30 4335 H 424.376 3.76975 0.509326 0
M  V30 4336 H 425.688 4.90893 0.884633 0
M  V30 4337 H 424.842 5.13612 3.22936 0
M  V30 4338 H 423.581 3.91096 2.91368 0
M  V30 4339 H 422.586 5.37916 1.13695 0
M  V30 4340 H 423.811 6.62836 1.47733 0
M  V30 4341 H 421.757 5.57433 3.45839 0
M  V30 4342 H 421.674 7.09046 2.62279 0
M  V30 4343 H 422.942 6.81709 3.78011 0
M  V30 4344 N 427.171 -0.0066808 1.57599 0
M  V30 4345 C 428.582 -0.550379 1.78403 0
M  V30 4346 C 428.933 -1.74339 0.900014 0
M  V30 4347 O 428.058 -2.16166 0.100713 0
M  V30 4348 C 428.653 -1.00523 3.23544 0
M  V30 4349 C 427.212 -1.49428 3.45468 0
M  V30 4350 C 426.359 -0.442444 2.73748 0
M  V30 4351 H 429.31 0.219508 1.57175 0
M  V30 4352 H 429.331 -1.87157 3.31289 0
M  V30 4353 H 428.843 -0.136735 3.87859 0
M  V30 4354 H 426.944 -2.3839 2.86358 0
M  V30 4355 H 427.057 -1.52635 4.54136 0
M  V30 4356 H 425.421 -0.902578 2.38171 0
M  V30 4357 H 426.204 0.416973 3.40758 0
M  V30 4358 N 428.649 -1.55105 -0.279332 0
M  V30 4359 C 430.065 -1.46803 -0.626187 0
M  V30 4360 C 430.265 -0.676939 -1.89789 0
M  V30 4361 O 429.321 -0.19326 -2.51759 0
M  V30 4362 C 430.634 -2.90962 -0.759034 0
M  V30 4363 C 432.182 -3.01138 -0.853504 0
M  V30 4364 C 432.657 -4.46539 -1.01818 0
M  V30 4365 N 434.148 -4.50341 -1.08386 0
M  V30 4366 C 434.883 -5.60053 -1.22996 0
M  V30 4367 N 434.379 -6.79645 -1.34366 0
M  V30 4368 N 436.172 -5.47783 -1.26056 0
M  V30 4369 H 428.323 -2.04996 0.555921 0
M  V30 4370 H 430.586 -0.929325 0.187239 0
M  V30 4371 H 430.292 -3.51544 0.104852 0
M  V30 4372 H 430.166 -3.39619 -1.64131 0
M  V30 4373 H 432.553 -2.40658 -1.70786 0
M  V30 4374 H 432.634 -2.55745 0.0532466 0
M  V30 4375 H 432.278 -5.0762 -0.168504 0
M  V30 4376 H 432.208 -4.89583 -1.93948 0
M  V30 4377 H 434.699 -3.64191 -1.00864 0
M  V30 4378 H 435.012 -7.59012 -1.4533 0
M  V30 4379 H 433.357 -6.82469 -1.31382 0
M  V30 4380 H 436.548 -4.53294 -1.168 0
M  V30 4381 H 436.721 -6.33331 -1.37098 0
M  V30 4382 N 430.127 0.543554 -1.4793 0
M  V30 4383 C 431.037 1.67657 -1.64098 0
M  V30 4384 C 432.053 1.65934 -0.523622 0
M  V30 4385 O 433.229 1.85133 -0.792943 0
M  V30 4386 C 430.294 3.04146 -1.66421 0
M  V30 4387 C 429.355 3.16831 -2.89684 0
M  V30 4388 C 428.588 4.46809 -2.91886 0
M  V30 4389 O 428.811 5.33095 -2.02895 0
M  V30 4390 O 427.745 4.63573 -3.83906 0
M  V30 4391 H 431.571 1.56957 -2.59997 0
M  V30 4392 H 429.156 0.715116 -1.31173 0
M  V30 4393 H 431.038 3.85346 -1.70548 0
M  V30 4394 H 429.713 3.152 -0.736923 0
M  V30 4395 H 428.62 2.34977 -2.91095 0
M  V30 4396 H 429.953 3.10687 -3.81752 0
M  V30 4397 N 431.605 1.3629 0.791371 0
M  V30 4398 C 432.515 1.32606 1.93527 0
M  V30 4399 C 433.531 0.228541 1.72493 0
M  V30 4400 O 434.707 0.460571 1.96063 0
M  V30 4401 C 431.772 1.11271 3.28359 0
M  V30 4402 C 430.833 2.3048 3.62185 0
M  V30 4403 C 430.066 2.10154 4.90583 0
M  V30 4404 O 430.289 1.07572 5.60165 0
M  V30 4405 O 429.223 2.97884 5.23019 0
M  V30 4406 H 433.049 2.28909 1.99585 0
M  V30 4407 H 430.634 1.16818 0.931344 0
M  V30 4408 H 432.516 1.01283 4.09047 0
M  V30 4409 H 431.191 0.180292 3.23198 0
M  V30 4410 H 430.098 2.46036 2.81811 0
M  V30 4411 H 431.431 3.22221 3.72068 0
M  V30 4412 N 433.083 -1.0153 1.20538 0
M  V30 4413 C 434.015 -2.10224 0.913155 0
M  V30 4414 C 435.028 -1.62495 -0.0995998 0
M  V30 4415 O 436.217 -1.78014 0.131582 0
M  V30 4416 C 433.317 -3.37111 0.347717 0
M  V30 4417 C 432.49 -4.13971 1.41233 0
M  V30 4418 C 431.549 -5.19158 0.857976 0
M  V30 4419 O 430.575 -5.48 1.53897 0
M  V30 4420 N 431.777 -5.7955 -0.331966 0
M  V30 4421 H 434.542 -2.35879 1.84881 0
M  V30 4422 H 432.103 -1.17931 1.10923 0
M  V30 4423 H 434.095 -4.04683 -0.0373026 0
M  V30 4424 H 432.665 -3.08696 -0.492527 0
M  V30 4425 H 431.885 -3.41351 1.97163 0
M  V30 4426 H 433.173 -4.62103 2.12928 0
M  V30 4427 H 432.571 -5.58455 -0.902478 0
M  V30 4428 H 431.128 -6.48464 -0.65861 0
M  V30 4429 N 434.561 -1.01147 -1.20859 0
M  V30 4430 C 435.791 -0.715872 -1.93801 0
M  V30 4431 C 436.199 0.726592 -1.74692 0
M  V30 4432 O 435.542 1.50397 -1.05482 0
M  V30 4433 C 435.604 -0.965269 -3.46299 0
M  V30 4434 C 435.268 -2.39584 -3.89164 0
M  V30 4435 C 436.265 -3.3764 -3.95342 0
M  V30 4436 C 433.95 -2.73522 -4.21297 0
M  V30 4437 C 435.944 -4.67698 -4.33056 0
M  V30 4438 C 433.631 -4.03794 -4.58687 0
M  V30 4439 C 434.629 -5.00693 -4.64538 0
M  V30 4440 O 434.317 -6.28635 -5.01072 0
M  V30 4441 H 434.049 -0.262524 -0.622942 0
M  V30 4442 H 436.603 -1.35413 -1.54443 0
M  V30 4443 H 434.833 -0.269847 -3.85757 0
M  V30 4444 H 436.522 -0.662051 -4.00464 0
M  V30 4445 H 437.288 -3.12757 -3.70686 0
M  V30 4446 H 433.167 -1.9879 -4.15937 0
M  V30 4447 H 436.711 -5.4333 -4.37537 0
M  V30 4448 H 432.608 -4.28459 -4.82797 0
M  V30 4449 H 433.376 -6.32847 -5.19083 0
M  V30 4450 N 436.039 1.36541 -0.78704 0
M  V30 4451 C 436.987 2.31965 -0.171724 0
M  V30 4452 C 437.981 1.55689 0.667631 0
M  V30 4453 O 439.187 1.70969 0.562981 0
M  V30 4454 H 435.562 0.751101 -0.0367545 0
M  V30 4455 H 437.533 2.81428 -0.992017 0
M  V30 4456 C 436.282 3.40968 0.680904 0
M  V30 4457 H 435.605 3.99775 0.0443961 0
M  V30 4458 H 437.045 4.10063 1.07815 0
M  V30 4459 C 435.504 2.82338 1.83813 0
M  V30 4460 O 436.034 2.74311 2.93456 0
M  V30 4461 N 434.24 2.39661 1.6435 0
M  V30 4462 H 433.787 2.46389 0.751668 0
M  V30 4463 H 433.745 2.00779 2.4194 0
M  V30 4464 N 437.518 0.538854 1.48102 0
M  V30 4465 C 438.743 0.0102694 2.07397 0
M  V30 4466 C 439.168 -1.26562 1.39153 0
M  V30 4467 O 438.526 -1.75357 0.460387 0
M  V30 4468 C 438.574 -0.187602 3.60112 0
M  V30 4469 O 437.678 -1.25432 3.92862 0
M  V30 4470 H 437.019 0.0430975 0.6626 0
M  V30 4471 H 439.549 0.749301 1.90385 0
M  V30 4472 H 439.559 -0.407517 4.0596 0
M  V30 4473 H 438.234 0.744386 4.09184 0
M  V30 4474 H 436.811 -1.01636 3.58782 0
M  V30 4475 N 438.996 -1.55193 0.274407 0
M  V30 4476 C 440.224 -2.03987 -0.345943 0
M  V30 4477 C 440.639 -1.15279 -1.4952 0
M  V30 4478 O 439.996 -0.172759 -1.8168 0
M  V30 4479 C 440.047 -3.51898 -0.827631 0
M  V30 4480 O 439.768 -4.37231 0.275855 0
M  V30 4481 C 441.269 -4.16577 -1.51587 0
M  V30 4482 H 438.489 -0.666335 -0.0789892 0
M  V30 4483 H 441.033 -2.00423 0.406294 0
M  V30 4484 H 439.188 -3.55909 -1.52996 0
M  V30 4485 H 439.602 -5.24415 -0.0943638 0
M  V30 4486 H 441.076 -5.21678 -1.80433 0
M  V30 4487 H 441.553 -3.64707 -2.44716 0
M  V30 4488 H 442.159 -4.16568 -0.857409 0
M  V30 4489 N 440.474 -0.00167713 -1.576 0
M  V30 4490 C 441.704 0.692754 -1.94639 0
M  V30 4491 C 442.112 1.67744 -0.87513 0
M  V30 4492 O 441.455 1.8305 0.154382 0
M  V30 4493 C 441.517 1.47881 -3.27676 0
M  V30 4494 C 441.181 0.655518 -4.52274 0
M  V30 4495 C 442.178 -0.0575214 -5.19868 0
M  V30 4496 C 439.863 0.600994 -4.98692 0
M  V30 4497 C 441.857 -0.814052 -6.3218 0
M  V30 4498 C 439.544 -0.15926 -6.10892 0
M  V30 4499 C 440.542 -0.865515 -6.77494 0
M  V30 4500 O 440.23 -1.61336 -7.87544 0
M  V30 4501 H 439.962 0.197792 -0.646417 0
M  V30 4502 H 442.516 -0.049423 -2.05341 0
M  V30 4503 H 440.746 2.2655 -3.13388 0
M  V30 4504 H 442.435 2.05874 -3.49816 0
M  V30 4505 H 443.201 -0.0245611 -4.84994 0
M  V30 4506 H 439.08 1.14025 -4.46676 0
M  V30 4507 H 442.624 -1.36584 -6.84098 0
M  V30 4508 H 438.521 -0.194035 -6.45208 0
M  V30 4509 H 439.289 -1.53025 -8.04068 0
M  V30 4510 N 441.952 1.55251 0.271103 0
M  V30 4511 C 443.368 1.47133 0.618393 0
M  V30 4512 C 443.568 0.686994 1.89427 0
M  V30 4513 O 442.624 0.206609 2.51653 0
M  V30 4514 C 443.937 2.91361 0.743593 0
M  V30 4515 C 445.485 3.01587 0.837522 0
M  V30 4516 C 445.96 4.47073 0.994483 0
M  V30 4517 N 447.451 4.50909 1.05996 0
M  V30 4518 C 448.186 5.60698 1.20024 0
M  V30 4519 N 447.682 6.80348 1.30759 0
M  V30 4520 N 449.475 5.48444 1.23149 0
M  V30 4521 H 441.626 2.04698 -0.566784 0
M  V30 4522 H 443.889 0.928319 -0.192165 0
M  V30 4523 H 443.595 3.51483 -0.123493 0
M  V30 4524 H 443.469 3.40484 1.62328 0
M  V30 4525 H 445.856 2.4156 1.69507 0
M  V30 4526 H 445.937 2.55713 -0.0668086 0
M  V30 4527 H 445.581 5.07703 0.141582 0
M  V30 4528 H 445.511 4.90605 1.91349 0
M  V30 4529 H 448.002 3.6472 0.989316 0
M  V30 4530 H 448.315 7.59772 1.41303 0
M  V30 4531 H 446.66 6.83156 1.27761 0
M  V30 4532 H 449.851 4.53907 1.14394 0
M  V30 4533 H 450.024 6.34049 1.33738 0
M  V30 4534 N 443.43 -0.535701 1.48216 0
M  V30 4535 C 444.676 -1.29375 1.56173 0
M  V30 4536 C 445.009 -1.92804 0.232429 0
M  V30 4537 O 444.284 -1.78992 -0.761048 0
M  V30 4538 C 444.567 -2.38747 2.69577 0
M  V30 4539 C 444.42 -1.80046 4.12193 0
M  V30 4540 C 445.739 -3.40551 2.78771 0
M  V30 4541 H 442.858 -0.469027 0.568491 0
M  V30 4542 H 445.5 -0.597358 1.80365 0
M  V30 4543 H 443.65 -2.98147 2.4908 0
M  V30 4544 H 445.322 -1.24742 4.44114 0
M  V30 4545 H 443.565 -1.10609 4.19462 0
M  V30 4546 H 444.236 -2.59212 4.87353 0
M  V30 4547 H 446.712 -2.91099 2.97322 0
M  V30 4548 H 445.588 -4.1448 3.59857 0
M  V30 4549 H 445.849 -4.00746 1.86696 0
M  V30 4550 N 444.908 -1.36708 -0.784132 0
M  V30 4551 C 446.154 -1.31426 -1.54451 0
M  V30 4552 C 446.487 0.10476 -1.93917 0
M  V30 4553 O 445.762 1.05934 -1.6312 0
M  V30 4554 C 446.045 -2.24189 -2.818 0
M  V30 4555 C 445.898 -3.74813 -2.48667 0
M  V30 4556 C 447.217 -2.15626 -3.83658 0
M  V30 4557 H 444.336 -0.478739 -0.560337 0
M  V30 4558 H 446.978 -1.67305 -0.900498 0
M  V30 4559 H 445.128 -1.93722 -3.36755 0
M  V30 4560 H 446.8 -4.15823 -1.99722 0
M  V30 4561 H 445.043 -3.93989 -1.81535 0
M  V30 4562 H 445.714 -4.35138 -3.39646 0
M  V30 4563 H 448.19 -2.42456 -3.38163 0
M  V30 4564 H 447.066 -2.82694 -4.70506 0
M  V30 4565 H 447.327 -1.14522 -4.27009 0
M  V30 4566 N 446.386 1.0089 -1.21074 0
M  V30 4567 C 447.611 1.78727 -1.05221 0
M  V30 4568 C 448.036 1.83932 0.393795 0
M  V30 4569 O 447.394 1.28004 1.28393 0
M  V30 4570 C 447.442 3.20665 -1.64944 0
M  V30 4571 O 446.546 4.02632 -0.892273 0
M  V30 4572 H 445.887 0.550973 -0.370574 0
M  V30 4573 H 448.417 1.26847 -1.60534 0
M  V30 4574 H 448.427 3.71352 -1.69002 0
M  V30 4575 H 447.102 3.16191 -2.70177 0
M  V30 4576 H 445.679 3.61207 -0.926492 0
M  V30 4577 N 447.864 1.01787 1.20321 0
M  V30 4578 C 449.11 0.708985 1.90003 0
M  V30 4579 C 449.443 -0.759572 1.78729 0
M  V30 4580 O 448.718 -1.55198 1.17234 0
M  V30 4581 C 449.001 1.1469 3.41348 0
M  V30 4582 C 448.854 2.67586 3.61549 0
M  V30 4583 C 450.173 0.71915 4.34185 0
M  V30 4584 H 447.292 0.259034 0.689978 0
M  V30 4585 H 449.934 1.26584 1.41692 0
M  V30 4586 H 448.084 0.673128 3.82624 0
M  V30 4587 H 449.756 3.22826 3.29517 0
M  V30 4588 H 447.999 3.085 3.04976 0
M  V30 4589 H 448.67 2.93281 4.67643 0
M  V30 4590 H 451.146 1.12647 4.00562 0
M  V30 4591 H 450.022 1.05358 5.38694 0
M  V30 4592 H 450.283 -0.379111 4.40472 0
M  V30 4593 N 449.342 -1.36122 0.79427 0
M  V30 4594 C 450.272 -2.32551 0.210328 0
M  V30 4595 C 451.253 -1.56884 -0.657386 0
M  V30 4596 O 452.438 -1.85014 -0.590207 0
M  V30 4597 C 449.568 -3.41128 -0.651819 0
M  V30 4598 C 448.522 -4.27842 0.116395 0
M  V30 4599 C 447.848 -5.2763 -0.86666 0
M  V30 4600 C 449.148 -5.05647 1.30837 0
M  V30 4601 H 450.842 -2.81636 1.01594 0
M  V30 4602 H 448.388 -1.35407 0.489981 0
M  V30 4603 H 450.341 -4.07581 -1.07031 0
M  V30 4604 H 449.065 -2.90622 -1.49019 0
M  V30 4605 H 447.724 -3.62952 0.515915 0
M  V30 4606 H 447.372 -4.73395 -1.70019 0
M  V30 4607 H 447.072 -5.86514 -0.35705 0
M  V30 4608 H 448.596 -5.96955 -1.28361 0
M  V30 4609 H 450.01 -5.65113 0.965393 0
M  V30 4610 H 448.407 -5.73967 1.75161 0
M  V30 4611 H 449.477 -4.37006 2.10128 0
M  V30 4612 N 450.82 -0.546701 -1.47814 0
M  V30 4613 C 452.048 -0.0232857 -2.06887 0
M  V30 4614 C 452.463 1.26571 -1.4009 0
M  V30 4615 O 451.82 1.7569 -0.493906 0
M  V30 4616 C 451.871 0.186975 -3.61016 0
M  V30 4617 O 451.592 -1.05097 -4.25307 0
M  V30 4618 C 453.093 0.748872 -4.36929 0
M  V30 4619 H 450.313 -0.0410763 -0.669742 0
M  V30 4620 H 452.857 -0.757117 -1.89968 0
M  V30 4621 H 451.012 0.870903 -3.77484 0
M  V30 4622 H 451.426 -0.842121 -5.17695 0
M  V30 4623 H 452.9 0.845334 -5.45489 0
M  V30 4624 H 453.377 1.75772 -4.02493 0
M  V30 4625 H 453.983 0.100979 -4.2518 0
M  V30 4626 N 452.299 1.55045 -0.282633 0
M  V30 4627 C 453.545 2.00056 0.332481 0
M  V30 4628 C 453.878 1.1708 1.54939 0
M  V30 4629 O 453.153 0.2427 1.9298 0
M  V30 4630 C 453.436 3.53086 0.70725 0
M  V30 4631 C 453.289 4.46813 -0.517521 0
M  V30 4632 C 454.608 4.12245 1.54084 0
M  V30 4633 H 451.727 0.727268 0.119373 0
M  V30 4634 H 454.369 1.85932 -0.391076 0
M  V30 4635 H 452.519 3.65253 1.32372 0
M  V30 4636 H 454.191 4.46579 -1.15607 0
M  V30 4637 H 452.434 4.18163 -1.1542 0
M  V30 4638 H 453.105 5.51595 -0.211426 0
M  V30 4639 H 455.581 4.03401 1.02013 0
M  V30 4640 H 454.457 5.19515 1.77186 0
M  V30 4641 H 454.718 3.62951 2.52427 0
M  V30 4642 N 453.777 0.010035 1.57597 0
M  V30 4643 C 454.707 -0.976857 2.12084 0
M  V30 4644 C 455.688 -1.35191 1.03235 0
M  V30 4645 O 456.873 -1.43389 1.3097 0
M  V30 4646 C 454.003 -2.26548 2.63236 0
M  V30 4647 C 452.957 -2.03175 3.76701 0
M  V30 4648 C 452.283 -3.38138 4.14206 0
M  V30 4649 C 453.583 -1.38625 5.03568 0
M  V30 4650 H 455.277 -0.523145 2.94794 0
M  V30 4651 H 452.823 -0.250195 1.4181 0
M  V30 4652 H 454.776 -2.95952 2.99984 0
M  V30 4653 H 453.5 -2.74051 1.77661 0
M  V30 4654 H 452.159 -1.36195 3.40362 0
M  V30 4655 H 451.807 -3.83363 3.25641 0
M  V30 4656 H 451.507 -3.23312 4.90656 0
M  V30 4657 H 453.031 -4.08841 4.53521 0
M  V30 4658 H 454.445 -1.98 5.38023 0
M  V30 4659 H 452.842 -1.34256 5.84889 0
M  V30 4660 H 453.912 -0.356722 4.83586 0
M  V30 4661 N 455.255 -1.55392 -0.262866 0
M  V30 4662 C 456.205 -1.85355 -1.32768 0
M  V30 4663 C 457.189 -0.713188 -1.44231 0
M  V30 4664 O 458.381 -0.974765 -1.47741 0
M  V30 4665 C 455.51 -2.13781 -2.68612 0
M  V30 4666 C 454.596 -3.34104 -2.61219 0
M  V30 4667 N 454.987 -4.53766 -2.2345 0
M  V30 4668 C 453.285 -3.36895 -2.92263 0
M  V30 4669 C 453.986 -5.35877 -2.26298 0
M  V30 4670 N 452.962 -4.74536 -2.65172 0
M  V30 4671 H 456.764 -2.75413 -1.02591 0
M  V30 4672 H 454.278 -1.55405 -0.471503 0
M  V30 4673 H 456.275 -2.33407 -3.45437 0
M  V30 4674 H 454.935 -1.25013 -2.99669 0
M  V30 4675 H 455.946 -4.79682 -1.95258 0
M  V30 4676 H 452.623 -2.58351 -3.27965 0
M  V30 4677 H 454.013 -6.41577 -1.99572 0
M  V30 4678 N 456.733 0.527833 -1.48498 0
M  V30 4679 C 457.665 1.6482 -1.5927 0
M  V30 4680 C 458.678 1.55659 -0.476869 0
M  V30 4681 O 459.867 1.62081 -0.747806 0
M  V30 4682 C 456.967 3.0348 -1.50842 0
M  V30 4683 C 456.14 3.381 -2.77502 0
M  V30 4684 C 455.199 4.5605 -2.62497 0
M  V30 4685 O 454.225 4.59165 -3.36387 0
M  V30 4686 N 455.427 5.54353 -1.72257 0
M  V30 4687 H 458.192 1.56015 -2.55889 0
M  V30 4688 H 455.753 0.715152 -1.45249 0
M  V30 4689 H 457.745 3.80264 -1.38496 0
M  V30 4690 H 456.315 3.06352 -0.621887 0
M  V30 4691 H 455.535 2.50473 -3.04396 0
M  V30 4692 H 456.823 3.58017 -3.61527 0
M  V30 4693 H 456.221 5.54617 -1.11431 0
M  V30 4694 H 454.778 6.30347 -1.65849 0
M  V30 4695 N 458.211 1.37122 0.776871 0
M  V30 4696 C 459.488 1.22586 1.52421 0
M  V30 4697 C 459.868 -0.182726 2.10308 0
M  V30 4698 O 459.216 -1.18979 1.9508 0
M  V30 4699 C 459.426 2.31782 2.60918 0
M  V30 4700 C 460.774 2.69071 3.2846 0
M  V30 4701 O 461.798 2.3092 2.71209 0
M  V30 4702 O 460.657 3.3478 4.31954 0
M  V30 4703 H 457.751 0.478045 0.674835 0
M  V30 4704 H 460.297 1.48888 0.814275 0
M  V30 4705 H 459.069 3.26131 2.16227 0
M  V30 4706 H 458.692 2.06916 3.39517 0
M  V30 4707 N 459.689 -1.00246 1.21608 0
M  V30 4708 C 460.935 -1.74417 1.04643 0
M  V30 4709 C 461.29 -1.87862 -0.415387 0
M  V30 4710 O 460.583 -1.40373 -1.30407 0
M  V30 4711 C 460.777 -3.15448 1.68009 0
M  V30 4712 C 460.606 -3.15755 3.20201 0
M  V30 4713 C 459.376 -3.2219 3.89258 0
M  V30 4714 C 461.574 -3.00668 4.17257 0
M  V30 4715 N 459.556 -3.1215 5.28617 0
M  V30 4716 C 460.927 -2.98553 5.43384 0
M  V30 4717 C 462.982 -2.84989 4.08272 0
M  V30 4718 C 461.685 -2.82364 6.61561 0
M  V30 4719 C 463.711 -2.70158 5.26088 0
M  V30 4720 C 463.073 -2.68721 6.51128 0
M  V30 4721 H 459.172 -0.648317 0.437274 0
M  V30 4722 H 461.756 -1.19129 1.54001 0
M  V30 4723 H 459.927 -3.69001 1.21215 0
M  V30 4724 H 461.659 -3.78128 1.44226 0
M  V30 4725 H 458.414 -3.29488 3.40198 0
M  V30 4726 H 458.838 -3.10465 6.01615 0
M  V30 4727 H 463.48 -2.84904 3.12393 0
M  V30 4728 H 461.198 -2.81196 7.57598 0
M  V30 4729 H 464.784 -2.59022 5.20959 0
M  V30 4730 H 463.664 -2.57382 7.40759 0
M  V30 4731 N 461.167 -1.02423 -1.1978 0
M  V30 4732 C 462.097 -0.62157 -2.25075 0
M  V30 4733 C 463.078 0.367148 -1.6609 0
M  V30 4734 O 464.263 0.250892 -1.92573 0
M  V30 4735 C 461.393 0.0331826 -3.47284 0
M  V30 4736 C 460.347 -0.877323 -4.18912 0
M  V30 4737 C 459.673 -0.0879296 -5.34628 0
M  V30 4738 C 460.973 -2.18892 -4.74219 0
M  V30 4739 H 462.667 -1.50179 -2.59011 0
M  V30 4740 H 460.213 -0.723547 -1.24502 0
M  V30 4741 H 462.166 0.326488 -4.20133 0
M  V30 4742 H 460.89 0.948164 -3.12534 0
M  V30 4743 H 459.549 -1.15475 -3.47938 0
M  V30 4744 H 459.197 0.828941 -4.96123 0
M  V30 4745 H 458.897 -0.694359 -5.83483 0
M  V30 4746 H 460.421 0.198743 -6.10276 0
M  V30 4747 H 461.835 -1.95746 -5.38847 0
M  V30 4748 H 460.232 -2.74686 -5.33542 0
M  V30 4749 H 461.302 -2.84674 -3.92541 0
M  V30 4750 N 462.645 1.35699 -0.801477 0
M  V30 4751 C 463.593 2.3177 -0.196317 0
M  V30 4752 C 464.587 1.56388 0.651081 0
M  V30 4753 O 465.793 1.71557 0.544815 0
M  V30 4754 H 462.168 0.750669 -0.0447189 0
M  V30 4755 H 464.139 2.8036 -1.02181 0
M  V30 4756 C 462.888 3.41671 0.644702 0
M  V30 4757 H 462.211 3.998 0.0019921 0
M  V30 4758 H 463.651 4.11184 1.0346 0
M  V30 4759 C 462.11 2.84271 1.80808 0
M  V30 4760 O 462.64 2.77408 2.9053 0
M  V30 4761 N 460.846 2.41391 1.61799 0
M  V30 4762 H 460.393 2.47173 0.725493 0
M  V30 4763 H 460.351 2.03334 2.39797 0
M  V30 4764 N 464.123 0.554532 1.47522 0
M  V30 4765 C 465.371 0.0294208 2.02079 0
M  V30 4766 C 465.692 -1.32411 1.43151 0
M  V30 4767 O 464.962 -1.863 0.605728 0
M  V30 4768 H 463.542 0.00788672 0.746958 0
M  V30 4769 H 466.204 0.723934 1.80956 0
M  V30 4770 H 465.3 -0.0606745 3.12041 0
M  V30 4771 N 465.601 -1.54893 0.290851 0
M  V30 4772 C 466.548 -2.23138 -0.58974 0
M  V30 4773 C 467.518 -1.21036 -1.13752 0
M  V30 4774 O 468.703 -1.49626 -1.18392 0
M  V30 4775 C 465.843 -2.96811 -1.76061 0
M  V30 4776 C 464.956 -4.13665 -1.24519 0
M  V30 4777 C 464.091 -4.74944 -2.3791 0
M  V30 4778 C 463.13 -5.83963 -1.83451 0
M  V30 4779 N 462.267 -6.39239 -2.90376 0
M  V30 4780 H 467.107 -2.98 -0.00114915 0
M  V30 4781 H 464.644 -1.47096 0.0112006 0
M  V30 4782 H 466.602 -3.37751 -2.44909 0
M  V30 4783 H 465.232 -2.24344 -2.32098 0
M  V30 4784 H 464.284 -3.77737 -0.449288 0
M  V30 4785 H 465.596 -4.92238 -0.806424 0
M  V30 4786 H 464.75 -5.18684 -3.14724 0
M  V30 4787 H 463.489 -3.95682 -2.85109 0
M  V30 4788 H 462.494 -5.39657 -1.05122 0
M  V30 4789 H 463.719 -6.65103 -1.37169 0
M  V30 4790 H 461.665 -5.62864 -3.36927 0
M  V30 4791 H 461.582 -7.13129 -2.50965 0
M  V30 4792 H 462.85 -6.87637 -3.67118 0
M  V30 4793 N 467.08 -0.0183926 -1.57589 0
M  V30 4794 C 467.99 0.982943 -2.13015 0
M  V30 4795 C 469.006 1.36443 -1.07979 0
M  V30 4796 O 470.182 1.44802 -1.3998 0
M  V30 4797 C 467.247 2.25024 -2.63752 0
M  V30 4798 C 466.308 1.93018 -3.83461 0
M  V30 4799 C 465.541 3.13706 -4.31769 0
M  V30 4800 O 465.764 4.2601 -3.79305 0
M  V30 4801 O 464.698 2.96629 -5.23732 0
M  V30 4802 H 468.524 0.541709 -2.9883 0
M  V30 4803 H 466.109 0.201565 -1.48034 0
M  V30 4804 H 467.991 2.99441 -2.96502 0
M  V30 4805 H 466.666 2.68349 -1.81026 0
M  V30 4806 H 465.573 1.16019 -3.55655 0
M  V30 4807 H 466.906 1.54516 -4.67317 0
M  V30 4808 N 468.558 1.5553 0.254621 0
M  V30 4809 C 469.788 1.80784 1.00004 0
M  V30 4810 C 470.196 0.59071 1.79742 0
M  V30 4811 O 469.539 -0.449988 1.78103 0
M  V30 4812 C 469.601 2.99268 1.99196 0
M  V30 4813 C 469.265 4.35595 1.38224 0
M  V30 4814 C 470.262 5.13884 0.788611 0
M  V30 4815 C 467.947 4.82281 1.40393 0
M  V30 4816 C 469.941 6.37004 0.224783 0
M  V30 4817 C 467.628 6.05351 0.836243 0
M  V30 4818 C 468.626 6.82551 0.24769 0
M  V30 4819 O 468.314 8.03297 -0.311249 0
M  V30 4820 H 468.046 0.60565 0.300274 0
M  V30 4821 H 470.6 2.03411 0.285143 0
M  V30 4822 H 468.83 2.72377 2.74496 0
M  V30 4823 H 470.519 3.11682 2.60018 0
M  V30 4824 H 471.285 4.78938 0.764423 0
M  V30 4825 H 467.164 4.22189 1.85142 0
M  V30 4826 H 470.708 6.97203 -0.235235 0
M  V30 4827 H 466.605 6.39776 0.857733 0
M  V30 4828 H 467.373 8.1825 -0.20237 0
M  V30 4829 N 470.036 -0.519951 1.48776 0
M  V30 4830 C 470.983 -1.62352 1.64044 0
M  V30 4831 C 471.953 -1.58945 0.482251 0
M  V30 4832 O 473.138 -1.77219 0.706971 0
M  V30 4833 C 470.278 -3.00579 1.69547 0
M  V30 4834 C 469.391 -3.14145 2.96541 0
M  V30 4835 C 468.526 -4.42991 2.93142 0
M  V30 4836 C 467.565 -4.50122 4.14797 0
M  V30 4837 N 466.702 -5.7037 4.09418 0
M  V30 4838 H 471.542 -1.48643 2.58281 0
M  V30 4839 H 469.079 -0.723516 1.28077 0
M  V30 4840 H 471.037 -3.80671 1.70719 0
M  V30 4841 H 469.667 -3.13036 0.787918 0
M  V30 4842 H 468.719 -2.27239 3.05068 0
M  V30 4843 H 470.031 -3.15275 3.86527 0
M  V30 4844 H 469.185 -5.31385 2.92772 0
M  V30 4845 H 467.924 -4.44398 2.00902 0
M  V30 4846 H 466.929 -3.60133 4.15433 0
M  V30 4847 H 468.154 -4.50445 5.08208 0
M  V30 4848 H 466.1 -5.72655 3.20004 0
M  V30 4849 H 466.017 -5.73036 4.93119 0
M  V30 4850 H 467.285 -6.61023 4.13121 0
M  V30 4851 N 471.514 -1.37532 -0.769588 0
M  V30 4852 C 472.754 -1.34261 -1.54122 0
M  V30 4853 C 473.118 0.0717222 -1.91866 0
M  V30 4854 O 474.319 0.22918 -2.67821 0
M  V30 4855 C 472.59 -2.2574 -2.77086 0
M  V30 4856 S 474.149 -2.40339 -3.67127 0
M  V30 4857 H 470.967 -0.476595 -0.527615 0
M  V30 4858 H 473.569 -1.73303 -0.90479 0
M  V30 4859 H 472.273 -3.27417 -2.4744 0
M  V30 4860 H 471.804 -1.87789 -3.45686 0
M  V30 4861 H 473.819 -1.61558 -4.69163 0
M  V30 4862 N 472.992 0.995999 -1.22138 0
M  V30 4863 C 473.939 2.08551 -0.988687 0
M  V30 4864 C 474.909 1.65864 0.0885021 0
M  V30 4865 O 476.094 1.90704 -0.0604589 0
M  V30 4866 C 473.234 3.40374 -0.569191 0
M  V30 4867 C 472.347 3.96421 -1.71681 0
M  V30 4868 C 471.482 5.1639 -1.2456 0
M  V30 4869 C 470.521 5.64567 -2.36497 0
M  V30 4870 N 469.658 6.75777 -1.90445 0
M  V30 4871 H 474.498 2.2779 -1.92135 0
M  V30 4872 H 472.035 1.1168 -0.957388 0
M  V30 4873 H 473.993 4.16068 -0.307166 0
M  V30 4874 H 472.623 3.21145 0.326462 0
M  V30 4875 H 471.675 3.17628 -2.09324 0
M  V30 4876 H 472.987 4.2816 -2.55891 0
M  V30 4877 H 472.141 5.99362 -0.940774 0
M  V30 4878 H 470.88 4.86266 -0.373662 0
M  V30 4879 H 469.885 4.80185 -2.67772 0
M  V30 4880 H 471.11 5.96716 -3.24202 0
M  V30 4881 H 469.056 6.47443 -1.05609 0
M  V30 4882 H 468.973 7.06818 -2.68223 0
M  V30 4883 H 470.241 7.62262 -1.63022 0
M  V30 4884 N 474.47 1.03057 1.19235 0
M  V30 4885 C 475.716 0.729098 1.89241 0
M  V30 4886 C 476.049 -0.740573 1.79525 0
M  V30 4887 O 475.324 -1.53946 1.18874 0
M  V30 4888 C 475.607 1.18304 3.40112 0
M  V30 4889 C 475.46 2.71406 3.5869 0
M  V30 4890 C 476.779 0.765161 4.33397 0
M  V30 4891 H 473.898 0.266338 0.687192 0
M  V30 4892 H 476.54 1.28079 1.40341 0
M  V30 4893 H 474.69 0.713672 3.81889 0
M  V30 4894 H 476.362 3.26303 3.26074 0
M  V30 4895 H 474.605 3.11717 3.01687 0
M  V30 4896 H 475.276 2.98225 4.64506 0
M  V30 4897 H 477.752 1.16889 3.99345 0
M  V30 4898 H 476.628 1.11065 5.37546 0
M  V30 4899 H 476.889 -0.332372 4.40849 0
M  V30 4900 N 475.948 -1.35272 0.808662 0
M  V30 4901 C 477.173 -2.03477 0.401475 0
M  V30 4902 C 477.598 -1.60537 -0.980279 0
M  V30 4903 O 476.956 -0.78304 -1.63518 0
M  V30 4904 C 477.004 -3.57181 0.495354 0
M  V30 4905 O 476.108 -4.09474 -0.490397 0
M  V30 4906 H 475.449 -0.642561 0.167366 0
M  V30 4907 H 477.979 -1.72824 1.09512 0
M  V30 4908 H 477.989 -4.06356 0.365912 0
M  V30 4909 H 476.664 -3.87784 1.5032 0
M  V30 4910 H 475.241 -3.71516 -0.321023 0
M  V30 4911 N 477.426 -0.562348 -1.47226 0
M  V30 4912 C 478.374 0.195476 -2.31777 0
M  V30 4913 C 479.368 0.90433 -1.43242 0
M  V30 4914 O 480.574 0.825031 -1.59979 0
M  V30 4915 H 476.949 0.0819095 -0.747526 0
M  V30 4916 H 478.92 -0.536753 -2.93533 0
M  V30 4917 C 477.669 1.20902 -3.26003 0
M  V30 4918 H 476.992 0.672997 -3.94095 0
M  V30 4919 H 478.432 1.71006 -3.87986 0
M  V30 4920 C 476.891 2.25955 -2.49891 0
M  V30 4921 O 477.421 3.32969 -2.2471 0
M  V30 4922 N 475.627 2.00019 -2.1081 0
M  V30 4923 H 475.174 1.13006 -2.31489 0
M  V30 4924 H 475.132 2.70523 -1.60201 0
M  V30 4925 N 478.904 1.54736 -0.299062 0
M  V30 4926 C 479.851 2.23448 0.577899 0
M  V30 4927 C 480.821 1.21637 1.13109 0
M  V30 4928 O 482.006 1.50252 1.17597 0
M  V30 4929 C 479.146 2.9774 1.74484 0
M  V30 4930 C 478.259 4.1432 1.22323 0
M  V30 4931 C 477.394 4.76199 2.35388 0
M  V30 4932 C 476.433 5.84927 1.80351 0
M  V30 4933 N 475.57 6.4077 2.86982 0
M  V30 4934 H 480.41 2.97996 -0.0146545 0
M  V30 4935 H 477.947 1.47088 -0.0190013 0
M  V30 4936 H 479.905 3.39045 2.43114 0
M  V30 4937 H 478.535 2.25572 2.30905 0
M  V30 4938 H 477.587 3.7797 0.429249 0
M  V30 4939 H 478.899 4.92659 0.780309 0
M  V30 4940 H 478.053 5.20346 3.11969 0
M  V30 4941 H 476.792 3.97188 2.83006 0
M  V30 4942 H 475.797 5.40207 1.02259 0
M  V30 4943 H 477.022 6.65821 1.3364 0
M  V30 4944 H 474.968 5.64643 3.33938 0
M  V30 4945 H 474.885 7.1445 2.4718 0
M  V30 4946 H 476.153 6.89574 3.63466 0
M  V30 4947 N 480.382 0.0267497 1.57577 0
M  V30 4948 C 481.345 -0.940916 2.08996 0
M  V30 4949 C 482.345 -1.25561 1.00455 0
M  V30 4950 O 483.535 -1.19634 1.26623 0
M  V30 4951 C 480.667 -2.25814 2.55384 0
M  V30 4952 H 481.86 -0.495628 2.95776 0
M  V30 4953 H 479.413 -0.221241 1.54726 0
M  V30 4954 H 480.148 -2.74976 1.71926 0
M  V30 4955 H 479.933 -2.04285 3.34679 0
M  V30 4956 H 481.423 -2.95178 2.95398 0
M  V30 4957 N 481.861 -1.55662 -0.24637 0
M  V30 4958 C 482.791 -1.93377 -1.30873 0
M  V30 4959 C 483.772 -0.798773 -1.50179 0
M  V30 4960 O 484.957 -1.0591 -1.62778 0
M  V30 4961 C 482.087 -2.22893 -2.66338 0
M  V30 4962 C 481.041 -3.38649 -2.61727 0
M  V30 4963 C 480.367 -3.53708 -4.00992 0
M  V30 4964 C 481.667 -4.74323 -2.18666 0
M  V30 4965 H 483.361 -2.82363 -0.995552 0
M  V30 4966 H 480.907 -1.35854 -0.477464 0
M  V30 4967 H 482.86 -2.47866 -3.40794 0
M  V30 4968 H 481.584 -1.30733 -2.99293 0
M  V30 4969 H 480.243 -3.13685 -1.89729 0
M  V30 4970 H 479.891 -2.58967 -4.31214 0
M  V30 4971 H 479.591 -4.31551 -3.98795 0
M  V30 4972 H 481.115 -3.81003 -4.77147 0
M  V30 4973 H 482.529 -4.98665 -2.82854 0
M  V30 4974 H 480.926 -5.55273 -2.27579 0
M  V30 4975 H 481.996 -4.71349 -1.13834 0
M  V30 4976 N 483.339 0.512053 -1.4905 0
M  V30 4977 C 484.75 1.09376 -1.51307 0
M  V30 4978 C 485.101 1.94 -0.292971 0
M  V30 4979 O 484.226 2.07965 0.598277 0
M  V30 4980 C 484.821 1.99031 -2.74176 0
M  V30 4981 C 483.38 2.52385 -2.79247 0
M  V30 4982 C 482.527 1.29749 -2.45073 0
M  V30 4983 H 485.478 0.296467 -1.55906 0
M  V30 4984 H 485.499 2.83569 -2.53711 0
M  V30 4985 H 485.011 1.37412 -3.62959 0
M  V30 4986 H 483.112 3.17673 -1.94716 0
M  V30 4987 H 483.225 2.90293 -3.81139 0
M  V30 4988 H 481.589 1.61912 -1.96612 0
M  V30 4989 H 482.372 0.698555 -3.36118 0
M  V30 4990 N 484.817 1.37938 0.762283 0
M  V30 4991 C 485.78 1.34279 1.85747 0
M  V30 4992 C 486.78 0.244969 1.58923 0
M  V30 4993 O 487.97 0.501365 1.66829 0
M  V30 4994 C 485.102 1.08833 3.23061 0
M  V30 4995 H 486.295 2.31705 1.90401 0
M  V30 4996 H 483.848 1.23105 0.963057 0
M  V30 4997 H 484.583 0.119767 3.24079 0
M  V30 4998 H 484.368 1.88306 3.43923 0
M  V30 4999 H 485.858 1.08946 4.03138 0
M  V30 5000 N 486.295 -0.989507 1.22664 0
M  V30 5001 C 487.706 -1.54406 1.04955 0
M  V30 5002 C 488.057 -1.92366 -0.385951 0
M  V30 5003 O 487.182 -1.75111 -1.27142 0
M  V30 5004 C 487.777 -2.80578 1.89899 0
M  V30 5005 C 486.336 -3.32464 1.76478 0
M  V30 5006 C 485.483 -2.05524 1.86159 0
M  V30 5007 H 488.434 -0.810211 1.3646 0
M  V30 5008 H 488.455 -3.53075 1.4184 0
M  V30 5009 H 487.967 -2.52918 2.94371 0
M  V30 5010 H 486.068 -3.65024 0.747528 0
M  V30 5011 H 486.181 -4.02838 2.59342 0
M  V30 5012 H 484.545 -2.19241 1.29636 0
M  V30 5013 H 485.328 -1.80258 2.92168 0
M  V30 5014 N 487.773 -1.03688 -1.18687 0
M  V30 5015 C 489.022 -0.733235 -1.879 0
M  V30 5016 C 489.335 0.741745 -1.8099 0
M  V30 5017 O 490.541 1.15875 -2.4553 0
M  V30 5018 C 488.997 -1.26127 -3.37076 0
M  V30 5019 C 488.605 -2.76461 -3.52524 0
M  V30 5020 C 490.349 -1.03398 -4.11715 0
M  V30 5021 C 488.256 -3.22642 -4.95637 0
M  V30 5022 H 487.186 -0.270584 -0.703776 0
M  V30 5023 H 489.837 -1.25222 -1.34133 0
M  V30 5024 H 488.219 -0.670165 -3.90288 0
M  V30 5025 H 489.393 -3.41296 -3.09602 0
M  V30 5026 H 487.708 -2.97559 -2.91286 0
M  V30 5027 H 490.305 -1.3542 -5.17267 0
M  V30 5028 H 490.648 0.0289246 -4.1629 0
M  V30 5029 H 491.181 -1.5895 -3.64664 0
M  V30 5030 H 487.92 -4.28296 -4.96228 0
M  V30 5031 H 487.44 -2.62539 -5.39289 0
M  V30 5032 H 489.119 -3.16444 -5.64333 0
M  V30 5033 N 489.251 1.34841 -0.815825 0
M  V30 5034 C 490.161 2.33425 -0.234462 0
M  V30 5035 C 491.177 1.62295 0.627413 0
M  V30 5036 O 492.353 1.94109 0.536987 0
M  V30 5037 C 489.418 3.41471 0.599849 0
M  V30 5038 C 488.479 4.28362 -0.283596 0
M  V30 5039 C 487.712 5.31248 0.51099 0
M  V30 5040 O 487.935 5.43056 1.7449 0
M  V30 5041 O 486.869 6.01812 -0.10297 0
M  V30 5042 H 490.695 2.84962 -1.05024 0
M  V30 5043 H 488.28 1.37774 -0.577809 0
M  V30 5044 H 490.162 4.07464 1.07475 0
M  V30 5045 H 488.837 2.9219 1.39308 0
M  V30 5046 H 487.744 3.65318 -0.805836 0
M  V30 5047 H 489.077 4.81066 -1.041 0
M  V30 5048 N 490.729 0.570148 1.46925 0
M  V30 5049 C 491.676 -0.170257 2.30171 0
M  V30 5050 C 492.646 -0.896099 1.39855 0
M  V30 5051 O 493.831 -0.889248 1.68811 0
M  V30 5052 C 490.971 -1.18605 3.24079 0
M  V30 5053 C 490.084 -0.464947 4.29491 0
M  V30 5054 C 489.219 -1.46716 5.10537 0
M  V30 5055 C 488.258 -0.731758 6.0771 0
M  V30 5056 N 487.395 -1.68142 6.81669 0
M  V30 5057 H 492.235 0.545713 2.92961 0
M  V30 5058 H 489.772 0.280938 1.44392 0
M  V30 5059 H 491.73 -1.78771 3.76957 0
M  V30 5060 H 490.36 -1.86989 2.63125 0
M  V30 5061 H 489.412 0.251506 3.79568 0
M  V30 5062 H 490.724 0.110548 4.98677 0
M  V30 5063 H 489.878 -2.14199 5.6763 0
M  V30 5064 H 488.617 -2.07658 4.41282 0
M  V30 5065 H 487.622 -0.0430787 5.49783 0
M  V30 5066 H 488.847 -0.127904 6.7898 0
M  V30 5067 H 486.793 -2.27918 6.15134 0
M  V30 5068 H 486.71 -1.15841 7.47072 0
M  V30 5069 H 487.978 -2.347 7.43328 0
M  V30 5070 N 492.207 -1.54576 0.307264 0
M  V30 5071 C 493.435 -2.04675 -0.302597 0
M  V30 5072 C 493.85 -1.18425 -1.47041 0
M  V30 5073 O 493.207 -0.211257 -1.81273 0
M  V30 5074 C 493.258 -3.53575 -0.752801 0
M  V30 5075 O 492.979 -4.36547 0.368536 0
M  V30 5076 C 494.48 -4.19699 -1.42717 0
M  V30 5077 H 491.7 -0.66786 -0.0648374 0
M  V30 5078 H 494.244 -1.99516 0.448716 0
M  V30 5079 H 492.399 -3.59074 -1.45412 0
M  V30 5080 H 492.813 -5.24497 0.0168937 0
M  V30 5081 H 494.287 -5.25388 -1.69327 0
M  V30 5082 H 494.764 -3.69815 -2.36925 0
M  V30 5083 H 495.37 -4.18293 -0.768856 0
M  V30 5084 N 493.685 -0.035106 -1.57561 0
M  V30 5085 C 494.934 0.641604 -1.91223 0
M  V30 5086 C 495.247 1.72944 -0.913761 0
M  V30 5087 O 496.453 2.46321 -1.14185 0
M  V30 5088 C 494.909 1.19249 -3.3957 0
M  V30 5089 C 494.517 0.137616 -4.47789 0
M  V30 5090 C 496.261 1.84537 -3.82291 0
M  V30 5091 C 494.168 0.700478 -5.87237 0
M  V30 5092 H 493.098 0.243417 -0.713627 0
M  V30 5093 H 495.749 -0.101382 -1.8322 0
M  V30 5094 H 494.131 1.98728 -3.42525 0
M  V30 5095 H 495.305 -0.635153 -4.56402 0
M  V30 5096 H 493.62 -0.416855 -4.14308 0
M  V30 5097 H 496.217 2.27616 -4.83834 0
M  V30 5098 H 496.56 2.69054 -3.17672 0
M  V30 5099 H 497.093 1.11739 -3.81784 0
M  V30 5100 H 493.832 -0.106693 -6.55413 0
M  V30 5101 H 493.352 1.4416 -5.82218 0
M  V30 5102 H 495.031 1.18837 -6.35993 0
M  V30 5103 N 495.163 1.55791 0.238111 0
M  V30 5104 C 496.388 1.8244 0.986432 0
M  V30 5105 C 496.813 0.613314 1.7782 0
M  V30 5106 O 496.171 -0.437767 1.75935 0
M  V30 5107 C 496.219 3.06917 1.893 0
M  V30 5108 O 495.323 2.84449 2.98601 0
M  V30 5109 H 494.664 0.601975 0.280218 0
M  V30 5110 H 497.194 2.02987 0.256437 0
M  V30 5111 H 497.204 3.36583 2.30598 0
M  V30 5112 H 495.879 3.947 1.31091 0
M  V30 5113 H 494.456 2.65972 2.61368 0
M  V30 5114 N 496.642 -0.504142 1.49319 0
M  V30 5115 C 497.589 -1.60603 1.65756 0
M  V30 5116 C 498.559 -1.58425 0.499082 0
M  V30 5117 O 499.744 -1.76459 0.725728 0
M  V30 5118 C 496.884 -2.98764 1.72726 0
M  V30 5119 C 495.997 -3.10982 2.99857 0
M  V30 5120 C 495.132 -4.39857 2.97824 0
M  V30 5121 C 494.171 -4.45697 4.19548 0
M  V30 5122 N 493.308 -5.65995 4.15444 0
M  V30 5123 H 498.148 -1.45895 2.59843 0
M  V30 5124 H 495.685 -0.709891 1.28837 0
M  V30 5125 H 497.643 -3.78839 1.74747 0
M  V30 5126 H 496.273 -3.12183 0.821075 0
M  V30 5127 H 495.325 -2.23991 3.07461 0
M  V30 5128 H 496.637 -3.11157 3.89849 0
M  V30 5129 H 495.791 -5.2825 2.98391 0
M  V30 5130 H 494.53 -4.42242 2.05604 0
M  V30 5131 H 493.535 -3.55707 4.19229 0
M  V30 5132 H 494.76 -4.4503 5.12957 0
M  V30 5133 H 492.706 -5.69229 3.26059 0
M  V30 5134 H 492.623 -5.67773 4.99169 0
M  V30 5135 H 493.891 -6.56604 4.20109 0
M  V30 5136 N 498.12 -1.38341 -0.754957 0
M  V30 5137 C 499.083 -1.35262 -1.85032 0
M  V30 5138 C 500.083 -0.253393 -1.58791 0
M  V30 5139 O 501.273 -0.510205 -1.66561 0
M  V30 5140 C 498.405 -1.10544 -3.22479 0
M  V30 5141 H 499.598 -2.32712 -1.8917 0
M  V30 5142 H 497.151 -1.23614 -0.956515 0
M  V30 5143 H 497.886 -0.136952 -3.24011 0
M  V30 5144 H 497.671 -1.90127 -3.4292 0
M  V30 5145 H 499.161 -1.11082 -4.02555 0
M  V30 5146 N 499.598 0.982988 -1.23187 0
M  V30 5147 C 500.545 2.07491 -1.01075 0
M  V30 5148 C 501.515 1.65949 0.070905 0
M  V30 5149 O 502.7 1.90629 -0.0806822 0
M  V30 5150 C 499.84 3.39751 -0.605261 0
M  V30 5151 C 498.953 3.94578 -1.75876 0
M  V30 5152 C 498.088 5.15039 -1.3003 0
M  V30 5153 C 497.127 5.62027 -2.42472 0
M  V30 5154 N 496.264 6.73719 -1.97602 0
M  V30 5155 H 501.104 2.25739 -1.9454 0
M  V30 5156 H 498.641 1.10659 -0.969179 0
M  V30 5157 H 500.599 4.15719 -0.351279 0
M  V30 5158 H 499.229 3.21473 0.292382 0
M  V30 5159 H 498.281 3.1539 -2.12681 0
M  V30 5160 H 499.593 4.25422 -2.60418 0
M  V30 5161 H 498.747 5.9833 -1.00429 0
M  V30 5162 H 497.486 4.85843 -0.425216 0
M  V30 5163 H 496.491 4.77318 -2.7285 0
M  V30 5164 H 497.716 5.93244 -3.30512 0
M  V30 5165 H 495.662 6.46287 -1.1247 0
M  V30 5166 H 495.579 7.03934 -2.75705 0
M  V30 5167 H 496.847 7.6049 -1.71098 0
M  V30 5168 N 501.076 1.04316 1.18135 0
M  V30 5169 C 502.324 0.746542 1.87806 0
M  V30 5170 C 502.645 -0.728082 1.80898 0
M  V30 5171 O 501.915 -1.52554 1.22899 0
M  V30 5172 H 500.495 0.273157 0.695265 0
M  V30 5173 H 503.157 1.32044 1.43354 0
M  V30 5174 H 502.253 1.05362 2.93778 0
M  V30 5175 N 502.554 -1.34406 0.822964 0
M  V30 5176 C 503.486 -2.28305 0.202375 0
M  V30 5177 C 504.499 -1.5103 -0.60777 0
M  V30 5178 O 505.688 -1.73057 -0.437444 0
M  V30 5179 C 502.788 -3.30836 -0.734911 0
M  V30 5180 C 501.961 -4.37388 0.0324177 0
M  V30 5181 C 501.02 -5.1968 -0.825803 0
M  V30 5182 O 500.046 -5.68556 -0.270771 0
M  V30 5183 N 501.248 -5.39393 -2.14558 0
M  V30 5184 H 504.013 -2.82201 1.00909 0
M  V30 5185 H 501.574 -1.4693 0.67993 0
M  V30 5186 H 503.566 -3.82786 -1.31365 0
M  V30 5187 H 502.136 -2.77334 -1.44238 0
M  V30 5188 H 501.356 -3.86152 0.792469 0
M  V30 5189 H 502.644 -5.05702 0.560633 0
M  V30 5190 H 502.042 -5.01357 -2.62025 0
M  V30 5191 H 500.599 -5.94461 -2.67318 0
M  V30 5192 N 504.032 -0.577932 -1.46621 0
M  V30 5193 C 505.443 -0.150071 -1.86096 0
M  V30 5194 C 505.794 1.28563 -1.48209 0
M  V30 5195 O 504.919 1.97036 -0.894754 0
M  V30 5196 C 505.514 -0.265576 -3.37758 0
M  V30 5197 C 504.073 0.10738 -3.76247 0
M  V30 5198 C 503.22 -0.603711 -2.70649 0
M  V30 5199 H 506.171 -0.786438 -1.37844 0
M  V30 5200 H 506.192 0.510352 -3.77062 0
M  V30 5201 H 505.704 -1.3106 -3.65301 0
M  V30 5202 H 503.805 1.15272 -3.54321 0
M  V30 5203 H 503.918 -0.26561 -4.78363 0
M  V30 5204 H 502.282 -0.0444884 -2.54661 0
M  V30 5205 H 503.065 -1.65029 -3.01032 0
M  V30 5206 N 505.51 1.54411 -0.315457 0
M  V30 5207 C 506.926 1.59556 0.037464 0
M  V30 5208 C 507.126 1.33217 1.5118 0
M  V30 5209 O 506.182 1.11264 2.26664 0
M  V30 5210 C 507.495 2.98372 -0.373477 0
M  V30 5211 C 509.043 3.11324 -0.323452 0
M  V30 5212 C 509.518 4.52472 -0.709433 0
M  V30 5213 N 511.009 4.58437 -0.662524 0
M  V30 5214 C 511.744 5.65751 -0.933474 0
M  V30 5215 N 511.24 6.81039 -1.27114 0
M  V30 5216 N 513.033 5.55489 -0.859573 0
M  V30 5217 H 505.184 1.6979 -1.27614 0
M  V30 5218 H 507.447 0.793732 -0.518356 0
M  V30 5219 H 507.153 3.22618 -1.40037 0
M  V30 5220 H 507.027 3.76264 0.265615 0
M  V30 5221 H 509.414 2.86818 0.694223 0
M  V30 5222 H 509.495 2.35555 -0.997367 0
M  V30 5223 H 509.139 4.7771 -1.72498 0
M  V30 5224 H 509.069 5.26598 -0.0132923 0
M  V30 5225 H 511.56 3.75636 -0.413065 0
M  V30 5226 H 511.873 7.58816 -1.46348 0
M  V30 5227 H 510.218 6.82555 -1.30932 0
M  V30 5228 H 513.409 4.64299 -0.595324 0
M  V30 5229 H 513.582 6.39036 -1.0741 0
M  V30 5230 N 506.988 0.0434614 1.5754 0
M  V30 5231 C 507.898 -0.94893 2.14552 0
M  V30 5232 C 508.914 -1.34707 1.10136 0
M  V30 5233 O 510.09 -1.42557 1.42266 0
M  V30 5234 C 507.155 -2.208 2.67298 0
M  V30 5235 C 506.216 -1.86893 3.86484 0
M  V30 5236 C 505.449 -3.06797 4.36705 0
M  V30 5237 O 505.672 -4.19921 3.86034 0
M  V30 5238 O 504.606 -2.8826 5.28384 0
M  V30 5239 H 508.432 -0.494099 2.99654 0
M  V30 5240 H 506.017 -0.177989 1.48336 0
M  V30 5241 H 507.899 -2.94686 3.01228 0
M  V30 5242 H 506.574 -2.65436 1.85272 0
M  V30 5243 H 505.481 -1.10347 3.57455 0
M  V30 5244 H 506.814 -1.47062 4.69716 0
M  V30 5245 N 508.466 -1.55915 -0.229846 0
M  V30 5246 C 509.877 -1.68809 -0.797531 0
M  V30 5247 C 510.228 -0.643995 -1.8533 0
M  V30 5248 O 509.353 0.206492 -2.15413 0
M  V30 5249 C 509.948 -3.06043 -1.45338 0
M  V30 5250 C 508.507 -3.20819 -1.96856 0
M  V30 5251 C 507.654 -2.6472 -0.825736 0
M  V30 5252 H 510.605 -1.58699 -0.00533733 0
M  V30 5253 H 510.626 -3.01438 -2.32196 0
M  V30 5254 H 510.138 -3.82012 -0.684743 0
M  V30 5255 H 508.239 -2.49704 -2.76548 0
M  V30 5256 H 508.352 -4.27937 -2.15423 0
M  V30 5257 H 506.716 -2.22985 -1.23084 0
M  V30 5258 H 507.499 -3.43229 -0.0699019 0
M  V30 5259 N 509.944 0.496216 -1.49584 0
M  V30 5260 C 510.876 1.61404 -1.62731 0
M  V30 5261 C 511.889 1.54613 -0.50978 0
M  V30 5262 O 513.078 1.60458 -0.782017 0
M  V30 5263 C 510.178 3.00212 -1.57245 0
M  V30 5264 C 509.351 3.32138 -2.84611 0
M  V30 5265 C 508.41 4.5038 -2.72112 0
M  V30 5266 O 507.436 4.51926 -3.46051 0
M  V30 5267 N 508.638 5.50575 -1.83977 0
M  V30 5268 H 511.403 1.50552 -2.59141 0
M  V30 5269 H 508.964 0.684182 -1.46733 0
M  V30 5270 H 510.956 3.77241 -1.4653 0
M  V30 5271 H 509.526 3.04964 -0.686729 0
M  V30 5272 H 508.746 2.4396 -3.09641 0
M  V30 5273 H 510.034 3.50268 -3.69039 0
M  V30 5274 H 509.432 5.52128 -1.23171 0
M  V30 5275 H 507.989 6.26687 -1.79182 0
M  V30 5276 N 511.423 1.38739 0.74761 0
M  V30 5277 C 512.669 1.35475 1.50912 0
M  V30 5278 C 513.002 -0.0533093 1.94127 0
M  V30 5279 O 512.277 -1.01572 1.65871 0
M  V30 5280 C 512.56 2.31582 2.75757 0
M  V30 5281 C 512.413 3.81274 2.38642 0
M  V30 5282 C 513.732 2.25722 3.77806 0
M  V30 5283 H 510.851 0.493427 0.547447 0
M  V30 5284 H 513.493 1.69634 0.855823 0
M  V30 5285 H 511.643 2.02582 3.31501 0
M  V30 5286 H 513.315 4.20972 1.88626 0
M  V30 5287 H 511.558 3.98664 1.71025 0
M  V30 5288 H 512.229 4.4399 3.27989 0
M  V30 5289 H 514.705 2.51336 3.31616 0
M  V30 5290 H 513.581 2.95069 4.62845 0
M  V30 5291 H 513.842 1.25803 4.23823 0
M  V30 5292 N 512.901 -0.976442 1.23707 0
M  V30 5293 C 514.131 -1.75087 1.09673 0
M  V30 5294 C 514.539 -1.85852 -0.354344 0
M  V30 5295 O 513.882 -1.33985 -1.25673 0
M  V30 5296 C 513.944 -3.19272 1.65245 0
M  V30 5297 C 513.608 -3.32004 3.14042 0
M  V30 5298 C 514.605 -3.18017 4.11292 0
M  V30 5299 C 512.29 -3.56525 3.53829 0
M  V30 5300 C 514.284 -3.28363 5.46312 0
M  V30 5301 C 511.971 -3.6651 4.88993 0
M  V30 5302 C 512.969 -3.52439 5.85043 0
M  V30 5303 O 512.657 -3.62063 7.1775 0
M  V30 5304 H 512.389 -0.556164 0.384262 0
M  V30 5305 H 514.943 -1.23518 1.64111 0
M  V30 5306 H 513.173 -3.72107 1.05231 0
M  V30 5307 H 514.862 -3.7849 1.46629 0
M  V30 5308 H 515.628 -2.98966 3.81896 0
M  V30 5309 H 511.507 -3.66547 2.79579 0
M  V30 5310 H 515.051 -3.17297 6.21263 0
M  V30 5311 H 510.948 -3.85072 5.18063 0
M  V30 5312 H 511.716 -3.78833 7.25553 0
M  V30 5313 N 514.379 -1.04941 -1.1758 0
M  V30 5314 C 515.607 -0.778294 -1.91703 0
M  V30 5315 C 516.022 0.665697 -1.76675 0
M  V30 5316 O 515.379 1.45456 -1.10222 0
M  V30 5317 C 515.43 -1.14628 -3.42845 0
M  V30 5318 O 515.151 -2.53359 -3.57409 0
M  V30 5319 C 516.652 -0.900931 -4.34049 0
M  V30 5320 H 513.872 -0.283167 -0.608323 0
M  V30 5321 H 516.416 -1.39942 -1.49119 0
M  V30 5322 H 514.571 -0.569953 -3.83184 0
M  V30 5323 H 514.985 -2.67709 -4.51035 0
M  V30 5324 H 516.459 -1.20817 -5.38616 0
M  V30 5325 H 516.936 0.163966 -4.38894 0
M  V30 5326 H 517.542 -1.46097 -3.99419 0
M  V30 5327 N 515.857 1.33968 -0.830081 0
M  V30 5328 C 516.787 2.31911 -0.271911 0
M  V30 5329 C 517.768 1.58571 0.61556 0
M  V30 5330 O 518.953 1.86514 0.540946 0
M  V30 5331 C 516.083 3.42737 0.561146 0
M  V30 5332 C 515.037 4.27383 -0.229789 0
M  V30 5333 C 514.363 5.29742 0.726463 0
M  V30 5334 C 515.663 5.02 -1.44197 0
M  V30 5335 H 517.357 2.78844 -1.09025 0
M  V30 5336 H 514.903 1.34061 -0.52571 0
M  V30 5337 H 516.856 4.10276 0.961867 0
M  V30 5338 H 515.58 2.94471 1.41261 0
M  V30 5339 H 514.239 3.61456 -0.611964 0
M  V30 5340 H 513.887 4.77736 1.57408 0
M  V30 5341 H 513.587 5.87255 0.20142 0
M  V30 5342 H 515.111 6.00149 1.12489 0
M  V30 5343 H 516.525 5.62355 -1.11488 0
M  V30 5344 H 514.922 5.69122 -1.90317 0
M  V30 5345 H 515.992 4.31281 -2.2164 0
M  V30 5346 N 517.335 0.585699 1.46312 0
M  V30 5347 C 518.746 0.159938 1.86014 0
M  V30 5348 C 519.097 -1.27775 1.48889 0
M  V30 5349 O 518.222 -1.96559 0.90519 0
M  V30 5350 C 518.817 0.283485 3.37612 0
M  V30 5351 C 517.376 -0.0874256 3.76298 0
M  V30 5352 C 516.523 0.618055 2.70325 0
M  V30 5353 H 519.474 0.793737 1.37425 0
M  V30 5354 H 519.495 -0.490348 3.77327 0
M  V30 5355 H 519.007 1.32995 3.64601 0
M  V30 5356 H 517.108 -1.13391 3.54927 0
M  V30 5357 H 517.221 0.290975 4.78216 0
M  V30 5358 H 515.585 0.057993 2.54634 0
M  V30 5359 H 516.368 1.66623 3.00153 0
M  V30 5360 N 518.813 -1.54241 0.323641 0
M  V30 5361 C 520.224 -1.85975 -0.164405 0
M  V30 5362 C 520.575 -1.24529 -1.51615 0
M  V30 5363 O 519.7 -0.551351 -2.09258 0
M  V30 5364 C 520.295 -3.37424 -0.305091 0
M  V30 5365 C 518.854 -3.69107 -0.737358 0
M  V30 5366 C 518.001 -2.76942 0.140884 0
M  V30 5367 H 520.952 -1.49088 0.543922 0
M  V30 5368 H 520.973 -3.63147 -1.13598 0
M  V30 5369 H 520.485 -3.82116 0.678876 0
M  V30 5370 H 518.586 -3.29947 -1.73107 0
M  V30 5371 H 518.699 -4.76035 -0.541053 0
M  V30 5372 H 517.063 -2.51795 -0.383572 0
M  V30 5373 H 517.846 -3.24461 1.12162 0
M  V30 5374 N 520.291 -0.0518155 -1.57515 0
M  V30 5375 C 521.516 0.634896 -1.97443 0
M  V30 5376 C 521.941 1.63546 -0.929207 0
M  V30 5377 O 521.299 1.80981 0.107484 0
M  V30 5378 C 521.347 1.29765 -3.36442 0
M  V30 5379 O 520.451 2.41333 -3.34413 0
M  V30 5380 H 519.792 0.164994 -0.643174 0
M  V30 5381 H 522.322 -0.120407 -2.04245 0
M  V30 5382 H 522.332 1.64918 -3.73184 0
M  V30 5383 H 521.007 0.564361 -4.12053 0
M  V30 5384 H 519.584 2.08122 -3.09418 0
M  V30 5385 N 521.769 1.56035 0.221574 0
M  V30 5386 C 523.185 1.49026 0.571271 0
M  V30 5387 C 523.385 0.746912 1.87146 0
M  V30 5388 O 522.441 0.286566 2.50869 0
M  V30 5389 C 523.754 2.93579 0.650522 0
M  V30 5390 C 525.302 3.04099 0.741151 0
M  V30 5391 C 525.777 4.5001 0.851747 0
M  V30 5392 N 527.268 4.54053 0.915968 0
M  V30 5393 C 528.003 5.64232 1.02125 0
M  V30 5394 N 527.499 6.84164 1.09049 0
M  V30 5395 N 529.292 5.52084 1.05639 0
M  V30 5396 H 521.443 2.02791 -0.63162 0
M  V30 5397 H 523.706 0.921736 -0.221602 0
M  V30 5398 H 523.412 3.50912 -0.235253 0
M  V30 5399 H 523.286 3.45476 1.51413 0
M  V30 5400 H 525.673 2.4683 1.61737 0
M  V30 5401 H 525.754 2.55371 -0.148128 0
M  V30 5402 H 525.398 5.07896 -0.0200117 0
M  V30 5403 H 525.328 4.96444 1.75644 0
M  V30 5404 H 527.819 3.67683 0.872782 0
M  V30 5405 H 528.132 7.63883 1.1706 0
M  V30 5406 H 526.477 6.86875 1.05962 0
M  V30 5407 H 529.668 4.57317 0.998953 0
M  V30 5408 H 529.841 6.37983 1.13498 0
M  V30 5409 N 523.247 -0.488276 1.49845 0
M  V30 5410 C 524.524 -1.24959 1.50481 0
M  V30 5411 C 524.904 -2.09735 0.239698 0
M  V30 5412 O 524.252 -2.14865 -0.777524 0
M  V30 5413 C 524.462 -2.0954 2.79095 0
M  V30 5414 C 525.81 -2.68305 3.29086 0
M  V30 5415 O 526.834 -2.19797 2.80299 0
M  V30 5416 O 525.693 -3.56643 4.14087 0
M  V30 5417 H 522.787 -0.566133 0.602845 0
M  V30 5418 H 525.333 -0.501504 1.6212 0
M  V30 5419 H 524.105 -1.46958 3.62656 0
M  V30 5420 H 523.728 -2.91517 2.70377 0
M  V30 5421 N 524.725 -1.39134 -0.740242 0
M  V30 5422 C 525.635 -1.39697 -1.88473 0
M  V30 5423 C 526.651 -0.292403 -1.71526 0
M  V30 5424 O 527.827 -0.533021 -1.94219 0
M  V30 5425 C 524.892 -1.23382 -3.24003 0
M  V30 5426 C 523.953 -2.43763 -3.53381 0
M  V30 5427 C 523.186 -2.28216 -4.82445 0
M  V30 5428 O 523.409 -1.28288 -5.55786 0
M  V30 5429 O 522.343 -3.1709 -5.11603 0
M  V30 5430 H 526.169 -2.36159 -1.90952 0
M  V30 5431 H 523.754 -1.20194 -0.887346 0
M  V30 5432 H 525.636 -1.16395 -4.05006 0
M  V30 5433 H 524.311 -0.300121 -3.22306 0
M  V30 5434 H 523.218 -2.56325 -2.72485 0
M  V30 5435 H 524.551 -3.35808 -3.59852 0
M  V30 5436 N 526.204 0.969867 -1.24223 0
M  V30 5437 C 527.134 2.08191 -1.05729 0
M  V30 5438 C 528.115 1.70075 0.0290765 0
M  V30 5439 O 529.3 1.93712 -0.137583 0
M  V30 5440 C 526.43 3.40991 -0.658995 0
M  V30 5441 C 525.384 3.93054 -1.69389 0
M  V30 5442 C 524.71 5.22171 -1.15072 0
M  V30 5443 C 526.01 4.21137 -3.08935 0
M  V30 5444 H 527.704 2.23921 -1.98746 0
M  V30 5445 H 525.25 1.07602 -0.956967 0
M  V30 5446 H 527.203 4.18221 -0.51662 0
M  V30 5447 H 525.927 3.25155 0.30686 0
M  V30 5448 H 524.586 3.17977 -1.82444 0
M  V30 5449 H 524.234 5.02694 -0.175539 0
M  V30 5450 H 523.934 5.57973 -1.84229 0
M  V30 5451 H 525.458 6.02013 -1.02042 0
M  V30 5452 H 526.872 4.8908 -2.99121 0
M  V30 5453 H 525.269 4.68163 -3.75425 0
M  V30 5454 H 526.339 3.27996 -3.57137 0
M  V30 5455 N 527.682 1.05563 1.17022 0
M  V30 5456 C 528.91 0.78845 1.91288 0
M  V30 5457 C 529.325 -0.656318 1.77025 0
M  V30 5458 O 528.682 -1.44869 1.10992 0
M  V30 5459 C 528.733 1.16444 3.42232 0
M  V30 5460 O 528.454 2.5525 3.5606 0
M  V30 5461 C 529.955 0.923937 4.33565 0
M  V30 5462 H 527.175 0.286389 0.606813 0
M  V30 5463 H 529.719 1.4073 1.48375 0
M  V30 5464 H 527.874 0.590266 3.82877 0
M  V30 5465 H 528.288 2.70097 4.49609 0
M  V30 5466 H 529.762 1.23672 5.37968 0
M  V30 5467 H 530.239 -0.140688 4.38975 0
M  V30 5468 H 530.845 1.48214 3.98639 0
M  V30 5469 N 529.16 -1.33526 0.837174 0
M  V30 5470 C 530.107 -2.29248 0.267169 0
M  V30 5471 C 531.077 -1.54252 -0.616071 0
M  V30 5472 O 532.262 -1.82559 -0.554699 0
M  V30 5473 C 529.402 -3.40638 -0.553152 0
M  V30 5474 C 528.515 -4.30548 0.353921 0
M  V30 5475 C 527.65 -5.29051 -0.477339 0
M  V30 5476 C 526.689 -6.106 0.42823 0
M  V30 5477 N 525.826 -7.01152 -0.364801 0
M  V30 5478 H 530.666 -2.77398 1.08877 0
M  V30 5479 H 528.203 -1.36496 0.54838 0
M  V30 5480 H 530.161 -4.03921 -1.04422 0
M  V30 5481 H 528.791 -2.93685 -1.33973 0
M  V30 5482 H 527.843 -3.68001 0.963289 0
M  V30 5483 H 529.155 -4.87631 1.04964 0
M  V30 5484 H 528.309 -5.97853 -1.0323 0
M  V30 5485 H 527.048 -4.72541 -1.2065 0
M  V30 5486 H 526.053 -5.40718 0.995219 0
M  V30 5487 H 527.278 -6.69193 1.15573 0
M  V30 5488 H 525.224 -6.47092 -1.07738 0
M  V30 5489 H 525.141 -7.5551 0.272238 0
M  V30 5490 H 526.409 -7.74263 -0.902054 0
M  V30 5491 N 530.638 -0.59345 -1.46 0
M  V30 5492 C 531.586 0.146268 -2.3214 0
M  V30 5493 C 532.58 0.873743 -1.45128 0
M  V30 5494 O 533.786 0.790912 -1.61693 0
M  V30 5495 H 530.161 0.0660349 -0.749095 0
M  V30 5496 H 532.132 -0.598895 -2.92328 0
M  V30 5497 C 530.881 1.1396 -3.28494 0
M  V30 5498 H 530.204 0.589252 -3.95434 0
M  V30 5499 H 531.644 1.62738 -3.91526 0
M  V30 5500 C 530.103 2.20604 -2.54628 0
M  V30 5501 O 530.633 3.28128 -2.31722 0
M  V30 5502 N 528.839 1.95502 -2.15005 0
M  V30 5503 H 528.386 1.0807 -2.33834 0
M  V30 5504 H 528.344 2.67064 -1.65904 0
M  V30 5505 N 532.116 1.54067 -0.331816 0
M  V30 5506 C 533.048 2.22139 0.564538 0
M  V30 5507 C 534.061 1.22408 1.07332 0
M  V30 5508 O 535.25 1.4883 0.985481 0
M  V30 5509 C 532.35 2.87876 1.78831 0
M  V30 5510 C 531.523 4.13817 1.41682 0
M  V30 5511 C 530.582 4.63072 2.49901 0
M  V30 5512 O 529.608 5.27562 2.13699 0
M  V30 5513 N 530.81 4.38001 3.80967 0
M  V30 5514 H 533.575 2.99694 -0.0183736 0
M  V30 5515 H 531.136 1.61153 -0.155396 0
M  V30 5516 H 533.128 3.17747 2.50637 0
M  V30 5517 H 531.698 2.13977 2.27887 0
M  V30 5518 H 530.918 3.9062 0.530044 0
M  V30 5519 H 532.206 4.95762 1.14443 0
M  V30 5520 H 531.604 3.864 4.13173 0
M  V30 5521 H 530.161 4.72507 4.48977 0
M  V30 5522 N 533.594 0.0601682 1.57485 0
M  V30 5523 C 534.84 -0.612501 1.93329 0
M  V30 5524 C 535.173 -1.6996 0.939526 0
M  V30 5525 O 534.448 -1.94472 -0.0330957 0
M  V30 5526 C 534.731 -1.20025 3.39508 0
M  V30 5527 C 534.584 -0.12059 4.49638 0
M  V30 5528 C 535.903 -2.10923 3.86264 0
M  V30 5529 H 533.022 -0.221185 0.703027 0
M  V30 5530 H 535.664 0.123768 1.89596 0
M  V30 5531 H 533.814 -1.82774 3.42821 0
M  V30 5532 H 535.486 0.51185 4.58452 0
M  V30 5533 H 533.729 0.550251 4.30296 0
M  V30 5534 H 534.4 -0.572019 5.49028 0
M  V30 5535 H 536.876 -1.58124 3.84884 0
M  V30 5536 H 535.752 -2.48987 4.8918 0
M  V30 5537 H 536.013 -3.01292 3.23536 0
M  V30 5538 N 535.072 -1.5615 -0.213296 0
M  V30 5539 C 536.297 -1.83986 -0.957282 0
M  V30 5540 C 536.722 -0.641526 -1.76822 0
M  V30 5541 O 536.08 0.409722 -1.7661 0
M  V30 5542 C 536.128 -3.09889 -1.84393 0
M  V30 5543 O 535.232 -2.89163 -2.94038 0
M  V30 5544 H 534.573 -0.606357 -0.270605 0
M  V30 5545 H 537.103 -2.03369 -0.224111 0
M  V30 5546 H 537.113 -3.40209 -2.25215 0
M  V30 5547 H 535.788 -3.96735 -1.24795 0
M  V30 5548 H 534.365 -2.70097 -2.57103 0
M  V30 5549 N 536.55 0.480323 -1.50102 0
M  V30 5550 C 537.48 1.58769 -1.71215 0
M  V30 5551 C 538.461 1.60583 -0.560997 0
M  V30 5552 O 539.646 1.76996 -0.799127 0
M  V30 5553 C 536.776 2.97148 -1.79778 0
M  V30 5554 C 535.73 3.10201 -2.94888 0
M  V30 5555 C 535.056 4.50137 -2.88584 0
M  V30 5556 C 536.356 2.88283 -4.35534 0
M  V30 5557 H 538.05 1.41354 -2.6393 0
M  V30 5558 H 535.596 0.678591 -1.27008 0
M  V30 5559 H 537.549 3.74536 -1.93133 0
M  V30 5560 H 536.273 3.15699 -0.836772 0
M  V30 5561 H 534.932 2.35244 -2.81169 0
M  V30 5562 H 534.58 4.65593 -1.90349 0
M  V30 5563 H 534.28 4.59808 -3.65856 0
M  V30 5564 H 535.804 5.29558 -3.03976 0
M  V30 5565 H 537.218 3.55427 -4.49827 0
M  V30 5566 H 535.615 3.09408 -5.14186 0
M  V30 5567 H 536.685 1.84219 -4.48544 0
M  V30 5568 N 538.028 1.39524 0.732853 0
M  V30 5569 C 539.256 1.40143 1.52209 0
M  V30 5570 C 539.671 -0.00348836 1.888 0
M  V30 5571 O 539.028 -0.975357 1.5425 0
M  V30 5572 C 539.079 2.27632 2.8083 0
M  V30 5573 O 538.8 3.62654 2.45792 0
M  V30 5574 C 540.301 2.36658 3.74844 0
M  V30 5575 H 537.521 0.478604 0.470297 0
M  V30 5576 H 540.065 1.83366 0.905388 0
M  V30 5577 H 538.22 1.87818 3.38826 0
M  V30 5578 H 538.634 4.08941 3.28431 0
M  V30 5579 H 540.108 3.02118 4.61984 0
M  V30 5580 H 540.585 1.38638 4.16745 0
M  V30 5581 H 541.191 2.76951 3.22766 0
M  V30 5582 N 539.506 -0.963266 1.24736 0
M  V30 5583 C 540.746 -1.72172 1.10165 0
M  V30 5584 C 541.11 -1.88731 -0.352784 0
M  V30 5585 O 542.311 -2.61549 -0.620107 0
M  V30 5586 C 540.582 -3.0724 1.82589 0
M  V30 5587 S 542.141 -3.98449 1.83803 0
M  V30 5588 H 538.959 -0.591901 0.393922 0
M  V30 5589 H 541.561 -1.14955 1.58132 0
M  V30 5590 H 540.265 -2.92851 2.87518 0
M  V30 5591 H 539.796 -3.69521 1.34973 0
M  V30 5592 H 541.811 -4.87805 0.908883 0
M  V30 5593 N 540.985 -1.06182 -1.16461 0
M  V30 5594 C 541.915 -0.692861 -2.22984 0
M  V30 5595 C 542.896 0.314122 -1.67174 0
M  V30 5596 O 544.081 0.189499 -1.93273 0
M  V30 5597 C 541.211 -0.07732 -3.47214 0
M  V30 5598 C 540.165 -1.01015 -4.15909 0
M  V30 5599 C 539.491 -0.257973 -5.34077 0
M  V30 5600 C 540.791 -2.33868 -4.67015 0
M  V30 5601 H 542.485 -1.58343 -2.54102 0
M  V30 5602 H 540.031 -0.76279 -1.22137 0
M  V30 5603 H 541.984 0.19266 -4.20959 0
M  V30 5604 H 540.708 0.848254 -3.15392 0
M  V30 5605 H 539.367 -1.26486 -3.44088 0
M  V30 5606 H 539.015 0.670684 -4.98509 0
M  V30 5607 H 538.715 -0.879638 -5.80979 0
M  V30 5608 H 540.239 0.00448788 -6.106 0
M  V30 5609 H 541.653 -2.1279 -5.32347 0
M  V30 5610 H 540.05 -2.91522 -5.24533 0
M  V30 5611 H 541.12 -2.97019 -3.83286 0
M  V30 5612 N 542.463 1.3308 -0.844243 0
M  V30 5613 C 543.709 1.97898 -0.443206 0
M  V30 5614 C 544.042 1.66699 0.99625 0
M  V30 5615 O 543.317 0.949704 1.69738 0
M  V30 5616 C 543.6 3.53801 -0.670606 0
M  V30 5617 C 543.453 3.94667 -2.15772 0
M  V30 5618 C 544.772 4.39936 -0.120226 0
M  V30 5619 H 541.891 0.718861 -0.162504 0
M  V30 5620 H 544.533 1.57633 -1.06075 0
M  V30 5621 H 542.683 3.88229 -0.14496 0
M  V30 5622 H 544.355 3.70469 -2.74865 0
M  V30 5623 H 542.598 3.44203 -2.6402 0
M  V30 5624 H 543.269 5.03275 -2.26757 0
M  V30 5625 H 545.745 4.12183 -0.5696 0
M  V30 5626 H 544.621 5.4803 -0.308984 0
M  V30 5627 H 544.882 4.31184 0.976347 0
M  V30 5628 N 543.941 0.601185 1.45683 0
M  V30 5629 C 544.888 -0.121396 2.30481 0
M  V30 5630 C 545.858 -0.866232 1.41724 0
M  V30 5631 O 547.043 -0.85324 1.70659 0
M  V30 5632 C 544.183 -1.11704 3.26521 0
M  V30 5633 C 543.296 -0.373741 4.3038 0
M  V30 5634 C 542.431 -1.35854 5.13534 0
M  V30 5635 C 541.47 -0.602689 6.09126 0
M  V30 5636 N 540.607 -1.53645 6.85082 0
M  V30 5637 H 545.447 0.607732 2.91737 0
M  V30 5638 H 542.984 0.311502 1.43764 0
M  V30 5639 H 544.942 -1.70735 3.80664 0
M  V30 5640 H 543.572 -1.81366 2.67032 0
M  V30 5641 H 542.624 0.331962 3.78949 0
M  V30 5642 H 543.936 0.2163 4.98331 0
M  V30 5643 H 543.09 -2.02111 5.72046 0
M  V30 5644 H 541.829 -1.98251 4.45587 0
M  V30 5645 H 540.834 0.0735482 5.49751 0
M  V30 5646 H 542.059 0.0161467 6.79098 0
M  V30 5647 H 540.005 -2.14819 6.1983 0
M  V30 5648 H 539.922 -0.999688 7.49361 0
M  V30 5649 H 541.19 -2.1888 7.48139 0
M  V30 5650 N 545.419 -1.53889 0.339982 0
M  V30 5651 C 546.667 -2.00458 -0.257112 0
M  V30 5652 C 546.988 -1.22953 -1.51353 0
M  V30 5653 O 546.258 -0.335734 -1.93002 0
M  V30 5654 H 544.838 -0.740544 -0.0979965 0
M  V30 5655 H 547.5 -1.89386 0.460317 0
M  V30 5656 H 546.596 -3.08035 -0.502057 0
M  V30 5657 N 546.897 -0.0685191 -1.57451 0
M  V30 5658 C 548.144 0.601348 -1.93365 0
M  V30 5659 C 548.472 1.69816 -0.948294 0
M  V30 5660 O 547.727 1.95666 0.0366199 0
M  V30 5661 C 548.026 1.22051 -3.35914 0
M  V30 5662 C 547.692 0.250165 -4.50205 0
M  V30 5663 C 546.354 -0.0167954 -4.81197 0
M  V30 5664 C 548.706 -0.413867 -5.19554 0
M  V30 5665 C 546.034 -0.95493 -5.78876 0
M  V30 5666 C 548.386 -1.3403 -6.18238 0
M  V30 5667 C 547.05 -1.61576 -6.47649 0
M  V30 5668 H 546.32 0.220049 -0.707573 0
M  V30 5669 H 548.967 -0.138697 -1.90997 0
M  V30 5670 H 547.272 2.03622 -3.34732 0
M  V30 5671 H 548.969 1.74605 -3.6099 0
M  V30 5672 H 545.559 0.468421 -4.26033 0
M  V30 5673 H 549.743 -0.220733 -4.95809 0
M  V30 5674 H 544.999 -1.17563 -5.99991 0
M  V30 5675 H 549.173 -1.86081 -6.71079 0
M  V30 5676 H 546.8 -2.34431 -7.2315 0
M  V30 5677 N 548.375 1.56261 0.205012 0
M  V30 5678 C 549.605 1.83874 0.942018 0
M  V30 5679 C 550.013 0.647595 1.77772 0
M  V30 5680 O 549.356 -0.393098 1.79445 0
M  V30 5681 C 549.418 3.05453 1.89575 0
M  V30 5682 C 549.082 4.39772 1.24296 0
M  V30 5683 C 550.079 5.16133 0.624724 0
M  V30 5684 C 547.764 4.86504 1.24978 0
M  V30 5685 C 549.758 6.37396 0.0220117 0
M  V30 5686 C 547.445 6.07705 0.643232 0
M  V30 5687 C 548.443 6.82993 0.0304164 0
M  V30 5688 O 548.131 8.019 -0.566654 0
M  V30 5689 H 547.863 0.614896 0.280854 0
M  V30 5690 H 550.417 2.04215 0.220285 0
M  V30 5691 H 548.647 2.80972 2.65691 0
M  V30 5692 H 550.336 3.19797 2.4997 0
M  V30 5693 H 551.102 4.81127 0.611666 0
M  V30 5694 H 546.981 4.27865 1.71616 0
M  V30 5695 H 550.525 6.96102 -0.456926 0
M  V30 5696 H 546.422 6.42181 0.653759 0
M  V30 5697 H 547.19 8.17192 -0.462588 0
M  V30 5698 N 549.853 -0.472356 1.50355 0
M  V30 5699 C 551.264 -1.05326 1.54154 0
M  V30 5700 C 551.615 -1.93155 0.344303 0
M  V30 5701 O 550.74 -2.09479 -0.542928 0
M  V30 5702 C 551.335 -1.91691 2.79356 0
M  V30 5703 C 549.894 -2.44892 2.8584 0
M  V30 5704 C 549.041 -1.23205 2.48426 0
M  V30 5705 H 551.992 -0.255027 1.56637 0
M  V30 5706 H 552.013 -2.76742 2.6114 0
M  V30 5707 H 551.525 -1.27741 3.66475 0
M  V30 5708 H 549.626 -3.12399 2.0307 0
M  V30 5709 H 549.739 -2.80086 3.88701 0
M  V30 5710 H 548.103 -1.56643 2.00836 0
M  V30 5711 H 548.886 -0.609194 3.37852 0
M  V30 5712 N 551.331 -1.39911 -0.725443 0
M  V30 5713 C 552.556 -1.41137 -1.5197 0
M  V30 5714 C 552.981 -0.010262 -1.88097 0
M  V30 5715 O 552.339 0.979184 -1.52583 0
M  V30 5716 C 552.387 -2.2994 -2.77777 0
M  V30 5717 O 551.491 -1.73586 -3.74088 0
M  V30 5718 H 550.832 -0.480219 -0.458569 0
M  V30 5719 H 553.362 -1.84023 -0.894249 0
M  V30 5720 H 553.372 -2.44785 -3.26411 0
M  V30 5721 H 552.047 -3.31759 -2.50816 0
M  V30 5722 H 550.624 -1.68035 -3.32894 0
M  V30 5723 N 552.809 0.956637 -1.25245 0
M  V30 5724 C 554.086 1.67716 -1.00651 0
M  V30 5725 C 554.466 2.0585 0.467866 0
M  V30 5726 O 553.814 1.77029 1.44475 0
M  V30 5727 C 554.024 2.90093 -1.94028 0
M  V30 5728 C 555.372 3.6209 -2.21756 0
M  V30 5729 O 556.396 3.00171 -1.9177 0
M  V30 5730 O 555.255 4.7358 -2.72735 0
M  V30 5731 H 552.349 0.733731 -0.381533 0
M  V30 5732 H 554.895 1.00974 -1.3639 0
M  V30 5733 H 553.667 2.58689 -2.93591 0
M  V30 5734 H 553.29 3.64566 -1.58674 0
M  V30 5735 N 554.287 1.06798 1.15896 0
M  V30 5736 C 555.536 0.782796 1.8589 0
M  V30 5737 C 555.849 -0.693498 1.82893 0
M  V30 5738 O 557.055 -1.09325 2.48516 0
M  V30 5739 C 555.511 1.3502 3.33613 0
M  V30 5740 C 555.119 2.8571 3.45071 0
M  V30 5741 C 556.863 1.14278 4.08829 0
M  V30 5742 C 554.77 3.35669 4.86909 0
M  V30 5743 H 553.7 0.289149 0.696354 0
M  V30 5744 H 556.351 1.28734 1.30766 0
M  V30 5745 H 554.733 0.773407 3.88374 0
M  V30 5746 H 555.907 3.49385 3.00445 0
M  V30 5747 H 554.222 3.05178 2.83294 0
M  V30 5748 H 556.819 1.49087 5.13495 0
M  V30 5749 H 557.162 0.0814575 4.1622 0
M  V30 5750 H 557.695 1.68563 3.60321 0
M  V30 5751 H 554.434 4.41302 4.84698 0
M  V30 5752 H 553.954 2.76745 5.32139 0
M  V30 5753 H 555.633 3.31296 5.55745 0
M  V30 5754 N 555.766 -1.3263 0.851289 0
M  V30 5755 C 556.729 -2.27247 0.298541 0
M  V30 5756 C 557.729 -1.51467 -0.539847 0
M  V30 5757 O 558.919 -1.7061 -0.351843 0
M  V30 5758 C 556.051 -3.35964 -0.578004 0
M  V30 5759 H 557.244 -2.7765 1.13359 0
M  V30 5760 H 554.797 -1.43245 0.625354 0
M  V30 5761 H 555.532 -2.90823 -1.435 0
M  V30 5762 H 555.317 -3.92094 0.0220539 0
M  V30 5763 H 556.807 -4.06472 -0.957626 0
M  V30 5764 N 557.244 -0.608902 -1.45362 0
M  V30 5765 C 558.49 -0.104762 -2.02529 0
M  V30 5766 C 558.823 1.26191 -1.47613 0
M  V30 5767 O 558.098 1.8327 -0.65134 0
M  V30 5768 C 558.381 -0.0672661 -3.60037 0
M  V30 5769 C 558.234 -1.4647 -4.25284 0
M  V30 5770 C 559.553 0.619877 -4.35713 0
M  V30 5771 H 556.672 -0.0395438 -0.735938 0
M  V30 5772 H 559.314 -0.781126 -1.73201 0
M  V30 5773 H 557.464 0.50871 -3.85155 0
M  V30 5774 H 559.136 -2.08785 -4.11347 0
M  V30 5775 H 557.379 -2.02502 -3.83634 0
M  V30 5776 H 558.05 -1.39069 -5.34195 0
M  V30 5777 H 560.526 0.130297 -4.15896 0
M  V30 5778 H 559.402 0.615224 -5.45441 0
M  V30 5779 H 559.663 1.68621 -4.0868 0
M  V30 5780 N 558.722 1.53707 -0.348139 0
M  V30 5781 C 559.632 2.28881 0.514857 0
M  V30 5782 C 560.648 1.34168 1.10793 0
M  V30 5783 O 561.824 1.6721 1.12262 0
M  V30 5784 C 558.889 3.05042 1.64774 0
M  V30 5785 C 557.95 4.15389 1.08398 0
M  V30 5786 C 557.183 4.87909 2.16287 0
M  V30 5787 O 557.406 4.60137 3.3709 0
M  V30 5788 O 556.34 5.74254 1.80323 0
M  V30 5789 H 560.166 3.03547 -0.0963699 0
M  V30 5790 H 557.751 1.48972 -0.113043 0
M  V30 5791 H 559.633 3.52656 2.30677 0
M  V30 5792 H 558.308 2.33228 2.24469 0
M  V30 5793 H 557.215 3.72068 0.389341 0
M  V30 5794 H 558.548 4.89318 0.531829 0
M  V30 5795 N 560.2 0.0768682 1.57412 0
M  V30 5796 C 561.446 -0.585926 1.94778 0
M  V30 5797 C 561.801 -1.66912 0.956982 0
M  V30 5798 O 561.094 -1.9159 -0.0199454 0
M  V30 5799 C 561.288 -1.20268 3.36557 0
M  V30 5800 C 561.117 -0.18076 4.49337 0
M  V30 5801 C 559.887 0.236362 5.04747 0
M  V30 5802 C 562.085 0.583978 5.10974 0
M  V30 5803 N 560.067 1.24846 6.01071 0
M  V30 5804 C 561.438 1.44841 6.02844 0
M  V30 5805 C 563.493 0.639492 4.93776 0
M  V30 5806 C 562.196 2.36343 6.79363 0
M  V30 5807 C 564.222 1.54204 5.70942 0
M  V30 5808 C 563.584 2.39414 6.62465 0
M  V30 5809 H 559.683 -0.185281 0.759734 0
M  V30 5810 H 562.267 0.155193 1.9408 0
M  V30 5811 H 560.438 -1.9137 3.37982 0
M  V30 5812 H 562.17 -1.82636 3.61146 0
M  V30 5813 H 558.925 -0.14777 4.73369 0
M  V30 5814 H 559.349 1.75217 6.53933 0
M  V30 5815 H 563.991 -0.00510074 4.228 0
M  V30 5816 H 561.709 3.01836 7.49614 0
M  V30 5817 H 565.295 1.5899 5.59655 0
M  V30 5818 H 564.175 3.0812 7.21132 0
M  V30 5819 N 561.678 -1.56367 -0.196722 0
M  V30 5820 C 562.588 -1.97617 -1.2643 0
M  V30 5821 C 563.604 -0.883598 -1.49895 0
M  V30 5822 O 564.78 -1.18921 -1.62541 0
M  V30 5823 C 561.845 -2.30595 -2.58895 0
M  V30 5824 C 560.906 -3.53551 -2.43516 0
M  V30 5825 C 560.139 -3.84946 -3.69665 0
M  V30 5826 O 560.362 -3.17655 -4.73763 0
M  V30 5827 O 559.296 -4.78379 -3.65291 0
M  V30 5828 H 563.122 -2.88648 -0.944233 0
M  V30 5829 H 560.707 -1.43901 -0.401592 0
M  V30 5830 H 562.589 -2.52889 -3.37083 0
M  V30 5831 H 561.264 -1.42732 -2.90533 0
M  V30 5832 H 560.171 -3.36507 -1.63445 0
M  V30 5833 H 561.504 -4.41875 -2.16812 0
M  V30 5834 N 563.156 0.464375 -1.50603 0
M  V30 5835 C 564.381 1.24372 -1.65971 0
M  V30 5836 C 564.806 1.84901 -0.345453 0
M  V30 5837 O 564.164 1.67596 0.691457 0
M  V30 5838 C 564.212 2.32331 -2.7578 0
M  V30 5839 O 563.316 3.37146 -2.375 0
M  V30 5840 H 562.657 0.365604 -0.554283 0
M  V30 5841 H 565.187 0.55183 -1.97018 0
M  V30 5842 H 565.197 2.77539 -2.99059 0
M  V30 5843 H 563.872 1.87648 -3.71162 0
M  V30 5844 H 562.449 2.97602 -2.24694 0
M  V30 5845 N 564.634 1.40294 0.718013 0
M  V30 5846 C 565.582 1.40536 1.85344 0
M  V30 5847 C 566.576 0.286192 1.66965 0
M  V30 5848 O 567.782 0.457105 1.74099 0
M  V30 5849 H 564.157 0.439236 0.61039 0
M  V30 5850 H 566.128 2.36275 1.82255 0
M  V30 5851 C 564.877 1.28245 3.23185 0
M  V30 5852 H 564.2 2.1364 3.37932 0
M  V30 5853 H 565.64 1.32474 4.02774 0
M  V30 5854 C 564.099 -0.0075503 3.36899 0
M  V30 5855 O 564.629 -0.971391 3.89778 0
M  V30 5856 N 562.835 -0.0762479 2.905 0
M  V30 5857 H 562.382 0.708819 2.47656 0
M  V30 5858 H 562.34 -0.938846 3.00055 0
M  V30 5859 N 566.112 -0.949982 1.2575 0
M  V30 5860 C 567.36 -1.6918 1.10555 0
M  V30 5861 C 567.681 -1.91773 -0.353298 0
M  V30 5862 O 566.951 -1.50814 -1.25027 0
M  V30 5863 H 565.531 -0.626952 0.406129 0
M  V30 5864 H 568.193 -1.1419 1.57945 0
M  V30 5865 H 567.289 -2.66915 1.61749 0
M  V30 5866 N 567.59 -1.07411 -1.15328 0
M  V30 5867 C 568.522 -0.652924 -2.19703 0
M  V30 5868 C 569.535 0.294869 -1.60107 0
M  V30 5869 O 570.724 0.0840932 -1.78302 0
M  V30 5870 C 567.824 0.061434 -3.38844 0
M  V30 5871 C 566.997 -0.902696 -4.27984 0
M  V30 5872 C 566.056 -0.225521 -5.25717 0
M  V30 5873 O 565.082 -0.86676 -5.62562 0
M  V30 5874 N 566.284 1.02858 -5.71315 0
M  V30 5875 H 569.049 -1.55081 -2.56457 0
M  V30 5876 H 566.61 -0.958883 -1.30449 0
M  V30 5877 H 568.602 0.525145 -4.01278 0
M  V30 5878 H 567.172 0.861269 -3.00501 0
M  V30 5879 H 566.392 -1.54551 -3.6264 0
M  V30 5880 H 567.68 -1.55636 -4.84412 0
M  V30 5881 H 567.078 1.56948 -5.43492 0
M  V30 5882 H 565.635 1.43596 -6.35786 0
M  V30 5883 N 569.068 1.32177 -0.85831 0
M  V30 5884 C 570.479 1.79381 -0.517621 0
M  V30 5885 C 570.83 1.70841 0.964769 0
M  V30 5886 O 569.955 1.26917 1.75274 0
M  V30 5887 C 570.55 3.25706 -0.932801 0
M  V30 5888 C 569.109 3.70851 -0.643953 0
M  V30 5889 C 568.256 2.53208 -1.13054 0
M  V30 5890 H 571.207 1.19424 -1.04516 0
M  V30 5891 H 571.228 3.79673 -0.250674 0
M  V30 5892 H 570.74 3.31889 -2.01174 0
M  V30 5893 H 568.841 3.70178 0.424112 0
M  V30 5894 H 568.954 4.63495 -1.21281 0
M  V30 5895 H 567.318 2.48676 -0.550679 0
M  V30 5896 H 568.101 2.62143 -2.21666 0
M  V30 5897 N 570.547 0.616602 1.45037 0
M  V30 5898 C 571.457 -0.0985401 2.34393 0
M  V30 5899 C 572.473 -0.850971 1.51771 0
M  V30 5900 O 573.649 -0.806521 1.84546 0
M  V30 5901 C 570.714 -1.07748 3.29532 0
M  V30 5902 C 569.775 -0.326022 4.2806 0
M  V30 5903 C 569.008 -1.25833 5.18654 0
M  V30 5904 O 569.231 -2.49652 5.12864 0
M  V30 5905 O 568.165 -0.750512 5.97203 0
M  V30 5906 H 571.991 0.636016 2.96966 0
M  V30 5907 H 569.576 0.376832 1.44569 0
M  V30 5908 H 571.458 -1.64107 3.88133 0
M  V30 5909 H 570.133 -1.79291 2.69512 0
M  V30 5910 H 569.04 0.280253 3.73049 0
M  V30 5911 H 570.373 0.349091 4.9096 0
M  V30 5912 N 572.025 -1.5352 0.356285 0
M  V30 5913 C 572.973 -2.26945 -0.50978 0
M  V30 5914 C 573.967 -1.29569 -1.09125 0
M  V30 5915 O 575.173 -1.47231 -1.03552 0
M  V30 5916 H 571.548 -0.729368 -0.183102 0
M  V30 5917 H 573.519 -2.98111 0.131374 0
M  V30 5918 C 572.268 -3.06466 -1.64237 0
M  V30 5919 H 571.591 -3.81233 -1.20423 0
M  V30 5920 H 573.031 -3.61035 -2.22327 0
M  V30 5921 C 571.49 -2.16737 -2.57928 0
M  V30 5922 O 572.02 -1.77195 -3.60507 0
M  V30 5923 N 570.226 -1.81558 -2.26903 0
M  V30 5924 H 569.773 -2.13913 -1.43524 0
M  V30 5925 H 569.731 -1.21806 -2.89846 0
M  V30 5926 N 573.503 -0.0852151 -1.57369 0
M  V30 5927 C 574.451 0.894856 -2.14698 0
M  V30 5928 C 575.445 1.29903 -1.08727 0
M  V30 5929 O 576.651 1.27471 -1.27088 0
M  V30 5930 H 573.026 0.306569 -0.686673 0
M  V30 5931 H 574.997 0.386542 -2.95886 0
M  V30 5932 C 573.746 2.14798 -2.73417 0
M  V30 5933 H 573.069 1.84585 -3.54638 0
M  V30 5934 H 574.509 2.81456 -3.1711 0
M  V30 5935 C 572.968 2.91546 -1.68828 0
M  V30 5936 O 573.498 3.85733 -1.12129 0
M  V30 5937 N 571.704 2.54901 -1.39549 0
M  V30 5938 H 571.251 1.7838 -1.85845 0
M  V30 5939 H 571.209 3.06553 -0.698054 0
M  V30 5940 N 574.981 1.5647 0.188427 0
M  V30 5941 C 576.211 1.84863 0.922463 0
M  V30 5942 C 576.619 0.666413 1.77075 0
M  V30 5943 O 575.962 -0.374044 1.79852 0
M  V30 5944 C 576.024 3.07447 1.86324 0
M  V30 5945 C 575.688 4.41066 1.19625 0
M  V30 5946 C 576.685 5.16767 0.569946 0
M  V30 5947 C 574.37 4.87802 1.19811 0
M  V30 5948 C 576.364 6.37384 -0.045594 0
M  V30 5949 C 574.051 6.08353 0.57874 0
M  V30 5950 C 575.049 6.82987 -0.0420259 0
M  V30 5951 O 574.737 8.01254 -0.651675 0
M  V30 5952 H 574.469 0.61784 0.274316 0
M  V30 5953 H 577.023 2.04437 0.198613 0
M  V30 5954 H 575.253 2.83774 2.62696 0
M  V30 5955 H 576.942 3.2243 2.46564 0
M  V30 5956 H 577.708 4.81749 0.560601 0
M  V30 5957 H 573.587 4.29662 1.67069 0
M  V30 5958 H 577.131 6.95578 -0.530731 0
M  V30 5959 H 573.028 6.42838 0.58561 0
M  V30 5960 H 573.796 8.16655 -0.549236 0
M  V30 5961 N 576.459 -0.456382 1.50847 0
M  V30 5962 C 577.406 -1.55249 1.70782 0
M  V30 5963 C 578.376 -1.56757 0.549231 0
M  V30 5964 O 579.561 -1.74061 0.7815 0
M  V30 5965 C 576.701 -2.93118 1.82143 0
M  V30 5966 C 575.814 -3.01285 3.09598 0
M  V30 5967 C 574.949 -4.30159 3.11667 0
M  V30 5968 C 573.988 -4.32124 4.33515 0
M  V30 5969 N 573.125 -5.52492 4.3324 0
M  V30 5970 H 577.965 -1.37555 2.64353 0
M  V30 5971 H 575.502 -0.668543 1.3103 0
M  V30 5972 H 577.46 -3.73088 1.86711 0
M  V30 5973 H 576.09 -3.09413 0.919978 0
M  V30 5974 H 575.142 -2.14096 3.14431 0
M  V30 5975 H 576.454 -2.98597 3.99551 0
M  V30 5976 H 575.608 -5.18489 3.15046 0
M  V30 5977 H 574.347 -4.35477 2.1957 0
M  V30 5978 H 573.352 -3.42189 4.30333 0
M  V30 5979 H 574.577 -4.28485 5.26856 0
M  V30 5980 H 572.523 -5.58567 3.44004 0
M  V30 5981 H 572.44 -5.51605 5.16979 0
M  V30 5982 H 573.708 -6.42906 4.40786 0
M  V30 5983 N 577.937 -1.40673 -0.710563 0
M  V30 5984 C 579.165 -1.42547 -1.4996 0
M  V30 5985 C 579.58 -0.0265485 -1.88781 0
M  V30 5986 O 578.937 0.950694 -1.55782 0
M  V30 5987 C 578.988 -2.32071 -2.77173 0
M  V30 5988 O 578.709 -3.66518 -2.39992 0
M  V30 5989 C 580.21 -2.42591 -3.71032 0
M  V30 5990 H 577.43 -0.486025 -0.462623 0
M  V30 5991 H 579.974 -1.84783 -0.876102 0
M  V30 5992 H 578.129 -1.93184 -3.35795 0
M  V30 5993 H 578.543 -4.14115 -3.21884 0
M  V30 5994 H 580.017 -3.09429 -4.57119 0
M  V30 5995 H 580.494 -1.4525 -4.14486 0
M  V30 5996 H 581.1 -2.82051 -3.18319 0
M  V30 5997 N 579.415 0.9433 -1.26252 0
M  V30 5998 C 580.643 1.72367 -1.14443 0
M  V30 5999 C 581.058 1.86392 0.300572 0
M  V30 6000 O 580.415 1.36978 1.20596 0
M  V30 6001 C 580.466 3.13155 -1.806 0
M  V30 6002 O 580.187 2.99803 -3.19452 0
M  V30 6003 C 581.688 4.07417 -1.74717 0
M  V30 6004 H 578.908 0.539758 -0.398626 0
M  V30 6005 H 581.452 1.18268 -1.66832 0
M  V30 6006 H 579.607 3.64162 -1.32154 0
M  V30 6007 H 580.021 3.88697 -3.52158 0
M  V30 6008 H 581.495 5.03773 -2.25647 0
M  V30 6009 H 581.972 4.3337 -0.713244 0
M  V30 6010 H 582.578 3.6233 -2.22704 0
M  V30 6011 N 580.893 1.08022 1.14757 0
M  V30 6012 C 582.304 0.829144 1.67279 0
M  V30 6013 C 582.655 -0.644721 1.85305 0
M  V30 6014 O 581.78 -1.49838 1.56133 0
M  V30 6015 C 582.375 1.49855 3.03857 0
M  V30 6016 C 580.934 1.29482 3.53428 0
M  V30 6017 C 580.081 1.56386 2.28995 0
M  V30 6018 H 583.032 1.24134 0.988762 0
M  V30 6019 H 583.053 0.923572 3.69121 0
M  V30 6020 H 582.565 2.57123 2.90705 0
M  V30 6021 H 580.666 0.242669 3.71809 0
M  V30 6022 H 580.779 2.01974 4.34446 0
M  V30 6023 H 579.143 0.985217 2.34874 0
M  V30 6024 H 579.926 2.64851 2.18423 0
M  V30 6025 N 582.371 -1.3172 0.865308 0
M  V30 6026 C 583.782 -1.79104 0.527126 0
M  V30 6027 C 584.133 -1.7135 -0.955695 0
M  V30 6028 O 583.258 -1.27845 -1.74598 0
M  V30 6029 C 583.853 -3.25207 0.950061 0
M  V30 6030 C 582.412 -3.70504 0.663611 0
M  V30 6031 C 581.559 -2.52605 1.14395 0
M  V30 6032 H 584.51 -1.18868 1.05148 0
M  V30 6033 H 584.531 -3.79535 0.270805 0
M  V30 6034 H 584.043 -3.30818 2.02931 0
M  V30 6035 H 582.144 -3.70398 -0.404474 0
M  V30 6036 H 582.257 -4.62845 1.23737 0
M  V30 6037 H 580.621 -2.4838 0.563859 0
M  V30 6038 H 581.404 -2.60964 2.23053 0
M  V30 6039 N 583.85 -0.624285 -1.44708 0
M  V30 6040 C 585.096 -0.126237 -2.02407 0
M  V30 6041 C 585.428 1.24618 -1.48943 0
M  V30 6042 O 584.704 1.82569 -0.670742 0
M  V30 6043 C 584.986 -0.105449 -3.59946 0
M  V30 6044 C 584.84 -1.50972 -4.23707 0
M  V30 6045 C 586.159 0.573629 -4.36346 0
M  V30 6046 H 583.278 -0.0473472 -0.735478 0
M  V30 6047 H 585.92 -0.799452 -1.72362 0
M  V30 6048 H 584.07 0.46783 -3.85673 0
M  V30 6049 H 585.742 -2.13136 -4.0911 0
M  V30 6050 H 583.985 -2.0656 -3.81465 0
M  V30 6051 H 584.656 -1.44727 -5.32689 0
M  V30 6052 H 587.132 0.0861787 -4.16011 0
M  V30 6053 H 586.008 0.557338 -5.46063 0
M  V30 6054 H 586.269 1.64276 -4.10446 0
M  V30 6055 N 585.328 1.53329 -0.364422 0
M  V30 6056 C 586.258 2.28627 0.474543 0
M  V30 6057 C 587.239 1.31009 1.08492 0
M  V30 6058 O 588.424 1.59878 1.10239 0
M  V30 6059 C 585.554 3.07465 1.61501 0
M  V30 6060 C 584.508 4.1276 1.13194 0
M  V30 6061 C 583.834 4.79674 2.36255 0
M  V30 6062 C 585.134 5.21847 0.217507 0
M  V30 6063 H 586.828 2.99005 -0.153656 0
M  V30 6064 H 584.374 1.43803 -0.0753406 0
M  V30 6065 H 586.327 3.58889 2.20855 0
M  V30 6066 H 585.051 2.34775 2.27042 0
M  V30 6067 H 583.71 3.62281 0.56109 0
M  V30 6068 H 583.358 4.03557 3.00251 0
M  V30 6069 H 583.058 5.50827 2.04606 0
M  V30 6070 H 584.582 5.33892 2.96297 0
M  V30 6071 H 585.996 5.6878 0.718493 0
M  V30 6072 H 584.393 6.00099 -0.00806408 0
M  V30 6073 H 585.463 4.7921 -0.740653 0
M  V30 6074 N 586.806 0.0935595 1.57322 0
M  V30 6075 C 588.083 -0.612692 1.85756 0
M  V30 6076 C 588.463 -1.86439 0.99013 0
M  V30 6077 O 587.811 -2.28416 0.0621362 0
M  V30 6078 C 588.021 -0.929547 3.36393 0
M  V30 6079 C 589.369 -1.29366 4.04413 0
M  V30 6080 O 590.393 -1.02061 3.41265 0
M  V30 6081 O 589.252 -1.80498 5.15832 0
M  V30 6082 H 586.346 -0.306444 0.768128 0
M  V30 6083 H 588.892 0.126141 1.69231 0
M  V30 6084 H 587.664 -0.0414766 3.91278 0
M  V30 6085 H 587.287 -1.72441 3.5826 0
M  V30 6086 N 588.284 -1.56567 -0.180126 0
M  V30 6087 C 589.509 -1.85975 -0.918041 0
M  V30 6088 C 589.934 -0.678888 -1.75422 0
M  V30 6089 O 589.292 0.372168 -1.77439 0
M  V30 6090 C 589.34 -3.13731 -1.77779 0
M  V30 6091 O 588.444 -2.95335 -2.87838 0
M  V30 6092 H 587.785 -0.61196 -0.257683 0
M  V30 6093 H 590.315 -2.03798 -0.180923 0
M  V30 6094 H 590.325 -3.4491 -2.17948 0
M  V30 6095 H 589 -3.99293 -1.16352 0
M  V30 6096 H 587.577 -2.7549 -2.51316 0
M  V30 6097 N 589.762 0.448376 -1.51087 0
M  V30 6098 C 591.039 1.20926 -1.53741 0
M  V30 6099 C 591.419 2.09025 -0.295222 0
M  V30 6100 O 590.767 2.16851 0.720283 0
M  V30 6101 C 590.977 2.02067 -2.84552 0
M  V30 6102 C 592.325 2.59486 -3.36084 0
M  V30 6103 O 593.349 2.12289 -2.86028 0
M  V30 6104 O 592.208 3.45539 -4.23397 0
M  V30 6105 H 589.302 0.549951 -0.617643 0
M  V30 6106 H 591.848 0.458344 -1.63393 0
M  V30 6107 H 590.62 1.37291 -3.66425 0
M  V30 6108 H 590.243 2.84246 -2.78011 0
M  V30 6109 N 591.24 1.41047 0.703093 0
M  V30 6110 C 592.488 1.39723 1.4602 0
M  V30 6111 C 592.809 0.00461257 1.94999 0
M  V30 6112 O 592.079 -0.952292 1.71196 0
M  V30 6113 H 590.659 0.514281 0.541779 0
M  V30 6114 H 593.321 1.76217 0.832678 0
M  V30 6115 H 592.417 2.07982 2.32701 0
M  V30 6116 N 592.718 -0.936591 1.26751 0
M  V30 6117 C 593.943 -1.72288 1.15462 0
M  V30 6118 C 594.368 -1.85915 -0.285887 0
M  V30 6119 O 593.726 -1.35272 -1.20711 0
M  V30 6120 C 593.774 -3.10503 1.83359 0
M  V30 6121 O 592.878 -3.96745 1.1255 0
M  V30 6122 H 592.219 -0.52843 0.402067 0
M  V30 6123 H 594.749 -1.17271 1.67656 0
M  V30 6124 H 594.759 -3.60867 1.90365 0
M  V30 6125 H 593.434 -2.99901 2.88153 0
M  V30 6126 H 592.011 -3.55191 1.13551 0
M  V30 6127 N 594.196 -1.08629 -1.14182 0
M  V30 6128 C 595.443 -0.817345 -1.85272 0
M  V30 6129 C 595.771 0.656917 -1.83071 0
M  V30 6130 O 595.026 1.49897 -1.25815 0
M  V30 6131 C 595.325 -1.28734 -3.3341 0
M  V30 6132 C 594.991 -2.76981 -3.55798 0
M  V30 6133 C 593.653 -3.17469 -3.61617 0
M  V30 6134 C 596.005 -3.72605 -3.64438 0
M  V30 6135 C 593.333 -4.52371 -3.736 0
M  V30 6136 C 595.685 -5.07286 -3.77947 0
M  V30 6137 C 594.349 -5.47376 -3.82016 0
M  V30 6138 H 593.619 -0.299088 -0.677958 0
M  V30 6139 H 596.266 -1.35962 -1.34857 0
M  V30 6140 H 594.571 -0.664702 -3.8612 0
M  V30 6141 H 596.268 -1.05598 -3.86846 0
M  V30 6142 H 592.858 -2.44644 -3.51919 0
M  V30 6143 H 597.042 -3.42443 -3.5923 0
M  V30 6144 H 592.298 -4.82882 -3.75013 0
M  V30 6145 H 596.472 -5.81243 -3.83575 0
M  V30 6146 H 594.099 -6.51906 -3.91054 0
M  V30 6147 N 595.674 1.31259 -0.872281 0
M  V30 6148 C 596.921 1.96622 -0.484365 0
M  V30 6149 C 597.249 1.68939 0.963841 0
M  V30 6150 O 596.504 0.97974 1.6941 0
M  V30 6151 C 596.803 3.50659 -0.690889 0
M  V30 6152 C 596.469 3.98366 -2.11224 0
M  V30 6153 C 595.131 4.11104 -2.50094 0
M  V30 6154 C 597.483 4.23425 -3.0391 0
M  V30 6155 C 594.811 4.46254 -3.80887 0
M  V30 6156 C 597.163 4.60039 -4.3422 0
M  V30 6157 C 595.827 4.70984 -4.73001 0
M  V30 6158 H 595.097 0.71949 -0.177242 0
M  V30 6159 H 597.744 1.56353 -1.10571 0
M  V30 6160 H 596.049 3.91798 0.0135782 0
M  V30 6161 H 597.746 3.99284 -0.370534 0
M  V30 6162 H 594.336 3.88949 -1.80047 0
M  V30 6163 H 598.52 4.13075 -2.75104 0
M  V30 6164 H 593.776 4.52926 -4.10692 0
M  V30 6165 H 597.95 4.78381 -5.06088 0
M  V30 6166 H 595.577 4.97977 -5.7439 0
M  V30 6167 N 597.152 0.631951 1.44375 0
M  V30 6168 C 598.082 -0.0593243 2.33425 0
M  V30 6169 C 599.063 -0.833964 1.48253 0
M  V30 6170 O 600.248 -0.799682 1.76971 0
M  V30 6171 C 597.378 -1.04096 3.31333 0
M  V30 6172 C 596.332 -0.377899 4.26328 0
M  V30 6173 C 595.658 -1.4695 5.14111 0
M  V30 6174 C 596.958 0.716371 5.17364 0
M  V30 6175 H 598.652 0.684287 2.91475 0
M  V30 6176 H 596.198 0.330518 1.40156 0
M  V30 6177 H 598.151 -1.53331 3.92514 0
M  V30 6178 H 596.875 -1.81547 2.71493 0
M  V30 6179 H 595.534 0.0938054 3.6648 0
M  V30 6180 H 595.182 -2.2349 4.50623 0
M  V30 6181 H 594.882 -1.03121 5.78481 0
M  V30 6182 H 596.406 -1.96363 5.78164 0
M  V30 6183 H 597.82 0.307089 5.72477 0
M  V30 6184 H 596.217 1.07784 5.90341 0
M  V30 6185 H 597.287 1.58316 4.58327 0
M  V30 6186 N 598.631 -1.53133 0.372548 0
M  V30 6187 C 599.861 -2.05476 -0.215202 0
M  V30 6188 C 600.269 -1.24534 -1.42436 0
M  V30 6189 O 599.612 -0.280771 -1.81542 0
M  V30 6190 C 599.674 -3.53276 -0.666068 0
M  V30 6191 C 599.338 -4.54998 0.427342 0
M  V30 6192 C 600.335 -5.03911 1.27944 0
M  V30 6193 C 598.02 -4.98828 0.589579 0
M  V30 6194 C 600.014 -5.95263 2.27905 0
M  V30 6195 C 597.701 -5.89984 1.59255 0
M  V30 6196 C 598.699 -6.38093 2.43571 0
M  V30 6197 O 598.387 -7.27451 3.42156 0
M  V30 6198 H 598.119 -0.67481 -0.040099 0
M  V30 6199 H 600.673 -1.98409 0.531312 0
M  V30 6200 H 598.903 -3.57904 -1.4643 0
M  V30 6201 H 600.592 -3.88442 -1.1776 0
M  V30 6202 H 601.358 -4.70792 1.16532 0
M  V30 6203 H 597.237 -4.60965 -0.0569456 0
M  V30 6204 H 600.781 -6.32736 2.93753 0
M  V30 6205 H 596.678 -6.22518 1.70711 0
M  V30 6206 H 597.446 -7.45467 3.37967 0
M  V30 6207 N 600.109 -0.101901 -1.5727 0
M  V30 6208 C 601.334 0.571759 -1.99363 0
M  V30 6209 C 601.759 1.60507 -0.980768 0
M  V30 6210 O 601.117 1.81231 0.0498517 0
M  V30 6211 C 601.165 1.18996 -3.404 0
M  V30 6212 O 600.269 2.30572 -3.41922 0
M  V30 6213 H 599.61 0.144449 -0.648098 0
M  V30 6214 H 602.14 -0.185325 -2.03759 0
M  V30 6215 H 602.15 1.52962 -3.78241 0
M  V30 6216 H 600.825 0.432984 -4.1364 0
M  V30 6217 H 599.402 1.98173 -3.15883 0
M  V30 6218 N 601.587 1.56661 0.17182 0
M  V30 6219 C 602.534 1.96371 1.21273 0
M  V30 6220 C 603.504 0.82756 1.44016 0
M  V30 6221 O 604.689 1.08764 1.56764 0
M  V30 6222 C 601.829 2.32838 2.54716 0
M  V30 6223 C 600.942 3.59628 2.39356 0
M  V30 6224 C 600.077 3.85311 3.65662 0
M  V30 6225 C 599.116 5.0545 3.45234 0
M  V30 6226 N 598.253 5.27268 4.63608 0
M  V30 6227 H 603.093 2.85106 0.86709 0
M  V30 6228 H 600.63 1.41073 0.416744 0
M  V30 6229 H 602.588 2.52004 3.3249 0
M  V30 6230 H 601.218 1.47214 2.87277 0
M  V30 6231 H 600.27 3.4838 1.52761 0
M  V30 6232 H 601.582 4.4756 2.20207 0
M  V30 6233 H 600.736 4.04841 4.51872 0
M  V30 6234 H 599.475 2.95753 3.8779 0
M  V30 6235 H 598.48 4.85819 2.5741 0
M  V30 6236 H 599.705 5.96538 3.24529 0
M  V30 6237 H 597.651 4.40662 4.85956 0
M  V30 6238 H 597.568 6.09422 4.4737 0
M  V30 6239 H 598.836 5.51277 5.51103 0
M  V30 6240 N 603.065 -0.440357 1.51323 0
M  V30 6241 C 603.995 -1.54174 1.75364 0
M  V30 6242 C 604.976 -1.59039 0.603375 0
M  V30 6243 O 606.161 -1.74815 0.845774 0
M  V30 6244 C 603.291 -2.92277 1.87593 0
M  V30 6245 C 602.245 -3.02274 3.03009 0
M  V30 6246 C 601.571 -4.42327 3.00418 0
M  V30 6247 C 602.871 -2.76634 4.43024 0
M  V30 6248 H 604.565 -1.34307 2.67585 0
M  V30 6249 H 602.111 -0.644678 1.28763 0
M  V30 6250 H 604.064 -3.69284 2.02995 0
M  V30 6251 H 602.788 -3.13369 0.920179 0
M  V30 6252 H 601.447 -2.27706 2.87307 0
M  V30 6253 H 601.095 -4.60382 2.02626 0
M  V30 6254 H 600.795 -4.49946 3.77918 0
M  V30 6255 H 602.319 -5.21312 3.17909 0
M  V30 6256 H 603.733 -3.43376 4.59093 0
M  V30 6257 H 602.13 -2.95666 5.22208 0
M  V30 6258 H 603.2 -1.72262 4.5327 0
M  V30 6259 N 604.543 -1.41418 -0.695603 0
M  V30 6260 C 605.771 -1.4413 -1.48439 0
M  V30 6261 C 606.186 -0.0465698 -1.88743 0
M  V30 6262 O 605.543 0.934117 -1.56782 0
M  V30 6263 C 605.594 -2.34998 -2.74696 0
M  V30 6264 O 605.315 -3.69043 -2.36091 0
M  V30 6265 C 606.816 -2.46513 -3.68438 0
M  V30 6266 H 604.036 -0.490905 -0.457442 0
M  V30 6267 H 606.58 -1.85702 -0.856454 0
M  V30 6268 H 604.735 -1.96735 -3.33728 0
M  V30 6269 H 605.149 -4.17505 -3.17474 0
M  V30 6270 H 606.623 -3.1426 -4.53811 0
M  V30 6271 H 607.1 -1.49638 -4.12922 0
M  V30 6272 H 607.706 -2.85412 -3.1531 0
M  V30 6273 N 606.021 0.929856 -1.27246 0
M  V30 6274 C 607.267 1.6798 -1.13625 0
M  V30 6275 C 607.6 1.91586 0.317589 0
M  V30 6276 O 606.875 1.50467 1.23247 0
M  V30 6277 C 607.158 3.04766 -1.91806 0
M  V30 6278 C 607.011 2.88415 -3.45162 0
M  V30 6279 C 608.33 4.05063 -1.72082 0
M  V30 6280 H 605.449 0.609632 -0.414147 0
M  V30 6281 H 608.091 1.0792 -1.56376 0
M  V30 6282 H 606.241 3.56034 -1.55474 0
M  V30 6283 H 607.913 2.44282 -3.91311 0
M  V30 6284 H 606.156 2.23802 -3.71611 0
M  V30 6285 H 606.827 3.85482 -3.95105 0
M  V30 6286 H 609.303 3.62798 -2.03757 0
M  V30 6287 H 608.179 4.98765 -2.29182 0
M  V30 6288 H 608.44 4.37021 -0.668206 0
M  V30 6289 N 607.499 1.09233 1.13605 0
M  V30 6290 C 608.776 0.739633 1.81077 0
M  V30 6291 C 609.156 -0.775595 1.96336 0
M  V30 6292 O 608.504 -1.69726 1.52988 0
M  V30 6293 C 608.714 1.47636 3.16235 0
M  V30 6294 C 610.062 1.64087 3.91613 0
M  V30 6295 O 611.086 1.43871 3.25852 0
M  V30 6296 O 609.945 1.97511 5.0956 0
M  V30 6297 H 607.039 0.265464 0.783236 0
M  V30 6298 H 609.585 1.19441 1.20549 0
M  V30 6299 H 608.357 2.50818 3.00344 0
M  V30 6300 H 607.98 1.01362 3.84462 0
M  V30 6301 N 608.977 -1.30795 0.87923 0
M  V30 6302 C 609.924 -2.28282 0.339968 0
M  V30 6303 C 610.894 -1.56134 -0.566685 0
M  V30 6304 O 612.079 -1.84231 -0.496338 0
M  V30 6305 C 609.219 -3.42225 -0.444501 0
M  V30 6306 C 608.332 -4.29204 0.490717 0
M  V30 6307 C 607.467 -5.30302 -0.308784 0
M  V30 6308 C 606.506 -6.08929 0.622272 0
M  V30 6309 N 605.643 -7.01957 -0.14155 0
M  V30 6310 H 610.483 -2.73794 1.17647 0
M  V30 6311 H 608.02 -1.34682 0.591527 0
M  V30 6312 H 609.978 -4.07038 -0.915186 0
M  V30 6313 H 608.608 -2.97799 -1.24562 0
M  V30 6314 H 607.66 -3.6475 1.07988 0
M  V30 6315 H 608.972 -4.84045 1.20425 0
M  V30 6316 H 608.126 -6.00835 -0.841575 0
M  V30 6317 H 606.865 -4.7614 -1.05556 0
M  V30 6318 H 605.87 -5.37278 1.16674 0
M  V30 6319 H 607.095 -6.65178 1.36804 0
M  V30 6320 H 605.041 -6.50192 -0.870966 0
M  V30 6321 H 604.958 -7.54261 0.51246 0
M  V30 6322 H 606.226 -7.76741 -0.655271 0
M  V30 6323 N 610.455 -0.639598 -1.44038 0
M  V30 6324 C 611.68 -0.153117 -2.06834 0
M  V30 6325 C 612.105 1.16676 -1.47541 0
M  V30 6326 O 611.463 1.71769 -0.580093 0
M  V30 6327 C 611.511 -0.0609169 -3.60549 0
M  V30 6328 O 610.615 0.98071 -4.00569 0
M  V30 6329 H 609.956 -0.0886402 -0.658057 0
M  V30 6330 H 612.486 -0.878674 -1.84771 0
M  V30 6331 H 612.496 0.126892 -4.07803 0
M  V30 6332 H 611.171 -1.0245 -4.03084 0
M  V30 6333 H 609.748 0.766789 -3.64931 0
M  V30 6334 N 611.933 1.52934 -0.380664 0
M  V30 6335 C 613.349 1.59571 -0.0302429 0
M  V30 6336 C 613.549 1.39509 1.45394 0
M  V30 6337 O 612.605 1.20777 2.21741 0
M  V30 6338 C 613.918 2.96519 -0.499691 0
M  V30 6339 C 615.466 3.09672 -0.455204 0
M  V30 6340 C 615.941 4.49056 -0.900703 0
M  V30 6341 N 617.432 4.55215 -0.856367 0
M  V30 6342 C 618.167 5.61282 -1.17259 0
M  V30 6343 N 617.663 6.75035 -1.55885 0
M  V30 6344 N 619.456 5.51343 -1.0944 0
M  V30 6345 H 611.607 1.64224 -1.347 0
M  V30 6346 H 613.87 0.771033 -0.551554 0
M  V30 6347 H 613.576 3.16388 -1.53595 0
M  V30 6348 H 613.45 3.77052 0.105789 0
M  V30 6349 H 615.837 2.89504 0.571949 0
M  V30 6350 H 615.918 2.31113 -1.09638 0
M  V30 6351 H 615.562 4.69964 -1.92604 0
M  V30 6352 H 615.492 5.26068 -0.236629 0
M  V30 6353 H 617.983 3.73546 -0.572013 0
M  V30 6354 H 618.296 7.51926 -1.784 0
M  V30 6355 H 616.641 6.76388 -1.59764 0
M  V30 6356 H 619.832 4.61356 -0.791713 0
M  V30 6357 H 620.005 6.33905 -1.34417 0
M  V30 6358 N 613.412 0.11024 1.57214 0
M  V30 6359 C 614.658 -0.544479 1.95977 0
M  V30 6360 C 615.013 -1.64845 0.992171 0
M  V30 6361 O 614.306 -1.91589 0.0206981 0
M  V30 6362 C 614.5 -1.13102 3.39032 0
M  V30 6363 C 614.329 -0.0854079 4.49619 0
M  V30 6364 C 613.099 0.343373 5.04132 0
M  V30 6365 C 615.297 0.692232 5.0962 0
M  V30 6366 N 613.279 1.37567 5.98288 0
M  V30 6367 C 614.65 1.57596 5.99636 0
M  V30 6368 C 616.705 0.744085 4.92309 0
M  V30 6369 C 615.408 2.50701 6.74197 0
M  V30 6370 C 617.434 1.6628 5.67543 0
M  V30 6371 C 616.796 2.53412 6.57238 0
M  V30 6372 H 612.895 -0.169124 0.763493 0
M  V30 6373 H 615.479 0.196326 1.93708 0
M  V30 6374 H 613.65 -1.84158 3.41965 0
M  V30 6375 H 615.382 -1.74934 3.64939 0
M  V30 6376 H 612.137 -0.0473277 4.73576 0
M  V30 6377 H 612.561 1.89048 6.50069 0
M  V30 6378 H 617.203 0.0845825 4.22715 0
M  V30 6379 H 614.921 3.17669 7.43043 0
M  V30 6380 H 618.507 1.70825 5.56156 0
M  V30 6381 H 617.387 3.23347 7.14434 0
M  V30 6382 N 614.89 -1.56749 -0.16351 0
M  V30 6383 C 615.822 -1.93587 -1.22705 0
M  V30 6384 C 616.835 -0.829824 -1.40063 0
M  V30 6385 O 618.024 -1.10826 -1.39928 0
M  V30 6386 C 615.124 -2.1803 -2.59454 0
M  V30 6387 C 614.297 -3.4928 -2.63292 0
M  V30 6388 C 613.356 -3.62457 -3.8146 0
M  V30 6389 O 612.382 -4.35004 -3.67096 0
M  V30 6390 N 613.584 -2.97888 -4.9824 0
M  V30 6391 H 616.349 -2.8542 -0.914081 0
M  V30 6392 H 613.91 -1.58 -0.353214 0
M  V30 6393 H 615.902 -2.24102 -3.36987 0
M  V30 6394 H 614.472 -1.32543 -2.8311 0
M  V30 6395 H 613.692 -3.54795 -1.71796 0
M  V30 6396 H 614.98 -4.35632 -2.62873 0
M  V30 6397 H 614.378 -2.38833 -5.12811 0
M  V30 6398 H 612.935 -3.09545 -5.73607 0
M  V30 6399 N 616.368 0.432326 -1.51554 0
M  V30 6400 C 617.3 1.54357 -1.6943 0
M  V30 6401 C 618.313 1.52311 -0.574897 0
M  V30 6402 O 619.502 1.56997 -0.849369 0
M  V30 6403 C 616.602 2.93273 -1.69836 0
M  V30 6404 C 615.775 3.19768 -2.98442 0
M  V30 6405 C 614.834 4.38433 -2.90969 0
M  V30 6406 O 613.86 4.36842 -3.64908 0
M  V30 6407 N 615.062 5.42276 -2.07163 0
M  V30 6408 H 617.827 1.39426 -2.65293 0
M  V30 6409 H 615.388 0.621331 -1.49503 0
M  V30 6410 H 617.38 3.70687 -1.62399 0
M  V30 6411 H 615.95 3.01777 -0.815456 0
M  V30 6412 H 615.17 2.30607 -3.19709 0
M  V30 6413 H 616.458 3.343 -3.83563 0
M  V30 6414 H 615.856 5.46407 -1.46477 0
M  V30 6415 H 614.413 6.18524 -2.05601 0
M  V30 6416 N 617.846 1.41785 0.688094 0
M  V30 6417 C 619.094 1.41264 1.4453 0
M  V30 6418 C 619.415 0.0252946 1.94984 0
M  V30 6419 O 618.685 -0.934081 1.72197 0
M  V30 6420 H 617.265 0.519998 0.536294 0
M  V30 6421 H 619.927 1.7709 0.813941 0
M  V30 6422 H 619.023 2.10439 2.30482 0
M  V30 6423 N 619.324 -0.923095 1.27737 0
M  V30 6424 C 620.272 -2.04567 1.10703 0
M  V30 6425 C 621.266 -1.69375 0.0288445 0
M  V30 6426 O 622.472 -1.79027 0.186913 0
M  V30 6427 H 618.847 -0.670109 0.34126 0
M  V30 6428 H 620.818 -2.1608 2.05796 0
M  V30 6429 C 619.567 -3.38934 0.775837 0
M  V30 6430 H 618.89 -3.66501 1.59741 0
M  V30 6431 H 620.33 -4.18239 0.696548 0
M  V30 6432 C 618.789 -3.32863 -0.520012 0
M  V30 6433 O 619.319 -3.70462 -1.55308 0
M  V30 6434 N 617.525 -2.85958 -0.51732 0
M  V30 6435 H 617.072 -2.55557 0.32379 0
M  V30 6436 H 617.03 -2.82279 -1.38441 0
M  V30 6437 N 620.802 -1.09834 -1.13024 0
M  V30 6438 C 622.048 -0.83819 -1.84668 0
M  V30 6439 C 622.381 0.634645 -1.83537 0
M  V30 6440 O 621.656 1.46753 -1.27647 0
M  V30 6441 C 621.939 -1.37933 -3.32636 0
M  V30 6442 C 621.792 -2.91857 -3.42257 0
M  V30 6443 C 623.111 -1.01654 -4.28199 0
M  V30 6444 H 620.23 -0.30595 -0.670495 0
M  V30 6445 H 622.872 -1.36044 -1.32635 0
M  V30 6446 H 621.022 -0.935111 -3.77078 0
M  V30 6447 H 622.694 -3.44759 -3.06495 0
M  V30 6448 H 620.937 -3.28776 -2.83 0
M  V30 6449 H 621.608 -3.24799 -4.46329 0
M  V30 6450 H 624.084 -1.39973 -3.9185 0
M  V30 6451 H 622.96 -1.42217 -5.30156 0
M  V30 6452 H 623.221 0.0747794 -4.42037 0
M  V30 6453 N 622.28 1.30327 -0.886154 0
M  V30 6454 C 623.527 1.96097 -0.505192 0
M  V30 6455 C 623.855 1.69952 0.945868 0
M  V30 6456 O 623.11 0.997653 1.68361 0
M  V30 6457 C 623.409 3.49906 -0.728042 0
M  V30 6458 C 623.075 3.96103 -2.15437 0
M  V30 6459 C 621.737 4.08428 -2.5444 0
M  V30 6460 C 624.089 4.20177 -3.08384 0
M  V30 6461 C 621.417 4.42189 -3.85598 0
M  V30 6462 C 623.769 4.55407 -4.39075 0
M  V30 6463 C 622.433 4.65941 -4.7797 0
M  V30 6464 H 621.703 0.71757 -0.184863 0
M  V30 6465 H 624.35 1.55171 -1.12223 0
M  V30 6466 H 622.655 3.9179 -0.027978 0
M  V30 6467 H 624.352 3.98869 -0.412862 0
M  V30 6468 H 620.942 3.87017 -1.84162 0
M  V30 6469 H 625.126 4.10134 -2.7947 0
M  V30 6470 H 620.382 4.48544 -4.15473 0
M  V30 6471 H 624.556 4.72986 -5.11133 0
M  V30 6472 H 622.183 4.91856 -5.79639 0
M  V30 6473 N 623.758 0.647228 1.43697 0
M  V30 6474 C 624.983 0.164083 2.0675 0
M  V30 6475 C 625.408 -1.15892 1.48158 0
M  V30 6476 O 624.766 -1.71459 0.589194 0
M  V30 6477 C 624.814 0.0800368 3.60511 0
M  V30 6478 O 623.918 -0.959453 4.01084 0
M  V30 6479 H 623.259 0.0921288 0.657578 0
M  V30 6480 H 625.789 0.88846 1.84303 0
M  V30 6481 H 625.799 -0.105263 4.07864 0
M  V30 6482 H 624.474 1.04586 4.02535 0
M  V30 6483 H 623.051 -0.747425 3.65333 0
M  V30 6484 N 625.236 -1.5273 0.388769 0
M  V30 6485 C 626.476 -2.03483 -0.193372 0
M  V30 6486 C 626.84 -1.26897 -1.44087 0
M  V30 6487 O 628.041 -1.67773 -2.10014 0
M  V30 6488 C 626.312 -3.54488 -0.455325 0
M  V30 6489 S 627.871 -4.27069 -1.00783 0
M  V30 6490 H 624.689 -0.708907 -0.0545131 0
M  V30 6491 H 627.291 -1.8798 0.536993 0
M  V30 6492 H 625.995 -4.07817 0.459722 0
M  V30 6493 H 625.526 -3.74196 -1.21413 0
M  V30 6494 H 627.541 -4.40185 -2.29023 0
M  V30 6495 N 626.714 -0.118576 -1.57153 0
M  V30 6496 C 627.939 0.550582 -1.99958 0
M  V30 6497 C 628.364 1.59458 -0.997736 0
M  V30 6498 O 627.722 1.81274 0.0306269 0
M  V30 6499 C 627.77 1.15379 -3.41643 0
M  V30 6500 O 626.874 2.26932 -3.44348 0
M  V30 6501 H 626.215 0.137567 -0.649593 0
M  V30 6502 H 628.745 -0.206926 -2.03551 0
M  V30 6503 H 628.755 1.48942 -3.79843 0
M  V30 6504 H 627.43 0.389087 -4.14076 0
M  V30 6505 H 626.007 1.94812 -3.17967 0
M  V30 6506 N 628.193 1.56834 0.155195 0
M  V30 6507 C 629.439 1.83169 0.870467 0
M  V30 6508 C 629.772 0.698929 1.81187 0
M  V30 6509 O 629.047 -0.298035 1.92203 0
M  V30 6510 C 629.33 3.19965 1.65211 0
M  V30 6511 C 629.183 4.43792 0.732744 0
M  V30 6512 C 630.502 3.53885 2.61636 0
M  V30 6513 H 627.621 0.666288 0.315006 0
M  V30 6514 H 630.263 1.89513 0.135988 0
M  V30 6515 H 628.413 3.14687 2.27825 0
M  V30 6516 H 630.085 4.61148 0.118236 0
M  V30 6517 H 628.328 4.3378 0.0417906 0
M  V30 6518 H 628.999 5.36095 1.31552 0
M  V30 6519 H 631.475 3.5972 2.09143 0
M  V30 6520 H 630.351 4.50648 3.13381 0
M  V30 6521 H 630.612 2.79418 3.42605 0
M  V30 6522 N 629.671 -0.424282 1.51781 0
M  V30 6523 C 630.604 -1.53633 1.68737 0
M  V30 6524 C 631.582 -1.53549 0.534915 0
M  V30 6525 O 632.766 -1.72483 0.760391 0
M  V30 6526 C 629.893 -2.92195 1.71288 0
M  V30 6527 C 628.939 -3.10251 2.92654 0
M  V30 6528 S 629.772 -2.85166 4.53256 0
M  V30 6529 C 630.928 -4.25986 4.58571 0
M  V30 6530 H 631.161 -1.39018 2.62795 0
M  V30 6531 H 628.694 -0.614854 1.41629 0
M  V30 6532 H 630.652 -3.72059 1.73443 0
M  V30 6533 H 629.313 -3.04162 0.783847 0
M  V30 6534 H 628.506 -4.1159 2.90877 0
M  V30 6535 H 628.108 -2.38231 2.88308 0
M  V30 6536 H 630.4 -5.19392 4.35015 0
M  V30 6537 H 631.343 -4.32792 5.60444 0
M  V30 6538 H 631.751 -4.1025 3.87757 0
M  V30 6539 N 631.149 -1.42148 -0.680565 0
M  V30 6540 C 632.099 -1.41634 -1.78672 0
M  V30 6541 C 633.083 -0.288494 -1.58293 0
M  V30 6542 O 634.275 -0.530295 -1.68869 0
M  V30 6543 C 631.404 -1.31558 -3.17092 0
M  V30 6544 C 630.49 -2.49265 -3.43115 0
M  V30 6545 N 630.881 -3.74702 -3.39753 0
M  V30 6546 C 629.179 -2.43401 -3.73727 0
M  V30 6547 C 629.88 -4.52854 -3.651 0
M  V30 6548 N 628.856 -3.83181 -3.85582 0
M  V30 6549 H 632.658 -2.3652 -1.74458 0
M  V30 6550 H 630.172 -1.36415 -0.881171 0
M  V30 6551 H 632.169 -1.29272 -3.96351 0
M  V30 6552 H 630.829 -0.376696 -3.22508 0
M  V30 6553 H 631.84 -4.07378 -3.19787 0
M  V30 6554 H 628.517 -1.58062 -3.86423 0
M  V30 6555 H 629.907 -5.61827 -3.6851 0
M  V30 6556 N 632.627 0.916307 -1.28225 0
M  V30 6557 C 633.537 2.05165 -1.13775 0
M  V30 6558 C 634.553 1.73879 -0.0649418 0
M  V30 6559 O 635.729 1.99531 -0.273722 0
M  V30 6560 C 632.794 3.37385 -0.798267 0
M  V30 6561 C 631.855 3.82296 -1.95316 0
M  V30 6562 C 631.088 5.08206 -1.62978 0
M  V30 6563 O 631.311 5.6781 -0.542948 0
M  V30 6564 O 630.245 5.48768 -2.47261 0
M  V30 6565 H 634.071 2.20273 -2.09078 0
M  V30 6566 H 631.656 1.0373 -1.07519 0
M  V30 6567 H 633.538 4.16773 -0.62278 0
M  V30 6568 H 632.213 3.23458 0.125139 0
M  V30 6569 H 631.12 3.03746 -2.18378 0
M  V30 6570 H 632.453 4.00782 -2.85718 0
M  V30 6571 N 634.105 1.10431 1.1244 0
M  V30 6572 C 635.068 0.756542 2.16354 0
M  V30 6573 C 636.068 -0.21899 1.59302 0
M  V30 6574 O 637.258 0.00415969 1.742 0
M  V30 6575 C 634.39 0.120612 3.40687 0
M  V30 6576 H 635.583 1.67696 2.48632 0
M  V30 6577 H 633.136 0.904832 1.27446 0
M  V30 6578 H 633.871 -0.810536 3.14008 0
M  V30 6579 H 633.656 0.822693 3.83372 0
M  V30 6580 H 635.146 -0.106945 4.17463 0
M  V30 6581 N 635.583 -1.29855 0.893053 0
M  V30 6582 C 636.513 -2.3035 0.382249 0
M  V30 6583 C 637.494 -1.61328 -0.539203 0
M  V30 6584 O 638.679 -1.88882 -0.451342 0
M  V30 6585 C 635.809 -3.45024 -0.396983 0
M  V30 6586 C 634.763 -4.258 0.433437 0
M  V30 6587 C 634.089 -5.32605 -0.472889 0
M  V30 6588 C 635.389 -4.94549 1.67984 0
M  V30 6589 H 637.083 -2.73325 1.22205 0
M  V30 6590 H 634.629 -1.314 0.589073 0
M  V30 6591 H 636.582 -4.14398 -0.765024 0
M  V30 6592 H 635.306 -3.00875 -1.2705 0
M  V30 6593 H 633.965 -3.58125 0.783723 0
M  V30 6594 H 633.613 -4.84702 -1.34435 0
M  V30 6595 H 633.313 -5.87547 0.0789958 0
M  V30 6596 H 634.837 -6.04832 -0.837269 0
M  V30 6597 H 636.251 -5.56395 1.38192 0
M  V30 6598 H 634.648 -5.59393 2.17254 0
M  V30 6599 H 635.718 -4.20215 2.41965 0
M  V30 6600 N 637.061 -0.65484 -1.43351 0
M  V30 6601 C 638.011 0.0581325 -2.27926 0
M  V30 6602 C 638.995 0.793188 -1.3999 0
M  V30 6603 O 640.187 0.675387 -1.63608 0
M  V30 6604 C 637.316 1.02272 -3.27712 0
M  V30 6605 C 636.402 0.286048 -4.23134 0
M  V30 6606 N 636.793 -0.698298 -5.00957 0
M  V30 6607 C 635.091 0.527272 -4.42872 0
M  V30 6608 C 635.792 -1.1357 -5.70506 0
M  V30 6609 N 634.768 -0.469631 -5.41568 0
M  V30 6610 H 638.57 -0.697182 -2.85511 0
M  V30 6611 H 636.084 -0.482252 -1.55074 0
M  V30 6612 H 638.081 1.5483 -3.87083 0
M  V30 6613 H 636.741 1.77807 -2.71688 0
M  V30 6614 H 637.752 -1.07708 -5.06576 0
M  V30 6615 H 634.429 1.26367 -3.97916 0
M  V30 6616 H 635.819 -1.95027 -6.42973 0
M  V30 6617 N 638.539 1.52521 -0.396863 0
M  V30 6618 C 639.487 2.28217 0.44943 0
M  V30 6619 C 640.481 1.32416 1.05652 0
M  V30 6620 O 641.687 1.49925 0.996124 0
M  V30 6621 H 638.062 0.733966 0.1637 0
M  V30 6622 H 640.033 2.97658 -0.210367 0
M  V30 6623 C 638.782 3.10713 1.56054 0
M  V30 6624 H 638.105 3.84291 1.10273 0
M  V30 6625 H 639.545 3.66803 2.12677 0
M  V30 6626 C 638.004 2.23499 2.52091 0
M  V30 6627 O 638.534 1.8669 3.55682 0
M  V30 6628 N 636.74 1.8751 2.2201 0
M  V30 6629 H 636.287 2.17643 1.37802 0
M  V30 6630 H 636.245 1.29448 2.86514 0
M  V30 6631 N 640.017 0.126909 1.57088 0
M  V30 6632 C 640.967 -0.831678 2.1229 0
M  V30 6633 C 641.951 -1.22292 1.04564 0
M  V30 6634 O 643.143 -1.19269 1.30782 0
M  V30 6635 C 640.272 -2.07866 2.73215 0
M  V30 6636 C 639.358 -1.71143 3.88035 0
M  V30 6637 N 639.749 -1.05136 4.94753 0
M  V30 6638 C 638.047 -2.00549 3.98367 0
M  V30 6639 C 638.748 -0.877257 5.75047 0
M  V30 6640 N 637.724 -1.40477 5.25135 0
M  V30 6641 H 641.526 -0.317926 2.92175 0
M  V30 6642 H 639.04 -0.0753052 1.62225 0
M  V30 6643 H 641.037 -2.77516 3.11111 0
M  V30 6644 H 639.697 -2.59778 1.94796 0
M  V30 6645 H 640.708 -0.71442 5.12949 0
M  V30 6646 H 637.385 -2.54452 3.30999 0
M  V30 6647 H 638.775 -0.358536 6.70943 0
M  V30 6648 N 641.495 -1.56914 -0.146875 0
M  V30 6649 C 642.725 -1.87243 -0.873126 0
M  V30 6650 C 643.133 -0.713127 -1.75246 0
M  V30 6651 O 642.476 0.326228 -1.8078 0
M  V30 6652 C 642.538 -3.12279 -1.78107 0
M  V30 6653 C 642.202 -4.44082 -1.07889 0
M  V30 6654 C 643.199 -5.18096 -0.432734 0
M  V30 6655 C 640.884 -4.90807 -1.06836 0
M  V30 6656 C 642.878 -6.37039 0.214569 0
M  V30 6657 C 640.565 -6.09674 -0.417243 0
M  V30 6658 C 641.563 -6.82636 0.223093 0
M  V30 6659 O 641.251 -7.99245 0.863884 0
M  V30 6660 H 640.983 -0.624896 -0.257839 0
M  V30 6661 H 643.537 -2.04892 -0.14434 0
M  V30 6662 H 641.767 -2.90639 -2.5508 0
M  V30 6663 H 643.456 -3.28854 -2.37929 0
M  V30 6664 H 644.222 -4.83066 -0.432677 0
M  V30 6665 H 640.101 -4.3394 -1.55618 0
M  V30 6666 H 643.645 -6.93927 0.714965 0
M  V30 6667 H 639.542 -6.44165 -0.414967 0
M  V30 6668 H 640.31 -8.14912 0.765564 0
M  V30 6669 N 642.974 0.416227 -1.52004 0
M  V30 6670 C 644.202 1.18573 -1.69553 0
M  V30 6671 C 644.617 1.84472 -0.401919 0
M  V30 6672 O 643.974 1.71593 0.621463 0
M  V30 6673 C 644.025 2.25413 -2.82615 0
M  V30 6674 O 643.746 1.62205 -4.06966 0
M  V30 6675 C 645.247 3.15297 -3.11613 0
M  V30 6676 H 642.467 0.356582 -0.56841 0
M  V30 6677 H 645.011 0.490618 -1.98528 0
M  V30 6678 H 643.166 2.90604 -2.56179 0
M  V30 6679 H 643.58 2.3298 -4.69916 0
M  V30 6680 H 645.054 3.86351 -3.94255 0
M  V30 6681 H 645.531 3.77264 -2.24874 0
M  V30 6682 H 646.137 2.55783 -3.39787 0
M  V30 6683 N 644.452 1.42507 0.673017 0
M  V30 6684 C 645.384 1.42074 1.79854 0
M  V30 6685 C 646.397 0.319569 1.59633 0
M  V30 6686 O 647.586 0.582769 1.68719 0
M  V30 6687 C 644.686 1.19886 3.16987 0
M  V30 6688 C 643.859 2.42471 3.64042 0
M  V30 6689 C 642.918 2.15802 4.79913 0
M  V30 6690 O 641.944 2.89015 4.90366 0
M  V30 6691 N 643.146 1.16225 5.68746 0
M  V30 6692 H 645.911 2.3909 1.8071 0
M  V30 6693 H 643.472 1.37409 0.856171 0
M  V30 6694 H 645.464 0.999591 3.92161 0
M  V30 6695 H 644.034 0.313879 3.1102 0
M  V30 6696 H 643.254 2.77954 2.79526 0
M  V30 6697 H 644.542 3.24097 3.92223 0
M  V30 6698 H 643.94 0.556756 5.62954 0
M  V30 6699 H 642.497 1.02285 6.43724 0
M  V30 6700 N 645.93 -0.909495 1.28709 0
M  V30 6701 C 646.877 -2.01245 1.13 0
M  V30 6702 C 647.847 -1.6608 0.0259684 0
M  V30 6703 O 649.032 -1.89835 0.191687 0
M  V30 6704 C 646.172 -3.35644 0.802315 0
M  V30 6705 C 645.285 -3.83653 1.98582 0
M  V30 6706 C 644.42 -5.06582 1.59837 0
M  V30 6707 C 643.459 -5.46934 2.74827 0
M  V30 6708 N 642.596 -6.61053 2.36546 0
M  V30 6709 H 647.436 -2.14013 2.0737 0
M  V30 6710 H 644.973 -1.0482 1.03205 0
M  V30 6711 H 646.931 -4.12963 0.593057 0
M  V30 6712 H 645.561 -3.22631 -0.104457 0
M  V30 6713 H 644.613 -3.02454 2.30708 0
M  V30 6714 H 645.925 -4.09515 2.84779 0
M  V30 6715 H 645.079 -5.91457 1.35143 0
M  V30 6716 H 643.818 -4.82537 0.707753 0
M  V30 6717 H 642.823 -4.60599 3.00215 0
M  V30 6718 H 644.048 -5.72965 3.64538 0
M  V30 6719 H 641.994 -6.3863 1.49959 0
M  V30 6720 H 641.911 -6.86662 3.16277 0
M  V30 6721 H 643.179 -7.49221 2.15146 0
M  V30 6722 N 647.408 -1.11026 -1.11852 0
M  V30 6723 C 648.633 -0.879064 -1.87849 0
M  V30 6724 C 649.058 0.565406 -1.79401 0
M  V30 6725 O 648.416 1.39886 -1.15333 0
M  V30 6726 C 648.464 -1.33985 -3.34784 0
M  V30 6727 O 647.568 -0.508803 -4.09249 0
M  V30 6728 H 646.909 -0.316992 -0.583448 0
M  V30 6729 H 649.439 -1.47863 -1.41413 0
M  V30 6730 H 649.449 -1.33248 -3.85628 0
M  V30 6731 H 648.124 -2.39172 -3.40249 0
M  V30 6732 H 646.701 -0.581913 -3.68332 0
M  V30 6733 N 648.886 1.2938 -0.899927 0
M  V30 6734 C 649.816 2.30144 -0.39446 0
M  V30 6735 C 650.797 1.61611 0.530639 0
M  V30 6736 O 651.982 1.89119 0.441319 0
M  V30 6737 C 649.112 3.45229 0.37868 0
M  V30 6738 C 648.066 4.25564 -0.456012 0
M  V30 6739 C 647.392 5.32848 0.444637 0
M  V30 6740 C 648.692 4.93651 -1.70605 0
M  V30 6741 H 650.386 2.72673 -1.23653 0
M  V30 6742 H 647.932 1.31086 -0.596034 0
M  V30 6743 H 649.885 4.14797 0.743037 0
M  V30 6744 H 648.609 3.01545 1.25453 0
M  V30 6745 H 647.268 3.57704 -0.802704 0
M  V30 6746 H 646.916 4.85408 1.31863 0
M  V30 6747 H 646.616 5.87497 -0.110154 0
M  V30 6748 H 648.14 6.05268 0.805182 0
M  V30 6749 H 649.554 5.55655 -1.41141 0
M  V30 6750 H 647.951 5.58233 -2.20217 0
M  V30 6751 H 649.021 4.18926 -2.4419 0
M  V30 6752 N 650.364 0.662433 1.43002 0
M  V30 6753 C 651.589 0.186003 2.06564 0
M  V30 6754 C 652.014 -1.14314 1.49379 0
M  V30 6755 O 651.372 -1.70824 0.607346 0
M  V30 6756 C 651.42 0.118269 3.60406 0
M  V30 6757 O 650.524 -0.916859 4.02079 0
M  V30 6758 H 649.865 0.0990981 0.656563 0
M  V30 6759 H 652.395 0.907958 1.8335 0
M  V30 6760 H 652.405 -0.0619981 4.07953 0
M  V30 6761 H 651.08 1.08849 4.01403 0
M  V30 6762 H 649.657 -0.708635 3.66105 0
M  V30 6763 N 651.842 -1.52309 0.404946 0
M  V30 6764 C 652.772 -2.29805 -0.41376 0
M  V30 6765 C 653.753 -1.3384 -1.0498 0
M  V30 6766 O 654.938 -1.62745 -1.05961 0
M  V30 6767 C 652.068 -3.11639 -1.53292 0
M  V30 6768 C 651.022 -4.15616 -1.02211 0
M  V30 6769 C 650.348 -4.8577 -2.23455 0
M  V30 6770 C 651.648 -5.2224 -0.0790725 0
M  V30 6771 H 653.342 -2.98493 0.232878 0
M  V30 6772 H 650.888 -1.43552 0.113441 0
M  V30 6773 H 652.841 -3.64618 -2.11262 0
M  V30 6774 H 651.565 -2.40712 -2.20738 0
M  V30 6775 H 650.224 -3.63641 -0.46484 0
M  V30 6776 H 649.872 -4.11376 -2.89445 0
M  V30 6777 H 649.572 -5.56058 -1.89929 0
M  V30 6778 H 651.096 -5.4156 -2.82038 0
M  V30 6779 H 652.51 -5.70485 -0.567438 0
M  V30 6780 H 650.907 -5.99867 0.167167 0
M  V30 6781 H 651.977 -4.77078 0.867447 0
M  V30 6782 N 653.32 -0.135238 -1.57019 0
M  V30 6783 C 654.545 0.529343 -2.00531 0
M  V30 6784 C 654.97 1.58391 -1.01459 0
M  V30 6785 O 654.328 1.81296 0.0113986 0
M  V30 6786 C 654.376 1.11748 -3.42848 0
M  V30 6787 O 653.48 2.23267 -3.46736 0
M  V30 6788 H 652.821 0.130669 -0.651016 0
M  V30 6789 H 655.351 -0.228503 -2.0332 0
M  V30 6790 H 655.361 1.44905 -3.81401 0
M  V30 6791 H 654.036 0.345147 -4.14465 0
M  V30 6792 H 652.613 1.91428 -3.20015 0
M  V30 6793 N 654.798 1.5699 0.138552 0
M  V30 6794 C 656.209 1.73171 0.697754 0
M  V30 6795 C 656.56 0.750952 1.8126 0
M  V30 6796 O 655.685 -0.080549 2.1625 0
M  V30 6797 C 656.28 3.13996 1.27248 0
M  V30 6798 C 654.839 3.3175 1.77816 0
M  V30 6799 C 653.986 2.69084 0.669991 0
M  V30 6800 H 656.937 1.5846 -0.0871979 0
M  V30 6801 H 656.958 3.14463 2.14227 0
M  V30 6802 H 656.47 3.85354 0.460855 0
M  V30 6803 H 654.571 2.65403 2.61519 0
M  V30 6804 H 654.684 4.39768 1.90107 0
M  V30 6805 H 653.048 2.29782 1.09874 0
M  V30 6806 H 653.831 3.43053 -0.130329 0
M  V30 6807 N 656.276 -0.40816 1.52223 0
M  V30 6808 C 657.524 -1.15274 1.66001 0
M  V30 6809 C 657.845 -1.91003 0.392803 0
M  V30 6810 O 657.115 -1.8673 -0.592336 0
M  V30 6811 H 655.695 -0.428526 0.611861 0
M  V30 6812 H 658.357 -0.46512 1.89269 0
M  V30 6813 H 657.453 -1.86628 2.50153 0
M  V30 6814 N 657.755 -1.42862 -0.66545 0
M  V30 6815 C 658.702 -1.4707 -1.77874 0
M  V30 6816 C 659.672 -0.321654 -1.62956 0
M  V30 6817 O 660.857 -0.52707 -1.83376 0
M  V30 6818 C 657.997 -1.38788 -3.15962 0
M  V30 6819 C 657.11 -2.63801 -3.42101 0
M  V30 6820 C 656.245 -2.47594 -4.69969 0
M  V30 6821 C 655.284 -3.67936 -4.89172 0
M  V30 6822 N 654.421 -3.50614 -6.08288 0
M  V30 6823 H 659.261 -2.42204 -1.73613 0
M  V30 6824 H 656.798 -1.20239 -0.847401 0
M  V30 6825 H 658.756 -1.31982 -3.95773 0
M  V30 6826 H 657.386 -0.472431 -3.19324 0
M  V30 6827 H 656.438 -2.80935 -2.56475 0
M  V30 6828 H 657.75 -3.53228 -3.52181 0
M  V30 6829 H 656.904 -2.38427 -5.57886 0
M  V30 6830 H 655.643 -1.55672 -4.62188 0
M  V30 6831 H 654.648 -3.77525 -3.99694 0
M  V30 6832 H 655.873 -4.60851 -4.98792 0
M  V30 6833 H 653.819 -2.61417 -6.01662 0
M  V30 6834 H 653.736 -4.33634 -6.19272 0
M  V30 6835 H 655.004 -3.45276 -6.98859 0
M  V30 6836 O 659.272 0.808226 -1.39821 0
M  V30 6837 H 659.963 1.45282 -1.28112 0
M  V30 END ATOM
M  V30 BEGIN BOND
M  V30 END BOND
M  V30 END CTAB
M  END
$$$$
