drugbank_target|Q04416 4-hydroxybenzoyl-CoA thioesterase (DB01992; DB03613; DB04067; DB04242)
 OpenBabel12092120233D

  0  0  0     0  0            999 V3000
M  V30 BEGIN CTAB
M  V30 COUNTS 2259 2284 0 0 0
M  V30 BEGIN ATOM
M  V30 1 H -0.908 1.98254 -0.117106 0
M  V30 2 N 0 1.576 0 0
M  V30 3 C 0.933 2.03868 1.02534 0
M  V30 4 C 1.911 0.928543 1.3348 0
M  V30 5 O 3.095 1.19667 1.45644 0
M  V30 6 C 0.222 2.43627 2.35294 0
M  V30 7 C -0.732 3.65373 2.2001 0
M  V30 8 S 0.101 5.13292 1.52614 0
M  V30 9 C 1.257 5.56322 2.86805 0
M  V30 10 H 1.49 2.90518 0.631377 0
M  V30 11 H -0.977 1.52953 0.210867 0
M  V30 12 H 0.981 2.67203 3.11629 0
M  V30 13 H -0.358 1.57376 2.7183 0
M  V30 14 H -1.165 3.90944 3.18086 0
M  V30 15 H -1.563 3.418 1.51819 0
M  V30 16 H 0.729 5.58782 3.83104 0
M  V30 17 H 1.672 6.56266 2.65933 0
M  V30 18 H 2.08 4.83886 2.90714 0
M  V30 19 N 1.4781 -0.272755 1.55222 0
M  V30 20 C 2.4281 -1.33946 1.84506 0
M  V30 21 C 3.4121 -1.44682 0.70399 0
M  V30 22 O 4.6041 -1.48358 0.965338 0
M  V30 23 C 1.7331 -2.69968 2.12067 0
M  V30 24 C 0.8191 -2.63341 3.32434 0
M  V30 25 N 1.2101 -2.26335 4.52334 0
M  V30 26 C -0.4919 -2.94402 3.35028 0
M  V30 27 C 0.2091 -2.29705 5.34425 0
M  V30 28 N -0.8149 -2.68188 4.72838 0
M  V30 29 H 2.9871 -1.04343 2.74754 0
M  V30 30 H 0.5011 -0.481389 1.55101 0
M  V30 31 H 2.4981 -3.46916 2.31202 0
M  V30 32 H 1.1581 -3.00459 1.23103 0
M  V30 33 H 2.1691 -1.98309 4.78429 0
M  V30 34 H -1.1539 -3.29603 2.56257 0
M  V30 35 H 0.2361 -2.03653 6.40293 0
M  V30 36 N 2.9562 -1.48159 -0.537278 0
M  V30 37 C 4.3722 -1.34118 -0.865129 0
M  V30 38 C 4.5722 -0.346678 -1.98495 0
M  V30 39 O 3.6282 0.234715 -2.51407 0
M  V30 40 C 4.9412 -2.73963 -1.23954 0
M  V30 41 C 6.4892 -2.82397 -1.34984 0
M  V30 42 C 6.9642 -4.22928 -1.75772 0
M  V30 43 N 8.4552 -4.25566 -1.82887 0
M  V30 44 C 9.1902 -5.31235 -2.15817 0
M  V30 45 N 8.6862 -6.47189 -2.47222 0
M  V30 46 N 10.4792 -5.18624 -2.16761 0
M  V30 47 H 2.6302 -2.1144 0.201715 0
M  V30 48 H 4.8932 -0.947598 0.0275949 0
M  V30 49 H 4.5992 -3.48264 -0.490381 0
M  V30 50 H 4.4732 -3.0702 -2.19132 0
M  V30 51 H 6.8602 -2.08356 -2.08978 0
M  V30 52 H 6.9412 -2.5297 -0.379448 0
M  V30 53 H 6.5852 -4.97482 -1.02341 0
M  V30 54 H 6.5152 -4.49794 -2.73848 0
M  V30 55 H 9.0062 -3.41924 -1.60924 0
M  V30 56 H 9.3192 -7.23564 -2.71433 0
M  V30 57 H 7.6642 -6.50476 -2.44757 0
M  V30 58 H 10.8552 -4.27056 -1.91679 0
M  V30 59 H 11.0282 -6.01078 -2.42093 0
M  V30 60 N 4.4343 0.785586 -1.36625 0
M  V30 61 C 5.6623 1.57448 -1.3423 0
M  V30 62 C 6.0773 1.88649 0.0755653 0
M  V30 63 O 5.4343 1.50414 1.03354 0
M  V30 64 C 5.4853 2.89316 -2.16745 0
M  V30 65 O 5.2063 2.59459 -3.53005 0
M  V30 66 C 6.7073 3.83606 -2.22174 0
M  V30 67 H 3.9273 0.488226 -0.4603 0
M  V30 68 H 6.4713 0.974733 -1.79775 0
M  V30 69 H 4.6263 3.4575 -1.74745 0
M  V30 70 H 5.0403 3.43804 -3.96105 0
M  V30 71 H 6.5143 4.73181 -2.8426 0
M  V30 72 H 6.9913 4.21734 -1.22627 0
M  V30 73 H 7.5973 3.33104 -2.64427 0
M  V30 74 N 5.9124 1.20967 1.01018 0
M  V30 75 C 7.1374 1.0503 1.78839 0
M  V30 76 C 7.5624 -0.395752 1.8389 0
M  V30 77 O 6.9204 -1.28529 1.27867 0
M  V30 78 C 6.9684 1.64602 3.2084 0
M  V30 79 O 6.0724 0.887988 4.02726 0
M  V30 80 H 5.4134 0.369987 0.551367 0
M  V30 81 H 7.9434 1.60399 1.27018 0
M  V30 82 H 7.9534 1.68607 3.71532 0
M  V30 83 H 6.6284 2.69841 3.16479 0
M  V30 84 H 5.2054 0.922648 3.61305 0
M  V30 85 N 7.3905 -1.2043 1.01659 0
M  V30 86 C 8.3385 -2.25249 0.580143 0
M  V30 87 C 9.3325 -1.65057 -0.381115 0
M  V30 88 O 10.5385 -1.78241 -0.251039 0
M  V30 89 H 6.9135 -0.732695 0.169299 0
M  V30 90 H 8.8845 -2.59389 1.47512 0
M  V30 91 C 7.6335 -3.47638 -0.065788 0
M  V30 92 H 6.9565 -3.94233 0.664874 0
M  V30 93 H 8.3965 -4.2268 -0.334282 0
M  V30 94 C 6.8555 -3.10447 -1.3086 0
M  V30 95 O 7.3855 -3.21981 -2.4019 0
M  V30 96 N 5.5915 -2.64996 -1.1927 0
M  V30 97 H 5.1385 -2.55811 -0.303064 0
M  V30 98 H 5.0965 -2.40482 -2.02523 0
M  V30 99 N 8.8686 -0.792821 -1.36206 0
M  V30 100 C 10.1166 -0.366062 -1.98757 0
M  V30 101 C 10.4376 1.0668 -1.63231 0
M  V30 102 O 9.7076 1.73587 -0.907978 0
M  V30 103 H 8.2876 -0.132364 -0.735179 0
M  V30 104 H 10.9496 -1.01562 -1.66347 0
M  V30 105 H 10.0456 -0.460638 -3.08682 0
M  V30 106 N 10.3467 1.47872 -0.545128 0
M  V30 107 C 11.5717 2.07391 -0.0190611 0
M  V30 108 C 11.9967 1.39688 1.25971 0
M  V30 109 O 11.3547 0.467816 1.7516 0
M  V30 110 C 11.4027 3.60188 0.172335 0
M  V30 111 O 10.5067 3.9339 1.23766 0
M  V30 112 H 9.8477 0.662411 -0.0459059 0
M  V30 113 H 12.3777 1.90066 -0.757365 0
M  V30 114 H 12.3877 4.06129 0.390305 0
M  V30 115 H 11.0627 4.08865 -0.761725 0
M  V30 116 H 9.6397 3.5921 1.00114 0
M  V30 117 N 11.8248 0.280983 1.55075 0
M  V30 118 C 12.7748 -0.618585 2.19448 0
M  V30 119 C 13.7588 -1.11401 1.16098 0
M  V30 120 O 14.9508 -1.0581 1.41891 0
M  V30 121 C 12.0798 -1.79951 2.92357 0
M  V30 122 C 11.1658 -1.321 4.03002 0
M  V30 123 N 11.5568 -0.559044 5.02701 0
M  V30 124 C 9.8548 -1.60346 4.16179 0
M  V30 125 C 10.5558 -0.306722 5.80891 0
M  V30 126 N 9.5318 -0.880825 5.36416 0
M  V30 127 H 13.3338 -0.0286638 2.93886 0
M  V30 128 H 10.8478 0.0848104 1.62178 0
M  V30 129 H 12.8448 -2.45531 3.36927 0
M  V30 130 H 11.5048 -2.39333 2.19431 0
M  V30 131 H 12.5158 -0.205827 5.17491 0
M  V30 132 H 9.1928 -2.20621 3.54447 0
M  V30 133 H 10.5828 0.30391 6.71212 0
M  V30 134 N 13.3029 -1.57598 0.00835791 0
M  V30 135 C 14.2659 -2.07884 -0.965242 0
M  V30 136 C 15.2659 -0.989825 -1.26725 0
M  V30 137 O 16.4559 -1.25218 -1.21104 0
M  V30 138 C 13.5879 -2.52731 -2.28779 0
M  V30 139 H 14.7809 -2.95178 -0.530112 0
M  V30 140 H 12.3339 -1.54458 -0.239283 0
M  V30 141 H 13.0689 -1.68705 -2.76964 0
M  V30 142 H 12.8539 -3.32272 -2.08177 0
M  V30 143 H 14.3439 -2.91933 -2.98605 0
M  V30 144 N 14.781 0.264519 -1.55364 0
M  V30 145 C 16.009 1.013 -1.80405 0
M  V30 146 C 16.424 1.79618 -0.581622 0
M  V30 147 O 15.781 1.76879 0.449468 0
M  V30 148 C 15.832 1.96487 -3.03439 0
M  V30 149 O 15.553 1.21341 -4.20961 0
M  V30 150 C 17.054 2.83079 -3.41147 0
M  V30 151 H 14.274 0.298875 -0.600762 0
M  V30 152 H 16.818 0.292736 -2.02394 0
M  V30 153 H 14.973 2.63965 -2.83551 0
M  V30 154 H 15.387 1.85573 -4.90574 0
M  V30 155 H 16.861 3.4565 -4.30384 0
M  V30 156 H 17.338 3.53286 -2.60932 0
M  V30 157 H 17.944 2.2108 -3.63323 0
M  V30 158 N 16.2591 1.48442 0.529413 0
M  V30 159 C 17.5071 1.56179 1.28267 0
M  V30 160 C 17.8281 0.237721 1.93546 0
M  V30 161 O 17.0981 -0.740779 1.81354 0
M  V30 162 H 15.6781 0.575367 0.476405 0
M  V30 163 H 18.3401 1.84909 0.61602 0
M  V30 164 H 17.4361 2.34312 2.06165 0
M  V30 165 N 17.7372 -0.778329 1.37039 0
M  V30 166 C 18.9852 -1.53361 1.31623 0
M  V30 167 C 19.3062 -1.94739 -0.100831 0
M  V30 168 O 18.5762 -1.65797 -1.04347 0
M  V30 169 H 17.1562 -0.568794 0.484234 0
M  V30 170 H 19.8182 -0.926742 1.71457 0
M  V30 171 H 18.9142 -2.43606 1.95096 0
M  V30 172 N 19.2153 -1.21501 -1.00376 0
M  V30 173 C 20.1633 -0.972442 -2.11297 0
M  V30 174 C 21.1573 0.080731 -1.69208 0
M  V30 175 O 22.3633 -0.0707666 -1.79861 0
M  V30 176 H 18.7383 -0.297218 -0.690772 0
M  V30 177 H 20.7093 -1.91394 -2.28934 0
M  V30 178 C 19.4583 -0.555065 -3.43241 0
M  V30 179 H 18.7813 -1.35709 -3.76062 0
M  V30 180 H 20.2213 -0.424664 -4.21868 0
M  V30 181 C 18.6803 0.734147 -3.28804 0
M  V30 182 O 19.2103 1.78937 -3.59645 0
M  V30 183 N 17.4163 0.701133 -2.82015 0
M  V30 184 H 16.9633 -0.157874 -2.57116 0
M  V30 185 H 16.9213 1.56403 -2.72737 0
M  V30 186 N 20.6934 1.19889 -1.02296 0
M  V30 187 C 21.6234 2.25141 -0.619174 0
M  V30 188 C 22.6044 1.66051 0.368915 0
M  V30 189 O 23.7894 1.92546 0.252941 0
M  V30 190 C 20.9194 3.4728 0.0368783 0
M  V30 191 C 19.8734 4.19005 -0.872865 0
M  V30 192 C 19.1994 5.34637 -0.0822402 0
M  V30 193 C 20.4994 4.74452 -2.18387 0
M  V30 194 H 22.1934 2.59171 -1.49903 0
M  V30 195 H 19.7394 1.24579 -0.722222 0
M  V30 196 H 21.6924 4.20098 0.330958 0
M  V30 197 H 20.4164 3.12433 0.95149 0
M  V30 198 H 19.0754 3.48061 -1.15105 0
M  V30 199 H 18.7234 4.96034 0.83422 0
M  V30 200 H 18.4234 5.83557 -0.688149 0
M  V30 201 H 19.9474 6.10255 0.205238 0
M  V30 202 H 21.3614 5.39055 -1.95172 0
M  V30 203 H 19.7584 5.33834 -2.74119 0
M  V30 204 H 20.8284 3.92844 -2.84257 0
M  V30 205 N 22.1715 0.800033 1.35784 0
M  V30 206 C 23.5825 0.439142 1.81462 0
M  V30 207 C 23.9335 -1.03813 1.66485 0
M  V30 208 O 23.0585 -1.80626 1.19177 0
M  V30 209 C 23.6535 0.790314 3.29453 0
M  V30 210 C 22.2125 0.482111 3.733 0
M  V30 211 C 21.3595 1.01938 2.57883 0
M  V30 212 H 24.3105 0.992254 1.23855 0
M  V30 213 H 24.3315 0.0853677 3.80404 0
M  V30 214 H 23.8435 1.86554 3.40322 0
M  V30 215 H 21.9445 -0.584652 3.67984 0
M  V30 216 H 22.0575 1.01015 4.6833 0
M  V30 217 H 20.4215 0.442043 2.50835 0
M  V30 218 H 21.2045 2.10059 2.71533 0
M  V30 219 N 23.6496 -1.47581 0.552962 0
M  V30 220 C 24.9266 -1.95563 -0.0381515 0
M  V30 221 C 25.3066 -1.49552 -1.48988 0
M  V30 222 O 24.6546 -0.732414 -2.16444 0
M  V30 223 C 24.8646 -3.48848 0.102919 0
M  V30 224 C 26.2126 -4.24577 -0.0446082 0
M  V30 225 O 27.2366 -3.56187 0.0302548 0
M  V30 226 O 26.0956 -5.46116 -0.204923 0
M  V30 227 H 23.1896 -0.824321 -0.0665067 0
M  V30 228 H 25.7356 -1.58001 0.619186 0
M  V30 229 H 24.5076 -3.75129 1.11328 0
M  V30 230 H 24.1306 -3.93165 -0.592224 0
M  V30 231 N 25.1277 -0.289203 -1.54924 0
M  V30 232 C 26.3737 0.323998 -2.00195 0
M  V30 233 C 26.7067 1.54441 -1.17735 0
M  V30 234 O 25.9817 1.92875 -0.250878 0
M  V30 235 C 26.2647 0.692276 -3.53383 0
M  V30 236 C 26.1177 -0.536457 -4.46589 0
M  V30 237 C 27.4367 1.52335 -4.12895 0
M  V30 238 H 24.5557 0.116289 -0.727768 0
M  V30 239 H 27.1977 -0.398954 -1.85764 0
M  V30 240 H 25.3477 1.30822 -3.65811 0
M  V30 241 H 27.0197 -1.17499 -4.46085 0
M  V30 242 H 25.2627 -1.17192 -4.1767 0
M  V30 243 H 25.9337 -0.234806 -5.515 0
M  V30 244 H 28.4097 1.00302 -4.0383 0
M  V30 245 H 27.2857 1.74982 -5.20262 0
M  V30 246 H 27.5467 2.50886 -3.64018 0
M  V30 247 N 26.6058 1.57591 -0.0167156 0
M  V30 248 C 27.5688 2.08393 0.954204 0
M  V30 249 C 28.5688 0.996531 1.26198 0
M  V30 250 O 29.7588 1.25858 1.20438 0
M  V30 251 C 26.8908 2.5394 2.27436 0
M  V30 252 H 28.0838 2.95455 0.514451 0
M  V30 253 H 25.6368 1.54582 0.231089 0
M  V30 254 H 26.3718 1.70171 2.76066 0
M  V30 255 H 26.1568 3.33371 2.06412 0
M  V30 256 H 27.6468 2.93512 2.97053 0
M  V30 257 N 28.0839 -0.256276 1.55502 0
M  V30 258 C 29.3089 -1.00766 1.81276 0
M  V30 259 C 29.7339 -1.78524 0.59252 0
M  V30 260 O 29.0919 -1.75413 -0.45827 0
M  V30 261 C 29.1399 -1.92869 3.04687 0
M  V30 262 O 28.2439 -3.019 2.80945 0
M  V30 263 H 27.5849 -0.287224 0.598664 0
M  V30 264 H 30.1149 -0.280109 2.02674 0
M  V30 265 H 30.1249 -2.34511 3.33869 0
M  V30 266 H 28.7999 -1.35689 3.93143 0
M  V30 267 H 27.3769 -2.64454 2.62904 0
M  V30 268 N 29.562 -1.4872 -0.521534 0
M  V30 269 C 30.512 -1.60269 -1.62166 0
M  V30 270 C 31.496 -0.45935 -1.54204 0
M  V30 271 O 32.688 -0.711241 -1.62081 0
M  V30 272 C 29.817 -1.65344 -3.00859 0
M  V30 273 C 28.903 -2.85187 -3.13894 0
M  V30 274 N 29.294 -4.09509 -2.96877 0
M  V30 275 C 27.592 -2.82695 -3.44963 0
M  V30 276 C 28.293 -4.89959 -3.13552 0
M  V30 277 N 27.269 -4.22934 -3.41508 0
M  V30 278 H 31.071 -2.5413 -1.47632 0
M  V30 279 H 28.585 -1.45209 -0.727194 0
M  V30 280 H 30.582 -1.71713 -3.79895 0
M  V30 281 H 29.242 -0.726058 -3.16478 0
M  V30 282 H 30.253 -4.39814 -2.73467 0
M  V30 283 H 26.93 -1.99249 -3.66887 0
M  V30 284 H 28.32 -5.98654 -3.05061 0
M  V30 285 N 31.0401 0.771051 -1.3745 0
M  V30 286 C 32.2701 1.55789 -1.35696 0
M  V30 287 C 32.6781 1.89107 0.0594523 0
M  V30 288 O 32.0211 1.51984 1.03183 0
M  V30 289 C 32.0831 2.89515 -2.13123 0
M  V30 290 C 31.7471 2.78829 -3.62082 0
M  V30 291 C 32.7441 2.49812 -4.5595 0
M  V30 292 C 30.4291 2.9683 -4.05213 0
M  V30 293 C 32.4231 2.38923 -5.90927 0
M  V30 294 C 30.1101 2.85562 -5.40276 0
M  V30 295 C 31.1081 2.56649 -6.32946 0
M  V30 296 O 30.7961 2.45408 -7.65526 0
M  V30 297 H 30.5281 0.489257 -0.466481 0
M  V30 298 H 33.0821 0.963446 -1.81403 0
M  V30 299 H 31.3121 3.51081 -1.62107 0
M  V30 300 H 33.0011 3.50915 -2.03994 0
M  V30 301 H 33.7671 2.3559 -4.23937 0
M  V30 302 H 29.6461 3.18335 -3.33442 0
M  V30 303 H 33.1901 2.16277 -6.63227 0
M  V30 304 H 29.0871 2.99351 -5.71891 0
M  V30 305 H 29.8551 2.60753 -7.75855 0
M  V30 306 N 32.5182 1.22032 0.997298 0
M  V30 307 C 33.9292 1.0397 1.55071 0
M  V30 308 C 34.2802 -0.398192 1.92117 0
M  V30 309 O 33.4052 -1.28254 1.74298 0
M  V30 310 C 34.0002 1.88109 2.81781 0
M  V30 311 C 32.5592 1.74357 3.33581 0
M  V30 312 C 31.7062 1.84846 2.06706 0
M  V30 313 H 34.6572 1.35941 0.818883 0
M  V30 314 H 34.6782 1.39589 3.53971 0
M  V30 315 H 34.1902 2.92754 2.54787 0
M  V30 316 H 32.2912 0.72427 3.65493 0
M  V30 317 H 32.4042 2.56772 4.04481 0
M  V30 318 H 30.7682 1.28238 2.20062 0
M  V30 319 H 31.5512 2.91014 1.82114 0
M  V30 320 N 33.9963 -1.19345 1.0293 0
M  V30 321 C 35.2423 -1.89318 0.727083 0
M  V30 322 C 35.5753 -1.79446 -0.742483 0
M  V30 323 O 34.8503 -1.1871 -1.54072 0
M  V30 324 C 35.1333 -3.40238 1.17942 0
M  V30 325 C 34.9863 -3.58979 2.71024 0
M  V30 326 C 36.3053 -4.33479 0.760548 0
M  V30 327 H 33.4243 -0.687475 0.265606 0
M  V30 328 H 36.0663 -1.40477 1.2793 0
M  V30 329 H 34.2163 -3.81964 0.709608 0
M  V30 330 H 35.8883 -3.26421 3.25955 0
M  V30 331 H 34.1313 -3.02018 3.11396 0
M  V30 332 H 34.8023 -4.64823 2.9773 0
M  V30 333 H 37.2783 -3.99469 1.16464 0
M  V30 334 H 36.1543 -5.37664 1.10493 0
M  V30 335 H 36.4153 -4.40813 -0.337063 0
M  V30 336 N 35.4744 -0.807222 -1.35358 0
M  V30 337 C 36.4374 -0.223665 -2.28106 0
M  V30 338 C 37.4374 0.589354 -1.4961 0
M  V30 339 O 38.6274 0.407745 -1.69361 0
M  V30 340 C 35.7594 0.688149 -3.33882 0
M  V30 341 H 36.9524 -1.04169 -2.81227 0
M  V30 342 H 34.5054 -0.577921 -1.45223 0
M  V30 343 H 35.2404 1.52984 -2.85948 0
M  V30 344 H 35.0254 0.10687 -3.91954 0
M  V30 345 H 36.5154 1.09075 -4.03104 0
M  V30 346 N 36.9525 1.47285 -0.560781 0
M  V30 347 C 38.1825 2.06555 -0.0429638 0
M  V30 348 C 38.5905 1.41339 1.25777 0
M  V30 349 O 37.9335 0.505182 1.76617 0
M  V30 350 C 37.9955 3.58827 0.219887 0
M  V30 351 C 37.6595 4.46105 -0.991944 0
M  V30 352 C 38.6565 4.84 -1.89843 0
M  V30 353 C 36.3415 4.87567 -1.20762 0
M  V30 354 C 38.3355 5.6216 -3.00425 0
M  V30 355 C 36.0225 5.65491 -2.31653 0
M  V30 356 C 37.0205 6.02699 -3.21315 0
M  V30 357 O 36.7085 6.79052 -4.30283 0
M  V30 358 H 36.4405 0.674537 -0.0444468 0
M  V30 359 H 38.9945 1.90225 -0.774818 0
M  V30 360 H 37.2245 3.73383 1.00609 0
M  V30 361 H 38.9135 4.00103 0.683522 0
M  V30 362 H 39.6795 4.52564 -1.74387 0
M  V30 363 H 35.5585 4.5807 -0.518893 0
M  V30 364 H 39.1025 5.9112 -3.70436 0
M  V30 365 H 34.9995 5.9634 -2.47081 0
M  V30 366 H 35.7675 6.9745 -4.28376 0
M  V30 367 N 38.4306 0.297415 1.54768 0
M  V30 368 C 39.3406 -0.58983 2.27064 0
M  V30 369 C 40.3566 -1.15144 1.30453 0
M  V30 370 O 41.5326 -1.17699 1.63428 0
M  V30 371 C 38.5976 -1.74714 2.9946 0
M  V30 372 C 37.6586 -1.21997 4.11601 0
M  V30 373 C 36.8916 -2.32212 4.80535 0
M  V30 374 O 37.1146 -3.52036 4.48806 0
M  V30 375 O 36.0486 -1.99106 5.68014 0
M  V30 376 H 39.8746 -0.00348199 3.037 0
M  V30 377 H 37.4596 0.0640035 1.49263 0
M  V30 378 H 39.3416 -2.42147 3.44881 0
M  V30 379 H 38.0166 -2.32016 2.25722 0
M  V30 380 H 36.9236 -0.511458 3.70587 0
M  V30 381 H 38.2566 -0.692419 4.87305 0
M  V30 382 N 39.9087 -1.5758 0.0250728 0
M  V30 383 C 40.8407 -2.06869 -0.986796 0
M  V30 384 C 41.8537 -0.991332 -1.29137 0
M  V30 385 O 43.0427 -1.26761 -1.25674 0
M  V30 386 C 40.1427 -2.47486 -2.31525 0
M  V30 387 C 39.3157 -3.78253 -2.19643 0
M  V30 388 C 38.3747 -4.05464 -3.35388 0
M  V30 389 O 37.4007 -4.75774 -3.12454 0
M  V30 390 N 38.6027 -3.55321 -4.59051 0
M  V30 391 H 41.3677 -2.94302 -0.566276 0
M  V30 392 H 38.9287 -1.6109 -0.161776 0
M  V30 393 H 40.9207 -2.62785 -3.07776 0
M  V30 394 H 39.4907 -1.65441 -2.65232 0
M  V30 395 H 38.7107 -3.7279 -1.28144 0
M  V30 396 H 39.9987 -4.63936 -2.08903 0
M  V30 397 H 39.3967 -2.98431 -4.80578 0
M  V30 398 H 37.9537 -3.75905 -5.32483 0
M  V30 399 N 41.3868 0.248026 -1.55636 0
M  V30 400 C 42.6148 0.993808 -1.81469 0
M  V30 401 C 43.0298 1.78991 -0.60064 0
M  V30 402 O 42.3868 1.77345 0.430682 0
M  V30 403 C 42.4378 1.93258 -3.05506 0
M  V30 404 O 42.1588 1.16869 -4.22224 0
M  V30 405 C 43.6598 2.79444 -3.4413 0
M  V30 406 H 40.8798 0.292486 -0.603898 0
M  V30 407 H 43.4238 0.271253 -2.02693 0
M  V30 408 H 41.5788 2.60943 -2.86335 0
M  V30 409 H 41.9928 1.80359 -4.92515 0
M  V30 410 H 43.4668 3.41066 -4.34026 0
M  V30 411 H 43.9438 3.50499 -2.64665 0
M  V30 412 H 44.5498 2.17214 -3.65648 0
M  V30 413 N 42.8649 1.48995 0.513639 0
M  V30 414 C 43.7949 1.67636 1.62544 0
M  V30 415 C 44.7759 0.525087 1.61793 0
M  V30 416 O 45.9609 0.759502 1.78732 0
M  V30 417 C 43.0909 1.73114 3.01079 0
M  V30 418 C 42.0449 2.87905 3.16693 0
M  V30 419 C 41.3709 2.78486 4.56453 0
M  V30 420 C 42.6709 4.29005 2.97913 0
M  V30 421 H 44.3649 2.60716 1.47198 0
M  V30 422 H 41.9109 1.25465 0.706714 0
M  V30 423 H 43.8639 1.84742 3.78746 0
M  V30 424 H 42.5879 0.766241 3.17484 0
M  V30 425 H 41.2469 2.75859 2.41448 0
M  V30 426 H 40.8949 1.7993 4.69717 0
M  V30 427 H 40.5949 3.55523 4.67843 0
M  V30 428 H 42.1189 2.92104 5.36197 0
M  V30 429 H 43.5329 4.41798 3.65359 0
M  V30 430 H 41.9299 5.07166 3.20785 0
M  V30 431 H 42.9999 4.44329 1.94165 0
M  V30 432 N 44.343 -0.763751 1.37857 0
M  V30 433 C 45.62 -1.51244 1.24035 0
M  V30 434 C 46 -2.10472 -0.162649 0
M  V30 435 O 45.348 -1.96206 -1.17112 0
M  V30 436 C 45.558 -2.58694 2.34261 0
M  V30 437 C 46.906 -3.25878 2.72193 0
M  V30 438 O 47.93 -2.68993 2.33497 0
M  V30 439 O 46.789 -4.2874 3.38887 0
M  V30 440 H 43.883 -0.670243 0.484462 0
M  V30 441 H 46.429 -0.800031 1.49658 0
M  V30 442 H 45.201 -2.13105 3.2818 0
M  V30 443 H 44.824 -3.37527 2.10146 0
M  V30 444 N 45.8211 -1.22559 -0.990812 0
M  V30 445 C 47.0691 -1.04933 -1.72724 0
M  V30 446 C 47.3901 0.416158 -1.90508 0
M  V30 447 O 46.6601 1.29918 -1.46622 0
M  V30 448 H 45.2401 -0.385296 -0.639965 0
M  V30 449 H 47.9021 -1.54105 -1.19322 0
M  V30 450 H 46.9981 -1.52886 -2.72089 0
M  V30 451 N 47.2992 1.18797 -1.03562 0
M  V30 452 C 48.5272 1.92599 -0.755869 0
M  V30 453 C 48.9422 1.75886 0.686271 0
M  V30 454 O 48.2992 1.08517 1.46732 0
M  V30 455 C 48.3502 3.44159 -1.10619 0
M  V30 456 O 48.0712 3.60341 -2.4917 0
M  V30 457 C 49.5722 4.3507 -0.850214 0
M  V30 458 H 46.7922 0.611587 -0.276048 0
M  V30 459 H 49.3362 1.50742 -1.38192 0
M  V30 460 H 47.4912 3.83823 -0.525194 0
M  V30 461 H 47.9052 4.54128 -2.62427 0
M  V30 462 H 49.3792 5.39989 -1.14523 0
M  V30 463 H 49.8562 4.38673 0.215176 0
M  V30 464 H 50.4622 4.01097 -1.41426 0
M  V30 465 N 48.7773 0.814389 1.34928 0
M  V30 466 C 50.0233 0.399013 1.98836 0
M  V30 467 C 50.3563 -1.03314 1.64438 0
M  V30 468 O 49.6313 -1.71811 0.911659 0
M  V30 469 C 49.9143 0.591629 3.55207 0
M  V30 470 C 49.7673 2.06928 3.99376 0
M  V30 471 C 51.0863 0.022199 4.40094 0
M  V30 472 H 48.2053 0.146451 0.722303 0
M  V30 473 H 50.8473 1.02537 1.59957 0
M  V30 474 H 48.9973 0.0584441 3.88456 0
M  V30 475 H 50.6693 2.66544 3.76499 0
M  V30 476 H 48.9123 2.56287 3.49999 0
M  V30 477 H 49.5833 2.1549 5.08201 0
M  V30 478 H 52.0593 0.477643 4.13349 0
M  V30 479 H 50.9353 0.186832 5.48582 0
M  V30 480 H 51.1963 -1.07215 4.28902 0
M  V30 481 N 50.2554 -1.46986 0.568584 0
M  V30 482 C 51.5034 -2.02041 0.0487022 0
M  V30 483 C 51.8244 -1.44408 -1.31039 0
M  V30 484 O 51.0944 -0.623477 -1.85714 0
M  V30 485 H 49.6744 -0.746849 0.015014 0
M  V30 486 H 52.3364 -1.80257 0.741168 0
M  V30 487 H 51.4324 -3.12085 -0.0308961 0
M  V30 488 N 51.7335 -0.305618 -1.54608 0
M  V30 489 C 52.9805 0.302298 -2.00231 0
M  V30 490 C 53.3085 1.5354 -1.19398 0
M  V30 491 O 52.5635 1.93973 -0.259423 0
M  V30 492 C 52.8625 0.698983 -3.50498 0
M  V30 493 C 52.5285 -0.432903 -4.48817 0
M  V30 494 C 51.1905 -0.743622 -4.75419 0
M  V30 495 C 53.5425 -1.19409 -5.07337 0
M  V30 496 C 50.8705 -1.81857 -5.57804 0
M  V30 497 C 53.2225 -2.25899 -5.90891 0
M  V30 498 C 51.8865 -2.57572 -6.15803 0
M  V30 499 H 51.1565 0.110619 -0.732697 0
M  V30 500 H 53.8035 -0.425674 -1.86709 0
M  V30 501 H 52.1085 1.50711 -3.61654 0
M  V30 502 H 53.8055 1.1806 -3.83227 0
M  V30 503 H 50.3955 -0.18063 -4.28219 0
M  V30 504 H 54.5795 -0.967295 -4.86782 0
M  V30 505 H 49.8355 -2.06864 -5.75341 0
M  V30 506 H 54.0095 -2.85335 -6.35261 0
M  V30 507 H 51.6365 -3.40998 -6.7943 0
M  V30 508 N 53.2116 1.57565 -0.0334293 0
M  V30 509 C 54.4576 1.92262 0.645226 0
M  V30 510 C 54.7906 0.910543 1.71531 0
M  V30 511 O 54.0656 -0.066099 1.94388 0
M  V30 512 C 54.3486 3.37422 1.2577 0
M  V30 513 C 54.2016 4.49369 0.196891 0
M  V30 514 C 55.5206 3.82628 2.17449 0
M  V30 515 H 52.6396 0.699171 0.233085 0
M  V30 516 H 55.2816 1.89779 -0.0915694 0
M  V30 517 H 53.4316 3.39669 1.88566 0
M  V30 518 H 55.1036 4.59254 -0.433962 0
M  V30 519 H 53.3466 4.31168 -0.477137 0
M  V30 520 H 54.0176 5.47978 0.665124 0
M  V30 521 H 56.4936 3.82145 1.64634 0
M  V30 522 H 55.3696 4.84883 2.57254 0
M  V30 523 H 55.6306 3.18376 3.0674 0
M  V30 524 N 54.6897 -0.239769 1.55765 0
M  V30 525 C 55.9387 -0.964754 1.77131 0
M  V30 526 C 56.2517 -1.86213 0.59868 0
M  V30 527 O 57.4577 -2.6244 0.695522 0
M  V30 528 C 55.9137 -1.76552 3.1362 0
M  V30 529 C 55.5217 -0.915185 4.38553 0
M  V30 530 C 57.2657 -2.48281 3.44321 0
M  V30 531 C 55.1727 -1.71225 5.66071 0
M  V30 532 H 54.1027 -0.363953 0.660344 0
M  V30 533 H 56.7537 -0.219181 1.82186 0
M  V30 534 H 55.1357 -2.55331 3.02691 0
M  V30 535 H 56.3097 -0.169217 4.60489 0
M  V30 536 H 54.6247 -0.310889 4.15238 0
M  V30 537 H 57.2217 -3.08382 4.36812 0
M  V30 538 H 57.5647 -3.20256 2.65973 0
M  V30 539 H 58.0977 -1.76507 3.56497 0
M  V30 540 H 54.8367 -1.03612 6.4726 0
M  V30 541 H 54.3567 -2.43331 5.48224 0
M  V30 542 H 56.0357 -2.27758 6.05587 0
M  V30 543 N 56.1678 -1.49265 -0.50573 0
M  V30 544 C 57.4448 -1.49012 -1.26707 0
M  V30 545 C 57.8248 -0.215205 -2.1 0
M  V30 546 O 57.1728 0.802547 -2.13943 0
M  V30 547 C 57.3828 -2.7663 -2.12783 0
M  V30 548 C 58.7308 -3.25932 -2.72127 0
M  V30 549 O 59.7548 -2.77715 -2.23054 0
M  V30 550 O 58.6138 -4.09897 -3.61451 0
M  V30 551 H 55.7078 -0.596197 -0.57313 0
M  V30 552 H 58.2538 -1.61524 -0.52039 0
M  V30 553 H 57.0258 -3.60916 -1.5118 0
M  V30 554 H 56.6488 -2.66956 -2.94653 0
M  V30 555 N 57.6459 0.756429 -1.3826 0
M  V30 556 C 58.5559 1.9009 -1.37488 0
M  V30 557 C 59.5719 1.71855 -0.272366 0
M  V30 558 O 60.7479 1.94827 -0.510318 0
M  V30 559 C 57.8129 3.25421 -1.19592 0
M  V30 560 C 56.8739 3.56202 -2.39622 0
M  V30 561 C 56.1069 4.85075 -2.2257 0
M  V30 562 O 56.3299 5.57246 -1.21793 0
M  V30 563 O 55.2639 5.15269 -3.11098 0
M  V30 564 H 59.0899 1.93695 -2.33914 0
M  V30 565 H 56.6749 0.901313 -1.1915 0
M  V30 566 H 58.5569 4.06337 -1.11661 0
M  V30 567 H 57.2319 3.22634 -0.262486 0
M  V30 568 H 56.1389 2.75458 -2.53128 0
M  V30 569 H 57.4719 3.63747 -3.31586 0
M  V30 570 N 59.124 1.23083 0.984299 0
M  V30 571 C 60.057 0.951786 2.07404 0
M  V30 572 C 61.035 -0.10848 1.62238 0
M  V30 573 O 62.219 0.0249467 1.88483 0
M  V30 574 C 59.346 0.433142 3.35919 0
M  V30 575 C 58.392 1.47941 4.0002 0
M  V30 576 S 59.225 3.05556 4.39768 0
M  V30 577 C 60.381 2.55351 5.71442 0
M  V30 578 H 60.614 1.87456 2.30754 0
M  V30 579 H 58.147 1.06284 1.11996 0
M  V30 580 H 60.105 0.140506 4.10259 0
M  V30 581 H 58.766 -0.468656 3.10584 0
M  V30 582 H 57.959 1.06658 4.92585 0
M  V30 583 H 57.561 1.7212 3.3204 0
M  V30 584 H 59.853 1.97128 6.48187 0
M  V30 585 H 60.796 3.46441 6.17563 0
M  V30 586 H 61.204 1.96339 5.29255 0
M  V30 587 N 60.6021 -1.18246 1.0419 0
M  V30 588 C 61.8301 -1.92195 0.766072 0
M  V30 589 C 62.2451 -1.76247 -0.676933 0
M  V30 590 O 61.6021 -1.09293 -1.46155 0
M  V30 591 C 61.6531 -3.43568 1.12442 0
M  V30 592 O 61.3741 -3.59015 2.51078 0
M  V30 593 C 62.8751 -4.34613 0.873275 0
M  V30 594 H 60.0951 -0.610114 0.279288 0
M  V30 595 H 62.6391 -1.50007 1.38989 0
M  V30 596 H 60.7941 -3.8354 0.545542 0
M  V30 597 H 61.2081 -4.5273 2.64831 0
M  V30 598 H 62.6821 -5.39374 1.17385 0
M  V30 599 H 63.1591 -4.38781 -0.191909 0
M  V30 600 H 63.7651 -4.00341 1.43551 0
M  V30 601 N 62.0802 -0.821533 -1.34494 0
M  V30 602 C 63.4912 -0.467956 -1.8074 0
M  V30 603 C 63.8422 1.01151 -1.68116 0
M  V30 604 O 62.9672 1.78707 -1.22036 0
M  V30 605 C 63.5622 -0.842627 -3.28154 0
M  V30 606 C 62.1212 -0.541439 -3.72485 0
M  V30 607 C 61.2682 -1.06028 -2.56229 0
M  V30 608 H 64.2192 -1.01183 -1.22261 0
M  V30 609 H 64.2402 -0.145876 -3.8022 0
M  V30 610 H 63.7522 -1.91945 -3.37311 0
M  V30 611 H 61.8532 0.526034 -3.68868 0
M  V30 612 H 61.9662 -1.08453 -4.66663 0
M  V30 613 H 60.3302 -0.481892 -2.501 0
M  V30 614 H 61.1132 -2.14352 -2.68157 0
M  V30 615 N 63.5583 1.46682 -0.576371 0
M  V30 616 C 64.4683 2.34032 0.163141 0
M  V30 617 C 65.4843 1.49367 0.892501 0
M  V30 618 O 66.6603 1.82252 0.857106 0
M  V30 619 C 63.7253 3.26435 1.16795 0
M  V30 620 C 62.7863 4.26998 0.443944 0
M  V30 621 C 62.0193 5.14986 1.40088 0
M  V30 622 O 62.2423 5.05785 2.637 0
M  V30 623 O 61.1763 5.94906 0.914917 0
M  V30 624 H 65.0023 2.98607 -0.55388 0
M  V30 625 H 62.5873 1.45554 -0.336821 0
M  V30 626 H 64.4693 3.83459 1.74748 0
M  V30 627 H 63.1443 2.64465 1.86655 0
M  V30 628 H 62.0513 3.7368 -0.177271 0
M  V30 629 H 63.3843 4.91736 -0.213566 0
M  V30 630 N 65.0364 0.313813 1.54444 0
M  V30 631 C 66.4524 -0.0391619 1.59552 0
M  V30 632 C 66.6524 -1.51322 1.33056 0
M  V30 633 O 65.7084 -2.26782 1.11022 0
M  V30 634 C 67.0214 0.370302 2.98411 0
M  V30 635 C 68.5694 0.320139 3.11358 0
M  V30 636 C 69.0444 0.704617 4.52547 0
M  V30 637 N 70.5354 0.657645 4.58508 0
M  V30 638 C 71.2704 0.927453 5.6585 0
M  V30 639 N 70.7664 1.26389 6.81174 0
M  V30 640 N 72.5594 0.853662 5.5558 0
M  V30 641 H 64.7104 1.27433 1.69925 0
M  V30 642 H 66.9734 0.517511 0.794284 0
M  V30 643 H 66.6794 1.39694 3.22767 0
M  V30 644 H 66.5534 -0.269619 3.76235 0
M  V30 645 H 68.9404 -0.697275 2.86744 0
M  V30 646 H 69.0214 0.99486 2.35661 0
M  V30 647 H 68.6654 1.7199 4.77893 0
M  V30 648 H 68.5954 0.00768843 5.26599 0
M  V30 649 H 71.0864 0.409067 3.75679 0
M  V30 650 H 71.3994 1.4554 7.58972 0
M  V30 651 H 69.7444 1.30206 6.82694 0
M  V30 652 H 72.9354 0.590383 4.64362 0
M  V30 653 H 73.1084 1.0673 6.3915 0
M  V30 654 N 66.5145 -1.57545 0.0417849 0
M  V30 655 C 67.4775 -2.09885 -0.92093 0
M  V30 656 C 68.4775 -1.01648 -1.24596 0
M  V30 657 O 69.6675 -1.27759 -1.1842 0
M  V30 658 C 66.7995 -2.57527 -2.23367 0
M  V30 659 H 67.9925 -2.96236 -0.467382 0
M  V30 660 H 65.5455 -1.5493 -0.206467 0
M  V30 661 H 66.2805 -1.74542 -2.73323 0
M  V30 662 H 66.0655 -3.36613 -2.01083 0
M  V30 663 H 67.5555 -2.98201 -2.92346 0
M  V30 664 N 67.9926 0.231505 -1.5589 0
M  V30 665 C 69.2206 0.974505 -1.82513 0
M  V30 666 C 69.6356 1.78344 -0.619591 0
M  V30 667 O 68.9926 1.77792 0.411848 0
M  V30 668 C 69.0436 1.90007 -3.07538 0
M  V30 669 O 68.7646 1.12385 -4.2344 0
M  V30 670 C 70.2656 2.75779 -3.47075 0
M  V30 671 H 67.4856 0.286065 -0.606966 0
M  V30 672 H 70.0296 0.249739 -2.02969 0
M  V30 673 H 68.1846 2.57891 -2.89086 0
M  V30 674 H 68.5986 1.75125 -4.944 0
M  V30 675 H 70.0726 3.36443 -4.37619 0
M  V30 676 H 70.5496 3.47672 -2.68367 0
M  V30 677 H 71.1556 2.13323 -3.67931 0
M  V30 678 N 69.4707 1.49531 0.497807 0
M  V30 679 C 70.4337 1.65916 1.58128 0
M  V30 680 C 71.4337 0.530825 1.51786 0
M  V30 681 O 72.6237 0.797342 1.54881 0
M  V30 682 C 69.7557 1.65951 2.9778 0
M  V30 683 H 70.9487 2.62556 1.44929 0
M  V30 684 H 68.5017 1.38611 0.722275 0
M  V30 685 H 69.2367 0.709065 3.16453 0
M  V30 686 H 69.0217 2.47897 3.03792 0
M  V30 687 H 70.5117 1.80673 3.76493 0
M  V30 688 N 70.9488 -0.749086 1.3866 0
M  V30 689 C 72.1738 -1.54344 1.38538 0
M  V30 690 C 72.5988 -1.88088 -0.0216655 0
M  V30 691 O 71.9568 -1.50899 -1.00494 0
M  V30 692 C 72.0048 -2.8164 2.25192 0
M  V30 693 O 71.1088 -3.7698 1.67212 0
M  V30 694 H 70.4498 -0.466654 0.472367 0
M  V30 695 H 72.9798 -0.925355 1.82478 0
M  V30 696 H 72.9898 -3.30519 2.3921 0
M  V30 697 H 71.6648 -2.56411 3.27454 0
M  V30 698 H 70.2418 -3.35699 1.6236 0
M  V30 699 N 72.4269 -1.23603 -0.977757 0
M  V30 700 C 73.6729 -1.07129 -1.72195 0
M  V30 701 C 74.0059 0.390501 -1.90233 0
M  V30 702 O 73.2809 1.28902 -1.45653 0
M  V30 703 C 73.5639 -1.80031 -3.11867 0
M  V30 704 C 73.4169 -3.33899 -3.01383 0
M  V30 705 C 74.7359 -1.56492 -4.11337 0
M  V30 706 H 71.8549 -0.390571 -0.624999 0
M  V30 707 H 74.4969 -1.52142 -1.13811 0
M  V30 708 H 72.6469 -1.41768 -3.6171 0
M  V30 709 H 74.3189 -3.81699 -2.59043 0
M  V30 710 H 72.5619 -3.62796 -2.37827 0
M  V30 711 H 73.2329 -3.801 -4.00285 0
M  V30 712 H 75.7089 -1.89757 -3.70313 0
M  V30 713 H 74.5849 -2.09973 -5.07151 0
M  V30 714 H 74.8459 -0.500874 -4.39254 0
M  V30 715 N 73.905 1.17692 -1.04816 0
M  V30 716 C 74.815 2.25229 -0.65643 0
M  V30 717 C 75.831 1.71018 0.320761 0
M  V30 718 O 77.007 2.00649 0.173805 0
M  V30 719 C 74.072 3.46684 -0.0332629 0
M  V30 720 C 73.133 4.15997 -1.06042 0
M  V30 721 C 72.366 5.31654 -0.466893 0
M  V30 722 O 72.589 5.65777 0.724758 0
M  V30 723 O 71.523 5.89831 -1.1993 0
M  V30 724 H 75.349 2.61016 -1.55255 0
M  V30 725 H 72.934 1.24919 -0.81949 0
M  V30 726 H 74.816 4.20234 0.313256 0
M  V30 727 H 73.491 3.12703 0.836566 0
M  V30 728 H 72.398 3.44482 -1.45886 0
M  V30 729 H 73.731 4.53996 -1.90127 0
M  V30 730 N 75.3831 0.828654 1.34056 0
M  V30 731 C 76.6291 0.42008 1.98402 0
M  V30 732 C 76.9621 -1.01564 1.65525 0
M  V30 733 O 76.2371 -1.70834 0.929831 0
M  V30 734 C 76.5201 0.62927 3.54559 0
M  V30 735 C 76.3731 2.11152 3.97159 0
M  V30 736 C 77.6921 0.0688756 4.40046 0
M  V30 737 H 74.8111 0.154104 0.720709 0
M  V30 738 H 77.4531 1.04228 1.5886 0
M  V30 739 H 75.6031 0.0996418 3.88372 0
M  V30 740 H 77.2751 2.70522 3.73651 0
M  V30 741 H 75.5181 2.59985 3.47261 0
M  V30 742 H 76.1891 2.20868 5.05887 0
M  V30 743 H 78.6651 0.521458 4.1282 0
M  V30 744 H 77.5411 0.245006 5.48353 0
M  V30 745 H 77.8021 -1.0266 4.30015 0
M  V30 746 N 76.8612 -1.46375 0.584142 0
M  V30 747 C 78.0892 -2.06761 0.0759296 0
M  V30 748 C 78.5042 -1.43266 -1.22965 0
M  V30 749 O 77.8612 -0.538458 -1.74376 0
M  V30 750 C 77.9122 -3.61375 -0.0950384 0
M  V30 751 O 77.6332 -4.22495 1.15887 0
M  V30 752 C 79.1342 -4.38693 -0.637434 0
M  V30 753 H 76.3542 -0.668479 0.0581075 0
M  V30 754 H 78.8982 -1.8798 0.805218 0
M  V30 755 H 77.0532 -3.79578 -0.774554 0
M  V30 756 H 77.4672 -5.15385 0.973598 0
M  V30 757 H 78.9412 -5.47464 -0.706237 0
M  V30 758 H 79.4182 -4.06836 -1.65472 0
M  V30 759 H 80.0242 -4.25299 0.00725967 0
M  V30 760 N 78.3393 -0.321999 -1.54275 0
M  V30 761 C 79.6163 0.335232 -1.92706 0
M  V30 762 C 79.9963 1.70006 -1.25145 0
M  V30 763 O 79.3443 2.25067 -0.394596 0
M  V30 764 C 79.5543 0.429008 -3.46353 0
M  V30 765 C 80.9023 0.690029 -4.18956 0
M  V30 766 O 81.9263 0.511992 -3.52501 0
M  V30 767 O 80.7853 1.03338 -5.36641 0
M  V30 768 H 77.8793 0.191143 -0.804608 0
M  V30 769 H 80.4253 -0.3716 -1.65581 0
M  V30 770 H 79.1973 -0.529611 -3.87699 0
M  V30 771 H 78.8203 1.18348 -3.79578 0
M  V30 772 N 79.8174 1.5752 -0.0501392 0
M  V30 773 C 81.0454 1.96963 0.633492 0
M  V30 774 C 81.4604 0.927631 1.6444 0
M  V30 775 O 80.8174 -0.0882665 1.82286 0
M  V30 776 C 80.8684 3.36487 1.32132 0
M  V30 777 O 80.5894 4.36693 0.350894 0
M  V30 778 C 82.0904 3.90682 2.09481 0
M  V30 779 H 79.3104 0.648244 0.173266 0
M  V30 780 H 81.8544 2.0417 -0.116134 0
M  V30 781 H 80.0094 3.30434 2.02218 0
M  V30 782 H 80.4234 5.17702 0.841735 0
M  V30 783 H 81.8974 4.90591 2.5303 0
M  V30 784 H 82.3744 3.26053 2.94255 0
M  V30 785 H 82.9804 4.00069 1.44307 0
M  V30 786 N 81.2955 -0.223234 1.56011 0
M  V30 787 C 82.2255 -1.27988 1.95298 0
M  V30 788 C 83.2065 -1.48976 0.820979 0
M  V30 789 O 84.3915 -1.61188 1.08315 0
M  V30 790 C 81.5215 -2.63 2.26822 0
M  V30 791 C 80.4755 -2.56671 3.42497 0
M  V30 792 C 79.8015 -3.95697 3.59622 0
M  V30 793 C 81.1015 -2.11601 4.77517 0
M  V30 794 H 82.7955 -0.953525 2.8381 0
M  V30 795 H 80.3415 -0.457244 1.36548 0
M  V30 796 H 82.2945 -3.37077 2.52898 0
M  V30 797 H 81.0185 -2.9732 1.35161 0
M  V30 798 H 79.6775 -1.85051 3.16467 0
M  V30 799 H 79.3255 -4.27322 2.6534 0
M  V30 800 H 79.0255 -3.92345 4.37424 0
M  V30 801 H 80.5495 -4.71438 3.88044 0
M  V30 802 H 81.9635 -2.7542 5.02809 0
M  V30 803 H 80.3605 -2.19311 5.5859 0
M  V30 804 H 81.4305 -1.06824 4.72987 0
M  V30 805 N 82.7736 -1.49793 -0.48987 0
M  V30 806 C 84.1896 -1.36803 -0.822022 0
M  V30 807 C 84.3896 -0.409652 -1.97292 0
M  V30 808 O 83.4456 0.154614 -2.52026 0
M  V30 809 C 84.7586 -2.77768 -1.15175 0
M  V30 810 C 86.3066 -2.86549 -1.25931 0
M  V30 811 C 86.7816 -4.28306 -1.62228 0
M  V30 812 N 88.2726 -4.31169 -1.69256 0
M  V30 813 C 89.0076 -5.37832 -1.98807 0
M  V30 814 N 88.5036 -6.54726 -2.26507 0
M  V30 815 N 90.2966 -5.25258 -2.00152 0
M  V30 816 H 82.4476 -2.10691 0.268881 0
M  V30 817 H 84.7106 -0.946241 0.057728 0
M  V30 818 H 84.4166 -3.49648 -0.379335 0
M  V30 819 H 84.2906 -3.13836 -2.09253 0
M  V30 820 H 86.6776 -2.14899 -2.02243 0
M  V30 821 H 86.7586 -2.54049 -0.298776 0
M  V30 822 H 86.4026 -5.00486 -0.864622 0
M  V30 823 H 86.3326 -4.58279 -2.594 0
M  V30 824 H 88.8236 -3.4687 -1.49965 0
M  V30 825 H 89.1366 -7.31833 -2.48276 0
M  V30 826 H 87.4816 -6.57933 -2.23939 0
M  V30 827 H 90.6726 -4.32938 -1.77996 0
M  V30 828 H 90.8456 -6.08476 -2.22848 0
M  V30 829 N 84.2517 0.741722 -1.39055 0
M  V30 830 C 85.1837 1.8657 -1.33133 0
M  V30 831 C 86.1967 1.61001 -0.241329 0
M  V30 832 O 87.3857 1.7136 -0.499784 0
M  V30 833 C 84.4857 3.22457 -1.04283 0
M  V30 834 C 83.6587 3.75435 -2.24427 0
M  V30 835 C 82.7177 4.89867 -1.92138 0
M  V30 836 O 81.7437 5.03879 -2.64754 0
M  V30 837 N 82.9457 5.73738 -0.88347 0
M  V30 838 H 85.7107 1.92156 -2.29991 0
M  V30 839 H 83.2717 0.922172 -1.3307 0
M  V30 840 H 85.2637 3.9657 -0.807128 0
M  V30 841 H 83.8337 3.12181 -0.161807 0
M  V30 842 H 83.0537 2.92751 -2.6399 0
M  V30 843 H 84.3417 4.07563 -3.04581 0
M  V30 844 H 83.7397 5.64999 -0.281517 0
M  V30 845 H 82.2967 6.47947 -0.707662 0
M  V30 846 N 85.7298 1.2412 0.971189 0
M  V30 847 C 87.1458 1.00584 1.23916 0
M  V30 848 C 87.3458 -0.287481 1.99439 0
M  V30 849 O 86.4018 -1.00454 2.31658 0
M  V30 850 C 87.7148 2.21864 2.0297 0
M  V30 851 C 89.2628 2.26452 2.16076 0
M  V30 852 C 89.7378 3.47343 2.98524 0
M  V30 853 N 91.2288 3.47639 3.06107 0
M  V30 854 C 91.9638 4.37837 3.70251 0
M  V30 855 N 91.4598 5.38286 4.36142 0
M  V30 856 N 93.2528 4.25558 3.67228 0
M  V30 857 H 85.4038 2.07236 0.465499 0
M  V30 858 H 87.6668 0.909236 0.268315 0
M  V30 859 H 87.3728 3.15771 1.54861 0
M  V30 860 H 87.2468 2.23698 3.03709 0
M  V30 861 H 89.6338 1.33078 2.6339 0
M  V30 862 H 89.7148 2.28645 1.14696 0
M  V30 863 H 89.3588 4.41029 2.51905 0
M  V30 864 H 89.2888 3.42393 4.00093 0
M  V30 865 H 91.7798 2.74966 2.59233 0
M  V30 866 H 92.0928 6.03352 4.82894 0
M  V30 867 H 90.4378 5.42176 4.34822 0
M  V30 868 H 93.6288 3.46322 3.14927 0
M  V30 869 H 93.8018 4.96054 4.16935 0
M  V30 870 N 87.2079 -1.17134 1.05439 0
M  V30 871 C 88.4539 -1.87979 0.776872 0
M  V30 872 C 88.8089 -1.7965 -0.688751 0
M  V30 873 O 88.1019 -1.19535 -1.4974 0
M  V30 874 C 88.2959 -3.36833 1.19491 0
M  V30 875 C 88.1249 -3.59653 2.69963 0
M  V30 876 C 86.8949 -3.76234 3.37307 0
M  V30 877 C 89.0929 -3.59091 3.68182 0
M  V30 878 N 87.0749 -3.86922 4.76618 0
M  V30 879 C 88.4459 -3.75659 4.93235 0
M  V30 880 C 90.5009 -3.42255 3.61616 0
M  V30 881 C 89.2039 -3.77133 6.12506 0
M  V30 882 C 91.2299 -3.45018 4.8033 0
M  V30 883 C 90.5919 -3.62096 6.04207 0
M  V30 884 H 86.6909 -0.705876 0.336546 0
M  V30 885 H 89.2749 -1.40602 1.34682 0
M  V30 886 H 87.4459 -3.82873 0.652884 0
M  V30 887 H 89.1779 -3.95305 0.866966 0
M  V30 888 H 85.9329 -3.76193 2.87708 0
M  V30 889 H 86.3569 -3.96055 5.49062 0
M  V30 890 H 90.9989 -3.27986 2.66805 0
M  V30 891 H 88.7169 -3.90186 7.07659 0
M  V30 892 H 92.3029 -3.33246 4.76905 0
M  V30 893 H 91.1829 -3.64142 6.94529 0
M  V30 894 N 88.686 -0.835752 -1.33615 0
M  V30 895 C 89.934 -0.429109 -1.97492 0
M  V30 896 C 90.255 1.01433 -1.66543 0
M  V30 897 O 89.525 1.70611 -0.962744 0
M  V30 898 H 88.105 -0.155686 -0.730596 0
M  V30 899 H 90.767 -1.06802 -1.63031 0
M  V30 900 H 89.863 -0.55861 -3.0706 0
M  V30 901 N 90.1641 1.46063 -0.591896 0
M  V30 902 C 91.0941 2.33172 0.123673 0
M  V30 903 C 92.0751 1.45897 0.87453 0
M  V30 904 O 93.2601 1.74698 0.848181 0
M  V30 905 C 90.3901 3.28336 1.13194 0
M  V30 906 C 89.3441 4.25124 0.495324 0
M  V30 907 C 88.6701 5.09863 1.61071 0
M  V30 908 C 89.9701 5.19143 -0.573425 0
M  V30 909 H 91.6641 2.93252 -0.603646 0
M  V30 910 H 89.2101 1.41014 -0.291741 0
M  V30 911 H 91.1631 3.88137 1.64097 0
M  V30 912 H 89.8871 2.66383 1.88965 0
M  V30 913 H 88.5461 3.66599 0.00729452 0
M  V30 914 H 88.1941 4.44288 2.35832 0
M  V30 915 H 87.8941 5.75417 1.19035 0
M  V30 916 H 89.4181 5.72529 2.12233 0
M  V30 917 H 90.8321 5.73106 -0.1491 0
M  V30 918 H 89.2291 5.93089 -0.914636 0
M  V30 919 H 90.2991 4.62519 -1.45617 0
M  V30 920 N 91.6422 0.330177 1.54103 0
M  V30 921 C 92.8882 -0.270806 2.00984 0
M  V30 922 C 93.2212 -1.51265 1.21789 0
M  V30 923 O 92.4962 -1.92142 0.301927 0
M  V30 924 C 92.7792 -0.598339 3.55094 0
M  V30 925 C 92.6322 0.654674 4.4501 0
M  V30 926 C 93.9512 -1.41334 4.16789 0
M  V30 927 H 91.0702 -0.0969531 0.730595 0
M  V30 928 H 93.7122 0.448066 1.84641 0
M  V30 929 H 91.8622 -1.21078 3.69151 0
M  V30 930 H 93.5342 1.29285 4.42813 0
M  V30 931 H 91.7772 1.28224 4.14416 0
M  V30 932 H 92.4482 0.380944 5.50684 0
M  V30 933 H 94.9242 -0.895597 4.06347 0
M  V30 934 H 93.8002 -1.61127 5.24718 0
M  V30 935 H 94.0612 -2.41146 3.70541 0
M  V30 936 N 93.1203 -1.57491 0.0584922 0
M  V30 937 C 94.0703 -2.08474 -0.923188 0
M  V30 938 C 95.0543 -0.991479 -1.26722 0
M  V30 939 O 96.2463 -1.25473 -1.24842 0
M  V30 940 C 93.3753 -2.6392 -2.19548 0
M  V30 941 C 92.4613 -3.80227 -1.87852 0
M  V30 942 N 92.8523 -4.89714 -1.26546 0
M  V30 943 C 91.1503 -3.89271 -2.17679 0
M  V30 944 C 91.8513 -5.70689 -1.12644 0
M  V30 945 N 90.8273 -5.18531 -1.63176 0
M  V30 946 H 94.6293 -2.90517 -0.444653 0
M  V30 947 H 92.1433 -1.61745 -0.145764 0
M  V30 948 H 94.1403 -2.98752 -2.9078 0
M  V30 949 H 92.8003 -1.83318 -2.68001 0
M  V30 950 H 93.8113 -5.09358 -0.936757 0
M  V30 951 H 90.4883 -3.19623 -2.68602 0
M  V30 952 H 91.8783 -6.6875 -0.6499 0
M  V30 953 N 94.5984 0.214957 -1.56127 0
M  V30 954 C 95.8464 0.936518 -1.79091 0
M  V30 955 C 96.1674 1.84606 -0.628148 0
M  V30 956 O 95.4374 1.92664 0.35462 0
M  V30 957 H 94.0174 0.3488 -0.660566 0
M  V30 958 H 96.6794 0.22523 -1.93594 0
M  V30 959 H 95.7754 1.53943 -2.71492 0
M  V30 960 N 96.0765 1.50051 0.48192 0
M  V30 961 C 97.3245 1.60181 1.23234 0
M  V30 962 C 97.6455 0.299176 1.92691 0
M  V30 963 O 96.9155 -0.682708 1.83619 0
M  V30 964 H 95.4955 0.590232 0.457859 0
M  V30 965 H 98.1575 1.86775 0.556881 0
M  V30 966 H 97.2535 2.40753 1.98607 0
M  V30 967 N 97.5546 -0.734337 1.39446 0
M  V30 968 C 98.5176 -1.83004 1.37994 0
M  V30 969 C 99.5176 -1.58397 0.276938 0
M  V30 970 O 100.708 -1.65785 0.534875 0
M  V30 971 C 97.8396 -3.20802 1.1532 0
M  V30 972 H 99.0326 -1.85694 2.35494 0
M  V30 973 H 96.5856 -0.938059 1.25021 0
M  V30 974 H 97.3206 -3.23772 0.185036 0
M  V30 975 H 97.1056 -3.4006 1.95197 0
M  V30 976 H 98.5956 -4.00862 1.17046 0
M  V30 977 N 99.0327 -1.24633 -0.964593 0
M  V30 978 C 100.263 -1.11339 -1.74032 0
M  V30 979 C 100.671 0.336593 -1.86182 0
M  V30 980 O 100.014 1.24389 -1.35178 0
M  V30 981 C 100.076 -1.68284 -3.1768 0
M  V30 982 C 99.7397 -3.17196 -3.28992 0
M  V30 983 C 100.737 -4.14308 -3.14078 0
M  V30 984 C 98.4217 -3.57215 -3.53133 0
M  V30 985 C 100.416 -5.4942 -3.23135 0
M  V30 986 C 98.1027 -4.92468 -3.61827 0
M  V30 987 C 99.1007 -5.8838 -3.46841 0
M  V30 988 O 98.7887 -7.21173 -3.55197 0
M  V30 989 H 98.5207 -0.389551 -0.552472 0
M  V30 990 H 101.075 -1.65282 -1.21946 0
M  V30 991 H 99.3047 -1.08777 -3.71085 0
M  V30 992 H 100.994 -1.50234 -3.77074 0
M  V30 993 H 101.76 -3.84731 -2.95308 0
M  V30 994 H 97.6387 -2.83063 -3.63863 0
M  V30 995 H 101.183 -6.24263 -3.11355 0
M  V30 996 H 97.0797 -5.21714 -3.80111 0
M  V30 997 H 97.8477 -7.29135 -3.71892 0
M  V30 998 N 100.511 1.16574 -1.06058 0
M  V30 999 C 101.751 1.88723 -0.78504 0
M  V30 1000 C 102.115 1.79706 0.676006 0
M  V30 1001 O 103.316 2.46757 1.06603 0
M  V30 1002 C 101.587 3.34338 -1.26304 0
M  V30 1003 S 103.146 4.24366 -1.1162 0
M  V30 1004 H 99.9638 0.651448 -0.284846 0
M  V30 1005 H 102.566 1.40732 -1.35701 0
M  V30 1006 H 101.27 3.38439 -2.32136 0
M  V30 1007 H 100.801 3.87378 -0.685719 0
M  V30 1008 H 102.816 4.96179 -0.0456539 0
M  V30 1009 N 101.989 0.842826 1.3317 0
M  V30 1010 C 102.952 0.284065 2.27433 0
M  V30 1011 C 103.952 -0.54948 1.5112 0
M  V30 1012 O 105.142 -0.362699 1.70382 0
M  V30 1013 C 102.274 -0.599384 3.35589 0
M  V30 1014 H 103.467 1.11589 2.78366 0
M  V30 1015 H 101.02 0.616221 1.4364 0
M  V30 1016 H 101.755 -1.45349 2.89904 0
M  V30 1017 H 101.54 -0.00291266 3.921 0
M  V30 1018 H 103.03 -0.983488 4.05854 0
M  V30 1019 N 103.467 -1.45747 0.599634 0
M  V30 1020 C 104.397 -2.33235 -0.111306 0
M  V30 1021 C 105.378 -1.46359 -0.866781 0
M  V30 1022 O 106.563 -1.75146 -0.838904 0
M  V30 1023 C 103.693 -3.28932 -1.11451 0
M  V30 1024 C 102.647 -4.25381 -0.472772 0
M  V30 1025 C 101.973 -5.1071 -1.58365 0
M  V30 1026 C 103.273 -5.18831 0.600948 0
M  V30 1027 H 104.967 -2.92927 0.61919 0
M  V30 1028 H 102.513 -1.40857 0.299215 0
M  V30 1029 H 104.466 -3.89002 -1.62036 0
M  V30 1030 H 103.19 -2.67381 -1.8755 0
M  V30 1031 H 101.849 -3.66598 0.0121472 0
M  V30 1032 H 101.497 -4.45533 -2.33473 0
M  V30 1033 H 101.197 -5.7604 -1.15982 0
M  V30 1034 H 102.721 -5.73647 -2.09194 0
M  V30 1035 H 104.135 -5.73019 0.179491 0
M  V30 1036 H 102.532 -5.92595 0.946076 0
M  V30 1037 H 103.602 -4.6174 1.48068 0
M  V30 1038 N 104.945 -0.338344 -1.53925 0
M  V30 1039 C 105.908 0.508299 -2.23493 0
M  V30 1040 C 106.908 1.03175 -1.23335 0
M  V30 1041 O 108.098 0.921826 -1.47811 0
M  V30 1042 C 105.23 1.70754 -2.95052 0
M  V30 1043 H 106.423 -0.100058 -2.99733 0
M  V30 1044 H 103.976 -0.0896198 -1.56043 0
M  V30 1045 H 104.711 2.35474 -2.22986 0
M  V30 1046 H 104.496 1.33946 -3.68512 0
M  V30 1047 H 105.986 2.30818 -3.48013 0
M  V30 1048 N 106.423 1.57458 -0.0668435 0
M  V30 1049 C 107.333 2.15937 0.916975 0
M  V30 1050 C 108.349 1.12123 1.33058 0
M  V30 1051 O 109.525 1.44366 1.40429 0
M  V30 1052 C 106.59 2.70547 2.16807 0
M  V30 1053 C 105.651 3.89215 1.81135 0
M  V30 1054 C 104.884 4.41211 3.0028 0
M  V30 1055 O 105.107 3.92225 4.14144 0
M  V30 1056 O 104.041 5.32605 2.80384 0
M  V30 1057 H 107.867 3.00354 0.449561 0
M  V30 1058 H 105.452 1.48584 0.155949 0
M  V30 1059 H 107.334 3.0557 2.90181 0
M  V30 1060 H 106.009 1.89192 2.62656 0
M  V30 1061 H 104.916 3.59054 1.05028 0
M  V30 1062 H 106.249 4.71848 1.40073 0
M  V30 1063 N 107.901 -0.206675 1.56239 0
M  V30 1064 C 108.834 -1.28383 1.88661 0
M  V30 1065 C 109.812 -1.44504 0.745481 0
M  V30 1066 O 110.996 -1.60079 0.995336 0
M  V30 1067 C 108.123 -2.65211 2.10667 0
M  V30 1068 C 107.169 -2.66025 3.33366 0
M  V30 1069 S 108.002 -2.18609 4.88846 0
M  V30 1070 C 109.158 -3.57283 5.13906 0
M  V30 1071 H 109.391 -1.00691 2.7973 0
M  V30 1072 H 106.924 -0.409627 1.48867 0
M  V30 1073 H 108.882 -3.43979 2.24029 0
M  V30 1074 H 107.543 -2.90121 1.20369 0
M  V30 1075 H 106.736 -3.66607 3.45855 0
M  V30 1076 H 106.338 -1.95331 3.18938 0
M  V30 1077 H 108.63 -4.53074 5.03717 0
M  V30 1078 H 109.573 -3.49699 6.15724 0
M  V30 1079 H 109.981 -3.51659 4.41583 0
M  V30 1080 N 109.379 -1.50304 -0.473955 0
M  V30 1081 C 110.309 -1.71886 -1.58042 0
M  V30 1082 C 111.29 -0.567799 -1.60344 0
M  V30 1083 O 112.475 -0.806623 -1.76656 0
M  V30 1084 C 109.605 -1.81036 -2.96384 0
M  V30 1085 C 108.559 -2.962 -3.08949 0
M  V30 1086 C 107.885 -2.9049 -4.48909 0
M  V30 1087 C 109.185 -4.36752 -2.86434 0
M  V30 1088 H 110.879 -2.64527 -1.40234 0
M  V30 1089 H 108.425 -1.27295 -0.673201 0
M  V30 1090 H 110.378 -1.94719 -3.73714 0
M  V30 1091 H 109.102 -0.850147 -3.15341 0
M  V30 1092 H 107.761 -2.82164 -2.3405 0
M  V30 1093 H 107.409 -1.92321 -4.64781 0
M  V30 1094 H 107.109 -3.67802 -4.58253 0
M  V30 1095 H 108.633 -3.06218 -5.28264 0
M  V30 1096 H 110.047 -4.5133 -3.53517 0
M  V30 1097 H 108.444 -5.15493 -3.07225 0
M  V30 1098 H 109.514 -4.49321 -1.82316 0
M  V30 1099 N 110.857 0.726932 -1.39834 0
M  V30 1100 C 111.82 1.82269 -1.38962 0
M  V30 1101 C 112.82 1.58248 -0.285334 0
M  V30 1102 O 114.01 1.65499 -0.54366 0
M  V30 1103 C 111.142 3.20186 -1.17019 0
M  V30 1104 H 112.335 1.84443 -2.36476 0
M  V30 1105 H 109.888 0.931416 -1.25516 0
M  V30 1106 H 110.623 3.23669 -0.202204 0
M  V30 1107 H 110.408 3.3902 -1.96998 0
M  V30 1108 H 111.898 4.00235 -1.1917 0
M  V30 1109 N 112.336 1.25143 0.95797 0
M  V30 1110 C 113.564 1.12424 1.73691 0
M  V30 1111 C 113.979 -0.322304 1.86029 0
M  V30 1112 O 113.336 -1.22186 1.35561 0
M  V30 1113 C 113.387 1.76933 3.15241 0
M  V30 1114 O 113.108 3.15932 3.03511 0
M  V30 1115 C 114.609 1.6995 4.09429 0
M  V30 1116 H 111.829 0.3923 0.544373 0
M  V30 1117 H 114.373 1.6544 1.20207 0
M  V30 1118 H 112.528 1.27895 3.6568 0
M  V30 1119 H 112.942 3.47598 3.9278 0
M  V30 1120 H 114.416 2.19753 5.06372 0
M  V30 1121 H 114.893 0.662619 4.34173 0
M  V30 1122 H 115.499 2.18461 3.64904 0
M  V30 1123 N 113.814 -1.1601 1.06675 0
M  V30 1124 C 114.724 -2.24156 0.692179 0
M  V30 1125 C 115.74 -1.71507 -0.293513 0
M  V30 1126 O 116.916 -2.009 -0.141861 0
M  V30 1127 C 113.981 -3.46587 0.0884131 0
M  V30 1128 C 113.042 -4.14257 1.12646 0
M  V30 1129 C 112.275 -5.30844 0.551416 0
M  V30 1130 O 112.498 -5.66858 -0.634656 0
M  V30 1131 O 111.432 -5.87848 1.29298 0
M  V30 1132 H 115.258 -2.58513 1.59388 0
M  V30 1133 H 112.843 -1.23599 0.83926 0
M  V30 1134 H 114.725 -4.20679 -0.246361 0
M  V30 1135 H 113.4 -3.13994 -0.786712 0
M  V30 1136 H 112.307 -3.42118 1.51348 0
M  V30 1137 H 113.64 -4.50914 1.97325 0
M  V30 1138 N 115.292 -0.849877 -1.32721 0
M  V30 1139 C 116.255 -0.296122 -2.27279 0
M  V30 1140 C 117.255 0.541458 -1.5141 0
M  V30 1141 O 118.445 0.353658 -1.70572 0
M  V30 1142 C 115.577 0.581579 -3.35902 0
M  V30 1143 H 116.77 -1.13064 -2.77771 0
M  V30 1144 H 114.323 -0.62383 -1.43311 0
M  V30 1145 H 115.058 1.43809 -2.9067 0
M  V30 1146 H 114.843 -0.0178814 -3.92096 0
M  V30 1147 H 116.333 0.961951 -4.0637 0
M  V30 1148 N 116.77 1.45427 -0.607355 0
M  V30 1149 C 117.998 2.06614 -0.108814 0
M  V30 1150 C 118.413 1.45204 1.2067 0
M  V30 1151 O 117.77 0.566132 1.73497 0
M  V30 1152 C 117.821 3.61481 0.0375347 0
M  V30 1153 O 117.542 4.20598 -1.22593 0
M  V30 1154 C 119.043 4.39652 0.567561 0
M  V30 1155 H 116.263 0.66747 -0.0687351 0
M  V30 1156 H 118.807 1.86675 -0.835022 0
M  V30 1157 H 116.962 3.80762 0.714068 0
M  V30 1158 H 117.376 5.1377 -1.05547 0
M  V30 1159 H 118.85 5.48518 0.61905 0
M  V30 1160 H 119.327 4.09417 1.58978 0
M  V30 1161 H 119.933 4.25234 -0.0749202 0
M  V30 1162 N 118.248 0.346503 1.53744 0
M  V30 1163 C 119.494 -0.249473 2.0126 0
M  V30 1164 C 119.827 -1.49965 1.23386 0
M  V30 1165 O 119.102 -1.91811 0.32229 0
M  V30 1166 C 119.385 -0.560643 3.55709 0
M  V30 1167 C 119.238 0.701836 4.44291 0
M  V30 1168 C 120.557 -1.36905 4.18264 0
M  V30 1169 H 117.676 -0.0891987 0.731582 0
M  V30 1170 H 120.318 0.467624 1.84156 0
M  V30 1171 H 118.468 -1.17156 3.70414 0
M  V30 1172 H 120.14 1.33974 4.41417 0
M  V30 1173 H 118.383 1.32612 4.13033 0
M  V30 1174 H 119.054 0.43933 5.50249 0
M  V30 1175 H 121.53 -0.852448 4.07275 0
M  V30 1176 H 120.406 -1.55553 5.26398 0
M  V30 1177 H 120.667 -2.37203 3.73078 0
M  V30 1178 N 119.726 -1.57421 0.075193 0
M  V30 1179 C 120.689 -2.11791 -0.876203 0
M  V30 1180 C 121.689 -1.04268 -1.22412 0
M  V30 1181 O 122.879 -1.30242 -1.15684 0
M  V30 1182 C 120.011 -2.62207 -2.17854 0
M  V30 1183 H 121.204 -2.9716 -0.40444 0
M  V30 1184 H 118.757 -1.55333 -0.173557 0
M  V30 1185 H 119.492 -1.803 -2.6956 0
M  V30 1186 H 119.277 -3.40802 -1.93897 0
M  V30 1187 H 120.767 -3.04335 -2.85955 0
M  V30 1188 N 121.204 0.198386 -1.56346 0
M  V30 1189 C 122.45 0.920648 -1.80698 0
M  V30 1190 C 122.783 1.83045 -0.648697 0
M  V30 1191 O 122.058 1.91308 0.350925 0
M  V30 1192 C 122.341 1.73971 -3.15287 0
M  V30 1193 C 122.194 0.85485 -4.41602 0
M  V30 1194 C 123.513 2.71296 -3.46535 0
M  V30 1195 H 120.632 0.333261 -0.657348 0
M  V30 1196 H 123.274 0.188198 -1.89066 0
M  V30 1197 H 121.424 2.36416 -3.08285 0
M  V30 1198 H 123.096 0.245362 -4.60647 0
M  V30 1199 H 121.339 0.161398 -4.335 0
M  V30 1200 H 122.01 1.46286 -5.32264 0
M  V30 1201 H 124.486 2.18983 -3.53816 0
M  V30 1202 H 123.362 3.2569 -4.41834 0
M  V30 1203 H 123.623 3.5018 -2.69864 0
M  V30 1204 N 122.682 1.50554 0.465978 0
M  V30 1205 C 123.928 1.62038 1.21949 0
M  V30 1206 C 124.261 0.322116 1.9151 0
M  V30 1207 O 123.536 -0.676723 1.82348 0
M  V30 1208 C 123.819 2.80421 2.25912 0
M  V30 1209 C 123.672 4.20144 1.60622 0
M  V30 1210 C 124.991 2.94354 3.27176 0
M  V30 1211 H 122.11 0.589752 0.441998 0
M  V30 1212 H 124.752 1.82956 0.51257 0
M  V30 1213 H 122.902 2.62717 2.86203 0
M  V30 1214 H 124.574 4.49449 1.03889 0
M  V30 1215 H 122.817 4.24165 0.909211 0
M  V30 1216 H 123.488 4.98914 2.36196 0
M  V30 1217 H 125.964 3.10578 2.76913 0
M  V30 1218 H 124.84 3.788 3.97242 0
M  V30 1219 H 125.101 2.05186 3.916 0
M  V30 1220 N 124.16 -0.719506 1.40217 0
M  V30 1221 C 125.11 -1.8251 1.36653 0
M  V30 1222 C 126.094 -1.59028 0.244732 0
M  V30 1223 O 127.286 -1.70268 0.483524 0
M  V30 1224 C 124.415 -3.20599 1.22763 0
M  V30 1225 C 123.501 -3.49858 2.39708 0
M  V30 1226 N 123.892 -3.49957 3.6519 0
M  V30 1227 C 122.19 -3.80297 2.33002 0
M  V30 1228 C 122.891 -3.77449 4.42614 0
M  V30 1229 N 121.867 -3.96002 3.72402 0
M  V30 1230 H 125.669 -1.80914 2.31619 0
M  V30 1231 H 123.183 -0.918455 1.33933 0
M  V30 1232 H 125.18 -3.99766 1.18292 0
M  V30 1233 H 123.84 -3.23424 0.287614 0
M  V30 1234 H 124.851 -3.309 3.98404 0
M  V30 1235 H 121.528 -3.90635 1.47346 0
M  V30 1236 H 122.918 -3.83863 5.51451 0
M  V30 1237 N 125.638 -1.25649 -0.95132 0
M  V30 1238 C 126.548 -1.08073 -2.08224 0
M  V30 1239 C 127.564 -0.0169666 -1.73992 0
M  V30 1240 O 128.74 -0.218593 -2.0021 0
M  V30 1241 C 125.805 -0.704922 -3.39458 0
M  V30 1242 C 124.866 -1.84699 -3.87537 0
M  V30 1243 C 124.099 -1.48902 -5.12508 0
M  V30 1244 O 124.322 -0.386156 -5.69091 0
M  V30 1245 O 123.256 -2.32033 -5.55378 0
M  V30 1246 H 127.082 -2.02924 -2.25954 0
M  V30 1247 H 124.667 -1.04618 -1.06656 0
M  V30 1248 H 126.549 -0.507609 -4.18332 0
M  V30 1249 H 125.224 0.214291 -3.2299 0
M  V30 1250 H 124.131 -2.09919 -3.09653 0
M  V30 1251 H 125.464 -2.74557 -4.08509 0
M  V30 1252 N 127.117 1.15442 -1.07289 0
M  V30 1253 C 128.064 2.20161 -0.692653 0
M  V30 1254 C 129.034 1.63073 0.31564 0
M  V30 1255 O 130.219 1.89725 0.202235 0
M  V30 1256 C 127.359 3.44967 -0.0959509 0
M  V30 1257 C 126.472 4.16256 -1.15564 0
M  V30 1258 C 125.607 5.28609 -0.524011 0
M  V30 1259 C 124.646 5.91715 -1.56653 0
M  V30 1260 N 123.783 6.9554 -0.957531 0
M  V30 1261 H 128.623 2.52037 -1.59002 0
M  V30 1262 H 126.16 1.2378 -0.794798 0
M  V30 1263 H 128.118 4.16341 0.267628 0
M  V30 1264 H 126.748 3.1361 0.764772 0
M  V30 1265 H 125.8 3.43385 -1.6368 0
M  V30 1266 H 127.112 4.59268 -1.94613 0
M  V30 1267 H 126.266 6.06604 -0.108032 0
M  V30 1268 H 125.005 4.86787 0.29825 0
M  V30 1269 H 124.01 5.12433 -1.9923 0
M  V30 1270 H 125.235 6.35614 -2.39107 0
M  V30 1271 H 123.181 6.55814 -0.156162 0
M  V30 1272 H 123.098 7.36977 -1.68526 0
M  V30 1273 H 124.366 7.77435 -0.567032 0
M  V30 1274 N 128.595 0.856903 1.32268 0
M  V30 1275 C 129.843 0.460474 1.96784 0
M  V30 1276 C 130.164 -0.987701 1.68135 0
M  V30 1277 O 129.434 -1.69058 0.989765 0
M  V30 1278 H 128.014 0.167289 0.728027 0
M  V30 1279 H 130.676 1.09383 1.61312 0
M  V30 1280 H 129.772 0.60739 3.06133 0
M  V30 1281 N 130.073 -1.45103 0.615059 0
M  V30 1282 C 131.006 -2.27717 -0.148408 0
M  V30 1283 C 131.984 -1.37584 -0.866572 0
M  V30 1284 O 133.168 -1.67017 -0.87393 0
M  V30 1285 C 130.295 -3.16136 -1.21557 0
M  V30 1286 C 129.341 -4.22263 -0.599712 0
M  V30 1287 S 130.174 -5.3215 0.598081 0
M  V30 1288 C 131.33 -6.24137 -0.469484 0
M  V30 1289 H 131.563 -2.92121 0.552483 0
M  V30 1290 H 129.096 -1.49054 0.402778 0
M  V30 1291 H 131.054 -3.67633 -1.82638 0
M  V30 1292 H 129.715 -2.50982 -1.88857 0
M  V30 1293 H 128.908 -4.84081 -1.4029 0
M  V30 1294 H 128.51 -3.73945 -0.063876 0
M  V30 1295 H 130.802 -6.63984 -1.34652 0
M  V30 1296 H 131.745 -7.0801 0.112725 0
M  V30 1297 H 132.153 -5.58971 -0.788168 0
M  V30 1298 N 131.551 -0.354651 -1.53558 0
M  V30 1299 C 132.484 0.540273 -2.21712 0
M  V30 1300 C 133.462 1.09161 -1.2051 0
M  V30 1301 O 134.646 1.14979 -1.49372 0
M  V30 1302 C 131.773 1.74435 -2.90328 0
M  V30 1303 C 130.819 1.32146 -4.05512 0
M  V30 1304 S 131.652 0.331924 -5.3447 0
M  V30 1305 C 132.808 1.54258 -6.06593 0
M  V30 1306 H 133.041 -0.0385776 -2.97275 0
M  V30 1307 H 130.574 -0.138736 -1.53775 0
M  V30 1308 H 132.532 2.43507 -3.30476 0
M  V30 1309 H 131.193 2.29444 -2.1451 0
M  V30 1310 H 130.386 2.21952 -4.52497 0
M  V30 1311 H 129.988 0.710091 -3.67197 0
M  V30 1312 H 132.28 2.47534 -6.30661 0
M  V30 1313 H 133.223 1.11431 -6.99277 0
M  V30 1314 H 133.631 1.74367 -5.36895 0
M  V30 1315 N 133.029 1.57378 -0.0835403 0
M  V30 1316 C 133.992 2.12252 0.864959 0
M  V30 1317 C 134.992 1.04916 1.21858 0
M  V30 1318 O 136.182 1.30853 1.14991 0
M  V30 1319 C 133.314 2.63358 2.16461 0
M  V30 1320 H 134.507 2.97371 0.388676 0
M  V30 1321 H 132.06 1.55423 0.165317 0
M  V30 1322 H 132.795 1.81727 2.686 0
M  V30 1323 H 132.58 3.41826 1.92087 0
M  V30 1324 H 134.07 3.05847 2.84337 0
M  V30 1325 N 134.507 -0.190092 1.56449 0
M  V30 1326 C 135.753 -0.911052 1.81184 0
M  V30 1327 C 136.086 -1.82699 0.658396 0
M  V30 1328 O 135.361 -1.91491 -0.340775 0
M  V30 1329 C 135.644 -1.72297 3.16205 0
M  V30 1330 C 135.497 -0.831419 4.42049 0
M  V30 1331 C 136.816 -2.69454 3.47969 0
M  V30 1332 H 133.935 -0.32977 0.659106 0
M  V30 1333 H 136.577 -0.178169 1.89163 0
M  V30 1334 H 134.727 -2.34778 3.09534 0
M  V30 1335 H 136.399 -0.220929 4.60771 0
M  V30 1336 H 134.642 -0.138406 4.33579 0
M  V30 1337 H 135.313 -1.43461 5.33032 0
M  V30 1338 H 137.789 -2.17104 3.54972 0
M  V30 1339 H 136.665 -3.23342 4.43555 0
M  V30 1340 H 136.926 -3.48744 2.71717 0
M  V30 1341 N 135.985 -1.50799 -0.457987 0
M  V30 1342 C 137.233 -1.62121 -1.2067 0
M  V30 1343 C 137.554 -0.329793 -1.92191 0
M  V30 1344 O 136.824 0.653409 -1.84682 0
M  V30 1345 H 135.404 -0.597441 -0.448411 0
M  V30 1346 H 138.066 -1.87637 -0.527096 0
M  V30 1347 H 137.162 -2.43882 -1.94751 0
M  V30 1348 N 137.463 0.71206 -1.40597 0
M  V30 1349 C 138.395 1.83704 -1.37061 0
M  V30 1350 C 139.408 1.60453 -0.275426 0
M  V30 1351 O 140.597 1.70262 -0.53602 0
M  V30 1352 C 137.697 3.20172 -1.11099 0
M  V30 1353 C 136.87 3.7059 -2.3234 0
M  V30 1354 C 135.929 4.85681 -2.02485 0
M  V30 1355 O 134.955 4.9815 -2.75382 0
M  V30 1356 N 136.157 5.71735 -1.00497 0
M  V30 1357 H 138.922 1.87235 -2.34016 0
M  V30 1358 H 136.483 0.893739 -1.34996 0
M  V30 1359 H 138.475 3.94768 -0.891064 0
M  V30 1360 H 137.045 3.11767 -0.227989 0
M  V30 1361 H 136.265 2.87085 -2.7014 0
M  V30 1362 H 137.553 4.01011 -3.13157 0
M  V30 1363 H 136.951 5.64275 -0.401298 0
M  V30 1364 H 135.508 6.463 -0.844942 0
M  V30 1365 N 138.941 1.26152 0.944643 0
M  V30 1366 C 140.166 1.14363 1.7302 0
M  V30 1367 C 140.591 -0.29772 1.85729 0
M  V30 1368 O 139.949 -1.2157 1.34501 0
M  V30 1369 C 139.997 1.81378 3.11664 0
M  V30 1370 O 139.101 1.10022 3.97453 0
M  V30 1371 H 138.442 0.398694 0.53098 0
M  V30 1372 H 140.972 1.66906 1.18337 0
M  V30 1373 H 140.982 1.88064 3.62072 0
M  V30 1374 H 139.657 2.86237 3.0173 0
M  V30 1375 H 138.234 1.11287 3.55907 0
M  V30 1376 N 140.419 -1.14872 1.07899 0
M  V30 1377 C 141.367 -2.21857 0.698727 0
M  V30 1378 C 142.361 -1.66845 -0.293086 0
M  V30 1379 O 143.567 -1.79321 -0.156204 0
M  V30 1380 H 139.942 -0.722691 0.207899 0
M  V30 1381 H 141.913 -2.51205 1.61054 0
M  V30 1382 C 140.662 -3.47498 0.11858 0
M  V30 1383 H 139.985 -3.90154 0.872914 0
M  V30 1384 H 141.425 -4.23858 -0.109759 0
M  V30 1385 C 139.884 -3.16947 -1.1422 0
M  V30 1386 O 140.414 -3.3426 -2.22785 0
M  V30 1387 N 138.62 -2.70946 -1.05055 0
M  V30 1388 H 138.167 -2.57058 -0.167038 0
M  V30 1389 H 138.125 -2.50879 -1.89491 0
M  V30 1390 N 141.898 -0.863906 -1.31812 0
M  V30 1391 C 142.848 -0.286898 -2.26188 0
M  V30 1392 C 143.832 0.572577 -1.50367 0
M  V30 1393 O 145.024 0.420447 -1.71934 0
M  V30 1394 C 142.153 0.515849 -3.39402 0
M  V30 1395 C 141.239 -0.356531 -4.22599 0
M  V30 1396 N 141.63 -1.44716 -4.84656 0
M  V30 1397 C 139.928 -0.147898 -4.45755 0
M  V30 1398 C 140.629 -1.98462 -5.46798 0
M  V30 1399 N 139.605 -1.28247 -5.28255 0
M  V30 1400 H 143.407 -1.12055 -2.717 0
M  V30 1401 H 140.921 -0.711012 -1.46008 0
M  V30 1402 H 142.918 0.945701 -4.06032 0
M  V30 1403 H 141.578 1.34718 -2.95434 0
M  V30 1404 H 142.589 -1.83008 -4.84488 0
M  V30 1405 H 139.266 0.647973 -4.12441 0
M  V30 1406 H 140.656 -2.89932 -6.06126 0
M  V30 1407 N 143.376 1.44774 -0.622745 0
M  V30 1408 C 144.604 2.06487 -0.130722 0
M  V30 1409 C 145.019 1.46476 1.19123 0
M  V30 1410 O 144.376 0.584502 1.72887 0
M  V30 1411 C 144.427 3.615 -0.000807207 0
M  V30 1412 O 144.148 4.19274 -1.27048 0
M  V30 1413 C 145.649 4.40229 0.520898 0
M  V30 1414 H 142.869 0.666704 -0.0758106 0
M  V30 1415 H 145.413 1.85779 -0.854774 0
M  V30 1416 H 143.568 3.81498 0.673643 0
M  V30 1417 H 143.982 5.12622 -1.1099 0
M  V30 1418 H 145.456 5.49144 0.560838 0
M  V30 1419 H 145.933 4.1108 1.54627 0
M  V30 1420 H 146.539 4.25131 -0.120018 0
M  V30 1421 N 144.854 0.36279 1.53368 0
M  V30 1422 C 146.079 -0.231226 2.06107 0
M  V30 1423 C 146.504 -1.419 1.23474 0
M  V30 1424 O 145.862 -1.79524 0.253128 0
M  V30 1425 C 145.91 -0.605523 3.5548 0
M  V30 1426 O 145.014 -1.70312 3.7559 0
M  V30 1427 H 144.355 -0.034327 0.663112 0
M  V30 1428 H 146.885 0.522584 1.97814 0
M  V30 1429 H 146.895 -0.877314 3.98456 0
M  V30 1430 H 145.57 0.263004 4.15068 0
M  V30 1431 H 144.147 -1.4271 3.44512 0
M  V30 1432 N 146.332 -1.57332 0.0918853 0
M  V30 1433 C 147.579 -1.94236 -0.572577 0
M  V30 1434 C 147.907 -0.973398 -1.6839 0
M  V30 1435 O 147.162 0.00756912 -1.95699 0
M  V30 1436 C 147.461 -3.37689 -1.17051 0
M  V30 1437 C 147.127 -4.50527 -0.183304 0
M  V30 1438 C 145.789 -4.81119 0.0882276 0
M  V30 1439 C 148.141 -5.18883 0.49095 0
M  V30 1440 C 145.469 -5.77395 1.04076 0
M  V30 1441 C 147.821 -6.1618 1.43193 0
M  V30 1442 C 146.485 -6.45179 1.71173 0
M  V30 1443 H 145.755 -0.710762 -0.209521 0
M  V30 1444 H 148.402 -1.9077 0.167036 0
M  V30 1445 H 146.707 -3.37718 -1.9863 0
M  V30 1446 H 148.404 -3.63543 -1.69227 0
M  V30 1447 H 144.994 -4.26681 -0.405124 0
M  V30 1448 H 149.178 -4.95427 0.294312 0
M  V30 1449 H 144.434 -5.98179 1.26457 0
M  V30 1450 H 148.608 -6.68243 1.96023 0
M  V30 1451 H 146.235 -7.1959 2.4514 0
M  V30 1452 N 147.81 0.181792 -1.56548 0
M  V30 1453 C 149.057 0.900097 -1.81396 0
M  V30 1454 C 149.385 1.82695 -0.667281 0
M  V30 1455 O 148.64 1.92614 0.346146 0
M  V30 1456 C 148.939 1.73728 -3.12335 0
M  V30 1457 C 148.605 0.960255 -4.40556 0
M  V30 1458 C 147.267 0.745766 -4.75386 0
M  V30 1459 C 149.619 0.414477 -5.19549 0
M  V30 1460 C 146.947 -0.0257694 -5.86694 0
M  V30 1461 C 149.299 -0.343916 -6.31664 0
M  V30 1462 C 147.963 -0.569301 -6.65068 0
M  V30 1463 H 147.233 0.329369 -0.663775 0
M  V30 1464 H 149.88 0.165647 -1.90782 0
M  V30 1465 H 148.185 2.54081 -2.98245 0
M  V30 1466 H 149.882 2.29591 -3.28769 0
M  V30 1467 H 146.472 1.13746 -4.13231 0
M  V30 1468 H 150.656 0.567554 -4.93044 0
M  V30 1469 H 145.912 -0.210233 -6.11038 0
M  V30 1470 H 150.086 -0.774133 -6.92084 0
M  V30 1471 H 147.713 -1.16903 -7.51158 0
M  V30 1472 N 149.288 1.51039 0.449983 0
M  V30 1473 C 150.704 1.38934 0.785462 0
M  V30 1474 C 150.904 0.461817 1.96136 0
M  V30 1475 O 149.96 -0.0877389 2.52348 0
M  V30 1476 C 151.273 2.80724 1.0777 0
M  V30 1477 C 152.821 2.89787 1.1829 0
M  V30 1478 C 153.296 4.32457 1.50815 0
M  V30 1479 N 154.787 4.35505 1.57764 0
M  V30 1480 C 155.522 5.42914 1.84477 0
M  V30 1481 N 155.018 6.60502 2.09068 0
M  V30 1482 N 156.811 5.3038 1.86155 0
M  V30 1483 H 148.962 2.09904 -0.324647 0
M  V30 1484 H 151.225 0.944378 -0.0827957 0
M  V30 1485 H 150.931 3.50531 0.286498 0
M  V30 1486 H 150.805 3.19273 2.00859 0
M  V30 1487 H 153.192 2.20186 1.96474 0
M  V30 1488 H 153.273 2.54752 0.231314 0
M  V30 1489 H 152.917 5.02603 0.731622 0
M  V30 1490 H 152.847 4.64995 2.47158 0
M  V30 1491 H 155.338 3.50724 1.40715 0
M  V30 1492 H 155.651 7.38158 2.28785 0
M  V30 1493 H 153.996 6.63639 2.06416 0
M  V30 1494 H 157.187 4.37505 1.66454 0
M  V30 1495 H 157.36 6.1417 2.06637 0
M  V30 1496 N 150.766 -0.704594 1.40972 0
M  V30 1497 C 152.177 -1.28418 1.3552 0
M  V30 1498 C 152.528 -1.96171 0.0339434 0
M  V30 1499 O 151.653 -1.98231 -0.867944 0
M  V30 1500 C 152.248 -2.33528 2.45459 0
M  V30 1501 C 150.807 -2.87085 2.43433 0
M  V30 1502 C 149.954 -1.61007 2.2577 0
M  V30 1503 H 152.905 -0.499963 1.50619 0
M  V30 1504 H 152.926 -3.14619 2.13998 0
M  V30 1505 H 152.438 -1.84187 3.41609 0
M  V30 1506 H 150.539 -3.40626 1.51013 0
M  V30 1507 H 150.652 -3.3813 3.39419 0
M  V30 1508 H 149.016 -1.86482 1.73483 0
M  V30 1509 H 149.799 -1.13675 3.23933 0
M  V30 1510 N 152.244 -1.26651 -0.937939 0
M  V30 1511 C 153.49 -1.12553 -1.687 0
M  V30 1512 C 153.823 0.329782 -1.91379 0
M  V30 1513 O 153.098 1.24202 -1.4968 0
M  V30 1514 C 153.381 -1.89862 -3.05981 0
M  V30 1515 C 153.234 -3.43318 -2.90607 0
M  V30 1516 C 154.553 -1.69499 -4.0615 0
M  V30 1517 H 151.672 -0.410257 -0.612257 0
M  V30 1518 H 154.314 -1.55685 -1.08913 0
M  V30 1519 H 152.464 -1.53204 -3.57017 0
M  V30 1520 H 154.136 -3.89747 -2.46769 0
M  V30 1521 H 152.379 -3.70179 -2.26164 0
M  V30 1522 H 153.05 -3.92642 -3.8799 0
M  V30 1523 H 155.526 -2.01442 -3.64088 0
M  V30 1524 H 154.402 -2.26002 -5.00214 0
M  V30 1525 H 154.663 -0.640365 -4.37438 0
M  V30 1526 N 153.722 1.14298 -1.08507 0
M  V30 1527 C 154.669 2.19414 -0.715965 0
M  V30 1528 C 155.639 1.63399 0.298326 0
M  V30 1529 O 156.824 1.89929 0.182101 0
M  V30 1530 C 153.964 3.44845 -0.132534 0
M  V30 1531 C 153.077 4.15007 -1.19973 0
M  V30 1532 C 152.212 5.28024 -0.580048 0
M  V30 1533 C 151.251 5.9002 -1.62921 0
M  V30 1534 N 150.388 6.94485 -1.03125 0
M  V30 1535 H 155.228 2.50336 -1.61666 0
M  V30 1536 H 152.765 1.2293 -0.807882 0
M  V30 1537 H 154.723 4.16601 0.223454 0
M  V30 1538 H 153.353 3.14403 0.731467 0
M  V30 1539 H 152.405 3.41629 -1.67313 0
M  V30 1540 H 153.717 4.57178 -1.99473 0
M  V30 1541 H 152.871 6.06455 -0.172364 0
M  V30 1542 H 151.61 4.87076 0.246603 0
M  V30 1543 H 150.615 5.10291 -2.04654 0
M  V30 1544 H 151.84 6.33042 -2.45835 0
M  V30 1545 H 149.786 6.55612 -0.225711 0
M  V30 1546 H 149.703 7.35148 -1.76334 0
M  V30 1547 H 150.971 7.7679 -0.649458 0
M  V30 1548 N 155.201 0.870884 1.31352 0
M  V30 1549 C 156.111 0.330783 2.32256 0
M  V30 1550 C 157.127 -0.559767 1.6475 0
M  V30 1551 O 158.303 -0.456263 1.96164 0
M  V30 1552 C 155.368 -0.458137 3.4366 0
M  V30 1553 C 154.429 0.460482 4.26823 0
M  V30 1554 C 153.662 -0.290881 5.32907 0
M  V30 1555 O 153.885 -1.51885 5.49806 0
M  V30 1556 O 152.819 0.351732 6.00871 0
M  V30 1557 H 156.645 1.16718 2.80376 0
M  V30 1558 H 154.23 0.634285 1.35267 0
M  V30 1559 H 156.112 -0.905343 4.1156 0
M  V30 1560 H 154.787 -1.27106 2.97701 0
M  V30 1561 H 153.694 0.956207 3.61673 0
M  V30 1562 H 155.027 1.23903 4.7635 0
M  V30 1563 N 156.679 -1.44442 0.630414 0
M  V30 1564 C 157.927 -2.01653 0.134351 0
M  V30 1565 C 158.248 -1.49836 -1.24796 0
M  V30 1566 O 157.518 -0.701684 -1.82902 0
M  V30 1567 H 156.098 -0.74554 0.0466769 0
M  V30 1568 H 158.76 -1.76952 0.816955 0
M  V30 1569 H 157.856 -3.11935 0.101498 0
M  V30 1570 N 158.157 -0.370918 -1.53173 0
M  V30 1571 C 159.107 0.489588 -2.22681 0
M  V30 1572 C 160.091 1.04442 -1.22395 0
M  V30 1573 O 161.283 0.973578 -1.47819 0
M  V30 1574 C 158.412 1.626 -3.02351 0
M  V30 1575 C 157.498 1.08379 -4.10018 0
M  V30 1576 N 157.889 0.265004 -5.05105 0
M  V30 1577 C 156.187 1.35809 -4.2482 0
M  V30 1578 C 156.888 -0.0324755 -5.81691 0
M  V30 1579 N 155.864 0.566581 -5.40639 0
M  V30 1580 H 159.666 -0.142729 -2.93553 0
M  V30 1581 H 157.18 -0.179221 -1.61408 0
M  V30 1582 H 159.177 2.2547 -3.50669 0
M  V30 1583 H 157.837 2.26132 -2.33011 0
M  V30 1584 H 158.848 -0.0962352 -5.17811 0
M  V30 1585 H 155.525 1.9958 -3.66707 0
M  V30 1586 H 156.915 -0.69473 -6.68299 0
M  V30 1587 N 159.635 1.57281 -0.100228 0
M  V30 1588 C 160.881 1.94826 0.563101 0
M  V30 1589 C 161.214 0.982475 1.67514 0
M  V30 1590 O 160.489 0.0164069 1.94493 0
M  V30 1591 C 160.772 3.42453 1.11346 0
M  V30 1592 C 160.625 4.498 0.00612081 0
M  V30 1593 C 161.944 3.91506 2.01024 0
M  V30 1594 H 159.063 0.708428 0.203221 0
M  V30 1595 H 161.705 1.8922 -0.171979 0
M  V30 1596 H 159.855 3.47361 1.7399 0
M  V30 1597 H 161.527 4.57 -0.628357 0
M  V30 1598 H 159.77 4.28756 -0.659581 0
M  V30 1599 H 160.441 5.50306 0.432109 0
M  V30 1600 H 162.917 3.88784 1.48278 0
M  V30 1601 H 161.793 4.95358 2.36457 0
M  V30 1602 H 162.054 3.31099 2.92961 0
M  V30 1603 N 161.113 -0.173488 1.56642 0
M  V30 1604 C 162.529 -0.525174 1.50712 0
M  V30 1605 C 162.729 -1.8476 0.804107 0
M  V30 1606 O 161.785 -2.49869 0.363574 0
M  V30 1607 C 163.098 -0.559937 2.95441 0
M  V30 1608 C 164.646 -0.647288 3.06234 0
M  V30 1609 C 165.121 -0.712963 4.52417 0
M  V30 1610 N 166.612 -0.775911 4.56655 0
M  V30 1611 C 167.347 -0.847264 5.67106 0
M  V30 1612 N 166.843 -0.879585 6.87194 0
M  V30 1613 N 168.636 -0.886117 5.55071 0
M  V30 1614 H 160.787 0.693681 2.00753 0
M  V30 1615 H 163.05 0.249841 0.914485 0
M  V30 1616 H 162.756 0.343049 3.50023 0
M  V30 1617 H 162.63 -1.40718 3.49969 0
M  V30 1618 H 165.017 -1.5407 2.51687 0
M  V30 1619 H 165.098 0.226586 2.54794 0
M  V30 1620 H 164.742 0.176183 5.07594 0
M  V30 1621 H 164.672 -1.60295 5.0161 0
M  V30 1622 H 167.163 -0.759304 3.70193 0
M  V30 1623 H 167.476 -0.935144 7.67121 0
M  V30 1624 H 165.821 -0.847898 6.89808 0
M  V30 1625 H 169.012 -0.857853 4.60172 0
M  V30 1626 H 169.185 -0.938263 6.41171 0
M  V30 1627 N 162.591 -1.51276 -0.441967 0
M  V30 1628 C 163.554 -1.7167 -1.51862 0
M  V30 1629 C 164.554 -0.586793 -1.49711 0
M  V30 1630 O 165.744 -0.854276 -1.51815 0
M  V30 1631 C 162.876 -1.76889 -2.91416 0
M  V30 1632 H 164.069 -2.67754 -1.35084 0
M  V30 1633 H 161.622 -1.41196 -0.670333 0
M  V30 1634 H 162.357 -0.826026 -3.13604 0
M  V30 1635 H 162.142 -2.59001 -2.94382 0
M  V30 1636 H 163.632 -1.94522 -3.69528 0
M  V30 1637 N 164.069 0.697108 -1.41344 0
M  V30 1638 C 164.979 1.84088 -1.45427 0
M  V30 1639 C 165.995 1.70545 -0.34501 0
M  V30 1640 O 167.171 1.92488 -0.592492 0
M  V30 1641 C 164.236 3.20056 -1.33286 0
M  V30 1642 C 163.297 3.45718 -2.54514 0
M  V30 1643 C 162.53 4.75199 -2.42944 0
M  V30 1644 O 162.753 5.51579 -1.45318 0
M  V30 1645 O 161.687 5.0161 -3.32672 0
M  V30 1646 H 165.513 1.836 -2.41919 0
M  V30 1647 H 163.098 0.849966 -1.22866 0
M  V30 1648 H 164.98 4.01236 -1.28794 0
M  V30 1649 H 163.655 3.2123 -0.39909 0
M  V30 1650 H 162.562 2.64474 -2.64583 0
M  V30 1651 H 163.895 3.49356 -3.46715 0
M  V30 1652 N 165.547 1.27147 0.931209 0
M  V30 1653 C 166.51 1.09615 2.01289 0
M  V30 1654 C 167.51 0.0412581 1.60747 0
M  V30 1655 O 168.7 0.285545 1.71844 0
M  V30 1656 C 165.832 0.669447 3.34262 0
M  V30 1657 H 167.025 2.05662 2.18273 0
M  V30 1658 H 164.578 1.09885 1.11153 0
M  V30 1659 H 165.313 -0.292572 3.22978 0
M  V30 1660 H 165.098 1.43127 3.65044 0
M  V30 1661 H 166.588 0.568921 4.13706 0
M  V30 1662 N 167.025 -1.13721 1.09112 0
M  V30 1663 C 168.271 -1.85198 0.826414 0
M  V30 1664 C 168.604 -1.83129 -0.646319 0
M  V30 1665 O 167.879 -1.2671 -1.47563 0
M  V30 1666 C 168.162 -3.33507 1.35812 0
M  V30 1667 C 168.015 -3.44108 2.89672 0
M  V30 1668 C 169.334 -4.28838 0.989256 0
M  V30 1669 H 166.453 -0.67243 0.301675 0
M  V30 1670 H 169.095 -1.33499 1.35197 0
M  V30 1671 H 167.245 -3.77666 0.911082 0
M  V30 1672 H 168.917 -3.08684 3.428 0
M  V30 1673 H 167.16 -2.85087 3.26967 0
M  V30 1674 H 167.831 -4.48388 3.21951 0
M  V30 1675 H 170.307 -3.92734 1.37475 0
M  V30 1676 H 169.183 -5.31051 1.38838 0
M  V30 1677 H 169.444 -4.4198 -0.102924 0
M  V30 1678 N 168.503 -0.877838 -1.30888 0
M  V30 1679 C 169.919 -0.570844 -1.49042 0
M  V30 1680 C 170.119 0.893159 -1.80624 0
M  V30 1681 O 169.175 1.67485 -1.88958 0
M  V30 1682 C 170.488 -1.47784 -2.61878 0
M  V30 1683 C 172.036 -1.48071 -2.75761 0
M  V30 1684 C 172.511 -2.37347 -3.91702 0
M  V30 1685 N 174.002 -2.35271 -3.99001 0
M  V30 1686 C 174.737 -3.01063 -4.88004 0
M  V30 1687 N 174.233 -3.76055 -5.81854 0
M  V30 1688 N 176.026 -2.90332 -4.81315 0
M  V30 1689 H 168.177 -1.82502 -1.0866 0
M  V30 1690 H 170.44 -0.780797 -0.537644 0
M  V30 1691 H 170.146 -2.51993 -2.45341 0
M  V30 1692 H 170.02 -1.18215 -3.58197 0
M  V30 1693 H 172.407 -0.446166 -2.91708 0
M  V30 1694 H 172.488 -1.81668 -1.80085 0
M  V30 1695 H 172.132 -3.40883 -3.76512 0
M  V30 1696 H 172.062 -2.01071 -4.86701 0
M  V30 1697 H 174.553 -1.80768 -3.3186 0
M  V30 1698 H 174.866 -4.23366 -6.46514 0
M  V30 1699 H 173.211 -3.80163 -5.81808 0
M  V30 1700 H 176.402 -2.31278 -4.06974 0
M  V30 1701 H 176.575 -3.41885 -5.50471 0
M  V30 1702 N 169.982 1.44106 -0.638065 0
M  V30 1703 C 171.231 2.01194 -0.142744 0
M  V30 1704 C 171.544 1.50835 1.24532 0
M  V30 1705 O 172.75 2.00096 1.83504 0
M  V30 1706 C 171.206 3.59319 -0.20442 0
M  V30 1707 C 170.814 4.18674 -1.59423 0
M  V30 1708 C 172.558 4.23854 0.234079 0
M  V30 1709 C 170.465 5.69045 -1.61065 0
M  V30 1710 H 169.395 0.752367 -0.0495998 0
M  V30 1711 H 172.046 1.65246 -0.797881 0
M  V30 1712 H 170.428 3.92598 0.517946 0
M  V30 1713 H 171.602 3.96921 -2.34074 0
M  V30 1714 H 169.917 3.66453 -1.97741 0
M  V30 1715 H 172.514 5.34155 0.241443 0
M  V30 1716 H 172.857 3.96688 1.2627 0
M  V30 1717 H 173.39 3.95403 -0.436025 0
M  V30 1718 H 170.129 6.00956 -2.61787 0
M  V30 1719 H 169.649 5.929 -0.90718 0
M  V30 1720 H 171.328 6.32809 -1.34766 0
M  V30 1721 N 171.46 0.379036 1.52974 0
M  V30 1722 C 172.41 -0.477772 2.22938 0
M  V30 1723 C 173.394 -1.03792 1.22948 0
M  V30 1724 O 174.586 -0.965725 1.48333 0
M  V30 1725 C 171.715 -1.60994 3.03209 0
M  V30 1726 C 170.801 -1.06203 4.10587 0
M  V30 1727 N 171.192 -0.238214 5.05239 0
M  V30 1728 C 169.49 -1.33554 4.25534 0
M  V30 1729 C 170.191 0.0633235 5.81666 0
M  V30 1730 N 169.167 -0.537901 5.40932 0
M  V30 1731 H 172.969 0.158295 2.93473 0
M  V30 1732 H 170.483 0.187778 1.61311 0
M  V30 1733 H 172.48 -2.23607 3.5186 0
M  V30 1734 H 171.14 -2.24893 2.34207 0
M  V30 1735 H 172.151 0.123695 5.17752 0
M  V30 1736 H 168.828 -1.97632 3.6776 0
M  V30 1737 H 170.218 0.730161 6.67921 0
M  V30 1738 N 172.938 -1.57226 0.108567 0
M  V30 1739 C 173.901 -2.13602 -0.831082 0
M  V30 1740 C 174.901 -1.06841 -1.20173 0
M  V30 1741 O 176.091 -1.32666 -1.12895 0
M  V30 1742 C 173.223 -2.66769 -2.12243 0
M  V30 1743 H 174.416 -2.97951 -0.341317 0
M  V30 1744 H 171.969 -1.55667 -0.14057 0
M  V30 1745 H 172.704 -1.85977 -2.65675 0
M  V30 1746 H 172.489 -3.44839 -1.86625 0
M  V30 1747 H 173.979 -3.10332 -2.79435 0
M  V30 1748 N 174.416 0.165178 -1.56732 0
M  V30 1749 C 175.664 0.879068 -1.8198 0
M  V30 1750 C 175.985 1.82514 -0.686561 0
M  V30 1751 O 175.255 1.93694 0.293146 0
M  V30 1752 H 173.835 0.327608 -0.671329 0
M  V30 1753 H 176.497 0.163526 -1.94213 0
M  V30 1754 H 175.593 1.45228 -2.76252 0
M  V30 1755 N 175.894 1.51508 0.433938 0
M  V30 1756 C 177.119 1.68443 1.21003 0
M  V30 1757 C 177.544 0.382636 1.84167 0
M  V30 1758 O 176.902 -0.65755 1.68956 0
M  V30 1759 C 176.95 2.80405 2.26727 0
M  V30 1760 O 176.054 2.44245 3.32292 0
M  V30 1761 H 175.395 0.561536 0.354363 0
M  V30 1762 H 177.925 1.9809 0.512024 0
M  V30 1763 H 177.935 3.0459 2.71457 0
M  V30 1764 H 176.61 3.74867 1.80132 0
M  V30 1765 H 175.187 2.30644 2.93015 0
M  V30 1766 N 177.372 -0.689602 1.41712 0
M  V30 1767 C 178.6 -1.47827 1.44758 0
M  V30 1768 C 179.015 -1.88721 0.0545703 0
M  V30 1769 O 178.372 -1.57176 -0.927463 0
M  V30 1770 C 178.423 -2.73698 2.3616 0
M  V30 1771 O 178.144 -2.34524 3.7004 0
M  V30 1772 C 179.645 -3.67389 2.48072 0
M  V30 1773 H 176.865 -0.455357 0.49284 0
M  V30 1774 H 179.409 -0.848574 1.86063 0
M  V30 1775 H 177.564 -3.32891 1.98148 0
M  V30 1776 H 177.978 -3.15701 4.18847 0
M  V30 1777 H 179.452 -4.52475 3.16181 0
M  V30 1778 H 179.929 -4.12284 1.51388 0
M  V30 1779 H 180.535 -3.14097 2.86746 0
M  V30 1780 N 178.85 -1.27639 -0.924453 0
M  V30 1781 C 180.078 -1.16989 -1.70649 0
M  V30 1782 C 180.493 0.272869 -1.86818 0
M  V30 1783 O 179.85 1.18549 -1.38753 0
M  V30 1784 C 179.901 -1.85229 -3.10439 0
M  V30 1785 O 179.622 -3.23868 -2.95028 0
M  V30 1786 C 181.123 -1.80746 -4.04779 0
M  V30 1787 H 178.343 -0.406595 -0.53378 0
M  V30 1788 H 180.887 -1.68569 -1.15778 0
M  V30 1789 H 179.042 -1.37545 -3.6216 0
M  V30 1790 H 179.456 -3.57889 -3.83426 0
M  V30 1791 H 180.93 -2.33101 -5.00368 0
M  V30 1792 H 181.407 -0.777499 -4.32263 0
M  V30 1793 H 182.013 -2.28059 -3.58984 0
M  V30 1794 N 180.328 1.1314 -1.09713 0
M  V30 1795 C 181.574 1.84967 -0.846104 0
M  V30 1796 C 181.929 1.82082 0.621601 0
M  V30 1797 O 181.222 1.2501 1.452 0
M  V30 1798 C 181.416 3.32167 -1.3191 0
M  V30 1799 C 181.245 3.49386 -2.83125 0
M  V30 1800 C 180.015 3.63456 -3.51038 0
M  V30 1801 C 182.213 3.45179 -3.81256 0
M  V30 1802 N 180.195 3.68966 -4.9065 0
M  V30 1803 C 181.566 3.57094 -5.06837 0
M  V30 1804 C 183.621 3.28598 -3.74069 0
M  V30 1805 C 182.324 3.5414 -6.26081 0
M  V30 1806 C 184.35 3.26953 -4.92804 0
M  V30 1807 C 183.712 3.39422 -6.17229 0
M  V30 1808 H 179.811 0.692899 -0.362512 0
M  V30 1809 H 182.395 1.35506 -1.39808 0
M  V30 1810 H 180.566 3.80186 -0.794535 0
M  V30 1811 H 182.298 3.91815 -1.01308 0
M  V30 1812 H 179.053 3.65256 -3.01471 0
M  V30 1813 H 179.477 3.75404 -5.63383 0
M  V30 1814 H 184.119 3.17858 -2.78794 0
M  V30 1815 H 181.837 3.63653 -7.21653 0
M  V30 1816 H 185.423 3.15316 -4.88945 0
M  V30 1817 H 184.303 3.38114 -7.07565 0
M  V30 1818 N 181.806 0.884767 1.30421 0
M  V30 1819 C 183.053 0.503105 1.96151 0
M  V30 1820 C 183.381 -0.947676 1.69851 0
M  V30 1821 O 182.636 -1.68467 0.995861 0
M  V30 1822 C 182.935 0.724318 3.49983 0
M  V30 1823 C 182.601 2.15015 3.96332 0
M  V30 1824 C 181.263 2.54005 4.08699 0
M  V30 1825 C 183.615 3.07936 4.20505 0
M  V30 1826 C 180.943 3.85128 4.42599 0
M  V30 1827 C 183.295 4.3859 4.55874 0
M  V30 1828 C 181.959 4.77474 4.66449 0
M  V30 1829 H 181.229 0.184099 0.717766 0
M  V30 1830 H 183.876 1.12058 1.55291 0
M  V30 1831 H 182.181 0.0238086 3.91793 0
M  V30 1832 H 183.878 0.408617 3.98913 0
M  V30 1833 H 180.468 1.8375 3.87213 0
M  V30 1834 H 184.652 2.79033 4.10431 0
M  V30 1835 H 179.908 4.14996 4.48986 0
M  V30 1836 H 184.082 5.10629 4.7353 0
M  V30 1837 H 181.709 5.79115 4.92473 0
M  V30 1838 N 183.284 -1.43765 0.645699 0
M  V30 1839 C 184.53 -2.02731 0.164844 0
M  V30 1840 C 184.885 -1.49983 -1.2051 0
M  V30 1841 O 184.178 -0.680208 -1.79119 0
M  V30 1842 C 184.372 -3.57238 0.107679 0
M  V30 1843 C 184.201 -4.24977 1.47054 0
M  V30 1844 C 182.971 -4.61356 2.06103 0
M  V30 1845 C 185.169 -4.54476 2.40741 0
M  V30 1846 N 183.151 -5.14132 3.35473 0
M  V30 1847 C 184.522 -5.08489 3.54737 0
M  V30 1848 C 186.577 -4.36438 2.39637 0
M  V30 1849 C 185.28 -5.46364 4.67845 0
M  V30 1850 C 187.306 -4.7537 3.5182 0
M  V30 1851 C 186.668 -5.2951 4.64541 0
M  V30 1852 H 182.767 -0.774976 0.104578 0
M  V30 1853 H 185.351 -1.75051 0.852367 0
M  V30 1854 H 183.522 -3.84498 -0.549165 0
M  V30 1855 H 185.254 -4.0288 -0.383351 0
M  V30 1856 H 182.009 -4.46151 1.58892 0
M  V30 1857 H 182.433 -5.4498 4.01654 0
M  V30 1858 H 187.075 -3.93861 1.53731 0
M  V30 1859 H 184.793 -5.87888 5.54448 0
M  V30 1860 H 188.379 -4.63115 3.52159 0
M  V30 1861 H 187.259 -5.59077 5.49911 0
M  V30 1862 N 184.763 -0.387143 -1.52771 0
M  V30 1863 C 186.04 0.253197 -1.93954 0
M  V30 1864 C 186.42 1.64545 -1.32243 0
M  V30 1865 O 185.768 2.23191 -0.489699 0
M  V30 1866 C 185.978 0.281722 -3.47861 0
M  V30 1867 C 187.326 0.511715 -4.21505 0
M  V30 1868 O 188.35 0.362023 -3.54356 0
M  V30 1869 O 187.209 0.804847 -5.40541 0
M  V30 1870 H 184.303 0.156845 -0.811991 0
M  V30 1871 H 186.849 -0.441494 -1.63856 0
M  V30 1872 H 185.621 -0.693571 -3.85104 0
M  V30 1873 H 185.244 1.02142 -3.84256 0
M  V30 1874 N 186.241 1.57166 -0.116904 0
M  V30 1875 C 187.487 1.95412 0.542405 0
M  V30 1876 C 187.82 1.00019 1.66463 0
M  V30 1877 O 187.095 0.0370346 1.94465 0
M  V30 1878 C 187.378 3.43615 1.07708 0
M  V30 1879 C 187.231 4.49781 -0.0415868 0
M  V30 1880 C 188.55 3.93616 1.96861 0
M  V30 1881 H 185.669 0.710543 0.195696 0
M  V30 1882 H 188.311 1.89027 -0.192038 0
M  V30 1883 H 186.461 3.49187 1.70296 0
M  V30 1884 H 188.133 4.56308 -0.676793 0
M  V30 1885 H 186.376 4.28033 -0.705019 0
M  V30 1886 H 187.047 5.50733 0.373717 0
M  V30 1887 H 189.523 3.90335 1.44146 0
M  V30 1888 H 188.399 4.97838 2.3119 0
M  V30 1889 H 188.66 3.34188 2.89432 0
M  V30 1890 N 187.719 -0.156864 1.56817 0
M  V30 1891 C 188.944 -0.890331 1.87318 0
M  V30 1892 C 189.369 -1.74394 0.704855 0
M  V30 1893 O 188.727 -1.77972 -0.345786 0
M  V30 1894 C 188.775 -1.73102 3.16336 0
M  V30 1895 O 187.879 -2.83422 2.99576 0
M  V30 1896 H 187.22 -0.24857 0.615718 0
M  V30 1897 H 189.75 -0.150649 2.04045 0
M  V30 1898 H 189.76 -2.12803 3.48107 0
M  V30 1899 H 188.435 -1.10412 4.00976 0
M  V30 1900 H 187.012 -2.47199 2.7919 0
M  V30 1901 N 189.197 -1.51736 -0.425897 0
M  V30 1902 C 190.127 -1.76827 -1.52494 0
M  V30 1903 C 191.108 -0.618524 -1.58456 0
M  V30 1904 O 192.293 -0.862416 -1.74 0
M  V30 1905 C 189.423 -1.90374 -2.90474 0
M  V30 1906 C 188.377 -3.0588 -2.99369 0
M  V30 1907 C 187.703 -3.04625 -4.3944 0
M  V30 1908 C 189.003 -4.45644 -2.72394 0
M  V30 1909 H 190.697 -2.68855 -1.31748 0
M  V30 1910 H 188.243 -1.29372 -0.632362 0
M  V30 1911 H 190.196 -2.0651 -3.6733 0
M  V30 1912 H 188.92 -0.95004 -3.12477 0
M  V30 1913 H 187.579 -2.89467 -2.24954 0
M  V30 1914 H 187.227 -2.0701 -4.58428 0
M  V30 1915 H 186.927 -3.82195 -4.46319 0
M  V30 1916 H 188.451 -3.22869 -5.18255 0
M  V30 1917 H 189.865 -4.62348 -3.38979 0
M  V30 1918 H 188.262 -5.25006 -2.9067 0
M  V30 1919 H 189.332 -4.54893 -1.67929 0
M  V30 1920 N 190.675 0.682077 -1.42076 0
M  V30 1921 C 192.091 0.994324 -1.24841 0
M  V30 1922 C 192.291 2.0096 -0.147389 0
M  V30 1923 O 191.347 2.47822 0.483782 0
M  V30 1924 C 192.66 1.50607 -2.60265 0
M  V30 1925 C 194.208 1.62421 -2.6756 0
M  V30 1926 C 194.683 2.16994 -4.03333 0
M  V30 1927 N 196.174 2.24337 -4.0525 0
M  V30 1928 C 196.909 2.67621 -5.07116 0
M  V30 1929 N 196.405 3.1041 -6.19368 0
M  V30 1930 N 198.198 2.67305 -4.94474 0
M  V30 1931 H 190.349 0.00973908 -2.12398 0
M  V30 1932 H 192.612 0.0668593 -0.945639 0
M  V30 1933 H 192.318 0.834583 -3.41654 0
M  V30 1934 H 192.192 2.48602 -2.83684 0
M  V30 1935 H 194.579 2.28678 -1.86521 0
M  V30 1936 H 194.66 0.629352 -2.47937 0
M  V30 1937 H 194.304 1.51349 -4.84826 0
M  V30 1938 H 194.234 3.17258 -4.20304 0
M  V30 1939 H 196.725 1.94158 -3.24209 0
M  V30 1940 H 197.038 3.42103 -6.92954 0
M  V30 1941 H 195.383 3.08286 -6.22884 0
M  V30 1942 H 198.574 2.33233 -4.05857 0
M  V30 1943 H 198.747 3.00718 -5.73997 0
M  V30 1944 N 192.153 1.28127 0.917671 0
M  V30 1945 C 193.43 1.05761 1.64542 0
M  V30 1946 C 193.81 -0.404344 2.07191 0
M  V30 1947 O 193.158 -1.38963 1.81388 0
M  V30 1948 C 193.368 2.02857 2.83989 0
M  V30 1949 C 194.716 2.32786 3.551 0
M  V30 1950 O 195.74 2.0091 2.94132 0
M  V30 1951 O 194.599 2.87169 4.64969 0
M  V30 1952 H 191.693 0.403916 0.721652 0
M  V30 1953 H 194.239 1.39431 0.967322 0
M  V30 1954 H 193.011 3.01407 2.49538 0
M  V30 1955 H 192.634 1.69809 3.59514 0
M  V30 1956 N 193.631 -1.12557 1.10312 0
M  V30 1957 C 194.908 -1.80363 0.756878 0
M  V30 1958 C 195.288 -1.97067 -0.756824 0
M  V30 1959 O 194.636 -1.54601 -1.68259 0
M  V30 1960 C 194.846 -3.14812 1.50647 0
M  V30 1961 C 196.194 -3.90029 1.67817 0
M  V30 1962 O 197.218 -3.24464 1.46974 0
M  V30 1963 O 196.077 -5.07652 2.02365 0
M  V30 1964 H 193.171 -0.780667 0.272926 0
M  V30 1965 H 195.717 -1.19404 1.20586 0
M  V30 1966 H 194.489 -2.97936 2.53672 0
M  V30 1967 H 194.112 -3.83478 1.05026 0
M  V30 1968 N 195.109 -0.891671 -1.2995 0
M  V30 1969 C 196.072 -0.36828 -2.26222 0
M  V30 1970 C 197.072 0.493014 -1.53056 0
M  V30 1971 O 198.262 0.299213 -1.71611 0
M  V30 1972 C 195.394 0.47442 -3.37583 0
M  V30 1973 H 196.587 -1.21844 -2.74033 0
M  V30 1974 H 194.14 -0.669107 -1.41254 0
M  V30 1975 H 194.875 1.34489 -2.95099 0
M  V30 1976 H 194.66 -0.142615 -3.91841 0
M  V30 1977 H 196.15 0.83218 -4.09224 0
M  V30 1978 N 196.587 1.43421 -0.653314 0
M  V30 1979 C 197.835 2.01414 -0.166415 0
M  V30 1980 C 198.156 1.51803 1.22397 0
M  V30 1981 O 197.426 0.730693 1.81763 0
M  V30 1982 H 196.006 0.744703 -0.0585319 0
M  V30 1983 H 198.668 1.75629 -0.845003 0
M  V30 1984 H 197.764 3.11734 -0.151111 0
M  V30 1985 N 198.065 0.39524 1.52563 0
M  V30 1986 C 199.481 0.0454682 1.59535 0
M  V30 1987 C 199.681 -1.44056 1.4089 0
M  V30 1988 O 198.737 -2.20579 1.22888 0
M  V30 1989 C 200.05 0.527963 2.96029 0
M  V30 1990 C 201.598 0.484733 3.09224 0
M  V30 1991 C 202.073 0.943512 4.48176 0
M  V30 1992 N 203.564 0.899765 4.54377 0
M  V30 1993 C 204.299 1.22609 5.60138 0
M  V30 1994 N 203.795 1.62319 6.73516 0
M  V30 1995 N 205.588 1.14696 5.50274 0
M  V30 1996 H 197.739 1.36261 1.62931 0
M  V30 1997 H 200.002 0.558887 0.765735 0
M  V30 1998 H 199.708 1.56607 3.14908 0
M  V30 1999 H 199.582 -0.0698056 3.77135 0
M  V30 2000 H 201.969 -0.544298 2.90037 0
M  V30 2001 H 202.05 1.11838 2.30056 0
M  V30 2002 H 201.694 1.9708 4.68104 0
M  V30 2003 H 201.624 0.286817 5.25818 0
M  V30 2004 H 204.115 0.607632 3.72983 0
M  V30 2005 H 204.428 1.85567 7.5019 0
M  V30 2006 H 202.773 1.66211 6.74833 0
M  V30 2007 H 205.964 0.835701 4.6058 0
M  V30 2008 H 206.137 1.40459 6.32594 0
M  V30 2009 N 199.544 -1.57102 0.125237 0
M  V30 2010 C 200.474 -2.18659 -0.819174 0
M  V30 2011 C 201.455 -1.12843 -1.27281 0
M  V30 2012 O 202.64 -1.41104 -1.33429 0
M  V30 2013 C 199.77 -2.79096 -2.06695 0
M  V30 2014 C 198.724 -3.90548 -1.75088 0
M  V30 2015 C 198.05 -4.37821 -3.06948 0
M  V30 2016 C 199.35 -5.12356 -1.01435 0
M  V30 2017 H 201.044 -2.9783 -0.306202 0
M  V30 2018 H 198.59 -1.4326 -0.145839 0
M  V30 2019 H 200.543 -3.2082 -2.73226 0
M  V30 2020 H 199.267 -1.97223 -2.60328 0
M  V30 2021 H 197.926 -3.49409 -1.10944 0
M  V30 2022 H 197.574 -3.52799 -3.58527 0
M  V30 2023 H 197.274 -5.12982 -2.86571 0
M  V30 2024 H 198.798 -4.822 -3.74587 0
M  V30 2025 H 200.212 -5.5106 -1.58132 0
M  V30 2026 H 198.609 -5.9314 -0.911319 0
M  V30 2027 H 199.679 -4.849 -0.00218681 0
M  V30 2028 N 201.022 0.148545 -1.56898 0
M  V30 2029 C 202.262 0.86765 -1.85071 0
M  V30 2030 C 202.626 1.78417 -0.709317 0
M  V30 2031 O 203.827 2.54261 -0.872049 0
M  V30 2032 C 202.098 1.62306 -3.1842 0
M  V30 2033 S 203.657 2.3878 -3.68143 0
M  V30 2034 H 200.475 0.290174 -0.649092 0
M  V30 2035 H 203.077 0.127755 -1.95082 0
M  V30 2036 H 201.781 0.941192 -3.99462 0
M  V30 2037 H 201.312 2.4039 -3.1141 0
M  V30 2038 H 203.327 3.63942 -3.37285 0
M  V30 2039 N 202.5 1.5196 0.417844 0
M  V30 2040 C 203.463 1.74065 1.49111 0
M  V30 2041 C 204.463 0.610537 1.48758 0
M  V30 2042 O 205.653 0.87832 1.50437 0
M  V30 2043 C 202.785 1.81502 2.88565 0
M  V30 2044 H 203.978 2.69869 1.30807 0
M  V30 2045 H 201.531 1.42244 0.647785 0
M  V30 2046 H 202.266 0.875813 3.1225 0
M  V30 2047 H 202.051 2.63651 2.90225 0
M  V30 2048 H 203.541 2.00376 3.66387 0
M  V30 2049 N 203.978 -0.674533 1.42435 0
M  V30 2050 C 205.224 -1.43671 1.43131 0
M  V30 2051 C 205.557 -1.94142 0.0476021 0
M  V30 2052 O 204.832 -1.70924 -0.928188 0
M  V30 2053 C 205.115 -2.63355 2.45594 0
M  V30 2054 C 204.968 -2.18514 3.93156 0
M  V30 2055 C 206.287 -3.65571 2.45043 0
M  V30 2056 H 203.406 -0.521077 0.521198 0
M  V30 2057 H 206.048 -0.766551 1.7385 0
M  V30 2058 H 204.198 -3.2053 2.19528 0
M  V30 2059 H 205.87 -1.66504 4.30202 0
M  V30 2060 H 204.113 -1.50086 4.07009 0
M  V30 2061 H 204.784 -3.04484 4.60428 0
M  V30 2062 H 207.26 -3.18113 2.68223 0
M  V30 2063 H 206.136 -4.46893 3.18713 0
M  V30 2064 H 206.397 -4.16716 1.47649 0
M  V30 2065 N 205.456 -1.28612 -0.910864 0
M  V30 2066 C 206.681 -1.1891 -1.69927 0
M  V30 2067 C 207.106 0.248372 -1.86453 0
M  V30 2068 O 206.464 1.17961 -1.37676 0
M  V30 2069 C 206.512 -1.89578 -3.06745 0
M  V30 2070 O 205.616 -1.20521 -3.94396 0
M  V30 2071 H 204.957 -0.412632 -0.520222 0
M  V30 2072 H 207.487 -1.69985 -1.1387 0
M  V30 2073 H 207.497 -1.97597 -3.56958 0
M  V30 2074 H 206.172 -2.94136 -2.94035 0
M  V30 2075 H 204.749 -1.20684 -3.52831 0
M  V30 2076 N 206.934 1.1197 -1.10907 0
M  V30 2077 C 208.159 1.87942 -0.877064 0
M  V30 2078 C 208.584 1.79341 0.567314 0
M  V30 2079 O 207.942 1.15184 1.40009 0
M  V30 2080 C 207.99 3.34926 -1.33629 0
M  V30 2081 O 207.094 4.09303 -0.504447 0
M  V30 2082 H 206.435 0.583785 -0.316371 0
M  V30 2083 H 208.965 1.4157 -1.47712 0
M  V30 2084 H 208.975 3.8577 -1.32837 0
M  V30 2085 H 207.65 3.40504 -2.3881 0
M  V30 2086 H 206.227 3.68393 -0.577993 0
M  V30 2087 N 208.412 0.89855 1.29475 0
M  V30 2088 C 209.345 0.319981 2.25945 0
M  V30 2089 C 210.323 -0.567189 1.52387 0
M  V30 2090 O 211.507 -0.514254 1.8135 0
M  V30 2091 C 208.634 -0.544013 3.34303 0
M  V30 2092 C 207.68 0.275682 4.25608 0
M  V30 2093 S 208.513 1.67272 5.08704 0
M  V30 2094 C 209.669 0.815621 6.20563 0
M  V30 2095 H 209.902 1.13767 2.74671 0
M  V30 2096 H 207.435 0.69882 1.3768 0
M  V30 2097 H 209.393 -1.03673 3.97193 0
M  V30 2098 H 208.054 -1.33593 2.84274 0
M  V30 2099 H 207.247 -0.384263 5.02533 0
M  V30 2100 H 206.849 0.701496 3.67362 0
M  V30 2101 H 209.141 0.0385042 6.77489 0
M  V30 2102 H 210.084 1.55691 6.90772 0
M  V30 2103 H 210.492 0.370516 5.63283 0
M  V30 2104 N 209.89 -1.43072 0.660911 0
M  V30 2105 C 211.115 -2.06584 0.183805 0
M  V30 2106 C 211.54 -1.49257 -1.14472 0
M  V30 2107 O 210.898 -0.605528 -1.70889 0
M  V30 2108 C 210.946 -3.60418 0.114434 0
M  V30 2109 O 210.05 -4.01981 -0.921137 0
M  V30 2110 H 209.391 -0.656669 0.0983994 0
M  V30 2111 H 211.921 -1.83447 0.906006 0
M  V30 2112 H 211.931 -4.07946 -0.0663394 0
M  V30 2113 H 210.606 -4.01519 1.08422 0
M  V30 2114 H 209.183 -3.66029 -0.71253 0
M  V30 2115 N 211.368 -0.403325 -1.52352 0
M  V30 2116 C 212.617 0.175668 -2.00934 0
M  V30 2117 C 212.93 1.46718 -1.29356 0
M  V30 2118 O 214.136 2.12708 -1.68724 0
M  V30 2119 C 212.592 0.363612 -3.58058 0
M  V30 2120 C 212.2 -0.915472 -4.38547 0
M  V30 2121 C 213.944 0.89821 -4.14888 0
M  V30 2122 C 211.851 -0.695035 -5.87302 0
M  V30 2123 H 210.781 0.0694234 -0.750797 0
M  V30 2124 H 213.432 -0.527879 -1.75743 0
M  V30 2125 H 211.814 1.12935 -3.79555 0
M  V30 2126 H 212.988 -1.68691 -4.28812 0
M  V30 2127 H 211.303 -1.37606 -3.93006 0
M  V30 2128 H 213.9 1.07907 -5.23699 0
M  V30 2129 H 214.243 1.87126 -3.71873 0
M  V30 2130 H 214.776 0.191681 -3.97338 0
M  V30 2131 H 211.515 -1.63948 -6.34666 0
M  V30 2132 H 211.035 0.0372116 -5.99788 0
M  V30 2133 H 212.714 -0.33497 -6.46132 0
M  V30 2134 N 212.846 1.57033 -0.133567 0
M  V30 2135 C 213.809 2.14897 0.796995 0
M  V30 2136 C 214.809 1.0874 1.18458 0
M  V30 2137 O 215.999 1.34446 1.1077 0
M  V30 2138 C 213.131 2.70112 2.07973 0
M  V30 2139 H 214.324 2.98457 0.293873 0
M  V30 2140 H 211.877 1.55871 0.115787 0
M  V30 2141 H 212.612 1.9018 2.62682 0
M  V30 2142 H 212.397 3.47764 1.81115 0
M  V30 2143 H 213.887 3.14738 2.74462 0
M  V30 2144 N 214.325 -0.140222 1.56975 0
M  V30 2145 C 215.571 -0.852949 1.83991 0
M  V30 2146 C 215.904 -1.80512 0.716187 0
M  V30 2147 O 215.179 -1.92479 -0.279681 0
M  V30 2148 C 215.462 -1.6215 3.21527 0
M  V30 2149 C 215.315 -0.690363 4.4447 0
M  V30 2150 C 216.634 -2.58247 3.56366 0
M  V30 2151 H 213.753 -0.308634 0.669264 0
M  V30 2152 H 216.395 -0.117898 1.89634 0
M  V30 2153 H 214.545 -2.24812 3.16847 0
M  V30 2154 H 216.217 -0.0742264 4.6124 0
M  V30 2155 H 214.46 -0.000396433 4.338 0
M  V30 2156 H 215.131 -1.2643 5.37326 0
M  V30 2157 H 217.607 -2.05701 3.61699 0
M  V30 2158 H 216.483 -3.09067 4.53617 0
M  V30 2159 H 216.744 -3.39923 2.82674 0
M  V30 2160 N 215.803 -1.52179 -0.40978 0
M  V30 2161 C 217.219 -1.40968 -0.74835 0
M  V30 2162 C 217.419 -0.513657 -1.94843 0
M  V30 2163 O 216.475 0.0208026 -2.52491 0
M  V30 2164 C 217.788 -2.83483 -1.0029 0
M  V30 2165 C 219.336 -2.92821 -1.10565 0
M  V30 2166 C 219.811 -4.36303 -1.39296 0
M  V30 2167 N 221.302 -4.39535 -1.46162 0
M  V30 2168 C 222.037 -5.47614 -1.70018 0
M  V30 2169 N 221.533 -6.65812 -1.91483 0
M  V30 2170 N 223.326 -5.35129 -1.72027 0
M  V30 2171 H 215.477 -2.0897 0.380186 0
M  V30 2172 H 217.74 -0.94185 0.107805 0
M  V30 2173 H 217.446 -3.51168 -0.193461 0
M  V30 2174 H 217.32 -3.24487 -1.92323 0
M  V30 2175 H 219.707 -2.25318 -1.90568 0
M  V30 2176 H 219.788 -2.55276 -0.16369 0
M  V30 2177 H 219.432 -5.04366 -0.598109 0
M  V30 2178 H 219.362 -4.71385 -2.34743 0
M  V30 2179 H 221.853 -3.54332 -1.31367 0
M  V30 2180 H 222.166 -7.43964 -2.09134 0
M  V30 2181 H 220.511 -6.68879 -1.88749 0
M  V30 2182 H 223.702 -4.41764 -1.54796 0
M  V30 2183 H 223.875 -6.19433 -1.9028 0
M  V30 2184 N 217.281 0.66697 -1.42791 0
M  V30 2185 C 218.692 1.2478 -1.38877 0
M  V30 2186 C 219.043 1.96012 -0.0859426 0
M  V30 2187 O 218.168 2.00463 0.815081 0
M  V30 2188 C 218.763 2.26938 -2.51564 0
M  V30 2189 C 217.322 2.80529 -2.50959 0
M  V30 2190 C 216.469 1.54965 -2.29959 0
M  V30 2191 H 219.42 0.459853 -1.51892 0
M  V30 2192 H 219.441 3.08834 -2.22265 0
M  V30 2193 H 218.953 1.75065 -3.46372 0
M  V30 2194 H 217.054 3.36502 -1.59991 0
M  V30 2195 H 217.167 3.29012 -3.48265 0
M  V30 2196 H 215.531 1.81817 -1.78366 0
M  V30 2197 H 216.314 1.05047 -3.26833 0
M  V30 2198 N 218.759 1.29093 0.90403 0
M  V30 2199 C 220.175 1.07011 1.1841 0
M  V30 2200 C 220.375 -0.181358 2.00682 0
M  V30 2201 O 219.431 -0.880331 2.36657 0
M  V30 2202 C 220.744 2.32311 1.90924 0
M  V30 2203 C 222.292 2.37587 2.03768 0
M  V30 2204 C 222.767 3.62679 2.79693 0
M  V30 2205 N 224.258 3.63376 2.87249 0
M  V30 2206 C 224.993 4.56848 3.46522 0
M  V30 2207 N 224.489 5.60648 4.06996 0
M  V30 2208 N 226.282 4.44426 3.44154 0
M  V30 2209 H 218.433 2.09412 0.354993 0
M  V30 2210 H 220.696 0.922181 0.219742 0
M  V30 2211 H 220.402 3.23536 1.37905 0
M  V30 2212 H 220.276 2.39483 2.91424 0
M  V30 2213 H 222.663 1.46853 2.55965 0
M  V30 2214 H 222.744 2.34403 1.02415 0
M  V30 2215 H 222.388 4.53762 2.28173 0
M  V30 2216 H 222.318 3.63119 3.81381 0
M  V30 2217 H 224.809 2.88321 2.44293 0
M  V30 2218 H 225.122 6.28101 4.50232 0
M  V30 2219 H 223.467 5.64463 4.05471 0
M  V30 2220 H 226.658 3.62529 2.96126 0
M  V30 2221 H 226.831 5.17457 3.90054 0
M  V30 2222 N 220.237 -1.11381 1.11499 0
M  V30 2223 C 221.653 -1.35143 0.849031 0
M  V30 2224 C 221.853 -1.94515 -0.525938 0
M  V30 2225 O 220.909 -2.1785 -1.27662 0
M  V30 2226 C 222.222 -2.28249 1.95762 0
M  V30 2227 C 223.77 -2.41812 1.98736 0
M  V30 2228 C 224.245 -3.3824 3.088 0
M  V30 2229 N 225.736 -3.45803 3.08179 0
M  V30 2230 C 226.471 -4.20358 3.89982 0
M  V30 2231 N 225.967 -4.97884 4.8175 0
M  V30 2232 N 227.76 -4.15877 3.78157 0
M  V30 2233 H 219.911 -0.712062 2.00109 0
M  V30 2234 H 222.174 -0.376025 0.870235 0
M  V30 2235 H 221.88 -1.91817 2.94787 0
M  V30 2236 H 221.754 -3.28473 1.85433 0
M  V30 2237 H 224.141 -2.77518 1.00338 0
M  V30 2238 H 224.222 -1.41437 2.13141 0
M  V30 2239 H 223.866 -3.03261 4.07425 0
M  V30 2240 H 223.796 -4.38471 2.91635 0
M  V30 2241 H 226.287 -2.90506 2.41691 0
M  V30 2242 H 226.6 -5.52142 5.40702 0
M  V30 2243 H 224.945 -4.97043 4.85771 0
M  V30 2244 H 228.136 -3.544 3.05808 0
M  V30 2245 H 228.309 -4.73723 4.42143 0
M  V30 2246 N 221.715 -0.905404 -1.28997 0
M  V30 2247 C 222.992 -0.453513 -1.9027 0
M  V30 2248 C 223.372 1.06721 -1.82137 0
M  V30 2249 O 222.72 1.91159 -1.25182 0
M  V30 2250 C 222.93 -0.974494 -3.35119 0
M  V30 2251 C 224.278 -1.0216 -4.12127 0
M  V30 2252 O 225.302 -0.922557 -3.44046 0
M  V30 2253 O 224.161 -1.17121 -5.33802 0
M  V30 2254 H 221.255 -0.142347 -0.814657 0
M  V30 2255 H 223.801 -0.995642 -1.37423 0
M  V30 2256 H 222.573 -2.01848 -3.35221 0
M  V30 2257 H 222.196 -0.412706 -3.95452 0
M  V30 2258 O 223.232 1.39848 -0.807758 0
M  V30 2259 H 223.923 1.89847 -0.38441 0
M  V30 END ATOM
M  V30 BEGIN BOND
M  V30 END BOND
M  V30 END CTAB
M  END
$$$$
