drugbank_target|P06149 D-lactate dehydrogenase (DB00756; DB03147)
 OpenBabel12092119243D

  0  0  0     0  0            999 V3000
M  V30 BEGIN CTAB
M  V30 COUNTS 9022 9128 0 0 0
M  V30 BEGIN ATOM
M  V30 1 H -0.908 1.98254 -0.117106 0
M  V30 2 N 0 1.576 0 0
M  V30 3 C 0.933 2.03868 1.02534 0
M  V30 4 C 1.911 0.928543 1.3348 0
M  V30 5 O 3.095 1.19667 1.45644 0
M  V30 6 C 0.222 2.43627 2.35294 0
M  V30 7 C -0.732 3.65373 2.2001 0
M  V30 8 S 0.101 5.13292 1.52614 0
M  V30 9 C 1.257 5.56322 2.86805 0
M  V30 10 H 1.49 2.90518 0.631377 0
M  V30 11 H -0.977 1.52953 0.210867 0
M  V30 12 H 0.981 2.67203 3.11629 0
M  V30 13 H -0.358 1.57376 2.7183 0
M  V30 14 H -1.165 3.90944 3.18086 0
M  V30 15 H -1.563 3.418 1.51819 0
M  V30 16 H 0.729 5.58782 3.83104 0
M  V30 17 H 1.672 6.56266 2.65933 0
M  V30 18 H 2.08 4.83886 2.90714 0
M  V30 19 N 1.4781 -0.272755 1.55222 0
M  V30 20 C 2.7031 -1.02683 1.80197 0
M  V30 21 C 3.1281 -1.79142 0.573551 0
M  V30 22 O 2.4861 -1.74917 -0.476849 0
M  V30 23 C 2.5341 -1.9609 3.02624 0
M  V30 24 O 1.6381 -3.04863 2.77727 0
M  V30 25 H 0.9791 -0.293557 0.595584 0
M  V30 26 H 3.5091 -0.30159 2.02365 0
M  V30 27 H 3.5191 -2.38039 3.31363 0
M  V30 28 H 2.1941 -1.39851 3.91682 0
M  V30 29 H 0.7711 -2.67228 2.60084 0
M  V30 30 N 2.9562 -1.48159 -0.537278 0
M  V30 31 C 4.1812 -1.59707 -1.32319 0
M  V30 32 C 4.6062 -0.254859 -1.86365 0
M  V30 33 O 3.9642 0.772378 -1.64024 0
M  V30 34 C 4.0122 -2.6412 -2.45505 0
M  V30 35 O 3.1162 -2.20774 -3.48328 0
M  V30 36 H 2.4572 -0.535791 -0.392204 0
M  V30 37 H 4.9872 -1.94092 -0.647268 0
M  V30 38 H 4.9972 -2.85166 -2.91795 0
M  V30 39 H 3.6722 -3.61567 -2.05528 0
M  V30 40 H 2.2492 -2.09911 -3.08207 0
M  V30 41 N 4.4343 0.785586 -1.36625 0
M  V30 42 C 5.3673 1.90509 -1.25625 0
M  V30 43 C 6.3453 1.62 -0.139607 0
M  V30 44 O 7.5293 1.8591 -0.31141 0
M  V30 45 C 4.6563 3.25419 -0.939158 0
M  V30 46 C 3.7023 3.72856 -2.07077 0
M  V30 47 S 4.5353 3.88162 -3.68904 0
M  V30 48 C 5.6913 5.25942 -3.39317 0
M  V30 49 H 5.9243 1.99549 -2.20381 0
M  V30 50 H 3.4573 0.945226 -1.22085 0
M  V30 51 H 5.4153 4.03346 -0.763029 0
M  V30 52 H 4.0763 3.14099 -0.00931402 0
M  V30 53 H 3.2693 4.70624 -1.80357 0
M  V30 54 H 2.8713 3.01989 -2.20632 0
M  V30 55 H 5.1633 6.10651 -2.93447 0
M  V30 56 H 6.1063 5.57668 -4.36363 0
M  V30 57 H 6.5143 4.93224 -2.74573 0
M  V30 58 N 5.9124 1.20967 1.01018 0
M  V30 59 C 7.1404 1.04956 1.78303 0
M  V30 60 C 7.5554 -0.400915 1.84494 0
M  V30 61 O 6.9124 -1.27826 1.30257 0
M  V30 62 C 6.9634 1.63403 3.22462 0
M  V30 63 O 6.6844 3.02775 3.16637 0
M  V30 64 C 8.1854 1.52432 4.16268 0
M  V30 65 H 5.4054 0.368858 0.560522 0
M  V30 66 H 7.9494 1.60193 1.27116 0
M  V30 67 H 6.1044 1.1227 3.70775 0
M  V30 68 H 6.5184 3.30626 4.07169 0
M  V30 69 H 7.9924 1.98078 5.15237 0
M  V30 70 H 8.4694 0.477875 4.36592 0
M  V30 71 H 9.0754 2.02787 3.73841 0
M  V30 72 N 7.3905 -1.2043 1.01659 0
M  V30 73 C 8.6185 -1.93777 0.725132 0
M  V30 74 C 9.0335 -1.74772 -0.714166 0
M  V30 75 O 8.3905 -1.06169 -1.4844 0
M  V30 76 C 8.4415 -3.45876 1.05129 0
M  V30 77 O 8.1625 -3.6426 2.43406 0
M  V30 78 C 9.6635 -4.36368 0.780891 0
M  V30 79 H 6.8835 -0.615901 0.266284 0
M  V30 80 H 9.4275 -1.52922 1.35776 0
M  V30 81 H 7.5825 -3.8461 0.464065 0
M  V30 82 H 7.9965 -4.58246 2.55169 0
M  V30 83 H 9.4705 -5.41743 1.05918 0
M  V30 84 H 9.9475 -4.38275 -0.284937 0
M  V30 85 H 10.5535 -4.03296 1.35027 0
M  V30 86 N 8.8686 -0.792821 -1.36206 0
M  V30 87 C 10.0966 -0.378825 -2.03402 0
M  V30 88 C 10.5116 1.00586 -1.59774 0
M  V30 89 O 9.8686 1.64574 -0.788764 0
M  V30 90 C 9.9196 -0.43683 -3.58851 0
M  V30 91 O 9.6406 -1.76691 -4.00889 0
M  V30 92 C 11.1416 -0.0138943 -4.43298 0
M  V30 93 H 8.3616 -0.155673 -0.652692 0
M  V30 94 H 10.9056 -1.07261 -1.74113 0
M  V30 95 H 9.0606 0.208575 -3.86838 0
M  V30 96 H 9.4746 -1.72011 -4.95492 0
M  V30 97 H 10.9486 -0.105615 -5.51899 0
M  V30 98 H 11.4256 1.03915 -4.2673 0
M  V30 99 H 12.0316 -0.63192 -4.20579 0
M  V30 100 N 10.3467 1.47872 -0.545128 0
M  V30 101 C 11.6237 1.9554 0.0485222 0
M  V30 102 C 12.0037 1.4876 1.49779 0
M  V30 103 O 11.3517 0.720925 2.16829 0
M  V30 104 C 11.5617 3.48898 -0.084417 0
M  V30 105 C 12.9097 4.24547 0.0671239 0
M  V30 106 O 13.9337 3.56198 -0.0113649 0
M  V30 107 O 12.7927 5.45999 0.233882 0
M  V30 108 H 9.8867 0.823957 0.0708773 0
M  V30 109 H 12.4327 1.58327 -0.610798 0
M  V30 110 H 11.2047 3.75714 -1.09337 0
M  V30 111 H 10.8277 3.92845 0.613066 0
M  V30 112 N 11.8248 0.280983 1.55075 0
M  V30 113 C 12.7728 -0.619864 2.24188 0
M  V30 114 C 13.7668 -1.15315 1.24092 0
M  V30 115 O 14.9728 -1.1061 1.42005 0
M  V30 116 H 11.3478 -0.218459 0.719569 0
M  V30 117 H 13.3188 -0.0141831 2.98397 0
M  V30 118 C 12.0678 -1.7899 2.98091 0
M  V30 119 H 11.3908 -1.38874 3.74905 0
M  V30 120 H 12.8308 -2.39672 3.49762 0
M  V30 121 C 11.2898 -2.68192 2.03899 0
M  V30 122 O 11.8198 -3.6872 1.594 0
M  V30 123 N 10.0258 -2.35488 1.70275 0
M  V30 124 H 9.5728 -1.53787 2.06658 0
M  V30 125 H 9.5308 -2.95442 1.07524 0
M  V30 126 N 13.3029 -1.57598 0.00835791 0
M  V30 127 C 14.2499 -2.08945 -0.980346 0
M  V30 128 C 15.2199 -0.986738 -1.33614 0
M  V30 129 O 16.4049 -1.25968 -1.43306 0
M  V30 130 C 13.5449 -2.60425 -2.26435 0
M  V30 131 C 12.6579 -3.84628 -1.96685 0
M  V30 132 C 11.7929 -4.24579 -3.19228 0
M  V30 133 C 10.8319 -5.41596 -2.85202 0
M  V30 134 N 9.9689 -5.768 -4.00307 0
M  V30 135 H 14.8089 -2.93148 -0.535551 0
M  V30 136 H 12.3459 -1.44912 -0.252776 0
M  V30 137 H 14.3039 -2.88354 -3.01509 0
M  V30 138 H 12.9339 -1.79083 -2.68568 0
M  V30 139 H 11.9859 -3.63556 -1.11942 0
M  V30 140 H 13.2979 -4.69796 -1.67611 0
M  V30 141 H 12.4519 -4.53834 -4.02641 0
M  V30 142 H 11.1909 -3.38137 -3.51447 0
M  V30 143 H 10.1959 -5.12056 -2.00198 0
M  V30 144 H 11.4209 -6.29721 -2.54222 0
M  V30 145 H 9.3669 -4.93316 -4.32407 0
M  V30 146 H 9.2839 -6.5656 -3.74786 0
M  V30 147 H 10.5519 -6.10652 -4.84484 0
M  V30 148 N 14.781 0.264519 -1.55364 0
M  V30 149 C 15.744 1.31046 -1.88042 0
M  V30 150 C 16.744 1.41943 -0.755569 0
M  V30 151 O 17.934 1.40947 -1.02369 0
M  V30 152 C 15.066 2.69067 -2.09323 0
M  V30 153 H 16.259 1.03297 -2.81549 0
M  V30 154 H 13.812 0.502989 -1.47986 0
M  V30 155 H 14.547 3.01982 -1.18226 0
M  V30 156 H 14.332 2.62542 -2.91229 0
M  V30 157 H 15.822 3.44623 -2.35848 0
M  V30 158 N 16.2591 1.48442 0.529413 0
M  V30 159 C 17.5061 1.56488 1.28521 0
M  V30 160 C 17.8341 0.239042 1.93025 0
M  V30 161 O 17.0891 -0.770713 1.79885 0
M  V30 162 C 17.3881 2.6523 2.39558 0
M  V30 163 C 17.0541 4.07648 1.92702 0
M  V30 164 C 15.7161 4.46411 1.79641 0
M  V30 165 C 18.0681 4.96896 1.573 0
M  V30 166 C 15.3961 5.72226 1.29514 0
M  V30 167 C 17.7481 6.23202 1.08636 0
M  V30 168 C 16.4121 6.60821 0.941919 0
M  V30 169 H 15.6821 0.572631 0.470292 0
M  V30 170 H 18.3291 1.82161 0.59072 0
M  V30 171 H 16.6341 2.33419 3.14679 0
M  V30 172 H 18.3311 2.68671 2.97686 0
M  V30 173 H 14.9211 3.77036 2.03819 0
M  V30 174 H 19.1051 4.67626 1.66251 0
M  V30 175 H 14.3611 6.00097 1.17019 0
M  V30 176 H 18.5351 6.91753 0.803136 0
M  V30 177 H 16.1621 7.58198 0.5513 0
M  V30 178 N 17.7372 -0.778329 1.37039 0
M  V30 179 C 18.6672 -1.90546 1.34962 0
M  V30 180 C 19.6482 -1.68681 0.219274 0
M  V30 181 O 20.8332 -1.89634 0.418624 0
M  V30 182 C 17.9632 -3.27734 1.14925 0
M  V30 183 C 16.9172 -3.64147 2.24902 0
M  V30 184 C 16.2432 -4.99806 1.89996 0
M  V30 185 C 17.5432 -3.71579 3.67051 0
M  V30 186 H 19.2372 -1.92541 2.29277 0
M  V30 187 H 16.7832 -0.924948 1.10366 0
M  V30 188 H 18.7362 -4.06215 1.12104 0
M  V30 189 H 17.4602 -3.26154 0.170631 0
M  V30 190 H 16.1192 -2.8797 2.26868 0
M  V30 191 H 15.7672 -4.94759 0.906796 0
M  V30 192 H 15.4672 -5.25139 2.63634 0
M  V30 193 H 16.9912 -5.80694 1.88749 0
M  V30 194 H 18.4052 -4.40227 3.67251 0
M  V30 195 H 16.8022 -4.08405 4.39688 0
M  V30 196 H 17.8722 -2.72404 4.01154 0
M  V30 197 N 19.2153 -1.21501 -1.00376 0
M  V30 198 C 20.1633 -0.972442 -2.11297 0
M  V30 199 C 21.1573 0.080731 -1.69208 0
M  V30 200 O 22.3633 -0.0707666 -1.79861 0
M  V30 201 H 18.7383 -0.297218 -0.690772 0
M  V30 202 H 20.7093 -1.91394 -2.28934 0
M  V30 203 C 19.4583 -0.555065 -3.43241 0
M  V30 204 H 18.7813 -1.35709 -3.76062 0
M  V30 205 H 20.2213 -0.424664 -4.21868 0
M  V30 206 C 18.6803 0.734147 -3.28804 0
M  V30 207 O 19.2103 1.78937 -3.59645 0
M  V30 208 N 17.4163 0.701133 -2.82015 0
M  V30 209 H 16.9633 -0.157874 -2.57116 0
M  V30 210 H 16.9213 1.56403 -2.72737 0
M  V30 211 N 20.6934 1.19889 -1.02296 0
M  V30 212 C 21.6034 2.26571 -0.608508 0
M  V30 213 C 22.6194 1.70299 0.356964 0
M  V30 214 O 23.7954 2.00235 0.216326 0
M  V30 215 C 20.8604 3.46677 0.0402814 0
M  V30 216 C 19.9214 4.18153 -0.97194 0
M  V30 217 C 19.1544 5.32525 -0.354016 0
M  V30 218 O 19.3774 5.64112 0.844604 0
M  V30 219 O 18.3114 5.92242 -1.07391 0
M  V30 220 H 22.1374 2.64251 -1.49684 0
M  V30 221 H 19.7224 1.26629 -0.792809 0
M  V30 222 H 21.6044 4.19475 0.402324 0
M  V30 223 H 20.2794 3.10858 0.902707 0
M  V30 224 H 19.1864 3.47499 -1.38546 0
M  V30 225 H 20.5194 4.57927 -1.80454 0
M  V30 226 N 22.1715 0.800033 1.35784 0
M  V30 227 C 23.1015 0.220184 2.3246 0
M  V30 228 C 24.0825 -0.65073 1.57161 0
M  V30 229 O 25.2675 -0.582359 1.85263 0
M  V30 230 C 22.3975 -0.637353 3.41402 0
M  V30 231 C 21.3515 0.134531 4.27789 0
M  V30 232 C 20.6775 -0.844285 5.27992 0
M  V30 233 C 21.9775 1.32979 5.05088 0
M  V30 234 H 23.6715 1.02787 2.81203 0
M  V30 235 H 21.2175 0.495717 1.35199 0
M  V30 236 H 23.1705 -1.05302 4.08031 0
M  V30 237 H 21.8945 -1.47785 2.91251 0
M  V30 238 H 20.5535 0.531296 3.6273 0
M  V30 239 H 20.2015 -1.68011 4.74111 0
M  V30 240 H 19.9015 -0.332184 5.8666 0
M  V30 241 H 21.4255 -1.2583 5.97494 0
M  V30 242 H 22.8395 0.98934 5.64699 0
M  V30 243 H 21.2365 1.77593 5.7322 0
M  V30 244 H 22.3065 2.11978 4.36111 0
M  V30 245 N 23.6496 -1.47581 0.552962 0
M  V30 246 C 24.6126 -2.28439 -0.186605 0
M  V30 247 C 25.6126 -1.36706 -0.84665 0
M  V30 248 O 26.8026 -1.59378 -0.703164 0
M  V30 249 C 23.9346 -3.16264 -1.2724 0
M  V30 250 H 25.1276 -2.95294 0.523609 0
M  V30 251 H 22.6806 -1.532 0.309745 0
M  V30 252 H 23.4156 -2.54091 -2.01514 0
M  V30 253 H 23.2006 -3.83769 -0.803968 0
M  V30 254 H 24.6906 -3.77198 -1.79196 0
M  V30 255 N 25.1277 -0.289203 -1.54924 0
M  V30 256 C 26.5437 0.0645403 -1.59469 0
M  V30 257 C 26.7437 1.53419 -1.30632 0
M  V30 258 O 25.7997 2.2852 -1.074 0
M  V30 259 C 27.1127 -0.32278 -2.98963 0
M  V30 260 C 28.6607 -0.270564 -3.11828 0
M  V30 261 C 29.1357 -0.632532 -4.53611 0
M  V30 262 N 30.6267 -0.584617 -4.59496 0
M  V30 263 C 31.3617 -0.837314 -5.67254 0
M  V30 264 N 30.8577 -1.15536 -6.83098 0
M  V30 265 N 32.6507 -0.765166 -5.56868 0
M  V30 266 H 24.8017 -1.24714 -1.71931 0
M  V30 267 H 27.0647 -0.504809 -0.802416 0
M  V30 268 H 26.7707 -1.34541 -3.24948 0
M  V30 269 H 26.6447 0.32944 -3.75759 0
M  V30 270 H 29.0317 0.742805 -2.85598 0
M  V30 271 H 29.1127 -0.957242 -2.37214 0
M  V30 272 H 28.7567 -1.64365 -4.80569 0
M  V30 273 H 28.6867 0.07609 -5.26545 0
M  V30 274 H 31.1777 -0.349248 -3.76283 0
M  V30 275 H 31.4907 -1.33447 -7.61191 0
M  V30 276 H 29.8357 -1.19328 -6.84679 0
M  V30 277 H 33.0267 -0.516432 -4.65243 0
M  V30 278 H 33.1997 -0.965477 -6.40767 0
M  V30 279 N 26.6058 1.57591 -0.0167156 0
M  V30 280 C 27.5358 2.12496 0.967858 0
M  V30 281 C 28.5168 1.03807 1.34752 0
M  V30 282 O 29.7018 1.31577 1.42833 0
M  V30 283 C 26.8318 2.64194 2.25431 0
M  V30 284 C 25.7858 3.77559 2.01576 0
M  V30 285 C 25.1118 4.15636 3.36379 0
M  V30 286 C 26.4118 5.04151 1.36489 0
M  V30 287 H 28.1058 2.95013 0.510643 0
M  V30 288 H 25.6518 1.41915 0.244181 0
M  V30 289 H 27.6048 3.01236 2.94678 0
M  V30 290 H 26.3288 1.78821 2.73296 0
M  V30 291 H 24.9878 3.40937 1.34751 0
M  V30 292 H 24.6358 3.27263 3.81979 0
M  V30 293 H 24.3358 4.92022 3.21229 0
M  V30 294 H 25.8598 4.5525 4.06915 0
M  V30 295 H 27.2738 5.38857 1.95718 0
M  V30 296 H 25.6708 5.85453 1.31776 0
M  V30 297 H 26.7408 4.83733 0.336219 0
M  V30 298 N 28.0839 -0.256276 1.55502 0
M  V30 299 C 29.3299 -0.987079 1.77157 0
M  V30 300 C 29.6629 -1.85327 0.580315 0
M  V30 301 O 28.9379 -1.89874 -0.421686 0
M  V30 302 C 29.2209 -1.85553 3.08613 0
M  V30 303 C 29.0739 -1.01816 4.38125 0
M  V30 304 C 30.3929 -2.8397 3.36228 0
M  V30 305 H 27.5119 -0.357428 0.644526 0
M  V30 306 H 30.1539 -0.258239 1.88237 0
M  V30 307 H 28.3039 -2.47695 2.99298 0
M  V30 308 H 29.9759 -0.416159 4.59419 0
M  V30 309 H 28.2189 -0.322178 4.32602 0
M  V30 310 H 28.8899 -1.65939 5.26468 0
M  V30 311 H 31.3659 -2.31964 3.45445 0
M  V30 312 H 30.2419 -3.41864 4.29442 0
M  V30 313 H 30.5029 -3.59955 2.56681 0
M  V30 314 N 29.562 -1.4872 -0.521534 0
M  V30 315 C 30.81 -1.56857 -1.27437 0
M  V30 316 C 31.131 -0.247982 -1.93417 0
M  V30 317 O 30.401 0.731151 -1.81744 0
M  V30 318 H 28.981 -0.577885 -0.473347 0
M  V30 319 H 31.643 -1.85233 -0.606205 0
M  V30 320 H 30.739 -2.35402 -2.0492 0
M  V30 321 N 31.0401 0.771051 -1.3745 0
M  V30 322 C 32.2651 1.56529 -1.36065 0
M  V30 323 C 32.6901 1.88029 0.0515859 0
M  V30 324 O 32.0481 1.49282 1.02882 0
M  V30 325 C 32.0961 2.85187 -2.20683 0
M  V30 326 O 31.2001 3.79593 -1.61193 0
M  V30 327 H 30.5411 0.47411 -0.464883 0
M  V30 328 H 33.0711 0.954269 -1.80983 0
M  V30 329 H 33.0811 3.34283 -2.33921 0
M  V30 330 H 31.7561 2.61588 -3.23334 0
M  V30 331 H 30.3331 3.38239 -1.56999 0
M  V30 332 N 32.5182 1.22032 0.997298 0
M  V30 333 C 33.7432 1.06921 1.77715 0
M  V30 334 C 34.1682 -0.376226 1.84299 0
M  V30 335 O 33.5262 -1.27165 1.29223 0
M  V30 336 C 33.5742 1.67996 3.19076 0
M  V30 337 O 32.6782 0.930653 4.01762 0
M  V30 338 H 32.0192 0.375814 0.547412 0
M  V30 339 H 34.5492 1.61737 1.25309 0
M  V30 340 H 34.5592 1.72538 3.69723 0
M  V30 341 H 33.2342 2.73182 3.13599 0
M  V30 342 H 31.8112 0.960917 3.60307 0
M  V30 343 N 33.9963 -1.19345 1.0293 0
M  V30 344 C 34.9463 -2.20472 0.58104 0
M  V30 345 C 35.9303 -1.56578 -0.370442 0
M  V30 346 O 37.1223 -1.75963 -0.191344 0
M  V30 347 C 34.2513 -3.43236 -0.066306 0
M  V30 348 C 33.3373 -4.14274 0.907642 0
M  V30 349 N 33.7283 -4.61492 2.07023 0
M  V30 350 C 32.0263 -4.39966 0.731177 0
M  V30 351 C 32.7273 -5.1605 2.68454 0
M  V30 352 N 31.7033 -5.06875 1.96414 0
M  V30 353 H 35.5053 -2.54659 1.46717 0
M  V30 354 H 33.0193 -1.35423 0.896345 0
M  V30 355 H 35.0163 -4.14927 -0.405068 0
M  V30 356 H 33.6763 -3.10549 -0.948118 0
M  V30 357 H 34.6873 -4.56304 2.44963 0
M  V30 358 H 31.3643 -4.17377 -0.101507 0
M  V30 359 H 32.7543 -5.6287 3.66915 0
M  V30 360 N 35.4744 -0.807222 -1.35358 0
M  V30 361 C 36.4044 -0.232509 -2.3234 0
M  V30 362 C 37.3854 0.642386 -1.57504 0
M  V30 363 O 38.5704 0.572526 -1.85569 0
M  V30 364 C 35.7004 0.619238 -3.41735 0
M  V30 365 C 34.6544 -0.157215 -4.27711 0
M  V30 366 C 33.9804 0.816273 -5.28433 0
M  V30 367 C 35.2804 -1.35656 -5.04376 0
M  V30 368 H 36.9744 -1.04276 -2.80654 0
M  V30 369 H 34.5204 -0.50288 -1.34934 0
M  V30 370 H 36.4734 1.03137 -4.08584 0
M  V30 371 H 35.1974 1.46239 -2.92031 0
M  V30 372 H 33.8564 -0.550525 -3.62443 0
M  V30 373 H 33.5044 1.65494 -4.74996 0
M  V30 374 H 33.2044 0.301067 -5.86828 0
M  V30 375 H 34.7284 1.22659 -5.98153 0
M  V30 376 H 36.1424 -1.01927 -5.64166 0
M  V30 377 H 34.5394 -1.8063 -5.7227 0
M  V30 378 H 35.6094 -2.14288 -4.34981 0
M  V30 379 N 36.9525 1.47285 -0.560781 0
M  V30 380 C 37.8825 2.32857 0.173105 0
M  V30 381 C 38.8635 1.44009 0.905281 0
M  V30 382 O 40.0485 1.7286 0.885046 0
M  V30 383 C 37.1785 3.25861 1.20133 0
M  V30 384 C 36.1325 4.23978 0.585388 0
M  V30 385 C 35.4585 5.06332 1.7185 0
M  V30 386 C 36.7585 5.20242 -0.463178 0
M  V30 387 H 38.4525 2.94466 -0.541307 0
M  V30 388 H 35.9985 1.41601 -0.261764 0
M  V30 389 H 37.9515 3.84569 1.72293 0
M  V30 390 H 36.6755 2.62315 1.94573 0
M  V30 391 H 35.3345 3.66501 0.085054 0
M  V30 392 H 34.9825 4.39186 2.45203 0
M  V30 393 H 34.6825 5.72762 1.31213 0
M  V30 394 H 36.2065 5.67899 2.24329 0
M  V30 395 H 37.6205 5.73293 -0.027502 0
M  V30 396 H 36.0175 5.94896 -0.788627 0
M  V30 397 H 37.0875 4.65504 -1.35773 0
M  V30 398 N 38.4306 0.297415 1.54768 0
M  V30 399 C 39.6586 -0.315623 2.04478 0
M  V30 400 C 40.0736 -1.47792 1.17486 0
M  V30 401 O 39.4306 -1.81404 0.19971 0
M  V30 402 C 39.4816 -0.7753 3.53088 0
M  V30 403 O 39.2026 0.340732 4.36773 0
M  V30 404 C 40.7036 -1.45386 4.18781 0
M  V30 405 H 37.9236 -0.0690887 0.667434 0
M  V30 406 H 40.4676 0.436003 1.99798 0
M  V30 407 H 38.6226 -1.47696 3.58141 0
M  V30 408 H 39.0366 -0.0165035 5.24497 0
M  V30 409 H 40.5106 -1.72669 5.24299 0
M  V30 410 H 40.9876 -2.39275 3.68299 0
M  V30 411 H 41.5936 -0.795475 4.17795 0
M  V30 412 N 39.9087 -1.5758 0.0250728 0
M  V30 413 C 41.1857 -1.82917 -0.692873 0
M  V30 414 C 41.5657 -0.908137 -1.90568 0
M  V30 415 O 40.9137 0.0372298 -2.2847 0
M  V30 416 C 41.1237 -3.32034 -1.07492 0
M  V30 417 C 42.4717 -3.98406 -1.46826 0
M  V30 418 O 43.4957 -3.36505 -1.16801 0
M  V30 419 O 42.3547 -5.07497 -2.02754 0
M  V30 420 H 39.4487 -0.754079 -0.33955 0
M  V30 421 H 41.9947 -1.69619 0.0524456 0
M  V30 422 H 40.7667 -3.90728 -0.211552 0
M  V30 423 H 40.3897 -3.50424 -1.87854 0
M  V30 424 N 41.3868 0.248026 -1.55636 0
M  V30 425 C 42.7978 0.817177 -1.67866 0
M  V30 426 C 43.1488 1.86069 -0.622322 0
M  V30 427 O 42.2738 2.15157 0.231618 0
M  V30 428 C 42.8688 1.489 -3.04326 0
M  V30 429 C 41.4278 2.00587 -3.185 0
M  V30 430 C 40.5748 0.856573 -2.63739 0
M  V30 431 H 43.5258 0.0238579 -1.58682 0
M  V30 432 H 43.5468 2.35698 -2.98708 0
M  V30 433 H 43.0588 0.729279 -3.81186 0
M  V30 434 H 41.1598 2.79443 -2.4646 0
M  V30 435 H 41.2728 2.20402 -4.25393 0
M  V30 436 H 39.6368 1.25678 -2.21534 0
M  V30 437 H 40.4198 0.109953 -3.43124 0
M  V30 438 N 42.8649 1.48995 0.513639 0
M  V30 439 C 43.8279 1.64229 1.59879 0
M  V30 440 C 44.8279 0.514696 1.5234 0
M  V30 441 O 46.0179 0.78087 1.55718 0
M  V30 442 C 43.1499 1.62783 2.99524 0
M  V30 443 H 44.3429 2.61004 1.47705 0
M  V30 444 H 41.8959 1.37837 0.736936 0
M  V30 445 H 42.6309 0.675461 3.17188 0
M  V30 446 H 42.4159 2.4466 3.06404 0
M  V30 447 H 43.9059 1.76669 3.78388 0
M  V30 448 N 44.343 -0.763751 1.37857 0
M  V30 449 C 45.29 -1.87726 1.34267 0
M  V30 450 C 46.26 -1.64807 0.206879 0
M  V30 451 O 47.445 -1.86613 0.397508 0
M  V30 452 C 44.585 -3.24896 1.16346 0
M  V30 453 C 43.698 -3.59716 2.39225 0
M  V30 454 C 42.833 -4.86137 2.14114 0
M  V30 455 C 41.872 -5.13711 3.32817 0
M  V30 456 N 41.009 -6.31323 3.07206 0
M  V30 457 H 45.849 -1.90129 2.29466 0
M  V30 458 H 43.386 -0.929433 1.14017 0
M  V30 459 H 45.344 -4.04036 1.03975 0
M  V30 460 H 43.974 -3.21847 0.247909 0
M  V30 461 H 43.026 -2.75498 2.62307 0
M  V30 462 H 44.338 -3.76027 3.27728 0
M  V30 463 H 43.492 -5.73198 1.9882 0
M  V30 464 H 42.231 -4.71945 1.22961 0
M  V30 465 H 41.236 -4.25123 3.48641 0
M  V30 466 H 42.461 -5.29807 4.24832 0
M  V30 467 H 40.407 -6.18474 2.1869 0
M  V30 468 H 40.324 -6.48087 3.89254 0
M  V30 469 H 41.592 -7.213 2.95546 0
M  V30 470 N 45.8211 -1.22559 -0.990812 0
M  V30 471 C 47.0491 -1.07779 -1.76611 0
M  V30 472 C 47.4641 0.371513 -1.85109 0
M  V30 473 O 46.8211 1.25737 -1.32274 0
M  V30 474 C 46.8721 -1.68512 -3.19822 0
M  V30 475 O 46.5931 -3.07774 -3.1178 0
M  V30 476 C 48.0941 -1.59035 -4.13791 0
M  V30 477 H 45.3141 -0.377729 -0.554583 0
M  V30 478 H 47.8581 -1.62195 -1.24551 0
M  V30 479 H 46.0131 -1.18154 -3.68942 0
M  V30 480 H 46.4271 -3.37062 -4.01858 0
M  V30 481 H 47.9011 -2.0625 -5.1202 0
M  V30 482 H 48.3781 -0.547273 -4.35777 0
M  V30 483 H 48.9841 -2.08709 -3.70568 0
M  V30 484 N 47.2992 1.18797 -1.03562 0
M  V30 485 C 48.2622 2.20464 -0.626769 0
M  V30 486 C 49.2622 1.57721 0.313173 0
M  V30 487 O 50.4522 1.73917 0.0992615 0
M  V30 488 C 47.5842 3.40802 0.0818498 0
M  V30 489 H 48.7772 2.58149 -1.5264 0
M  V30 490 H 46.3302 1.32593 -0.827578 0
M  V30 491 H 47.0652 3.08642 0.995518 0
M  V30 492 H 46.8502 3.8758 -0.593652 0
M  V30 493 H 48.3402 4.16092 0.354584 0
M  V30 494 N 48.7773 0.814389 1.34928 0
M  V30 495 C 50.1933 0.499084 1.51596 0
M  V30 496 C 50.3933 -0.978319 1.76157 0
M  V30 497 O 49.4493 -1.76309 1.80752 0
M  V30 498 C 50.7623 1.35121 2.68631 0
M  V30 499 C 52.3103 1.34746 2.82511 0
M  V30 500 C 52.7853 2.18388 4.0258 0
M  V30 501 N 54.2763 2.15966 4.09772 0
M  V30 502 C 55.0113 2.77437 5.01813 0
M  V30 503 N 54.5073 3.47866 5.99134 0
M  V30 504 N 56.3003 2.67037 4.94619 0
M  V30 505 H 48.4513 1.7711 1.17243 0
M  V30 506 H 50.7143 0.754256 0.574284 0
M  V30 507 H 50.4203 2.40001 2.57085 0
M  V30 508 H 50.2943 1.00991 3.63429 0
M  V30 509 H 52.6813 0.30648 2.93504 0
M  V30 510 H 52.7623 1.72869 1.88547 0
M  V30 511 H 52.4063 3.2253 3.92347 0
M  V30 512 H 52.3363 1.77621 4.9574 0
M  V30 513 H 54.8273 1.64729 3.40107 0
M  V30 514 H 55.1403 3.92038 6.65977 0
M  V30 515 H 53.4853 3.51972 5.99284 0
M  V30 516 H 56.6763 2.11597 4.17546 0
M  V30 517 H 56.8493 3.15232 5.66156 0
M  V30 518 N 50.2554 -1.46986 0.568584 0
M  V30 519 C 51.4854 -2.0653 0.0539173 0
M  V30 520 C 51.8934 -1.42004 -1.25026 0
M  V30 521 O 51.2364 -0.514541 -1.76347 0
M  V30 522 C 51.2984 -3.58938 -0.200854 0
M  V30 523 C 50.9624 -4.45572 1.01559 0
M  V30 524 C 51.9594 -4.82986 1.92407 0
M  V30 525 C 49.6444 -4.8692 1.23346 0
M  V30 526 C 51.6384 -5.60559 3.03402 0
M  V30 527 C 49.3254 -5.64255 2.34649 0
M  V30 528 C 50.3234 -6.00986 3.24507 0
M  V30 529 O 50.0114 -6.76761 4.33878 0
M  V30 530 H 49.7434 -0.674292 0.0480234 0
M  V30 531 H 52.2974 -1.89812 0.784896 0
M  V30 532 H 50.5274 -3.73911 -0.986279 0
M  V30 533 H 52.2164 -4.0046 -0.662294 0
M  V30 534 H 52.9824 -4.51633 1.76785 0
M  V30 535 H 48.8614 -4.57789 0.543178 0
M  V30 536 H 52.4054 -5.89147 3.73565 0
M  V30 537 H 48.3024 -5.95021 2.5024 0
M  V30 538 H 49.0704 -6.95168 4.32068 0
M  V30 539 N 51.7335 -0.305618 -1.54608 0
M  V30 540 C 53.1495 0.0476228 -1.59529 0
M  V30 541 C 53.3495 1.52025 -1.32252 0
M  V30 542 O 52.4055 2.27368 -1.09818 0
M  V30 543 C 53.7185 -0.354471 -2.98603 0
M  V30 544 C 55.2665 -0.303622 -3.11524 0
M  V30 545 C 55.7415 -0.680608 -4.52915 0
M  V30 546 N 57.2325 -0.63332 -4.5885 0
M  V30 547 C 57.9675 -0.897432 -5.66334 0
M  V30 548 N 57.4635 -1.22775 -6.81834 0
M  V30 549 N 59.2565 -0.824186 -5.56025 0
M  V30 550 H 51.4075 -1.2653 -1.70599 0
M  V30 551 H 53.6705 -0.513291 -0.797017 0
M  V30 552 H 53.3765 -1.3798 -3.23503 0
M  V30 553 H 53.2505 0.289568 -3.76087 0
M  V30 554 H 55.6375 0.712472 -2.8637 0
M  V30 555 H 55.7185 -0.982348 -2.36185 0
M  V30 556 H 55.3625 -1.69453 -4.78799 0
M  V30 557 H 55.2925 0.0202385 -5.26596 0
M  V30 558 H 57.7835 -0.389138 -3.75891 0
M  V30 559 H 58.0965 -1.41513 -7.59733 0
M  V30 560 H 56.4415 -1.26583 -6.83375 0
M  V30 561 H 59.6325 -0.565748 -4.64669 0
M  V30 562 H 59.8055 -1.03338 -6.39707 0
M  V30 563 N 53.2116 1.57565 -0.0334293 0
M  V30 564 C 54.1586 2.10478 0.946981 0
M  V30 565 C 55.1286 1.00787 1.32027 0
M  V30 566 O 56.3136 1.28232 1.41284 0
M  V30 567 C 53.4536 2.63994 2.22263 0
M  V30 568 C 52.5666 3.87709 1.90541 0
M  V30 569 C 51.7016 4.29604 3.12433 0
M  V30 570 C 50.7406 5.46065 2.76549 0
M  V30 571 N 49.8776 5.83096 3.9108 0
M  V30 572 H 54.7176 2.93963 0.488846 0
M  V30 573 H 52.2546 1.45296 0.22969 0
M  V30 574 H 54.2126 2.93114 2.96884 0
M  V30 575 H 52.8426 1.83333 2.65685 0
M  V30 576 H 51.8946 3.65291 1.06144 0
M  V30 577 H 53.2066 4.72403 1.60116 0
M  V30 578 H 52.3606 4.60182 3.9537 0
M  V30 579 H 51.0996 3.43685 3.46023 0
M  V30 580 H 50.1046 5.15176 1.92026 0
M  V30 581 H 51.3296 6.33685 2.44171 0
M  V30 582 H 49.2756 5.00132 4.24504 0
M  V30 583 H 49.1926 6.6244 3.64293 0
M  V30 584 H 50.4606 6.18282 4.74708 0
M  V30 585 N 54.6897 -0.239769 1.55765 0
M  V30 586 C 55.9377 -0.964892 1.77579 0
M  V30 587 C 56.2587 -1.85582 0.598699 0
M  V30 588 O 55.5287 -1.92075 -0.385226 0
M  V30 589 H 54.1087 -0.359265 0.654933 0
M  V30 590 H 56.7707 -0.256001 1.93211 0
M  V30 591 H 55.8667 -1.58243 2.69009 0
M  V30 592 N 56.1678 -1.49265 -0.50573 0
M  V30 593 C 57.4148 -1.58513 -1.26015 0
M  V30 594 C 57.7428 -0.26972 -1.92621 0
M  V30 595 O 56.9978 0.741997 -1.81088 0
M  V30 596 C 57.2968 -2.69008 -2.35308 0
M  V30 597 C 56.9628 -4.10662 -1.86192 0
M  V30 598 C 55.6248 -4.49212 -1.72516 0
M  V30 599 C 57.9768 -4.99336 -1.49375 0
M  V30 600 C 55.3048 -5.74214 -1.20394 0
M  V30 601 C 57.6568 -6.24852 -0.987072 0
M  V30 602 C 56.3208 -6.62236 -0.836669 0
M  V30 603 H 55.5908 -0.580041 -0.461122 0
M  V30 604 H 58.2378 -1.83078 -0.561665 0
M  V30 605 H 56.5428 -2.38396 -3.10926 0
M  V30 606 H 58.2398 -2.73373 -2.93374 0
M  V30 607 H 54.8298 -3.8023 -1.97795 0
M  V30 608 H 59.0138 -4.70212 -1.5879 0
M  V30 609 H 54.2698 -6.01883 -1.07458 0
M  V30 610 H 58.4438 -6.92944 -0.692983 0
M  V30 611 H 56.0708 -7.58979 -0.430607 0
M  V30 612 N 57.6459 0.756429 -1.3826 0
M  V30 613 C 59.0619 1.0591 -1.19395 0
M  V30 614 C 59.2619 2.01459 -0.0406567 0
M  V30 615 O 58.3179 2.44909 0.614467 0
M  V30 616 C 59.6309 1.64191 -2.51916 0
M  V30 617 C 61.1789 1.76376 -2.58574 0
M  V30 618 C 61.6539 2.38069 -3.91264 0
M  V30 619 N 63.1449 2.45503 -3.92788 0
M  V30 620 C 63.8799 2.94126 -4.92217 0
M  V30 621 N 63.3759 3.42805 -6.02043 0
M  V30 622 N 65.1689 2.9314 -4.7961 0
M  V30 623 H 57.3199 0.122313 -2.12048 0
M  V30 624 H 59.5829 0.116892 -0.940766 0
M  V30 625 H 59.2889 1.01451 -3.3675 0
M  V30 626 H 59.1629 2.6329 -2.70108 0
M  V30 627 H 61.5499 2.38244 -1.74137 0
M  V30 628 H 61.6309 0.759894 -2.44252 0
M  V30 629 H 61.2749 1.76835 -4.76121 0
M  V30 630 H 61.2049 3.39091 -4.02895 0
M  V30 631 H 63.6959 2.1107 -3.13461 0
M  V30 632 H 64.0089 3.78354 -6.73846 0
M  V30 633 H 62.3539 3.4087 -6.05667 0
M  V30 634 H 65.5449 2.54419 -3.92923 0
M  V30 635 H 65.7179 3.30721 -5.5725 0
M  V30 636 N 59.124 1.23083 0.984299 0
M  V30 637 C 60.349 1.088 1.76571 0
M  V30 638 C 60.774 -0.356657 1.84688 0
M  V30 639 O 60.132 -1.25788 1.30565 0
M  V30 640 C 60.18 1.71371 3.17277 0
M  V30 641 O 59.284 0.973213 4.00752 0
M  V30 642 H 58.625 0.381599 0.543395 0
M  V30 643 H 61.155 1.63057 1.23587 0
M  V30 644 H 61.165 1.76449 3.67872 0
M  V30 645 H 59.84 2.76493 3.10684 0
M  V30 646 H 58.417 0.999078 3.59267 0
M  V30 647 N 60.6021 -1.18246 1.0419 0
M  V30 648 C 61.8501 -1.87886 0.744543 0
M  V30 649 C 62.1711 -1.8082 -0.730006 0
M  V30 650 O 61.4411 -1.22736 -1.52685 0
M  V30 651 H 60.0211 -0.695556 0.272417 0
M  V30 652 H 62.6831 -1.43494 1.31892 0
M  V30 653 H 61.7791 -2.9389 1.05049 0
M  V30 654 N 62.0802 -0.821533 -1.34494 0
M  V30 655 C 63.0122 -0.199946 -2.28326 0
M  V30 656 C 64.0252 0.609377 -1.50965 0
M  V30 657 O 65.2142 0.439285 -1.7301 0
M  V30 658 C 62.3142 0.738431 -3.30757 0
M  V30 659 C 61.4872 -0.0277632 -4.37391 0
M  V30 660 C 60.5462 0.831332 -5.19591 0
M  V30 661 O 59.5722 0.276822 -5.68526 0
M  V30 662 N 60.7742 2.15132 -5.39165 0
M  V30 663 H 63.5392 -1.00609 -2.82308 0
M  V30 664 H 61.1002 -0.678366 -1.47003 0
M  V30 665 H 63.0922 1.31773 -3.82646 0
M  V30 666 H 61.6622 1.44533 -2.7718 0
M  V30 667 H 60.8822 -0.788359 -3.86236 0
M  V30 668 H 62.1702 -0.555251 -5.05761 0
M  V30 669 H 61.5682 2.62559 -5.01078 0
M  V30 670 H 60.1252 2.6795 -5.94177 0
M  V30 671 N 63.5583 1.46682 -0.576371 0
M  V30 672 C 64.8063 2.02013 -0.0594163 0
M  V30 673 C 65.1273 1.45101 1.30271 0
M  V30 674 O 64.3973 0.633317 1.8538 0
M  V30 675 H 62.9773 0.746759 -0.0189745 0
M  V30 676 H 65.6393 1.79862 -0.750717 0
M  V30 677 H 64.7353 3.12097 0.014345 0
M  V30 678 N 65.0364 0.313813 1.54444 0
M  V30 679 C 66.3134 -0.345447 1.92525 0
M  V30 680 C 66.6934 -1.70667 1.24242 0
M  V30 681 O 66.0414 -2.25273 0.382654 0
M  V30 682 C 66.2514 -0.44737 3.46121 0
M  V30 683 C 67.5994 -0.712238 4.18584 0
M  V30 684 O 68.6234 -0.530678 3.52225 0
M  V30 685 O 67.4824 -1.06183 5.36085 0
M  V30 686 H 64.5764 -0.195407 0.803583 0
M  V30 687 H 67.1224 0.362813 1.65776 0
M  V30 688 H 65.8944 0.509043 3.87975 0
M  V30 689 H 65.5174 -1.20359 3.78945 0
M  V30 690 N 66.5145 -1.57545 0.0417849 0
M  V30 691 C 67.4775 -2.09885 -0.92093 0
M  V30 692 C 68.4775 -1.01648 -1.24596 0
M  V30 693 O 69.6675 -1.27759 -1.1842 0
M  V30 694 C 66.7995 -2.57527 -2.23367 0
M  V30 695 H 67.9925 -2.96236 -0.467382 0
M  V30 696 H 65.5455 -1.5493 -0.206467 0
M  V30 697 H 66.2805 -1.74542 -2.73323 0
M  V30 698 H 66.0655 -3.36613 -2.01083 0
M  V30 699 H 67.5555 -2.98201 -2.92346 0
M  V30 700 N 67.9926 0.231505 -1.5589 0
M  V30 701 C 68.9226 1.29022 -1.94617 0
M  V30 702 C 69.9036 1.4941 -0.813067 0
M  V30 703 O 71.0886 1.6176 -1.07459 0
M  V30 704 C 68.2186 2.64199 -2.25424 0
M  V30 705 C 67.1726 2.58484 -3.41131 0
M  V30 706 C 66.4986 3.97599 -3.57518 0
M  V30 707 C 67.7986 2.1413 -4.76388 0
M  V30 708 H 69.4926 0.968563 -2.83301 0
M  V30 709 H 67.0386 0.464479 -1.36303 0
M  V30 710 H 68.9916 3.38413 -2.51107 0
M  V30 711 H 67.7156 2.98032 -1.33583 0
M  V30 712 H 66.3746 1.86727 -3.15481 0
M  V30 713 H 66.0226 4.28723 -2.6307 0
M  V30 714 H 65.7226 3.94659 -4.35337 0
M  V30 715 H 67.2466 4.7349 -3.85538 0
M  V30 716 H 68.6606 2.78083 -5.01341 0
M  V30 717 H 67.0576 2.2227 -5.57419 0
M  V30 718 H 68.1276 1.09331 -4.72414 0
M  V30 719 N 69.4707 1.49531 0.497807 0
M  V30 720 C 70.4337 1.65916 1.58128 0
M  V30 721 C 71.4337 0.530825 1.51786 0
M  V30 722 O 72.6237 0.797342 1.54881 0
M  V30 723 C 69.7557 1.65951 2.9778 0
M  V30 724 H 70.9487 2.62556 1.44929 0
M  V30 725 H 68.5017 1.38611 0.722275 0
M  V30 726 H 69.2367 0.709065 3.16453 0
M  V30 727 H 69.0217 2.47897 3.03792 0
M  V30 728 H 70.5117 1.80673 3.76493 0
M  V30 729 N 70.9488 -0.749086 1.3866 0
M  V30 730 C 72.1948 -1.51056 1.35314 0
M  V30 731 C 72.5278 -1.94121 -0.0553751 0
M  V30 732 O 71.8028 -1.65763 -1.01749 0
M  V30 733 C 72.0858 -2.76003 2.31288 0
M  V30 734 C 71.9388 -2.39047 3.8102 0
M  V30 735 C 73.2578 -3.78046 2.2532 0
M  V30 736 H 70.3768 -0.547972 0.492844 0
M  V30 737 H 73.0188 -0.857628 1.69543 0
M  V30 738 H 71.1688 -3.31716 2.02229 0
M  V30 739 H 72.8408 -1.89074 4.20771 0
M  V30 740 H 71.0838 -1.71449 3.98482 0
M  V30 741 H 71.7548 -3.28462 4.4364 0
M  V30 742 H 74.2308 -3.31884 2.50983 0
M  V30 743 H 73.1068 -4.63159 2.94576 0
M  V30 744 H 73.3678 -4.23957 1.25352 0
M  V30 745 N 72.4269 -1.23603 -0.977757 0
M  V30 746 C 73.6729 -1.07129 -1.72195 0
M  V30 747 C 74.0059 0.390501 -1.90233 0
M  V30 748 O 73.2809 1.28902 -1.45653 0
M  V30 749 C 73.5639 -1.80031 -3.11867 0
M  V30 750 C 73.4169 -3.33899 -3.01383 0
M  V30 751 C 74.7359 -1.56492 -4.11337 0
M  V30 752 H 71.8549 -0.390571 -0.624999 0
M  V30 753 H 74.4969 -1.52142 -1.13811 0
M  V30 754 H 72.6469 -1.41768 -3.6171 0
M  V30 755 H 74.3189 -3.81699 -2.59043 0
M  V30 756 H 72.5619 -3.62796 -2.37827 0
M  V30 757 H 73.2329 -3.801 -4.00285 0
M  V30 758 H 75.7089 -1.89757 -3.70313 0
M  V30 759 H 74.5849 -2.09973 -5.07151 0
M  V30 760 H 74.8459 -0.500874 -4.39254 0
M  V30 761 N 73.905 1.17692 -1.04816 0
M  V30 762 C 75.152 1.87859 -0.75599 0
M  V30 763 C 75.48 1.80812 0.716752 0
M  V30 764 O 74.735 1.20819 1.53952 0
M  V30 765 C 75.034 3.37462 -1.17703 0
M  V30 766 C 74.7 3.64713 -2.65133 0
M  V30 767 C 73.362 3.71859 -3.05408 0
M  V30 768 C 75.714 3.76492 -3.60421 0
M  V30 769 C 73.042 3.88271 -4.39843 0
M  V30 770 C 75.394 3.94421 -4.94585 0
M  V30 771 C 74.058 3.99806 -5.3452 0
M  V30 772 H 73.328 0.687425 -0.276636 0
M  V30 773 H 75.975 1.39255 -1.31455 0
M  V30 774 H 74.28 3.88097 -0.537395 0
M  V30 775 H 75.977 3.90109 -0.928218 0
M  V30 776 H 72.567 3.59772 -2.32942 0
M  V30 777 H 76.751 3.70295 -3.30447 0
M  V30 778 H 72.007 3.90687 -4.70291 0
M  V30 779 H 76.181 4.02477 -5.68318 0
M  V30 780 H 73.808 4.12276 -6.38696 0
M  V30 781 N 75.3831 0.828654 1.34056 0
M  V30 782 C 76.7941 0.477534 1.8049 0
M  V30 783 C 77.1451 -1.00258 1.6865 0
M  V30 784 O 76.2701 -1.78057 1.22982 0
M  V30 785 C 76.8651 0.860018 3.27703 0
M  V30 786 C 75.4241 0.561185 3.72193 0
M  V30 787 C 74.5711 1.07385 2.55663 0
M  V30 788 H 77.5221 1.0183 1.21722 0
M  V30 789 H 77.5431 0.166038 3.80138 0
M  V30 790 H 77.0551 1.93731 3.36288 0
M  V30 791 H 75.1561 -0.506465 3.69142 0
M  V30 792 H 75.2691 1.10926 4.66082 0
M  V30 793 H 73.6331 0.495149 2.49841 0
M  V30 794 H 74.4161 2.15771 2.67016 0
M  V30 795 N 76.8612 -1.46375 0.584142 0
M  V30 796 C 78.1092 -2.01978 0.0701287 0
M  V30 797 C 78.4302 -1.4579 -1.295 0
M  V30 798 O 77.7002 -0.64314 -1.85042 0
M  V30 799 H 76.2802 -0.746648 0.0229345 0
M  V30 800 H 78.9422 -1.79461 0.760245 0
M  V30 801 H 78.0382 -3.121 0.0022064 0
M  V30 802 N 78.3393 -0.321999 -1.54275 0
M  V30 803 C 79.5643 0.285791 -2.05422 0
M  V30 804 C 79.9893 1.45124 -1.19669 0
M  V30 805 O 79.3473 1.80132 -0.205441 0
M  V30 806 C 79.3953 0.69956 -3.53749 0
M  V30 807 O 78.4993 1.8021 -3.70942 0
M  V30 808 H 77.8403 0.0518962 -0.661969 0
M  V30 809 H 80.3703 -0.469954 -1.9913 0
M  V30 810 H 80.3803 0.982649 -3.9599 0
M  V30 811 H 79.0553 -0.152864 -4.15619 0
M  V30 812 H 77.6323 1.51794 -3.40607 0
M  V30 813 N 79.8174 1.5752 -0.0501392 0
M  V30 814 C 80.7474 2.14502 0.922566 0
M  V30 815 C 81.7284 1.06642 1.3252 0
M  V30 816 O 82.9134 1.34577 1.4001 0
M  V30 817 C 80.0434 2.68916 2.19776 0
M  V30 818 C 78.9974 3.8175 1.93523 0
M  V30 819 C 78.3234 4.22677 3.27487 0
M  V30 820 C 79.6234 5.06932 1.25765 0
M  V30 821 H 81.3174 2.9603 0.447952 0
M  V30 822 H 78.8634 1.42401 0.214024 0
M  V30 823 H 80.8164 3.07419 2.88222 0
M  V30 824 H 79.5404 1.84578 2.69441 0
M  V30 825 H 78.1994 3.43718 1.27489 0
M  V30 826 H 77.8474 3.35291 3.74952 0
M  V30 827 H 77.5474 4.98725 3.1072 0
M  V30 828 H 79.0714 4.63779 3.97166 0
M  V30 829 H 80.4854 5.42888 1.84244 0
M  V30 830 H 78.8824 5.88116 1.19328 0
M  V30 831 H 79.9524 4.84337 0.233536 0
M  V30 832 N 81.2955 -0.223234 1.56011 0
M  V30 833 C 82.2255 -1.27988 1.95298 0
M  V30 834 C 83.2065 -1.48976 0.820979 0
M  V30 835 O 84.3915 -1.61188 1.08315 0
M  V30 836 C 81.5215 -2.63 2.26822 0
M  V30 837 C 80.4755 -2.56671 3.42497 0
M  V30 838 C 79.8015 -3.95697 3.59622 0
M  V30 839 C 81.1015 -2.11601 4.77517 0
M  V30 840 H 82.7955 -0.953525 2.8381 0
M  V30 841 H 80.3415 -0.457244 1.36548 0
M  V30 842 H 82.2945 -3.37077 2.52898 0
M  V30 843 H 81.0185 -2.9732 1.35161 0
M  V30 844 H 79.6775 -1.85051 3.16467 0
M  V30 845 H 79.3255 -4.27322 2.6534 0
M  V30 846 H 79.0255 -3.92345 4.37424 0
M  V30 847 H 80.5495 -4.71438 3.88044 0
M  V30 848 H 81.9635 -2.7542 5.02809 0
M  V30 849 H 80.3605 -2.19311 5.5859 0
M  V30 850 H 81.4305 -1.06824 4.72987 0
M  V30 851 N 82.7736 -1.49793 -0.48987 0
M  V30 852 C 83.6836 -1.70036 -1.61632 0
M  V30 853 C 84.6996 -0.583102 -1.63939 0
M  V30 854 O 85.8756 -0.859169 -1.82154 0
M  V30 855 C 82.9406 -1.77277 -2.97949 0
M  V30 856 C 82.0016 -3.00918 -3.06181 0
M  V30 857 C 81.2346 -3.07804 -4.35996 0
M  V30 858 O 81.4576 -2.21982 -5.25433 0
M  V30 859 O 80.3916 -4.00369 -4.49431 0
M  V30 860 H 84.2176 -2.65486 -1.47482 0
M  V30 861 H 81.8026 -1.33666 -0.667362 0
M  V30 862 H 83.6846 -1.84329 -3.78947 0
M  V30 863 H 82.3596 -0.850076 -3.12339 0
M  V30 864 H 81.2666 -2.99377 -2.2433 0
M  V30 865 H 82.5996 -3.92704 -2.96723 0
M  V30 866 N 84.2517 0.741722 -1.39055 0
M  V30 867 C 85.1817 1.869 -1.39966 0
M  V30 868 C 86.1627 1.6804 -0.26392 0
M  V30 869 O 87.3477 1.88458 -0.468755 0
M  V30 870 C 84.4777 3.24572 -1.23574 0
M  V30 871 C 83.4317 3.58056 -2.34477 0
M  V30 872 C 82.7577 4.94593 -2.0318 0
M  V30 873 C 84.0577 3.61716 -3.76774 0
M  V30 874 H 85.7517 1.86395 -2.34302 0
M  V30 875 H 83.2977 0.895361 -1.1278 0
M  V30 876 H 85.2507 4.031 -1.22834 0
M  V30 877 H 83.9747 3.25587 -0.257045 0
M  V30 878 H 82.6337 2.81854 -2.34423 0
M  V30 879 H 82.2817 4.92181 -1.03765 0
M  V30 880 H 81.9817 5.17964 -2.77465 0
M  V30 881 H 83.5057 5.75486 -2.04079 0
M  V30 882 H 84.9197 4.30335 -3.78794 0
M  V30 883 H 83.3167 3.96603 -4.50362 0
M  V30 884 H 84.3867 2.61672 -4.08235 0
M  V30 885 N 85.7298 1.2412 0.971189 0
M  V30 886 C 86.9758 1.09048 1.71698 0
M  V30 887 C 87.3308 -0.367442 1.88859 0
M  V30 888 O 86.6238 -1.26792 1.43646 0
M  V30 889 C 86.8178 1.75983 3.11071 0
M  V30 890 C 86.6468 3.28133 3.07504 0
M  V30 891 C 85.4168 3.97331 3.1218 0
M  V30 892 C 87.6148 4.24773 2.89952 0
M  V30 893 N 85.5968 5.3639 2.98596 0
M  V30 894 C 86.9678 5.50806 2.84627 0
M  V30 895 C 89.0228 4.15392 2.74506 0
M  V30 896 C 87.7258 6.68533 2.65437 0
M  V30 897 C 89.7518 5.32793 2.56682 0
M  V30 898 C 89.1138 6.57756 2.52063 0
M  V30 899 H 85.2128 0.453632 0.636979 0
M  V30 900 H 87.7968 1.56983 1.15171 0
M  V30 901 H 85.9678 1.30566 3.65796 0
M  V30 902 H 87.6998 1.53803 3.74335 0
M  V30 903 H 84.4548 3.48473 3.20724 0
M  V30 904 H 84.8788 6.09321 2.95054 0
M  V30 905 H 89.5208 3.19543 2.76861 0
M  V30 906 H 87.2388 7.64509 2.61825 0
M  V30 907 H 90.8248 5.27383 2.4568 0
M  V30 908 H 89.7048 7.4707 2.38446 0
M  V30 909 N 87.2079 -1.17134 1.05439 0
M  V30 910 C 88.6239 -1.39454 0.776201 0
M  V30 911 C 88.8239 -1.91454 -0.628307 0
M  V30 912 O 87.8799 -2.10777 -1.39031 0
M  V30 913 C 89.1929 -2.38305 1.83388 0
M  V30 914 C 90.7409 -2.52006 1.85639 0
M  V30 915 C 91.2159 -3.54133 2.90437 0
M  V30 916 N 92.7069 -3.61653 2.89415 0
M  V30 917 C 93.4419 -4.4044 3.67152 0
M  V30 918 N 92.9379 -5.22721 4.54681 0
M  V30 919 N 94.7309 -4.35337 3.55581 0
M  V30 920 H 86.8819 -0.817134 1.96053 0
M  V30 921 H 89.1449 -0.421626 0.849079 0
M  V30 922 H 88.8509 -2.07173 2.84204 0
M  V30 923 H 88.7249 -3.37841 1.67761 0
M  V30 924 H 91.1119 -2.82447 0.85486 0
M  V30 925 H 91.1929 -1.52537 2.05344 0
M  V30 926 H 90.8369 -3.24431 3.90777 0
M  V30 927 H 90.7669 -4.53313 2.67983 0
M  V30 928 H 93.2579 -3.02909 2.25952 0
M  V30 929 H 93.5709 -5.80027 5.10674 0
M  V30 930 H 91.9159 -5.22093 4.58741 0
M  V30 931 H 95.1069 -3.70112 2.86592 0
M  V30 932 H 95.2799 -4.96494 4.1641 0
M  V30 933 N 88.686 -0.835752 -1.33615 0
M  V30 934 C 89.932 -0.430596 -1.98176 0
M  V30 935 C 90.265 1.00684 -1.66061 0
M  V30 936 O 89.54 1.70339 -0.938877 0
M  V30 937 C 89.823 -0.648065 -3.5422 0
M  V30 938 C 89.676 -2.13255 -3.96033 0
M  V30 939 C 90.995 -0.0922113 -4.40003 0
M  V30 940 H 88.114 -0.157924 -0.719881 0
M  V30 941 H 90.756 -1.05069 -1.58305 0
M  V30 942 H 88.906 -0.120237 -3.88314 0
M  V30 943 H 90.578 -2.725 -3.72211 0
M  V30 944 H 88.821 -2.61823 -3.45878 0
M  V30 945 H 89.492 -2.23547 -5.04708 0
M  V30 946 H 91.968 -0.543343 -4.12537 0
M  V30 947 H 90.844 -0.274083 -5.48215 0
M  V30 948 H 91.105 1.00378 -4.30554 0
M  V30 949 N 90.1641 1.46063 -0.591896 0
M  V30 950 C 91.0941 2.33172 0.123673 0
M  V30 951 C 92.0751 1.45897 0.87453 0
M  V30 952 O 93.2601 1.74698 0.848181 0
M  V30 953 C 90.3901 3.28336 1.13194 0
M  V30 954 C 89.3441 4.25124 0.495324 0
M  V30 955 C 88.6701 5.09863 1.61071 0
M  V30 956 C 89.9701 5.19143 -0.573425 0
M  V30 957 H 91.6641 2.93252 -0.603646 0
M  V30 958 H 89.2101 1.41014 -0.291741 0
M  V30 959 H 91.1631 3.88137 1.64097 0
M  V30 960 H 89.8871 2.66383 1.88965 0
M  V30 961 H 88.5461 3.66599 0.00729452 0
M  V30 962 H 88.1941 4.44288 2.35832 0
M  V30 963 H 87.8941 5.75417 1.19035 0
M  V30 964 H 89.4181 5.72529 2.12233 0
M  V30 965 H 90.8321 5.73106 -0.1491 0
M  V30 966 H 89.2291 5.93089 -0.914636 0
M  V30 967 H 90.2991 4.62519 -1.45617 0
M  V30 968 N 91.6422 0.330177 1.54103 0
M  V30 969 C 92.5892 -0.532762 2.24567 0
M  V30 970 C 93.5592 -1.10635 1.23892 0
M  V30 971 O 94.7442 -1.14546 1.5259 0
M  V30 972 C 91.8842 -1.6845 3.01195 0
M  V30 973 C 90.9972 -1.13951 4.167 0
M  V30 974 C 90.1322 -2.25746 4.80845 0
M  V30 975 C 89.1712 -1.6853 5.88442 0
M  V30 976 N 88.3082 -2.74014 6.46421 0
M  V30 977 H 93.1482 0.0746905 2.97906 0
M  V30 978 H 90.6852 0.048632 1.4702 0
M  V30 979 H 92.6432 -2.36234 3.43874 0
M  V30 980 H 91.2732 -2.26314 2.30178 0
M  V30 981 H 90.3252 -0.35301 3.78758 0
M  V30 982 H 91.6372 -0.680892 4.94131 0
M  V30 983 H 90.7912 -3.01422 5.26526 0
M  V30 984 H 89.5302 -2.74947 4.0281 0
M  V30 985 H 88.5352 -0.913543 5.42157 0
M  V30 986 H 89.7602 -1.20198 6.68378 0
M  V30 987 H 87.7062 -3.22494 5.71256 0
M  V30 988 H 87.6232 -2.32735 7.19285 0
M  V30 989 H 88.8912 -3.49499 6.96757 0
M  V30 990 N 93.1203 -1.57491 0.0584922 0
M  V30 991 C 94.0833 -2.1085 -0.898617 0
M  V30 992 C 95.0833 -1.02964 -1.23511 0
M  V30 993 O 96.2733 -1.29007 -1.17059 0
M  V30 994 C 93.4053 -2.59881 -2.20623 0
M  V30 995 H 94.5983 -2.96715 -0.435936 0
M  V30 996 H 92.1513 -1.55141 -0.190023 0
M  V30 997 H 92.8863 -1.77431 -2.71457 0
M  V30 998 H 92.6713 -3.38727 -1.97501 0
M  V30 999 H 94.1613 -3.01285 -2.89166 0
M  V30 1000 N 94.5984 0.214957 -1.56127 0
M  V30 1001 C 95.8384 0.945364 -1.81224 0
M  V30 1002 C 96.2024 1.81265 -0.633005 0
M  V30 1003 O 97.4034 2.57731 -0.763423 0
M  V30 1004 C 95.6744 1.75665 -3.1125 0
M  V30 1005 S 97.2334 2.54179 -3.57685 0
M  V30 1006 H 94.0514 0.317443 -0.6362 0
M  V30 1007 H 96.6534 0.210381 -1.94365 0
M  V30 1008 H 95.3574 1.10977 -3.9511 0
M  V30 1009 H 94.8884 2.53381 -3.00934 0
M  V30 1010 H 96.9034 3.7792 -3.21545 0
M  V30 1011 N 96.0765 1.50051 0.48192 0
M  V30 1012 C 97.3225 1.60736 1.2366 0
M  V30 1013 C 97.6555 0.301786 1.91841 0
M  V30 1014 O 96.9305 -0.696025 1.8162 0
M  V30 1015 C 97.2135 2.78009 2.28874 0
M  V30 1016 C 97.0665 4.18416 1.65069 0
M  V30 1017 C 98.3855 2.90867 3.30279 0
M  V30 1018 H 95.5045 0.585031 0.448228 0
M  V30 1019 H 98.1465 1.82402 0.531946 0
M  V30 1020 H 96.2965 2.59667 2.88973 0
M  V30 1021 H 97.9685 4.48322 1.0865 0
M  V30 1022 H 96.2115 4.23177 0.954148 0
M  V30 1023 H 96.8825 4.96381 2.41474 0
M  V30 1024 H 99.3585 3.07623 2.80191 0
M  V30 1025 H 98.2345 3.74566 4.01238 0
M  V30 1026 H 98.4955 2.01021 3.93755 0
M  V30 1027 N 97.5546 -0.734337 1.39446 0
M  V30 1028 C 98.7826 -1.52358 1.39981 0
M  V30 1029 C 99.1976 -1.88799 -0.0054975 0
M  V30 1030 O 98.5546 -1.54146 -0.976998 0
M  V30 1031 C 98.6056 -2.81072 2.27333 0
M  V30 1032 O 98.3266 -2.46178 3.62392 0
M  V30 1033 C 99.8276 -3.75096 2.36259 0
M  V30 1034 H 97.0476 -0.470806 0.478103 0
M  V30 1035 H 99.5916 -0.907339 1.83269 0
M  V30 1036 H 97.7466 -3.39026 1.87457 0
M  V30 1037 H 98.1606 -3.28866 4.08592 0
M  V30 1038 H 99.6346 -4.62305 3.01626 0
M  V30 1039 H 100.112 -4.16892 1.38194 0
M  V30 1040 H 100.718 -3.23061 2.76608 0
M  V30 1041 N 99.0327 -1.24633 -0.964593 0
M  V30 1042 C 99.9957 -1.0424 -2.04124 0
M  V30 1043 C 100.996 0.00137563 -1.608 0
M  V30 1044 O 102.186 -0.239883 -1.7254 0
M  V30 1045 C 99.3177 -0.580588 -3.3592 0
M  V30 1046 H 100.511 -1.99803 -2.23649 0
M  V30 1047 H 98.0637 -1.06899 -1.14027 0
M  V30 1048 H 98.7987 0.3781 -3.22088 0
M  V30 1049 H 98.5837 -1.33398 -3.6871 0
M  V30 1050 H 100.074 -0.459034 -4.15069 0
M  V30 1051 N 100.511 1.16574 -1.06058 0
M  V30 1052 C 101.788 1.83048 -0.689416 0
M  V30 1053 C 102.168 1.94122 0.829443 0
M  V30 1054 O 101.516 1.48249 1.7388 0
M  V30 1055 C 101.726 3.20186 -1.38859 0
M  V30 1056 C 103.074 3.95989 -1.53226 0
M  V30 1057 O 104.098 3.29696 -1.3483 0
M  V30 1058 O 102.957 5.14813 -1.83384 0
M  V30 1059 H 100.051 0.790258 -0.243764 0
M  V30 1060 H 102.597 1.23797 -1.16071 0
M  V30 1061 H 101.369 3.07146 -2.4244 0
M  V30 1062 H 100.992 3.87112 -0.907216 0
M  V30 1063 N 101.989 0.842826 1.3317 0
M  V30 1064 C 102.936 0.276885 2.29133 0
M  V30 1065 C 103.906 -0.609527 1.54512 0
M  V30 1066 O 105.091 -0.546955 1.82792 0
M  V30 1067 C 102.231 -0.538707 3.40869 0
M  V30 1068 C 101.344 0.372169 4.30394 0
M  V30 1069 C 100.479 -0.454908 5.29249 0
M  V30 1070 C 99.5179 0.45411 6.10413 0
M  V30 1071 N 98.6549 -0.335075 7.013 0
M  V30 1072 H 103.495 1.10052 2.76934 0
M  V30 1073 H 101.032 0.554161 1.36262 0
M  V30 1074 H 102.99 -1.02709 4.0436 0
M  V30 1075 H 101.62 -1.32727 2.9425 0
M  V30 1076 H 100.672 0.97888 3.6759 0
M  V30 1077 H 101.984 1.0703 4.87182 0
M  V30 1078 H 101.138 -1.00695 5.98285 0
M  V30 1079 H 99.8769 -1.18646 4.73048 0
M  V30 1080 H 98.8819 1.01813 5.40291 0
M  V30 1081 H 100.107 1.18409 6.68697 0
M  V30 1082 H 98.0529 -1.04994 6.47543 0
M  V30 1083 H 97.9699 0.304262 7.55387 0
M  V30 1084 H 99.2379 -0.869224 7.74638 0
M  V30 1085 N 103.467 -1.45747 0.599634 0
M  V30 1086 C 104.716 -2.01502 0.0893511 0
M  V30 1087 C 105.029 -1.4748 -1.28488 0
M  V30 1088 O 106.235 -1.95161 -1.88745 0
M  V30 1089 C 104.691 -3.59735 0.109082 0
M  V30 1090 C 104.299 -4.22754 1.48267 0
M  V30 1091 C 106.043 -4.23085 -0.346374 0
M  V30 1092 C 103.95 -5.73115 1.45921 0
M  V30 1093 H 102.88 -0.753417 0.0296347 0
M  V30 1094 H 105.531 -1.67303 0.753788 0
M  V30 1095 H 103.913 -3.91087 -0.621854 0
M  V30 1096 H 105.087 -4.02987 2.23468 0
M  V30 1097 H 103.402 -3.71567 1.87955 0
M  V30 1098 H 105.999 -5.33327 -0.38298 0
M  V30 1099 H 106.342 -3.93201 -1.36743 0
M  V30 1100 H 106.875 -3.9642 0.331038 0
M  V30 1101 H 103.614 -6.07685 2.45762 0
M  V30 1102 H 103.134 -5.95097 0.749665 0
M  V30 1103 H 104.813 -6.3616 1.17941 0
M  V30 1104 N 104.945 -0.338344 -1.53925 0
M  V30 1105 C 106.194 0.260732 -2.00008 0
M  V30 1106 C 106.507 1.52073 -1.23017 0
M  V30 1107 O 107.713 2.19672 -1.5955 0
M  V30 1108 C 106.169 0.51515 -3.56194 0
M  V30 1109 C 105.777 -0.728645 -4.42035 0
M  V30 1110 C 107.521 1.07337 -4.10706 0
M  V30 1111 C 105.428 -0.445315 -5.89721 0
M  V30 1112 H 104.358 0.101205 -0.747177 0
M  V30 1113 H 107.009 -0.452866 -1.77824 0
M  V30 1114 H 105.391 1.28932 -3.74423 0
M  V30 1115 H 106.565 -1.50352 -4.35581 0
M  V30 1116 H 104.88 -1.20813 -3.98489 0
M  V30 1117 H 107.477 1.30022 -5.18651 0
M  V30 1118 H 107.82 2.0273 -3.63602 0
M  V30 1119 H 108.353 0.360034 -3.96167 0
M  V30 1120 H 105.092 -1.36883 -6.41049 0
M  V30 1121 H 104.612 0.291569 -5.99091 0
M  V30 1122 H 106.291 -0.0606218 -6.46972 0
M  V30 1123 N 106.423 1.57458 -0.0668435 0
M  V30 1124 C 107.353 2.15468 0.899764 0
M  V30 1125 C 108.334 1.08042 1.31381 0
M  V30 1126 O 109.519 1.36054 1.38574 0
M  V30 1127 C 106.649 2.71232 2.16911 0
M  V30 1128 C 105.603 3.83781 1.89463 0
M  V30 1129 C 104.929 4.26127 3.22986 0
M  V30 1130 C 106.229 5.08238 1.20381 0
M  V30 1131 H 107.923 2.96488 0.416529 0
M  V30 1132 H 105.469 1.4262 0.198908 0
M  V30 1133 H 107.422 3.10458 2.84945 0
M  V30 1134 H 106.146 1.87426 2.67468 0
M  V30 1135 H 104.805 3.45051 1.23836 0
M  V30 1136 H 104.453 3.39249 3.71374 0
M  V30 1137 H 104.153 5.01993 3.05413 0
M  V30 1138 H 105.677 4.67966 3.92225 0
M  V30 1139 H 107.091 5.44811 1.78475 0
M  V30 1140 H 105.488 5.89349 1.13083 0
M  V30 1141 H 106.558 4.84558 0.182153 0
M  V30 1142 N 107.901 -0.206675 1.56239 0
M  V30 1143 C 108.834 -1.28383 1.88661 0
M  V30 1144 C 109.812 -1.44504 0.745481 0
M  V30 1145 O 110.996 -1.60079 0.995336 0
M  V30 1146 C 108.123 -2.65211 2.10667 0
M  V30 1147 C 107.169 -2.66025 3.33366 0
M  V30 1148 S 108.002 -2.18609 4.88846 0
M  V30 1149 C 109.158 -3.57283 5.13906 0
M  V30 1150 H 109.391 -1.00691 2.7973 0
M  V30 1151 H 106.924 -0.409627 1.48867 0
M  V30 1152 H 108.882 -3.43979 2.24029 0
M  V30 1153 H 107.543 -2.90121 1.20369 0
M  V30 1154 H 106.736 -3.66607 3.45855 0
M  V30 1155 H 106.338 -1.95331 3.18938 0
M  V30 1156 H 108.63 -4.53074 5.03717 0
M  V30 1157 H 109.573 -3.49699 6.15724 0
M  V30 1158 H 109.981 -3.51659 4.41583 0
M  V30 1159 N 109.379 -1.50304 -0.473955 0
M  V30 1160 C 110.311 -1.65109 -1.58971 0
M  V30 1161 C 111.324 -0.532676 -1.53839 0
M  V30 1162 O 112.513 -0.805751 -1.59279 0
M  V30 1163 C 109.613 -1.61684 -2.97845 0
M  V30 1164 C 108.786 -2.8951 -3.27876 0
M  V30 1165 C 107.845 -2.78768 -4.4629 0
M  V30 1166 O 106.871 -3.52722 -4.46739 0
M  V30 1167 N 108.073 -1.9213 -5.47783 0
M  V30 1168 H 110.838 -2.61347 -1.46689 0
M  V30 1169 H 108.399 -1.47732 -0.662324 0
M  V30 1170 H 110.391 -1.52114 -3.75024 0
M  V30 1171 H 108.961 -0.731925 -3.03911 0
M  V30 1172 H 108.181 -3.13228 -2.39336 0
M  V30 1173 H 109.469 -3.74199 -3.4475 0
M  V30 1174 H 108.867 -1.31353 -5.50239 0
M  V30 1175 H 107.424 -1.88466 -6.23958 0
M  V30 1176 N 110.857 0.726932 -1.39834 0
M  V30 1177 C 111.82 1.82269 -1.38962 0
M  V30 1178 C 112.82 1.58248 -0.285334 0
M  V30 1179 O 114.01 1.65499 -0.54366 0
M  V30 1180 C 111.142 3.20186 -1.17019 0
M  V30 1181 H 112.335 1.84443 -2.36476 0
M  V30 1182 H 109.888 0.931416 -1.25516 0
M  V30 1183 H 110.623 3.23669 -0.202204 0
M  V30 1184 H 110.408 3.3902 -1.96998 0
M  V30 1185 H 111.898 4.00235 -1.1917 0
M  V30 1186 N 112.336 1.25143 0.95797 0
M  V30 1187 C 113.299 1.05321 2.03569 0
M  V30 1188 C 114.299 0.007152 1.60798 0
M  V30 1189 O 115.489 0.24903 1.72411 0
M  V30 1190 C 112.621 0.598394 3.35607 0
M  V30 1191 H 113.814 2.00986 2.22586 0
M  V30 1192 H 111.367 1.07502 1.13459 0
M  V30 1193 H 112.102 -0.361014 3.22284 0
M  V30 1194 H 111.887 1.35351 3.67998 0
M  V30 1195 H 113.377 0.48104 4.1482 0
M  V30 1196 N 113.814 -1.1601 1.06675 0
M  V30 1197 C 114.762 -2.22586 0.675157 0
M  V30 1198 C 115.756 -1.66525 -0.310766 0
M  V30 1199 O 116.962 -1.79145 -0.175215 0
M  V30 1200 H 113.337 -0.724855 0.200223 0
M  V30 1201 H 115.308 -2.52899 1.58381 0
M  V30 1202 C 114.057 -3.47604 0.0817162 0
M  V30 1203 H 113.38 -3.91058 0.831484 0
M  V30 1204 H 114.82 -4.23718 -0.154708 0
M  V30 1205 C 113.279 -3.15718 -1.17576 0
M  V30 1206 O 113.809 -3.31878 -2.26318 0
M  V30 1207 N 112.015 -2.69816 -1.07923 0
M  V30 1208 H 111.562 -2.56866 -0.194293 0
M  V30 1209 H 111.52 -2.48855 -1.92141 0
M  V30 1210 N 115.292 -0.849877 -1.32721 0
M  V30 1211 C 116.52 -0.464754 -2.01613 0
M  V30 1212 C 116.935 0.937191 -1.63897 0
M  V30 1213 O 116.292 1.61081 -0.857856 0
M  V30 1214 C 116.343 -0.588638 -3.56675 0
M  V30 1215 O 116.064 -1.93535 -3.93034 0
M  V30 1216 C 117.565 -0.2019 -4.4284 0
M  V30 1217 H 114.785 -0.183215 -0.645502 0
M  V30 1218 H 117.329 -1.1455 -1.69407 0
M  V30 1219 H 115.484 0.0443159 -3.87375 0
M  V30 1220 H 115.898 -1.92871 -4.87751 0
M  V30 1221 H 117.372 -0.339599 -5.50954 0
M  V30 1222 H 117.849 0.857224 -4.30753 0
M  V30 1223 H 118.455 -0.809733 -4.17521 0
M  V30 1224 N 116.77 1.45427 -0.607355 0
M  V30 1225 C 118.018 2.01841 -0.102253 0
M  V30 1226 C 118.339 1.47832 1.27164 0
M  V30 1227 O 117.609 0.672497 1.83995 0
M  V30 1228 H 116.189 0.746188 -0.0348101 0
M  V30 1229 H 118.851 1.78229 -0.7887 0
M  V30 1230 H 117.947 3.12057 -0.0518585 0
M  V30 1231 N 118.248 0.346503 1.53744 0
M  V30 1232 C 119.178 -0.501193 2.28058 0
M  V30 1233 C 120.159 -1.10014 1.29734 0
M  V30 1234 O 121.344 -1.12097 1.58581 0
M  V30 1235 C 118.474 -1.65078 3.05559 0
M  V30 1236 C 117.428 -1.18003 4.11411 0
M  V30 1237 C 116.754 -2.41837 4.76884 0
M  V30 1238 C 118.054 -0.278394 5.21558 0
M  V30 1239 H 119.748 0.11875 2.99164 0
M  V30 1240 H 117.294 0.0585531 1.43881 0
M  V30 1241 H 119.247 -2.25028 3.56287 0
M  V30 1242 H 117.971 -2.29767 2.32109 0
M  V30 1243 H 116.63 -0.603331 3.61601 0
M  V30 1244 H 116.278 -3.0494 4.00026 0
M  V30 1245 H 115.978 -2.1102 5.48402 0
M  V30 1246 H 117.502 -3.02508 5.30397 0
M  V30 1247 H 118.916 -0.784823 5.67903 0
M  V30 1248 H 117.313 -0.0619707 6.00068 0
M  V30 1249 H 118.383 0.684677 4.80042 0
M  V30 1250 N 119.726 -1.57421 0.075193 0
M  V30 1251 C 120.954 -1.97946 -0.602076 0
M  V30 1252 C 121.369 -0.953674 -1.62943 0
M  V30 1253 O 120.726 0.0592551 -1.82404 0
M  V30 1254 C 120.777 -3.38546 -1.26762 0
M  V30 1255 O 120.498 -4.37195 -0.281376 0
M  V30 1256 C 121.999 -3.93966 -2.03239 0
M  V30 1257 H 119.219 -0.650918 -0.162931 0
M  V30 1258 H 121.763 -2.03959 0.148601 0
M  V30 1259 H 119.918 -3.33609 -1.96936 0
M  V30 1260 H 120.332 -5.18975 -0.759267 0
M  V30 1261 H 121.806 -4.94555 -2.45193 0
M  V30 1262 H 122.283 -3.30693 -2.8903 0
M  V30 1263 H 122.889 -4.02315 -1.37924 0
M  V30 1264 N 121.204 0.198386 -1.56346 0
M  V30 1265 C 122.114 1.2664 -1.97483 0
M  V30 1266 C 123.13 1.49989 -0.882002 0
M  V30 1267 O 124.306 1.62668 -1.18748 0
M  V30 1268 C 121.371 2.59141 -2.30319 0
M  V30 1269 C 120.432 2.43892 -3.53292 0
M  V30 1270 C 119.665 3.70074 -3.84553 0
M  V30 1271 O 119.888 4.74101 -3.1715 0
M  V30 1272 O 118.822 3.658 -4.7799 0
M  V30 1273 H 122.648 0.947304 -2.88548 0
M  V30 1274 H 120.233 0.403123 -1.43859 0
M  V30 1275 H 122.115 3.37352 -2.5253 0
M  V30 1276 H 120.79 2.90684 -1.42423 0
M  V30 1277 H 119.697 1.63803 -3.36332 0
M  V30 1278 H 121.03 2.17282 -4.41644 0
M  V30 1279 N 122.682 1.50554 0.465978 0
M  V30 1280 C 123.93 1.61479 1.21528 0
M  V30 1281 C 124.251 0.319596 1.92363 0
M  V30 1282 O 123.521 -0.663194 1.84333 0
M  V30 1283 H 122.101 0.595055 0.451573 0
M  V30 1284 H 124.763 1.87355 0.53704 0
M  V30 1285 H 123.859 2.42846 1.96042 0
M  V30 1286 N 124.16 -0.719506 1.40217 0
M  V30 1287 C 125.385 -1.51371 1.4178 0
M  V30 1288 C 125.81 -1.88091 0.0182355 0
M  V30 1289 O 125.168 -1.52997 -0.972707 0
M  V30 1290 C 125.216 -2.768 2.31115 0
M  V30 1291 O 124.32 -3.73349 1.7517 0
M  V30 1292 H 123.661 -0.456529 0.482159 0
M  V30 1293 H 126.191 -0.88644 1.844 0
M  V30 1294 H 126.201 -3.25371 2.46167 0
M  V30 1295 H 124.876 -2.49407 3.3282 0
M  V30 1296 H 123.453 -3.32179 1.69444 0
M  V30 1297 N 125.638 -1.25649 -0.95132 0
M  V30 1298 C 126.866 -1.13343 -1.73092 0
M  V30 1299 C 127.281 0.312434 -1.86197 0
M  V30 1300 O 126.638 1.21465 -1.36207 0
M  V30 1301 C 126.689 -1.78602 -3.14299 0
M  V30 1302 O 126.41 -3.17537 -3.01831 0
M  V30 1303 C 127.911 -1.72119 -4.08522 0
M  V30 1304 H 125.131 -0.395181 -0.542285 0
M  V30 1305 H 127.675 -1.66076 -1.19328 0
M  V30 1306 H 125.83 -1.29832 -3.64996 0
M  V30 1307 H 126.244 -3.49676 -3.90931 0
M  V30 1308 H 127.718 -2.22435 -5.052 0
M  V30 1309 H 128.195 -0.685635 -4.33815 0
M  V30 1310 H 128.801 -2.20393 -3.63741 0
M  V30 1311 N 127.117 1.15442 -1.07289 0
M  V30 1312 C 128.528 1.67803 -0.818475 0
M  V30 1313 C 128.879 1.8489 0.656507 0
M  V30 1314 O 128.004 1.55176 1.50829 0
M  V30 1315 C 128.599 3.04805 -1.47917 0
M  V30 1316 C 127.158 3.54245 -1.27229 0
M  V30 1317 C 126.305 2.29986 -1.54925 0
M  V30 1318 H 129.256 0.996646 -1.23502 0
M  V30 1319 H 129.277 3.69702 -0.90005 0
M  V30 1320 H 128.789 2.92336 -2.55267 0
M  V30 1321 H 126.89 3.71956 -0.21899 0
M  V30 1322 H 127.003 4.35723 -1.99203 0
M  V30 1323 H 125.367 2.35496 -0.970242 0
M  V30 1324 H 126.15 2.20105 -2.63455 0
M  V30 1325 N 128.595 0.856903 1.32268 0
M  V30 1326 C 129.543 0.291987 2.3076 0
M  V30 1327 C 130.537 -0.585857 1.58947 0
M  V30 1328 O 131.743 -0.47341 1.73663 0
M  V30 1329 H 128.118 0.075721 0.748178 0
M  V30 1330 H 130.089 1.13687 2.75895 0
M  V30 1331 C 128.838 -0.502869 3.44044 0
M  V30 1332 H 128.161 0.163328 3.99466 0
M  V30 1333 H 129.601 -0.863691 4.1511 0
M  V30 1334 C 128.06 -1.68898 2.91505 0
M  V30 1335 O 128.59 -2.78811 2.89184 0
M  V30 1336 N 126.796 -1.51679 2.47875 0
M  V30 1337 H 126.343 -0.622666 2.49961 0
M  V30 1338 H 126.301 -2.31184 2.13076 0
M  V30 1339 N 130.073 -1.45103 0.615059 0
M  V30 1340 C 131.321 -2.01784 0.112955 0
M  V30 1341 C 131.642 -1.48504 -1.26378 0
M  V30 1342 O 130.912 -0.682245 -1.83636 0
M  V30 1343 H 129.492 -0.745993 0.0387668 0
M  V30 1344 H 132.154 -1.77808 0.798141 0
M  V30 1345 H 131.25 -3.12025 0.0684069 0
M  V30 1346 N 131.551 -0.354651 -1.53558 0
M  V30 1347 C 132.499 0.512195 -2.26891 0
M  V30 1348 C 133.493 1.09263 -1.29452 0
M  V30 1349 O 134.699 1.03709 -1.47121 0
M  V30 1350 H 131.074 0.183878 -0.729173 0
M  V30 1351 H 133.045 -0.128202 -2.98124 0
M  V30 1352 C 131.794 1.64563 -3.06291 0
M  V30 1353 H 131.117 1.20829 -3.81104 0
M  V30 1354 H 132.557 2.22711 -3.60799 0
M  V30 1355 C 131.016 2.58158 -2.16462 0
M  V30 1356 O 131.546 3.60695 -1.76811 0
M  V30 1357 N 129.752 2.27096 -1.81317 0
M  V30 1358 H 129.299 1.43751 -2.1376 0
M  V30 1359 H 129.257 2.89975 -1.21498 0
M  V30 1360 N 133.029 1.57378 -0.0835403 0
M  V30 1361 C 134.306 1.85363 0.624507 0
M  V30 1362 C 134.686 0.978239 1.87066 0
M  V30 1363 O 134.034 0.0475908 2.2845 0
M  V30 1364 C 134.244 3.35795 0.950947 0
M  V30 1365 C 135.592 4.03581 1.31939 0
M  V30 1366 O 136.616 3.40609 1.04232 0
M  V30 1367 O 135.475 5.14672 1.83779 0
M  V30 1368 H 132.569 0.766162 0.311329 0
M  V30 1369 H 135.115 1.69307 -0.115362 0
M  V30 1370 H 133.887 3.91244 0.0663899 0
M  V30 1371 H 133.51 3.57154 1.74719 0
M  V30 1372 N 134.507 -0.190092 1.56449 0
M  V30 1373 C 135.737 -0.92443 1.84764 0
M  V30 1374 C 136.145 -1.77146 0.664529 0
M  V30 1375 O 135.488 -1.79812 -0.375957 0
M  V30 1376 C 135.55 -1.86651 3.07248 0
M  V30 1377 C 135.214 -1.20094 4.40938 0
M  V30 1378 C 136.211 -0.575445 5.16706 0
M  V30 1379 C 133.896 -1.2033 4.87674 0
M  V30 1380 C 135.89 0.0388111 6.37388 0
M  V30 1381 C 133.577 -0.585214 6.08291 0
M  V30 1382 C 134.575 0.0347578 6.82991 0
M  V30 1383 O 134.263 0.643147 8.01323 0
M  V30 1384 H 133.995 -0.274974 0.617548 0
M  V30 1385 H 136.549 -0.200788 2.04416 0
M  V30 1386 H 134.779 -2.62998 2.83494 0
M  V30 1387 H 136.468 -2.46907 3.22167 0
M  V30 1388 H 137.234 -0.565728 4.81689 0
M  V30 1389 H 133.113 -1.67526 4.29484 0
M  V30 1390 H 136.657 0.523329 6.95634 0
M  V30 1391 H 132.554 -0.592451 6.42775 0
M  V30 1392 H 133.322 0.540545 8.16713 0
M  V30 1393 N 135.985 -1.50799 -0.457987 0
M  V30 1394 C 137.262 -1.52968 -1.21902 0
M  V30 1395 C 137.642 -0.281906 -2.09209 0
M  V30 1396 O 136.99 0.734076 -2.16388 0
M  V30 1397 C 137.2 -2.8326 -2.03875 0
M  V30 1398 C 138.548 -3.34425 -2.6162 0
M  V30 1399 O 139.572 -2.8467 -2.14106 0
M  V30 1400 O 138.431 -4.21188 -3.48228 0
M  V30 1401 H 135.525 -0.614129 -0.553873 0
M  V30 1402 H 138.071 -1.63098 -0.468739 0
M  V30 1403 H 136.843 -3.65543 -1.39621 0
M  V30 1404 H 136.466 -2.76195 -2.8601 0
M  V30 1405 N 137.463 0.71206 -1.40597 0
M  V30 1406 C 138.879 1.02058 -1.22704 0
M  V30 1407 C 139.079 2.01228 -0.104729 0
M  V30 1408 O 138.135 2.4674 0.53624 0
M  V30 1409 C 139.448 1.56094 -2.57012 0
M  V30 1410 C 140.996 1.6806 -2.64054 0
M  V30 1411 C 141.471 2.25501 -3.9864 0
M  V30 1412 N 142.962 2.32882 -4.004 0
M  V30 1413 C 143.697 2.78317 -5.01325 0
M  V30 1414 N 143.193 3.23478 -6.12645 0
M  V30 1415 N 144.986 2.77733 -4.88693 0
M  V30 1416 H 137.137 0.0547896 -2.12329 0
M  V30 1417 H 139.4 0.0869027 -0.944008 0
M  V30 1418 H 139.106 0.906865 -3.39807 0
M  V30 1419 H 138.98 2.54564 -2.78347 0
M  V30 1420 H 141.367 2.32583 -1.81629 0
M  V30 1421 H 141.448 0.681802 -2.46546 0
M  V30 1422 H 141.092 1.61598 -4.81506 0
M  V30 1423 H 141.022 3.26102 -4.13479 0
M  V30 1424 H 143.513 2.00991 -3.20017 0
M  V30 1425 H 143.826 3.56725 -6.85542 0
M  V30 1426 H 142.171 3.21429 -6.16205 0
M  V30 1427 H 145.362 2.4179 -4.00818 0
M  V30 1428 H 145.535 3.12826 -5.67489 0
M  V30 1429 N 138.941 1.26152 0.944643 0
M  V30 1430 C 140.218 1.02247 1.66748 0
M  V30 1431 C 140.598 -0.448202 2.06287 0
M  V30 1432 O 139.946 -1.42779 1.78399 0
M  V30 1433 C 140.156 1.96788 2.88228 0
M  V30 1434 C 141.504 2.25201 3.59958 0
M  V30 1435 O 142.528 1.94626 2.98327 0
M  V30 1436 O 141.387 2.77242 4.70956 0
M  V30 1437 H 138.481 0.388517 0.730057 0
M  V30 1438 H 141.027 1.37348 0.99668 0
M  V30 1439 H 139.799 2.96047 2.55875 0
M  V30 1440 H 139.422 1.62145 3.63035 0
M  V30 1441 N 140.419 -1.14872 1.07899 0
M  V30 1442 C 141.665 -1.86064 0.806725 0
M  V30 1443 C 141.998 -1.82434 -0.665706 0
M  V30 1444 O 141.273 -1.25138 -1.48899 0
M  V30 1445 C 141.556 -3.34929 1.32267 0
M  V30 1446 C 141.409 -3.47161 2.86006 0
M  V30 1447 C 142.728 -4.29863 0.943717 0
M  V30 1448 H 139.847 -0.675591 0.294526 0
M  V30 1449 H 142.489 -1.34925 1.33773 0
M  V30 1450 H 140.639 -3.78611 0.870974 0
M  V30 1451 H 142.311 -3.12302 3.39507 0
M  V30 1452 H 140.554 -2.88539 3.23925 0
M  V30 1453 H 141.225 -4.51777 3.17177 0
M  V30 1454 H 143.701 -3.9417 1.33302 0
M  V30 1455 H 142.577 -5.32494 1.33198 0
M  V30 1456 H 142.838 -4.41846 -0.149796 0
M  V30 1457 N 141.898 -0.863906 -1.31812 0
M  V30 1458 C 143.144 -0.472535 -1.97218 0
M  V30 1459 C 143.477 0.971394 -1.68159 0
M  V30 1460 O 142.752 1.68309 -0.974798 0
M  V30 1461 C 143.035 -0.723054 -3.52766 0
M  V30 1462 C 142.888 -2.21608 -3.91421 0
M  V30 1463 C 144.207 -0.185522 -4.39709 0
M  V30 1464 H 141.326 -0.173158 -0.71637 0
M  V30 1465 H 143.968 -1.08403 -1.56041 0
M  V30 1466 H 142.118 -0.202577 -3.87971 0
M  V30 1467 H 143.79 -2.80334 -3.66347 0
M  V30 1468 H 142.033 -2.691 -3.40246 0
M  V30 1469 H 142.704 -2.34203 -4.99853 0
M  V30 1470 H 145.18 -0.630726 -4.11292 0
M  V30 1471 H 144.056 -0.390306 -5.47511 0
M  V30 1472 H 144.317 0.912229 -4.32586 0
M  V30 1473 N 143.376 1.44774 -0.622745 0
M  V30 1474 C 144.625 2.01334 -0.121397 0
M  V30 1475 C 144.938 1.49505 1.26125 0
M  V30 1476 O 146.144 1.98139 1.85616 0
M  V30 1477 C 144.6 3.59516 -0.166298 0
M  V30 1478 C 144.208 4.20342 -1.54974 0
M  V30 1479 C 145.952 4.23582 0.279021 0
M  V30 1480 C 143.859 5.70721 -1.55021 0
M  V30 1481 H 142.789 0.752851 -0.0416172 0
M  V30 1482 H 145.44 1.66083 -0.780309 0
M  V30 1483 H 143.822 3.92027 0.559557 0
M  V30 1484 H 144.996 3.99381 -2.29851 0
M  V30 1485 H 143.311 3.68529 -1.93843 0
M  V30 1486 H 145.908 5.33868 0.298083 0
M  V30 1487 H 146.251 3.95327 1.30471 0
M  V30 1488 H 146.784 3.95843 -0.394063 0
M  V30 1489 H 143.523 6.03698 -2.55399 0
M  V30 1490 H 143.043 5.93829 -0.844245 0
M  V30 1491 H 144.722 6.34203 -1.28047 0
M  V30 1492 N 144.854 0.36279 1.53368 0
M  V30 1493 C 146.103 -0.22888 2.00397 0
M  V30 1494 C 146.416 -1.50096 1.25421 0
M  V30 1495 O 147.622 -2.17106 1.63025 0
M  V30 1496 C 146.078 -0.458417 3.56969 0
M  V30 1497 C 145.686 0.798877 4.4082 0
M  V30 1498 C 147.43 -1.00789 4.12361 0
M  V30 1499 C 145.337 0.539078 5.88938 0
M  V30 1500 H 144.267 -0.089305 0.748693 0
M  V30 1501 H 146.918 0.481099 1.77081 0
M  V30 1502 H 145.3 -1.22959 3.76427 0
M  V30 1503 H 146.474 1.57262 4.33134 0
M  V30 1504 H 144.789 1.27137 3.96516 0
M  V30 1505 H 147.386 -1.21754 5.20653 0
M  V30 1506 H 147.729 -1.9692 3.66781 0
M  V30 1507 H 148.262 -0.296961 3.9669 0
M  V30 1508 H 145.001 1.47064 6.3879 0
M  V30 1509 H 144.521 -0.196222 5.99479 0
M  V30 1510 H 146.2 0.163542 6.46793 0
M  V30 1511 N 146.332 -1.57332 0.0918853 0
M  V30 1512 C 147.557 -1.98995 -0.584442 0
M  V30 1513 C 147.982 -0.970528 -1.61128 0
M  V30 1514 O 147.34 0.0613904 -1.81196 0
M  V30 1515 C 147.388 -3.39636 -1.21161 0
M  V30 1516 O 146.492 -3.40447 -2.32744 0
M  V30 1517 H 145.833 -0.647165 -0.148572 0
M  V30 1518 H 148.363 -2.03873 0.172347 0
M  V30 1519 H 148.373 -3.7726 -1.55367 0
M  V30 1520 H 147.048 -4.13356 -0.459313 0
M  V30 1521 H 145.625 -3.14614 -2.0018 0
M  V30 1522 N 147.81 0.181792 -1.56548 0
M  V30 1523 C 149.038 0.915947 -1.85521 0
M  V30 1524 C 149.453 1.76282 -0.676016 0
M  V30 1525 O 148.81 1.79012 0.355077 0
M  V30 1526 C 148.861 1.80126 -3.13427 0
M  V30 1527 O 148.582 0.988562 -4.26801 0
M  V30 1528 C 150.083 2.64597 -3.55673 0
M  V30 1529 H 147.303 0.26661 -0.61576 0
M  V30 1530 H 149.847 0.185039 -2.03661 0
M  V30 1531 H 148.002 2.48563 -2.97145 0
M  V30 1532 H 148.416 1.59308 -4.99721 0
M  V30 1533 H 149.89 3.2235 -4.48101 0
M  V30 1534 H 150.367 3.38958 -2.79292 0
M  V30 1535 H 150.973 2.0151 -3.74532 0
M  V30 1536 N 149.288 1.51039 0.449983 0
M  V30 1537 C 150.218 1.74379 1.55288 0
M  V30 1538 C 151.199 0.593236 1.5942 0
M  V30 1539 O 152.384 0.834625 1.7535 0
M  V30 1540 C 149.514 1.85728 2.93466 0
M  V30 1541 C 148.468 3.01078 3.04197 0
M  V30 1542 C 147.794 2.97595 4.44231 0
M  V30 1543 C 149.094 4.41254 2.7945 0
M  V30 1544 H 150.788 2.66725 1.36008 0
M  V30 1545 H 148.334 1.2835 0.652864 0
M  V30 1546 H 150.287 2.0064 3.70569 0
M  V30 1547 H 149.011 0.900207 3.13949 0
M  V30 1548 H 147.67 2.85851 2.29531 0
M  V30 1549 H 147.318 1.99691 4.61663 0
M  V30 1550 H 147.018 3.75046 4.52343 0
M  V30 1551 H 148.542 3.14583 5.23326 0
M  V30 1552 H 149.956 4.56897 3.46292 0
M  V30 1553 H 148.353 5.20315 2.98985 0
M  V30 1554 H 149.423 4.52164 1.75144 0
M  V30 1555 N 150.766 -0.704594 1.40972 0
M  V30 1556 C 152.182 -1.01406 1.23244 0
M  V30 1557 C 152.382 -2.01169 0.115399 0
M  V30 1558 O 151.438 -2.47021 -0.523147 0
M  V30 1559 C 152.751 -1.54728 2.57836 0
M  V30 1560 C 154.299 -1.66658 2.64942 0
M  V30 1561 C 154.774 -2.23383 3.9983 0
M  V30 1562 N 156.265 -2.30756 4.01629 0
M  V30 1563 C 157 -2.75655 5.02794 0
M  V30 1564 N 156.496 -3.20225 6.14352 0
M  V30 1565 N 158.289 -2.75138 4.90159 0
M  V30 1566 H 150.44 -0.0435285 2.12355 0
M  V30 1567 H 152.703 -0.0818951 0.944456 0
M  V30 1568 H 152.409 -0.888832 3.40283 0
M  V30 1569 H 152.283 -2.53084 2.79693 0
M  V30 1570 H 154.67 -2.31617 1.8286 0
M  V30 1571 H 154.751 -0.668717 2.46904 0
M  V30 1572 H 154.395 -1.59043 4.82357 0
M  V30 1573 H 154.325 -3.23904 4.15203 0
M  V30 1574 H 156.816 -1.99291 3.21079 0
M  V30 1575 H 157.129 -3.53084 6.87424 0
M  V30 1576 H 155.474 -3.18156 6.17901 0
M  V30 1577 H 158.665 -2.39661 4.02095 0
M  V30 1578 H 158.838 -3.09812 5.6914 0
M  V30 1579 N 152.244 -1.26651 -0.937939 0
M  V30 1580 C 153.174 -1.10993 -2.05433 0
M  V30 1581 C 154.155 -0.0142161 -1.70094 0
M  V30 1582 O 155.34 -0.186837 -1.93299 0
M  V30 1583 C 152.47 -0.745561 -3.39203 0
M  V30 1584 C 151.424 -1.79337 -3.88616 0
M  V30 1585 C 150.75 -1.28324 -5.19073 0
M  V30 1586 C 152.05 -3.19553 -4.13138 0
M  V30 1587 H 153.744 -2.0438 -2.1879 0
M  V30 1588 H 151.29 -0.984041 -1.05131 0
M  V30 1589 H 153.243 -0.622888 -4.16771 0
M  V30 1590 H 151.967 0.22401 -3.25831 0
M  V30 1591 H 150.626 -1.90477 -3.13231 0
M  V30 1592 H 150.274 -0.303414 -5.02084 0
M  V30 1593 H 149.974 -1.98369 -5.53103 0
M  V30 1594 H 151.498 -1.1733 -5.99221 0
M  V30 1595 H 152.912 -3.11471 -4.81309 0
M  V30 1596 H 151.309 -3.87218 -4.58457 0
M  V30 1597 H 152.379 -3.65368 -3.18801 0
M  V30 1598 N 153.722 1.14298 -1.08507 0
M  V30 1599 C 154.999 1.81544 -0.728088 0
M  V30 1600 C 155.379 1.95838 0.78808 0
M  V30 1601 O 154.727 1.51904 1.70697 0
M  V30 1602 C 154.937 3.17169 -1.45619 0
M  V30 1603 C 156.285 3.9265 -1.61591 0
M  V30 1604 O 157.309 3.26762 -1.41793 0
M  V30 1605 O 156.168 5.10807 -1.94263 0
M  V30 1606 H 153.262 0.78491 -0.260471 0
M  V30 1607 H 155.808 1.21307 -1.18671 0
M  V30 1608 H 154.58 3.01934 -2.489 0
M  V30 1609 H 154.203 3.851 -0.989124 0
M  V30 1610 N 155.201 0.870884 1.31352 0
M  V30 1611 C 156.148 0.325425 2.28494 0
M  V30 1612 C 157.118 -0.576615 1.5577 0
M  V30 1613 O 158.303 -0.508059 1.83911 0
M  V30 1614 C 155.443 -0.466283 3.41935 0
M  V30 1615 C 154.556 0.463378 4.29508 0
M  V30 1616 C 153.691 -0.342544 5.30094 0
M  V30 1617 C 152.73 0.583486 6.09313 0
M  V30 1618 N 151.867 -0.186244 7.01853 0
M  V30 1619 H 156.707 1.15901 2.74538 0
M  V30 1620 H 154.244 0.58294 1.35056 0
M  V30 1621 H 156.202 -0.941085 4.06447 0
M  V30 1622 H 154.832 -1.26456 2.97 0
M  V30 1623 H 153.884 1.05663 3.65431 0
M  V30 1624 H 155.196 1.1734 4.84802 0
M  V30 1625 H 154.35 -0.879816 6.00287 0
M  V30 1626 H 153.089 -1.08585 4.75458 0
M  V30 1627 H 152.094 1.13251 5.3801 0
M  V30 1628 H 153.319 1.32566 6.66035 0
M  V30 1629 H 151.265 -0.912348 6.49625 0
M  V30 1630 H 151.182 0.464422 7.54572 0
M  V30 1631 H 152.45 -0.704716 7.76308 0
M  V30 1632 N 156.679 -1.44442 0.630414 0
M  V30 1633 C 157.609 -2.33418 -0.0618083 0
M  V30 1634 C 158.59 -1.48165 -0.835541 0
M  V30 1635 O 159.775 -1.76886 -0.801564 0
M  V30 1636 C 156.905 -3.31222 -1.04449 0
M  V30 1637 C 155.859 -4.26288 -0.382436 0
M  V30 1638 C 155.185 -5.13954 -1.47497 0
M  V30 1639 C 156.485 -5.1744 0.710865 0
M  V30 1640 H 158.179 -2.91548 0.681184 0
M  V30 1641 H 155.725 -1.40191 0.329026 0
M  V30 1642 H 157.678 -3.92351 -1.53748 0
M  V30 1643 H 156.402 -2.71299 -1.81836 0
M  V30 1644 H 155.061 -3.6649 0.0899054 0
M  V30 1645 H 154.709 -4.50385 -2.2397 0
M  V30 1646 H 154.409 -5.7837 -1.03737 0
M  V30 1647 H 155.933 -5.77955 -1.96979 0
M  V30 1648 H 157.347 -5.72509 0.300996 0
M  V30 1649 H 155.744 -5.90455 1.07156 0
M  V30 1650 H 156.814 -4.58496 1.57829 0
M  V30 1651 N 158.157 -0.370918 -1.53173 0
M  V30 1652 C 159.107 0.489588 -2.22681 0
M  V30 1653 C 160.091 1.04442 -1.22395 0
M  V30 1654 O 161.283 0.973578 -1.47819 0
M  V30 1655 C 158.412 1.626 -3.02351 0
M  V30 1656 C 157.498 1.08379 -4.10018 0
M  V30 1657 N 157.889 0.265004 -5.05105 0
M  V30 1658 C 156.187 1.35809 -4.2482 0
M  V30 1659 C 156.888 -0.0324755 -5.81691 0
M  V30 1660 N 155.864 0.566581 -5.40639 0
M  V30 1661 H 159.666 -0.142729 -2.93553 0
M  V30 1662 H 157.18 -0.179221 -1.61408 0
M  V30 1663 H 159.177 2.2547 -3.50669 0
M  V30 1664 H 157.837 2.26132 -2.33011 0
M  V30 1665 H 158.848 -0.0962352 -5.17811 0
M  V30 1666 H 155.525 1.9958 -3.66707 0
M  V30 1667 H 156.915 -0.69473 -6.68299 0
M  V30 1668 N 159.635 1.57281 -0.100228 0
M  V30 1669 C 160.881 1.94826 0.563101 0
M  V30 1670 C 161.214 0.982475 1.67514 0
M  V30 1671 O 160.489 0.0164069 1.94493 0
M  V30 1672 C 160.772 3.42453 1.11346 0
M  V30 1673 C 160.625 4.498 0.00612081 0
M  V30 1674 C 161.944 3.91506 2.01024 0
M  V30 1675 H 159.063 0.708428 0.203221 0
M  V30 1676 H 161.705 1.8922 -0.171979 0
M  V30 1677 H 159.855 3.47361 1.7399 0
M  V30 1678 H 161.527 4.57 -0.628357 0
M  V30 1679 H 159.77 4.28756 -0.659581 0
M  V30 1680 H 160.441 5.50306 0.432109 0
M  V30 1681 H 162.917 3.88784 1.48278 0
M  V30 1682 H 161.793 4.95358 2.36457 0
M  V30 1683 H 162.054 3.31099 2.92961 0
M  V30 1684 N 161.113 -0.173488 1.56642 0
M  V30 1685 C 162.043 -1.2171 1.99271 0
M  V30 1686 C 163.024 -1.46289 0.867959 0
M  V30 1687 O 164.209 -1.5766 1.13388 0
M  V30 1688 C 161.339 -2.55651 2.35074 0
M  V30 1689 C 160.293 -2.45645 3.50489 0
M  V30 1690 C 159.619 -3.84056 3.72028 0
M  V30 1691 C 160.919 -1.96302 4.84007 0
M  V30 1692 H 162.613 -0.86275 2.867 0
M  V30 1693 H 160.159 -0.413571 1.37933 0
M  V30 1694 H 162.112 -3.2886 2.63494 0
M  V30 1695 H 160.836 -2.92869 1.44552 0
M  V30 1696 H 159.495 -1.7489 3.22194 0
M  V30 1697 H 159.143 -4.18664 2.788 0
M  V30 1698 H 158.843 -3.7823 4.49684 0
M  V30 1699 H 160.367 -4.58854 4.02846 0
M  V30 1700 H 161.781 -2.59284 5.11317 0
M  V30 1701 H 160.178 -2.01429 5.65284 0
M  V30 1702 H 161.248 -0.917226 4.76146 0
M  V30 1703 N 162.591 -1.51276 -0.441967 0
M  V30 1704 C 163.839 -1.63392 -1.18943 0
M  V30 1705 C 164.16 -0.350159 -1.9183 0
M  V30 1706 O 163.43 0.633784 -1.85364 0
M  V30 1707 H 162.01 -0.602164 -0.442049 0
M  V30 1708 H 164.672 -1.88186 -0.507165 0
M  V30 1709 H 163.768 -2.45934 -1.92154 0
M  V30 1710 N 164.069 0.697108 -1.41344 0
M  V30 1711 C 165.016 1.81106 -1.43071 0
M  V30 1712 C 165.986 1.63632 -0.285275 0
M  V30 1713 O 167.171 1.84504 -0.486091 0
M  V30 1714 C 164.311 3.18975 -1.31715 0
M  V30 1715 C 163.424 3.47892 -2.56115 0
M  V30 1716 C 162.559 4.75367 -2.37064 0
M  V30 1717 C 161.598 4.97247 -3.56948 0
M  V30 1718 N 160.735 6.15947 -3.36977 0
M  V30 1719 H 165.575 1.78965 -2.38276 0
M  V30 1720 H 163.112 0.873975 -1.18322 0
M  V30 1721 H 165.07 3.98615 -1.23133 0
M  V30 1722 H 163.7 3.20297 -0.401183 0
M  V30 1723 H 162.752 2.62669 -2.75153 0
M  V30 1724 H 164.064 3.59962 -3.45295 0
M  V30 1725 H 163.218 5.63059 -2.25941 0
M  V30 1726 H 161.957 4.65541 -1.45338 0
M  V30 1727 H 160.962 4.08004 -3.68527 0
M  V30 1728 H 162.187 5.08934 -4.49626 0
M  V30 1729 H 160.133 6.07336 -2.47949 0
M  V30 1730 H 160.05 6.28777 -4.19732 0
M  V30 1731 H 161.318 7.06377 -3.29623 0
M  V30 1732 N 165.547 1.27147 0.931209 0
M  V30 1733 C 166.795 1.13055 1.6752 0
M  V30 1734 C 167.116 -0.324791 1.92276 0
M  V30 1735 O 166.386 -1.22775 1.52654 0
M  V30 1736 H 164.966 0.415391 0.620854 0
M  V30 1737 H 167.628 1.59623 1.11833 0
M  V30 1738 H 166.724 1.65694 2.64485 0
M  V30 1739 N 167.025 -1.13721 1.09112 0
M  V30 1740 C 167.935 -2.22638 0.73957 0
M  V30 1741 C 168.951 -1.72091 -0.257068 0
M  V30 1742 O 170.127 -2.01155 -0.0992154 0
M  V30 1743 C 167.192 -3.46322 0.16191 0
M  V30 1744 C 166.253 -4.11775 1.21408 0
M  V30 1745 C 165.486 -5.29555 0.663891 0
M  V30 1746 O 165.709 -5.68077 -0.514274 0
M  V30 1747 O 164.643 -5.84973 1.41738 0
M  V30 1748 H 168.469 -2.55074 1.64836 0
M  V30 1749 H 166.054 -1.21791 0.865289 0
M  V30 1750 H 167.936 -4.21107 -0.157073 0
M  V30 1751 H 166.611 -3.15593 -0.719932 0
M  V30 1752 H 165.518 -3.3883 1.58571 0
M  V30 1753 H 166.851 -4.46627 2.06845 0
M  V30 1754 N 168.503 -0.877838 -1.30888 0
M  V30 1755 C 169.435 -0.296607 -2.27273 0
M  V30 1756 C 170.448 0.544799 -1.53414 0
M  V30 1757 O 171.637 0.365511 -1.74718 0
M  V30 1758 C 168.737 0.597481 -3.33592 0
M  V30 1759 C 167.91 -0.213251 -4.3688 0
M  V30 1760 C 166.969 0.610208 -5.2265 0
M  V30 1761 O 165.995 0.035441 -5.69189 0
M  V30 1762 N 167.197 1.92071 -5.47804 0
M  V30 1763 H 169.962 -1.12492 -2.77787 0
M  V30 1764 H 167.523 -0.740105 -1.43993 0
M  V30 1765 H 169.515 1.15425 -3.87891 0
M  V30 1766 H 168.085 1.32647 -2.83061 0
M  V30 1767 H 167.305 -0.951466 -3.82545 0
M  V30 1768 H 168.593 -0.769262 -5.02951 0
M  V30 1769 H 167.991 2.4107 -5.11763 0
M  V30 1770 H 166.548 2.42508 -6.05007 0
M  V30 1771 N 169.982 1.44106 -0.638065 0
M  V30 1772 C 171.228 2.02277 -0.145546 0
M  V30 1773 C 171.561 1.50125 1.23191 0
M  V30 1774 O 170.836 0.688133 1.8192 0
M  V30 1775 C 171.119 3.59829 -0.139791 0
M  V30 1776 C 170.972 4.22247 -1.55008 0
M  V30 1777 C 172.291 4.36873 0.531966 0
M  V30 1778 H 169.41 0.734992 -0.0543632 0
M  V30 1779 H 172.052 1.71592 -0.815863 0
M  V30 1780 H 170.202 3.86102 0.431007 0
M  V30 1781 H 171.874 4.07057 -2.1703 0
M  V30 1782 H 170.117 3.79476 -2.10191 0
M  V30 1783 H 170.788 5.31284 -1.49804 0
M  V30 1784 H 173.264 4.16074 0.0464781 0
M  V30 1785 H 172.14 5.4657 0.505206 0
M  V30 1786 H 172.401 4.11995 1.60352 0
M  V30 1787 N 171.46 0.379036 1.52974 0
M  V30 1788 C 172.39 -0.452706 2.29069 0
M  V30 1789 C 173.371 -1.07237 1.32039 0
M  V30 1790 O 174.556 -1.08708 1.60923 0
M  V30 1791 C 171.686 -1.5856 3.08992 0
M  V30 1792 C 170.64 -1.0925 4.13822 0
M  V30 1793 C 169.966 -2.31668 4.81907 0
M  V30 1794 C 171.266 -0.167702 5.22031 0
M  V30 1795 H 172.96 0.182181 2.98845 0
M  V30 1796 H 170.506 0.0890592 1.43724 0
M  V30 1797 H 172.459 -2.1742 3.6098 0
M  V30 1798 H 171.183 -2.24792 2.36931 0
M  V30 1799 H 169.842 -0.526494 3.628 0
M  V30 1800 H 169.49 -2.96386 4.06404 0
M  V30 1801 H 169.19 -1.9934 5.52754 0
M  V30 1802 H 170.714 -2.91189 5.36695 0
M  V30 1803 H 172.128 -0.664186 5.6944 0
M  V30 1804 H 170.525 0.0653265 6.00064 0
M  V30 1805 H 171.595 0.786347 4.78482 0
M  V30 1806 N 172.938 -1.57226 0.108567 0
M  V30 1807 C 173.901 -2.13602 -0.831082 0
M  V30 1808 C 174.901 -1.06841 -1.20173 0
M  V30 1809 O 176.091 -1.32666 -1.12895 0
M  V30 1810 C 173.223 -2.66769 -2.12243 0
M  V30 1811 H 174.416 -2.97951 -0.341317 0
M  V30 1812 H 171.969 -1.55667 -0.14057 0
M  V30 1813 H 172.704 -1.85977 -2.65675 0
M  V30 1814 H 172.489 -3.44839 -1.86625 0
M  V30 1815 H 173.979 -3.10332 -2.79435 0
M  V30 1816 N 174.416 0.165178 -1.56732 0
M  V30 1817 C 175.646 0.894919 -1.86212 0
M  V30 1818 C 176.054 1.76066 -0.692627 0
M  V30 1819 O 175.397 1.80387 0.347303 0
M  V30 1820 C 175.459 1.8174 -3.10179 0
M  V30 1821 C 175.123 1.13064 -4.42793 0
M  V30 1822 C 176.12 0.493169 -5.17556 0
M  V30 1823 C 173.805 1.12556 -4.89527 0
M  V30 1824 C 175.799 -0.140209 -6.37246 0
M  V30 1825 C 173.486 0.488366 -6.09145 0
M  V30 1826 C 174.484 -0.143411 -6.82849 0
M  V30 1827 O 174.172 -0.77055 -8.00199 0
M  V30 1828 H 173.904 0.265114 -0.621844 0
M  V30 1829 H 176.458 0.168242 -2.0471 0
M  V30 1830 H 174.688 2.58455 -2.87642 0
M  V30 1831 H 176.377 2.4175 -3.26055 0
M  V30 1832 H 177.143 0.489023 -4.82528 0
M  V30 1833 H 173.022 1.60672 -4.32094 0
M  V30 1834 H 176.566 -0.633932 -6.94714 0
M  V30 1835 H 172.463 0.490116 -6.43637 0
M  V30 1836 H 173.231 -0.670408 -8.1575 0
M  V30 1837 N 175.894 1.51508 0.433938 0
M  V30 1838 C 177.305 1.56784 1.01369 0
M  V30 1839 C 177.656 0.393349 1.92217 0
M  V30 1840 O 176.781 -0.489441 2.10792 0
M  V30 1841 C 177.376 2.84144 1.8452 0
M  V30 1842 C 175.935 2.9198 2.37539 0
M  V30 1843 C 175.082 2.51482 1.16843 0
M  V30 1844 H 178.033 1.57236 0.215081 0
M  V30 1845 H 178.054 2.68098 2.70007 0
M  V30 1846 H 177.566 3.69607 1.18373 0
M  V30 1847 H 175.667 2.10955 3.0713 0
M  V30 1848 H 175.78 3.95704 2.70103 0
M  V30 1849 H 174.144 2.04758 1.51481 0
M  V30 1850 H 174.927 3.39293 0.523015 0
M  V30 1851 N 177.372 -0.689602 1.41712 0
M  V30 1852 C 178.62 -1.4468 1.4111 0
M  V30 1853 C 178.941 -1.94986 0.0232196 0
M  V30 1854 O 178.211 -1.72097 -0.935913 0
M  V30 1855 H 176.791 -0.536847 0.519427 0
M  V30 1856 H 179.453 -0.815825 1.77004 0
M  V30 1857 H 178.549 -2.30706 2.10193 0
M  V30 1858 N 178.85 -1.27639 -0.924453 0
M  V30 1859 C 180.078 -1.16989 -1.70649 0
M  V30 1860 C 180.493 0.272869 -1.86818 0
M  V30 1861 O 179.85 1.18549 -1.38753 0
M  V30 1862 C 179.901 -1.85229 -3.10439 0
M  V30 1863 O 179.622 -3.23868 -2.95028 0
M  V30 1864 C 181.123 -1.80746 -4.04779 0
M  V30 1865 H 178.343 -0.406595 -0.53378 0
M  V30 1866 H 180.887 -1.68569 -1.15778 0
M  V30 1867 H 179.042 -1.37545 -3.6216 0
M  V30 1868 H 179.456 -3.57889 -3.83426 0
M  V30 1869 H 180.93 -2.33101 -5.00368 0
M  V30 1870 H 181.407 -0.777499 -4.32263 0
M  V30 1871 H 182.013 -2.28059 -3.58984 0
M  V30 1872 N 180.328 1.1314 -1.09713 0
M  V30 1873 C 181.556 1.88321 -0.856898 0
M  V30 1874 C 181.971 1.79276 0.592073 0
M  V30 1875 O 181.328 1.16142 1.40774 0
M  V30 1876 C 181.379 3.37812 -1.28706 0
M  V30 1877 O 181.1 3.46627 -2.67921 0
M  V30 1878 C 182.601 4.29952 -1.07964 0
M  V30 1879 H 179.821 0.596094 -0.308079 0
M  V30 1880 H 182.365 1.43205 -1.45988 0
M  V30 1881 H 180.52 3.805 -0.727912 0
M  V30 1882 H 180.934 4.39579 -2.8613 0
M  V30 1883 H 182.408 5.33159 -1.42986 0
M  V30 1884 H 182.885 4.39196 -0.0176577 0
M  V30 1885 H 183.491 3.93036 -1.62489 0
M  V30 1886 N 181.806 0.884767 1.30421 0
M  V30 1887 C 182.736 0.367574 2.30589 0
M  V30 1888 C 183.717 -0.549464 1.60981 0
M  V30 1889 O 184.902 -0.46336 1.88591 0
M  V30 1890 C 182.032 -0.418944 3.44764 0
M  V30 1891 C 180.986 0.406316 4.26067 0
M  V30 1892 C 180.312 -0.506793 5.32293 0
M  V30 1893 C 181.612 1.64832 4.95608 0
M  V30 1894 H 183.306 1.20462 2.74097 0
M  V30 1895 H 180.852 0.580695 1.31772 0
M  V30 1896 H 182.805 -0.791395 4.13902 0
M  V30 1897 H 181.529 -1.28964 3.0006 0
M  V30 1898 H 180.188 0.760903 3.58617 0
M  V30 1899 H 179.836 -1.37519 4.83836 0
M  V30 1900 H 179.536 0.0415828 5.87585 0
M  V30 1901 H 181.06 -0.875764 6.04287 0
M  V30 1902 H 182.474 1.34646 5.57264 0
M  V30 1903 H 180.871 2.13688 5.60765 0
M  V30 1904 H 181.941 2.39284 4.21748 0
M  V30 1905 N 183.284 -1.43765 0.645699 0
M  V30 1906 C 184.514 -2.05953 0.163318 0
M  V30 1907 C 184.922 -1.48432 -1.17322 0
M  V30 1908 O 184.265 -0.607295 -1.73371 0
M  V30 1909 C 184.327 -3.59499 -0.0103065 0
M  V30 1910 C 183.991 -4.39563 1.25035 0
M  V30 1911 C 184.988 -4.72108 2.17739 0
M  V30 1912 C 182.673 -4.79697 1.48983 0
M  V30 1913 C 184.667 -5.43688 3.3269 0
M  V30 1914 C 182.354 -5.51023 2.64229 0
M  V30 1915 C 183.352 -5.8294 3.55908 0
M  V30 1916 O 183.04 -6.5281 4.69142 0
M  V30 1917 H 182.772 -0.670798 0.0836986 0
M  V30 1918 H 185.326 -1.85384 0.884407 0
M  V30 1919 H 183.556 -3.78613 -0.78669 0
M  V30 1920 H 185.245 -4.03408 -0.449087 0
M  V30 1921 H 186.011 -4.41627 2.00476 0
M  V30 1922 H 181.89 -4.54266 0.785078 0
M  V30 1923 H 185.434 -5.68517 4.04269 0
M  V30 1924 H 181.331 -5.8092 2.81429 0
M  V30 1925 H 182.099 -6.71288 4.6831 0
M  V30 1926 N 184.763 -0.387143 -1.52771 0
M  V30 1927 C 185.988 0.198407 -2.06449 0
M  V30 1928 C 186.413 1.39918 -1.25716 0
M  V30 1929 O 185.771 1.79099 -0.281657 0
M  V30 1930 C 185.819 0.548893 -3.56398 0
M  V30 1931 O 184.923 1.64315 -3.78252 0
M  V30 1932 H 184.264 0.0237731 -0.663574 0
M  V30 1933 H 186.794 -0.553989 -1.96957 0
M  V30 1934 H 186.804 0.813812 -3.99801 0
M  V30 1935 H 185.479 -0.329005 -4.14597 0
M  V30 1936 H 184.056 1.37211 -3.46738 0
M  V30 1937 N 186.241 1.57166 -0.116904 0
M  V30 1938 C 187.171 2.18222 0.830759 0
M  V30 1939 C 188.152 1.12167 1.27877 0
M  V30 1940 O 189.337 1.40394 1.34176 0
M  V30 1941 C 186.467 2.77996 2.08172 0
M  V30 1942 C 185.421 3.89614 1.77157 0
M  V30 1943 C 184.747 4.36187 3.09265 0
M  V30 1944 C 186.047 5.1181 1.04151 0
M  V30 1945 H 187.741 2.97664 0.321992 0
M  V30 1946 H 185.287 1.4318 0.153434 0
M  V30 1947 H 187.24 3.19366 2.74924 0
M  V30 1948 H 185.964 1.9584 2.6137 0
M  V30 1949 H 184.623 3.48816 1.12796 0
M  V30 1950 H 184.271 3.50893 3.60393 0
M  V30 1951 H 183.971 5.11455 2.89288 0
M  V30 1952 H 185.495 4.80207 3.77139 0
M  V30 1953 H 186.909 5.50214 1.61052 0
M  V30 1954 H 185.306 5.92648 0.942762 0
M  V30 1955 H 186.376 4.84892 0.0279022 0
M  V30 1956 N 187.719 -0.156864 1.56817 0
M  V30 1957 C 188.629 -1.2136 2.00771 0
M  V30 1958 C 189.645 -1.47598 0.921459 0
M  V30 1959 O 190.821 -1.59462 1.2302 0
M  V30 1960 C 187.886 -2.52943 2.37109 0
M  V30 1961 C 186.947 -2.34439 3.59634 0
M  V30 1962 C 186.18 -3.59748 3.94229 0
M  V30 1963 O 186.403 -4.65526 3.29609 0
M  V30 1964 O 185.337 -3.52998 4.8752 0
M  V30 1965 H 189.163 -0.870468 2.90958 0
M  V30 1966 H 186.748 -0.36484 1.44877 0
M  V30 1967 H 188.63 -3.30538 2.61386 0
M  V30 1968 H 187.305 -2.86806 1.5008 0
M  V30 1969 H 186.212 -1.54828 3.40557 0
M  V30 1970 H 187.545 -2.05496 4.4725 0
M  V30 1971 N 189.197 -1.51736 -0.425897 0
M  V30 1972 C 190.144 -1.73875 -1.51776 0
M  V30 1973 C 191.114 -0.580702 -1.55618 0
M  V30 1974 O 192.299 -0.81641 -1.72451 0
M  V30 1975 C 189.439 -1.88012 -2.89388 0
M  V30 1976 C 188.552 -3.15606 -2.94986 0
M  V30 1977 C 187.687 -3.20271 -4.23793 0
M  V30 1978 C 186.726 -4.42134 -4.23302 0
M  V30 1979 N 185.863 -4.44284 -5.43651 0
M  V30 1980 H 190.703 -2.67071 -1.32201 0
M  V30 1981 H 188.24 -1.32351 -0.642008 0
M  V30 1982 H 190.198 -1.9419 -3.69251 0
M  V30 1983 H 188.828 -0.98213 -3.07496 0
M  V30 1984 H 187.88 -3.18681 -2.07717 0
M  V30 1985 H 189.192 -4.05486 -2.90486 0
M  V30 1986 H 188.346 -3.25428 -5.12036 0
M  V30 1987 H 187.085 -2.28299 -4.30965 0
M  V30 1988 H 186.09 -4.3714 -3.3345 0
M  V30 1989 H 187.315 -5.35382 -4.17783 0
M  V30 1990 H 185.261 -3.55188 -5.51523 0
M  V30 1991 H 185.178 -5.27988 -5.41078 0
M  V30 1992 H 186.446 -4.53649 -6.33895 0
M  V30 1993 N 190.675 0.682077 -1.42076 0
M  V30 1994 C 191.638 1.77756 -1.44691 0
M  V30 1995 C 192.638 1.5726 -0.335535 0
M  V30 1996 O 193.828 1.63686 -0.596037 0
M  V30 1997 C 190.96 3.16301 -1.27146 0
M  V30 1998 H 192.153 1.76826 -2.42224 0
M  V30 1999 H 189.706 0.891012 -1.28416 0
M  V30 2000 H 190.441 3.22862 -0.305075 0
M  V30 2001 H 190.226 3.32581 -2.07683 0
M  V30 2002 H 191.716 3.96241 -1.31843 0
M  V30 2003 N 192.153 1.28127 0.917671 0
M  V30 2004 C 193.083 1.14248 2.03641 0
M  V30 2005 C 194.064 0.0412748 1.7005 0
M  V30 2006 O 195.249 0.217566 1.92977 0
M  V30 2007 C 192.379 0.799431 3.37974 0
M  V30 2008 C 191.333 1.85497 3.85713 0
M  V30 2009 C 190.659 1.36565 5.16966 0
M  V30 2010 C 191.959 3.26085 4.08002 0
M  V30 2011 H 193.653 2.07835 2.15511 0
M  V30 2012 H 191.199 1.00064 1.03553 0
M  V30 2013 H 193.152 0.689114 4.15727 0
M  V30 2014 H 191.876 -0.172145 3.26146 0
M  V30 2015 H 190.535 1.95437 3.10161 0
M  V30 2016 H 190.183 0.383253 5.01538 0
M  V30 2017 H 189.883 2.07143 5.49878 0
M  V30 2018 H 191.407 1.26848 5.97279 0
M  V30 2019 H 192.821 3.19089 4.76293 0
M  V30 2020 H 191.218 3.94462 4.52238 0
M  V30 2021 H 192.288 3.70394 3.12948 0
M  V30 2022 N 193.631 -1.12557 1.10312 0
M  V30 2023 C 194.578 -2.18247 0.750781 0
M  V30 2024 C 195.548 -1.63853 -0.272293 0
M  V30 2025 O 196.733 -1.90195 -0.151862 0
M  V30 2026 C 193.873 -3.44591 0.187379 0
M  V30 2027 C 192.986 -4.13046 1.2656 0
M  V30 2028 C 192.121 -5.27034 0.663978 0
M  V30 2029 C 191.16 -5.87353 1.72287 0
M  V30 2030 N 190.297 -6.92757 1.1416 0
M  V30 2031 H 195.137 -2.47732 1.65628 0
M  V30 2032 H 192.674 -1.21629 0.827337 0
M  V30 2033 H 194.632 -4.16904 -0.157148 0
M  V30 2034 H 193.262 -3.15527 -0.681355 0
M  V30 2035 H 192.314 -3.38924 1.72727 0
M  V30 2036 H 193.626 -4.53947 2.06721 0
M  V30 2037 H 192.78 -6.06104 0.268824 0
M  V30 2038 H 191.519 -4.87407 -0.169082 0
M  V30 2039 H 190.524 -5.06971 2.12746 0
M  V30 2040 H 191.749 -6.29051 2.55875 0
M  V30 2041 H 189.695 -6.5517 0.329984 0
M  V30 2042 H 189.612 -7.3225 1.88007 0
M  V30 2043 H 190.88 -7.75658 0.772956 0
M  V30 2044 N 195.109 -0.891671 -1.2995 0
M  V30 2045 C 196.52 -0.563104 -1.78006 0
M  V30 2046 C 196.871 0.920978 -1.73241 0
M  V30 2047 O 195.996 1.71987 -1.31337 0
M  V30 2048 C 196.591 -1.01539 -3.23226 0
M  V30 2049 C 195.15 -0.738124 -3.69092 0
M  V30 2050 C 194.297 -1.19461 -2.50249 0
M  V30 2051 H 197.248 -1.07522 -1.16725 0
M  V30 2052 H 197.269 -0.347217 -3.78912 0
M  V30 2053 H 196.781 -2.09555 -3.26662 0
M  V30 2054 H 194.882 0.329766 -3.71138 0
M  V30 2055 H 194.995 -1.33037 -4.60259 0
M  V30 2056 H 193.359 -0.613787 -2.47194 0
M  V30 2057 H 194.142 -2.28265 -2.56417 0
M  V30 2058 N 196.587 1.43421 -0.653314 0
M  V30 2059 C 197.517 2.33487 0.0246656 0
M  V30 2060 C 198.498 1.49475 0.811863 0
M  V30 2061 O 199.683 1.78139 0.773322 0
M  V30 2062 C 196.813 3.32841 0.99166 0
M  V30 2063 C 195.767 4.26842 0.314568 0
M  V30 2064 C 195.093 5.16236 1.39302 0
M  V30 2065 C 196.393 5.16243 -0.793095 0
M  V30 2066 H 198.087 2.90427 -0.727481 0
M  V30 2067 H 195.633 1.39649 -0.351287 0
M  V30 2068 H 197.586 3.94747 1.47487 0
M  V30 2069 H 196.31 2.74158 1.77497 0
M  V30 2070 H 194.969 3.663 -0.148199 0
M  V30 2071 H 194.617 4.53891 2.16776 0
M  V30 2072 H 194.317 5.79948 0.945223 0
M  V30 2073 H 195.841 5.81015 1.87759 0
M  V30 2074 H 197.255 5.71958 -0.392039 0
M  V30 2075 H 195.652 5.88676 -1.16536 0
M  V30 2076 H 196.722 4.55927 -1.65103 0
M  V30 2077 N 198.065 0.39524 1.52563 0
M  V30 2078 C 199.313 -0.184678 2.01254 0
M  V30 2079 C 199.634 -1.46822 1.28329 0
M  V30 2080 O 198.904 -1.91666 0.405094 0
M  V30 2081 H 197.484 -0.0712355 0.743596 0
M  V30 2082 H 200.146 0.528293 1.87603 0
M  V30 2083 H 199.242 -0.390681 3.09645 0
M  V30 2084 N 199.544 -1.57102 0.125237 0
M  V30 2085 C 200.96 -1.57915 -0.231322 0
M  V30 2086 C 201.16 -1.13833 -1.66266 0
M  V30 2087 O 200.216 -0.828581 -2.38518 0
M  V30 2088 C 201.529 -3.00699 0.00766489 0
M  V30 2089 C 203.077 -3.12947 -0.0577483 0
M  V30 2090 C 203.552 -4.57742 0.153626 0
M  V30 2091 N 205.043 -4.63092 0.0998073 0
M  V30 2092 C 205.778 -5.72905 0.238174 0
M  V30 2093 N 205.274 -6.91445 0.433057 0
M  V30 2094 N 207.067 -5.6182 0.177308 0
M  V30 2095 H 199.218 -1.84055 1.06007 0
M  V30 2096 H 201.481 -0.850905 0.417929 0
M  V30 2097 H 201.187 -3.3726 0.997431 0
M  V30 2098 H 201.061 -3.70236 -0.721452 0
M  V30 2099 H 203.448 -2.7624 -1.03804 0
M  V30 2100 H 203.529 -2.4594 0.70335 0
M  V30 2101 H 203.173 -4.95149 1.13092 0
M  V30 2102 H 203.103 -5.22848 -0.627534 0
M  V30 2103 H 205.594 -3.77871 -0.047051 0
M  V30 2104 H 205.907 -7.70985 0.529332 0
M  V30 2105 H 204.252 -6.93415 0.469109 0
M  V30 2106 H 207.443 -4.68093 0.0259748 0
M  V30 2107 H 207.616 -6.47357 0.288582 0
M  V30 2108 N 201.022 0.148545 -1.56898 0
M  V30 2109 C 201.932 1.20293 -2.01412 0
M  V30 2110 C 202.948 1.47107 -0.929273 0
M  V30 2111 O 204.124 1.58807 -1.23863 0
M  V30 2112 C 201.189 2.51682 -2.38447 0
M  V30 2113 C 200.25 2.32529 -3.60872 0
M  V30 2114 C 199.483 3.57653 -3.96132 0
M  V30 2115 O 199.706 4.63771 -3.32073 0
M  V30 2116 O 198.64 3.50408 -4.89385 0
M  V30 2117 H 202.466 0.855025 -2.91416 0
M  V30 2118 H 200.051 0.357151 -1.45068 0
M  V30 2119 H 201.933 3.29147 -2.63135 0
M  V30 2120 H 200.608 2.86006 -1.51599 0
M  V30 2121 H 199.515 1.53019 -3.41373 0
M  V30 2122 H 200.848 2.03121 -4.48333 0
M  V30 2123 N 202.5 1.5196 0.417844 0
M  V30 2124 C 203.911 1.57851 0.997 0
M  V30 2125 C 204.262 0.413714 1.91789 0
M  V30 2126 O 203.387 -0.467057 2.113 0
M  V30 2127 C 203.982 2.86085 1.81496 0
M  V30 2128 C 202.541 2.94483 2.34428 0
M  V30 2129 C 201.688 2.52707 1.14169 0
M  V30 2130 H 204.639 1.57455 0.198392 0
M  V30 2131 H 204.66 2.70947 2.67148 0
M  V30 2132 H 204.172 3.70842 1.14446 0
M  V30 2133 H 202.273 2.142 3.04875 0
M  V30 2134 H 202.386 3.98546 2.65891 0
M  V30 2135 H 200.75 2.06353 1.49301 0
M  V30 2136 H 201.533 3.39828 0.486999 0
M  V30 2137 N 203.978 -0.674533 1.42435 0
M  V30 2138 C 204.928 -1.7807 1.4239 0
M  V30 2139 C 205.912 -1.58169 0.295202 0
M  V30 2140 O 207.104 -1.68643 0.537449 0
M  V30 2141 C 204.233 -3.16532 1.32901 0
M  V30 2142 C 203.319 -3.42055 2.50717 0
M  V30 2143 N 203.71 -3.38162 3.76139 0
M  V30 2144 C 202.008 -3.72692 2.44983 0
M  V30 2145 C 202.709 -3.63177 4.54398 0
M  V30 2146 N 201.685 -3.83954 3.84812 0
M  V30 2147 H 205.487 -1.73454 2.37257 0
M  V30 2148 H 203.001 -0.875381 1.36788 0
M  V30 2149 H 204.998 -3.958 1.30951 0
M  V30 2150 H 203.658 -3.22345 0.390363 0
M  V30 2151 H 204.669 -3.18057 4.0873 0
M  V30 2152 H 201.346 -3.85749 1.59699 0
M  V30 2153 H 202.736 -3.66125 5.63384 0
M  V30 2154 N 205.456 -1.28612 -0.910864 0
M  V30 2155 C 206.681 -1.1891 -1.69927 0
M  V30 2156 C 207.106 0.248372 -1.86453 0
M  V30 2157 O 206.464 1.17961 -1.37676 0
M  V30 2158 C 206.512 -1.89578 -3.06745 0
M  V30 2159 O 205.616 -1.20521 -3.94396 0
M  V30 2160 H 204.957 -0.412632 -0.520222 0
M  V30 2161 H 207.487 -1.69985 -1.1387 0
M  V30 2162 H 207.497 -1.97597 -3.56958 0
M  V30 2163 H 206.172 -2.94136 -2.94035 0
M  V30 2164 H 204.749 -1.20684 -3.52831 0
M  V30 2165 N 206.934 1.1197 -1.10907 0
M  V30 2166 C 208.18 1.8386 -0.855773 0
M  V30 2167 C 208.513 1.84134 0.617103 0
M  V30 2168 O 207.788 1.29041 1.45529 0
M  V30 2169 C 208.071 3.31305 -1.411 0
M  V30 2170 C 207.924 3.39456 -2.9511 0
M  V30 2171 C 209.243 4.2721 -1.05736 0
M  V30 2172 H 206.362 0.667545 -0.312334 0
M  V30 2173 H 209.004 1.31331 -1.37303 0
M  V30 2174 H 207.154 3.76169 -0.97105 0
M  V30 2175 H 208.826 3.03191 -3.47668 0
M  V30 2176 H 207.069 2.79849 -3.31462 0
M  V30 2177 H 207.74 4.43209 -3.29044 0
M  V30 2178 H 210.216 3.90497 -1.43706 0
M  V30 2179 H 209.092 5.28775 -1.47269 0
M  V30 2180 H 209.353 4.42088 0.0325958 0
M  V30 2181 N 208.412 0.89855 1.29475 0
M  V30 2182 C 209.661 0.519863 1.94885 0
M  V30 2183 C 209.974 -0.9383 1.71625 0
M  V30 2184 O 211.18 -1.42445 2.31131 0
M  V30 2185 C 209.636 0.878836 3.49005 0
M  V30 2186 C 209.244 2.35569 3.81066 0
M  V30 2187 C 210.988 0.570004 4.20656 0
M  V30 2188 C 208.895 2.65558 5.28425 0
M  V30 2189 H 207.825 0.190692 0.729488 0
M  V30 2190 H 210.476 1.09539 1.47219 0
M  V30 2191 H 208.858 0.232253 3.95318 0
M  V30 2192 H 210.032 3.04773 3.45616 0
M  V30 2193 H 208.347 2.63343 3.22552 0
M  V30 2194 H 210.944 0.770925 5.29113 0
M  V30 2195 H 211.287 -0.491404 4.1339 0
M  V30 2196 H 211.82 1.17438 3.8007 0
M  V30 2197 H 208.559 3.70493 5.40754 0
M  V30 2198 H 208.079 2.00977 5.65127 0
M  V30 2199 H 209.758 2.51765 5.96006 0
M  V30 2200 N 209.89 -1.43072 0.660911 0
M  V30 2201 C 211.138 -2.01323 0.177094 0
M  V30 2202 C 211.459 -1.5245 -1.2159 0
M  V30 2203 O 210.729 -0.740322 -1.81373 0
M  V30 2204 H 209.309 -0.744382 0.0624804 0
M  V30 2205 H 211.971 -1.75179 0.854305 0
M  V30 2206 H 211.067 -3.11649 0.167641 0
M  V30 2207 N 211.368 -0.403325 -1.52352 0
M  V30 2208 C 212.593 0.176499 -2.06648 0
M  V30 2209 C 213.018 1.38577 -1.27193 0
M  V30 2210 O 212.376 1.7879 -0.300637 0
M  V30 2211 C 212.424 0.511061 -3.5696 0
M  V30 2212 O 211.528 1.60294 -3.79973 0
M  V30 2213 H 210.869 0.0167337 -0.663789 0
M  V30 2214 H 213.399 -0.574848 -1.96359 0
M  V30 2215 H 213.409 0.771362 -4.00642 0
M  V30 2216 H 212.084 -0.37296 -4.14224 0
M  V30 2217 H 210.661 1.33526 -3.48174 0
M  V30 2218 N 212.846 1.57033 -0.133567 0
M  V30 2219 C 214.071 2.00475 0.531477 0
M  V30 2220 C 214.496 1.01291 1.58499 0
M  V30 2221 O 213.854 -0.0133279 1.81295 0
M  V30 2222 C 213.902 3.42729 1.12113 0
M  V30 2223 O 213.006 3.46498 2.23636 0
M  V30 2224 H 212.347 0.650876 0.131362 0
M  V30 2225 H 214.877 2.03344 -0.22634 0
M  V30 2226 H 214.887 3.81246 1.4531 0
M  V30 2227 H 213.562 4.14428 0.349557 0
M  V30 2228 H 212.139 3.19811 1.91769 0
M  V30 2229 N 214.325 -0.140222 1.56975 0
M  V30 2230 C 215.565 -0.857823 1.85528 0
M  V30 2231 C 215.929 -1.78039 0.718768 0
M  V30 2232 O 217.13 -2.53795 0.885521 0
M  V30 2233 C 215.401 -1.60615 3.19277 0
M  V30 2234 S 216.96 -2.36824 3.69405 0
M  V30 2235 H 213.778 -0.286727 0.650622 0
M  V30 2236 H 216.38 -0.117408 1.95147 0
M  V30 2237 H 215.084 -0.919994 3.99955 0
M  V30 2238 H 214.615 -2.38735 3.12681 0
M  V30 2239 H 216.63 -3.62148 3.3921 0
M  V30 2240 N 215.803 -1.52179 -0.40978 0
M  V30 2241 C 217.052 -1.65434 -1.15388 0
M  V30 2242 C 217.365 -0.390056 -1.91671 0
M  V30 2243 O 218.571 -0.402399 -2.68501 0
M  V30 2244 C 217.027 -2.92279 -2.10003 0
M  V30 2245 C 216.635 -4.25813 -1.39239 0
M  V30 2246 C 218.379 -3.14897 -2.84675 0
M  V30 2247 C 216.286 -5.43782 -2.32498 0
M  V30 2248 H 215.216 -0.616267 -0.434432 0
M  V30 2249 H 217.867 -1.78666 -0.418401 0
M  V30 2250 H 216.249 -2.72744 -2.871 0
M  V30 2251 H 217.423 -4.55828 -0.675099 0
M  V30 2252 H 215.738 -4.09292 -0.766097 0
M  V30 2253 H 218.335 -4.0021 -3.54593 0
M  V30 2254 H 218.678 -2.29103 -3.47588 0
M  V30 2255 H 219.211 -3.34901 -2.14677 0
M  V30 2256 H 215.95 -6.3192 -1.74233 0
M  V30 2257 H 215.47 -5.18106 -3.02201 0
M  V30 2258 H 217.149 -5.76834 -2.93038 0
M  V30 2259 N 217.281 0.66697 -1.42791 0
M  V30 2260 C 218.529 1.42417 -1.43394 0
M  V30 2261 C 218.85 1.94925 -0.0542373 0
M  V30 2262 O 218.12 1.73564 0.908415 0
M  V30 2263 H 216.7 0.528515 -0.527902 0
M  V30 2264 H 219.362 0.787562 -1.78279 0
M  V30 2265 H 218.458 2.27333 -2.13837 0
M  V30 2266 N 218.759 1.29093 0.90403 0
M  V30 2267 C 219.722 1.1386 1.98919 0
M  V30 2268 C 220.722 0.0753457 1.60623 0
M  V30 2269 O 221.912 0.321931 1.71199 0
M  V30 2270 C 219.044 0.740198 3.32767 0
M  V30 2271 H 220.237 2.10246 2.13861 0
M  V30 2272 H 217.79 1.12218 1.08797 0
M  V30 2273 H 218.525 -0.223997 3.23525 0
M  V30 2274 H 218.31 1.50838 3.61926 0
M  V30 2275 H 219.8 0.656546 4.12407 0
M  V30 2276 N 220.237 -1.11381 1.11499 0
M  V30 2277 C 221.462 -1.87475 0.887019 0
M  V30 2278 C 221.887 -1.79639 -0.557796 0
M  V30 2279 O 221.245 -1.15924 -1.39396 0
M  V30 2280 C 221.293 -3.34213 1.35403 0
M  V30 2281 O 220.397 -4.0903 0.526146 0
M  V30 2282 H 219.738 -0.582099 0.319463 0
M  V30 2283 H 222.268 -1.40785 1.48461 0
M  V30 2284 H 222.278 -3.8506 1.34881 0
M  V30 2285 H 220.953 -3.39232 2.40612 0
M  V30 2286 H 219.53 -3.68082 0.597522 0
M  V30 2287 N 221.715 -0.905404 -1.28997 0
M  V30 2288 C 222.961 -0.535039 -1.95615 0
M  V30 2289 C 223.294 0.917404 -1.71165 0
M  V30 2290 O 222.569 1.65123 -1.02785 0
M  V30 2291 C 222.852 -0.834918 -3.50287 0
M  V30 2292 C 222.705 -2.33948 -3.84172 0
M  V30 2293 C 224.024 -0.325318 -4.38896 0
M  V30 2294 H 221.143 -0.195861 -0.710498 0
M  V30 2295 H 223.785 -1.13313 -1.52513 0
M  V30 2296 H 221.935 -0.325904 -3.87131 0
M  V30 2297 H 223.607 -2.91847 -3.57243 0
M  V30 2298 H 221.85 -2.79789 -3.31513 0
M  V30 2299 H 222.521 -2.49987 -4.92149 0
M  V30 2300 H 224.997 -0.761256 -4.09077 0
M  V30 2301 H 223.873 -0.564295 -5.45992 0
M  V30 2302 H 224.134 0.774144 -4.35269 0
M  V30 2303 N 223.193 1.4272 -0.668489 0
M  V30 2304 C 224.442 2.00846 -0.185389 0
M  V30 2305 C 224.755 1.53442 1.21305 0
M  V30 2306 O 225.961 2.03944 1.79218 0
M  V30 2307 C 224.417 3.58805 -0.280591 0
M  V30 2308 C 224.025 4.15198 -1.68268 0
M  V30 2309 C 225.769 4.24255 0.14412 0
M  V30 2310 C 223.676 5.655 -1.73099 0
M  V30 2311 H 222.606 0.751145 -0.0655475 0
M  V30 2312 H 225.257 1.63516 -0.832752 0
M  V30 2313 H 223.639 3.93608 0.434553 0
M  V30 2314 H 224.813 3.91866 -2.42441 0
M  V30 2315 H 223.128 3.62176 -2.05469 0
M  V30 2316 H 225.725 5.34547 0.128086 0
M  V30 2317 H 226.068 3.99277 1.17827 0
M  V30 2318 H 226.601 3.94389 -0.519798 0
M  V30 2319 H 223.34 5.95268 -2.74475 0
M  V30 2320 H 222.86 5.90842 -1.03274 0
M  V30 2321 H 224.539 6.29808 -1.48158 0
M  V30 2322 N 224.671 0.411399 1.52136 0
M  V30 2323 C 225.919 -0.163322 2.01439 0
M  V30 2324 C 226.24 -1.45453 1.29879 0
M  V30 2325 O 225.51 -1.91225 0.4254 0
M  V30 2326 H 224.09 -0.0633447 0.744309 0
M  V30 2327 H 226.752 0.548161 1.87033 0
M  V30 2328 H 225.848 -0.357817 3.10042 0
M  V30 2329 N 226.149 -1.5696 0.141893 0
M  V30 2330 C 227.397 -1.95573 -0.509484 0
M  V30 2331 C 227.718 -1.02746 -1.65736 0
M  V30 2332 O 226.988 -0.0880311 -1.95702 0
M  V30 2333 H 225.568 -0.722115 -0.191205 0
M  V30 2334 H 228.23 -1.93697 0.216196 0
M  V30 2335 H 227.326 -2.99171 -0.889 0
M  V30 2336 N 227.627 0.131896 -1.57047 0
M  V30 2337 C 228.876 0.84044 -1.83356 0
M  V30 2338 C 229.189 1.81646 -0.725535 0
M  V30 2339 O 230.395 2.57025 -0.874659 0
M  V30 2340 C 228.851 1.54528 -3.25037 0
M  V30 2341 C 228.459 0.610902 -4.43815 0
M  V30 2342 C 230.203 2.23972 -3.60606 0
M  V30 2343 C 228.11 1.31823 -5.76521 0
M  V30 2344 H 227.04 0.317599 -0.683847 0
M  V30 2345 H 229.691 0.0931561 -1.83263 0
M  V30 2346 H 228.073 2.33873 -3.19561 0
M  V30 2347 H 229.247 -0.148407 -4.60561 0
M  V30 2348 H 227.562 0.0241016 -4.16393 0
M  V30 2349 H 230.159 2.77558 -4.57018 0
M  V30 2350 H 230.502 3.01173 -2.87403 0
M  V30 2351 H 231.035 1.51529 -3.6781 0
M  V30 2352 H 227.774 0.587771 -6.52859 0
M  V30 2353 H 227.294 2.04987 -5.63685 0
M  V30 2354 H 228.973 1.855 -6.19838 0
M  V30 2355 N 229.106 1.52395 0.401703 0
M  V30 2356 C 230.346 1.68498 1.15705 0
M  V30 2357 C 230.71 0.409748 1.87577 0
M  V30 2358 O 231.911 0.446983 2.65058 0
M  V30 2359 C 230.182 2.87789 2.11924 0
M  V30 2360 S 231.741 3.24415 2.95466 0
M  V30 2361 H 228.559 0.593267 0.391862 0
M  V30 2362 H 231.161 1.90408 0.443282 0
M  V30 2363 H 229.865 3.7884 1.57824 0
M  V30 2364 H 229.396 2.68175 2.87829 0
M  V30 2365 H 231.411 2.73614 4.13944 0
M  V30 2366 N 230.584 -0.659388 1.43143 0
M  V30 2367 C 231.532 -1.79374 1.4808 0
M  V30 2368 C 232.526 -1.65639 0.354988 0
M  V30 2369 O 233.732 -1.7206 0.528704 0
M  V30 2370 H 230.107 -0.591705 0.4641 0
M  V30 2371 H 232.078 -1.72329 2.43609 0
M  V30 2372 C 230.827 -3.17606 1.41499 0
M  V30 2373 H 230.15 -3.28809 2.27431 0
M  V30 2374 H 231.59 -3.96951 1.49015 0
M  V30 2375 C 230.049 -3.36642 0.131765 0
M  V30 2376 O 230.579 -3.93461 -0.809386 0
M  V30 2377 N 228.785 -2.90567 0.0439396 0
M  V30 2378 H 228.332 -2.44513 0.810619 0
M  V30 2379 H 228.29 -3.03681 -0.813969 0
M  V30 2380 N 232.062 -1.29571 -0.897171 0
M  V30 2381 C 233.01 -1.14802 -2.02295 0
M  V30 2382 C 234.004 -0.0629637 -1.69283 0
M  V30 2383 O 235.21 -0.222945 -1.78614 0
M  V30 2384 H 231.585 -0.354692 -0.663097 0
M  V30 2385 H 233.556 -2.10108 -2.11889 0
M  V30 2386 C 232.305 -0.843966 -3.37302 0
M  V30 2387 H 231.628 -1.67093 -3.63208 0
M  V30 2388 H 233.068 -0.780672 -4.16751 0
M  V30 2389 C 231.527 0.452843 -3.33843 0
M  V30 2390 O 232.057 1.47813 -3.73516 0
M  V30 2391 N 230.263 0.459601 -2.86943 0
M  V30 2392 H 229.81 -0.375213 -2.54853 0
M  V30 2393 H 229.768 1.32726 -2.85011 0
M  V30 2394 N 233.54 1.10788 -1.12088 0
M  V30 2395 C 234.765 1.87002 -0.896949 0
M  V30 2396 C 235.19 1.79933 0.548261 0
M  V30 2397 O 234.548 1.16662 1.38779 0
M  V30 2398 C 234.596 3.3349 -1.37174 0
M  V30 2399 O 233.7 4.08745 -0.547831 0
M  V30 2400 H 233.041 0.580397 -0.322545 0
M  V30 2401 H 235.571 1.39996 -1.49206 0
M  V30 2402 H 235.581 3.84339 -1.36922 0
M  V30 2403 H 234.256 3.37951 -2.42408 0
M  V30 2404 H 232.833 3.6776 -0.617034 0
M  V30 2405 N 235.018 0.912232 1.28515 0
M  V30 2406 C 236.266 0.543523 1.94654 0
M  V30 2407 C 236.587 -0.9155 1.72173 0
M  V30 2408 O 235.857 -1.64708 1.06058 0
M  V30 2409 H 234.437 0.198017 0.720277 0
M  V30 2410 H 237.099 1.16126 1.56527 0
M  V30 2411 H 236.195 0.736684 3.03281 0
M  V30 2412 N 236.496 -1.42363 0.676048 0
M  V30 2413 C 237.744 -2.01123 0.198437 0
M  V30 2414 C 238.065 -1.53731 -1.19966 0
M  V30 2415 O 237.335 -0.759518 -1.80577 0
M  V30 2416 H 235.915 -0.743678 0.0703721 0
M  V30 2417 H 238.577 -1.74263 0.872837 0
M  V30 2418 H 237.673 -3.11454 0.200686 0
M  V30 2419 N 237.974 -0.419461 -1.51915 0
M  V30 2420 C 239.199 0.154572 -2.06823 0
M  V30 2421 C 239.624 1.3722 -1.28656 0
M  V30 2422 O 238.982 1.78461 -0.319583 0
M  V30 2423 C 239.03 0.473172 -3.57482 0
M  V30 2424 O 238.134 1.56255 -3.81652 0
M  V30 2425 H 237.475 0.0096924 -0.663929 0
M  V30 2426 H 240.005 -0.595642 -1.95738 0
M  V30 2427 H 240.015 0.728825 -4.01438 0
M  V30 2428 H 238.69 -0.416873 -4.13805 0
M  V30 2429 H 237.267 1.29825 -3.49571 0
M  V30 2430 N 239.452 1.56882 -0.150215 0
M  V30 2431 C 240.382 2.19935 0.784284 0
M  V30 2432 C 241.363 1.14854 1.25469 0
M  V30 2433 O 242.548 1.43209 1.31168 0
M  V30 2434 C 239.678 2.82349 2.02229 0
M  V30 2435 C 238.632 3.93285 1.68853 0
M  V30 2436 C 237.958 4.42649 2.99944 0
M  V30 2437 C 239.258 5.13904 0.932714 0
M  V30 2438 H 240.952 2.9828 0.258781 0
M  V30 2439 H 238.498 1.43473 0.123029 0
M  V30 2440 H 240.451 3.25126 2.68088 0
M  V30 2441 H 239.175 2.0134 2.57157 0
M  V30 2442 H 237.834 3.5113 1.05371 0
M  V30 2443 H 237.482 3.58458 3.52869 0
M  V30 2444 H 237.182 5.17476 2.78374 0
M  V30 2445 H 238.706 4.88099 3.66868 0
M  V30 2446 H 240.12 5.53506 1.49345 0
M  V30 2447 H 238.517 5.94515 0.81684 0
M  V30 2448 H 239.587 4.84842 -0.0749568 0
M  V30 2449 N 240.93 -0.123565 1.57115 0
M  V30 2450 C 242.176 -0.833386 1.84885 0
M  V30 2451 C 242.509 -1.79742 0.735292 0
M  V30 2452 O 241.784 -1.92764 -0.25925 0
M  V30 2453 C 242.067 -1.5873 3.23228 0
M  V30 2454 C 241.92 -0.643183 4.45178 0
M  V30 2455 C 243.239 -2.54453 3.59085 0
M  V30 2456 H 240.358 -0.301518 0.6725 0
M  V30 2457 H 243 -0.097778 1.89748 0
M  V30 2458 H 241.15 -2.21438 3.19214 0
M  V30 2459 H 242.822 -0.0253015 4.61293 0
M  V30 2460 H 241.065 0.0456139 4.33776 0
M  V30 2461 H 241.736 -1.20724 5.38637 0
M  V30 2462 H 244.212 -2.01853 3.63861 0
M  V30 2463 H 243.088 -3.04238 4.5687 0
M  V30 2464 H 243.349 -3.36906 2.86264 0
M  V30 2465 N 242.408 -1.52605 -0.393616 0
M  V30 2466 C 243.34 -1.73303 -1.49995 0
M  V30 2467 C 244.353 -0.613473 -1.50799 0
M  V30 2468 O 245.542 -0.889049 -1.54784 0
M  V30 2469 C 242.642 -1.77245 -2.88855 0
M  V30 2470 C 241.815 -3.06483 -3.12069 0
M  V30 2471 C 240.874 -3.02033 -4.30886 0
M  V30 2472 O 239.9 -3.75907 -4.27414 0
M  V30 2473 N 241.102 -2.20897 -5.36828 0
M  V30 2474 H 243.867 -2.68756 -1.32629 0
M  V30 2475 H 241.428 -1.51036 -0.583083 0
M  V30 2476 H 243.42 -1.7178 -3.66434 0
M  V30 2477 H 241.99 -0.891993 -2.99603 0
M  V30 2478 H 241.21 -3.25474 -2.22396 0
M  V30 2479 H 242.498 -3.91947 -3.2443 0
M  V30 2480 H 241.896 -1.60336 -5.42502 0
M  V30 2481 H 240.453 -2.21275 -6.13091 0
M  V30 2482 N 243.887 0.651787 -1.4349 0
M  V30 2483 C 245.303 0.96762 -1.26922 0
M  V30 2484 C 245.503 2.00602 -0.189982 0
M  V30 2485 O 244.559 2.48793 0.431107 0
M  V30 2486 C 245.872 1.45052 -2.63401 0
M  V30 2487 C 247.42 1.5671 -2.70945 0
M  V30 2488 C 247.895 2.0839 -4.07845 0
M  V30 2489 N 249.386 2.1569 -4.09917 0
M  V30 2490 C 250.121 2.56804 -5.12679 0
M  V30 2491 N 249.617 2.97203 -6.25813 0
M  V30 2492 N 251.41 2.56756 -5.00033 0
M  V30 2493 H 243.561 -0.0353158 -2.12371 0
M  V30 2494 H 245.824 0.0467858 -0.946845 0
M  V30 2495 H 245.53 0.761926 -3.43348 0
M  V30 2496 H 245.404 2.42529 -2.88894 0
M  V30 2497 H 247.791 2.2467 -1.9133 0
M  V30 2498 H 247.872 0.57662 -2.49216 0
M  V30 2499 H 247.516 1.41031 -4.87927 0
M  V30 2500 H 247.446 3.08271 -4.26938 0
M  V30 2501 H 249.937 1.87237 -3.28254 0
M  V30 2502 H 250.25 3.27328 -7.00055 0
M  V30 2503 H 248.595 2.95004 -6.29283 0
M  V30 2504 H 251.786 2.24572 -4.10713 0
M  V30 2505 H 251.959 2.88475 -5.80247 0
M  V30 2506 N 245.365 1.30045 0.890287 0
M  V30 2507 C 246.613 1.18327 1.63839 0
M  V30 2508 C 246.934 -0.263455 1.93212 0
M  V30 2509 O 246.204 -1.17856 1.56482 0
M  V30 2510 H 244.784 0.434933 0.607324 0
M  V30 2511 H 247.446 1.631 1.06698 0
M  V30 2512 H 246.542 1.74024 2.59079 0
M  V30 2513 N 246.843 -1.10192 1.12674 0
M  V30 2514 C 248.254 -1.63707 0.897604 0
M  V30 2515 C 248.605 -1.87812 -0.567546 0
M  V30 2516 O 247.73 -1.62196 -1.43253 0
M  V30 2517 C 248.325 -2.974 1.62292 0
M  V30 2518 C 246.884 -3.47772 1.43986 0
M  V30 2519 C 246.031 -2.22332 1.65722 0
M  V30 2520 H 248.982 -0.936587 1.28116 0
M  V30 2521 H 249.003 -3.64986 1.07541 0
M  V30 2522 H 248.515 -2.79824 2.68924 0
M  V30 2523 H 246.616 -3.70487 0.396206 0
M  V30 2524 H 246.729 -4.25723 2.19765 0
M  V30 2525 H 245.093 -2.30599 1.08149 0
M  V30 2526 H 245.876 -2.07285 2.73657 0
M  V30 2527 N 248.321 -0.919034 -1.28029 0
M  V30 2528 C 249.284 -0.416182 -2.2539 0
M  V30 2529 C 250.284 0.460438 -1.54067 0
M  V30 2530 O 251.474 0.262744 -1.72207 0
M  V30 2531 C 248.606 0.402707 -3.38513 0
M  V30 2532 H 249.799 -1.27629 -2.71387 0
M  V30 2533 H 247.352 -0.698919 -1.39803 0
M  V30 2534 H 248.087 1.282 -2.97885 0
M  V30 2535 H 247.872 -0.225698 -3.9145 0
M  V30 2536 H 249.362 0.745191 -4.10897 0
M  V30 2537 N 249.799 1.42003 -0.683588 0
M  V30 2538 C 251.029 2.05448 -0.217866 0
M  V30 2539 C 251.437 1.51491 1.13346 0
M  V30 2540 O 250.78 0.653048 1.717 0
M  V30 2541 C 250.842 3.59399 -0.0850118 0
M  V30 2542 C 250.506 4.36093 -1.36645 0
M  V30 2543 C 251.503 4.66169 -2.30179 0
M  V30 2544 C 249.188 4.75578 -1.61649 0
M  V30 2545 C 251.182 5.34676 -3.46988 0
M  V30 2546 C 248.869 5.43824 -2.78745 0
M  V30 2547 C 249.867 5.73299 -3.71238 0
M  V30 2548 O 249.555 6.40142 -4.86285 0
M  V30 2549 H 249.287 0.668344 -0.101454 0
M  V30 2550 H 251.841 1.82974 -0.933248 0
M  V30 2551 H 250.071 3.80566 0.686031 0
M  V30 2552 H 251.76 4.04457 0.341973 0
M  V30 2553 H 252.526 4.36156 -2.12115 0
M  V30 2554 H 248.405 4.52025 -0.905243 0
M  V30 2555 H 251.949 5.57599 -4.19201 0
M  V30 2556 H 247.846 5.73254 -2.96732 0
M  V30 2557 H 248.614 6.58636 -4.85944 0
M  V30 2558 N 251.277 0.427512 1.51691 0
M  V30 2559 C 252.505 -0.141191 2.06418 0
M  V30 2560 C 252.92 -1.37303 1.29589 0
M  V30 2561 O 252.277 -1.79059 0.352732 0
M  V30 2562 C 252.328 -0.473266 3.58389 0
M  V30 2563 O 252.049 0.709673 4.32314 0
M  V30 2564 C 253.55 -1.09371 4.29596 0
M  V30 2565 H 250.77 -0.0122747 0.670888 0
M  V30 2566 H 253.314 0.603764 1.95384 0
M  V30 2567 H 251.469 -1.16812 3.69369 0
M  V30 2568 H 251.883 0.42807 5.2275 0
M  V30 2569 H 253.357 -1.27613 5.37046 0
M  V30 2570 H 253.834 -2.072 3.87253 0
M  V30 2571 H 254.44 -0.43853 4.23033 0
M  V30 2572 N 252.755 -1.56801 0.158532 0
M  V30 2573 C 253.665 -2.20916 -0.789518 0
M  V30 2574 C 254.681 -1.1969 -1.26294 0
M  V30 2575 O 255.857 -1.52308 -1.31773 0
M  V30 2576 C 252.922 -2.82727 -2.00665 0
M  V30 2577 C 251.983 -3.99114 -1.58134 0
M  V30 2578 C 251.216 -4.57968 -2.74045 0
M  V30 2579 O 251.439 -4.15704 -3.90572 0
M  V30 2580 O 250.373 -5.48047 -2.48855 0
M  V30 2581 H 254.199 -3.02464 -0.273681 0
M  V30 2582 H 251.784 -1.4924 -0.0690548 0
M  V30 2583 H 253.666 -3.21968 -2.71872 0
M  V30 2584 H 252.341 -2.04184 -2.51179 0
M  V30 2585 H 251.248 -3.64567 -0.839155 0
M  V30 2586 H 252.581 -4.79212 -1.12325 0
M  V30 2587 N 254.233 0.115231 -1.57178 0
M  V30 2588 C 255.166 1.17166 -1.95825 0
M  V30 2589 C 256.144 1.39912 -0.828463 0
M  V30 2590 O 257.328 1.54004 -1.08697 0
M  V30 2591 C 254.455 2.52478 -2.25771 0
M  V30 2592 C 253.501 2.46136 -3.48309 0
M  V30 2593 S 254.334 1.89736 -5.0076 0
M  V30 2594 C 255.49 3.26713 -5.33863 0
M  V30 2595 H 255.723 0.842103 -2.85124 0
M  V30 2596 H 253.256 0.322136 -1.51002 0
M  V30 2597 H 255.214 3.30332 -2.43702 0
M  V30 2598 H 253.875 2.82609 -1.37079 0
M  V30 2599 H 253.068 3.45819 -3.66641 0
M  V30 2600 H 252.67 1.76404 -3.29784 0
M  V30 2601 H 254.962 4.22935 -5.29275 0
M  V30 2602 H 255.905 3.13205 -6.35065 0
M  V30 2603 H 256.313 3.25316 -4.61335 0
M  V30 2604 N 255.711 1.52812 0.385517 0
M  V30 2605 C 256.936 1.72207 1.15583 0
M  V30 2606 C 257.361 0.441034 1.82857 0
M  V30 2607 O 256.719 -0.603465 1.70962 0
M  V30 2608 C 256.767 2.87476 2.17692 0
M  V30 2609 O 255.871 2.54693 3.24354 0
M  V30 2610 H 255.212 0.572526 0.336319 0
M  V30 2611 H 257.742 1.99618 0.448744 0
M  V30 2612 H 257.752 3.13072 2.6163 0
M  V30 2613 H 256.427 3.80408 1.68115 0
M  V30 2614 H 255.004 2.3985 2.85529 0
M  V30 2615 N 257.189 -0.644168 1.43834 0
M  V30 2616 C 258.119 -1.76814 1.52509 0
M  V30 2617 C 259.1 -1.65823 0.379052 0
M  V30 2618 O 260.285 -1.84781 0.597466 0
M  V30 2619 C 257.415 -3.15288 1.4564 0
M  V30 2620 C 256.369 -3.41053 2.58586 0
M  V30 2621 C 255.695 -4.79421 2.36769 0
M  V30 2622 C 256.995 -3.34902 4.00797 0
M  V30 2623 H 258.689 -1.69812 2.46586 0
M  V30 2624 H 256.235 -0.815542 1.1868 0
M  V30 2625 H 258.188 -3.93681 1.50311 0
M  V30 2626 H 256.912 -3.23043 0.480725 0
M  V30 2627 H 255.571 -2.65035 2.53282 0
M  V30 2628 H 255.219 -4.83863 1.37424 0
M  V30 2629 H 254.919 -4.9762 3.12487 0
M  V30 2630 H 256.443 -5.6006 2.43238 0
M  V30 2631 H 257.857 -4.03218 4.07539 0
M  V30 2632 H 256.254 -3.64637 4.76613 0
M  V30 2633 H 257.324 -2.32928 4.25291 0
M  V30 2634 N 258.668 -1.30515 -0.883378 0
M  V30 2635 C 259.915 -1.1943 -1.63532 0
M  V30 2636 C 260.243 0.250627 -1.92878 0
M  V30 2637 O 259.498 1.19556 -1.54935 0
M  V30 2638 C 259.797 -1.96994 -2.98209 0
M  V30 2639 C 259.463 -3.466 -2.88408 0
M  V30 2640 C 258.125 -3.87397 -2.85442 0
M  V30 2641 C 260.477 -4.41863 -2.76418 0
M  V30 2642 C 257.805 -5.21745 -2.68327 0
M  V30 2643 C 260.157 -5.7632 -2.60841 0
M  V30 2644 C 258.821 -6.16354 -2.56251 0
M  V30 2645 H 258.091 -0.437025 -0.598406 0
M  V30 2646 H 260.738 -1.61635 -1.02696 0
M  V30 2647 H 259.043 -1.47429 -3.63004 0
M  V30 2648 H 260.74 -1.85808 -3.55354 0
M  V30 2649 H 257.33 -3.14182 -2.91527 0
M  V30 2650 H 261.514 -4.11285 -2.77775 0
M  V30 2651 H 256.77 -5.51853 -2.63189 0
M  V30 2652 H 260.944 -6.49772 -2.50538 0
M  V30 2653 H 258.571 -7.20401 -2.42748 0
M  V30 2654 N 260.146 1.09593 -1.13257 0
M  V30 2655 C 261.109 2.14359 -0.811358 0
M  V30 2656 C 262.109 1.59808 0.178377 0
M  V30 2657 O 263.299 1.74132 -0.0484911 0
M  V30 2658 C 260.431 3.40269 -0.207276 0
M  V30 2659 H 261.624 2.44284 -1.73969 0
M  V30 2660 H 259.177 1.25102 -0.936973 0
M  V30 2661 H 259.912 3.15969 0.73036 0
M  V30 2662 H 259.697 3.81154 -0.919992 0
M  V30 2663 H 261.187 4.176 0.000667944 0
M  V30 2664 N 261.624 0.925811 1.2754 0
M  V30 2665 C 263.04 0.625767 1.46821 0
M  V30 2666 C 263.24 -0.825506 1.83814 0
M  V30 2667 O 262.296 -1.60356 1.95044 0
M  V30 2668 C 263.609 1.57402 2.56213 0
M  V30 2669 C 265.157 1.58204 2.70075 0
M  V30 2670 C 265.632 2.51721 3.82623 0
M  V30 2671 N 267.123 2.49917 3.89994 0
M  V30 2672 C 267.858 3.18968 4.76494 0
M  V30 2673 N 267.354 3.97391 5.67496 0
M  V30 2674 N 269.147 3.07996 4.70208 0
M  V30 2675 H 261.298 1.86409 1.01811 0
M  V30 2676 H 263.561 0.800213 0.508295 0
M  V30 2677 H 263.267 2.60925 2.35819 0
M  V30 2678 H 263.141 1.31428 3.53563 0
M  V30 2679 H 265.528 0.554124 2.89851 0
M  V30 2680 H 265.609 1.88226 1.73218 0
M  V30 2681 H 265.253 3.54622 3.63601 0
M  V30 2682 H 265.183 2.18996 4.78903 0
M  V30 2683 H 267.674 1.9296 3.24923 0
M  V30 2684 H 267.987 4.4707 6.30356 0
M  V30 2685 H 266.332 4.01495 5.67298 0
M  V30 2686 H 269.523 2.46223 3.9811 0
M  V30 2687 H 269.696 3.6208 5.37403 0
M  V30 2688 N 263.102 -1.41638 0.69111 0
M  V30 2689 C 264.351 -2.00526 0.217318 0
M  V30 2690 C 264.664 -1.55353 -1.18848 0
M  V30 2691 O 265.87 -2.06769 -1.75951 0
M  V30 2692 C 264.326 -3.58313 0.337639 0
M  V30 2693 C 263.934 -4.12469 1.74852 0
M  V30 2694 C 265.678 -4.24431 -0.0766066 0
M  V30 2695 C 263.585 -5.62675 1.82074 0
M  V30 2696 H 262.515 -0.750008 0.0774893 0
M  V30 2697 H 265.166 -1.6217 0.858661 0
M  V30 2698 H 263.548 -3.9425 -0.371879 0
M  V30 2699 H 264.722 -3.8796 2.48644 0
M  V30 2700 H 263.037 -3.58861 2.11205 0
M  V30 2701 H 265.634 -5.34683 -0.0430284 0
M  V30 2702 H 265.977 -4.01101 -1.1146 0
M  V30 2703 H 266.51 -3.93512 0.582476 0
M  V30 2704 H 263.249 -5.90826 2.83911 0
M  V30 2705 H 262.769 -5.89124 1.12661 0
M  V30 2706 H 264.448 -6.27371 1.58159 0
M  V30 2707 N 264.58 -0.43555 -1.51462 0
M  V30 2708 C 265.528 0.391205 -2.29287 0
M  V30 2709 C 266.522 1.02247 -1.35062 0
M  V30 2710 O 267.728 0.957646 -1.52411 0
M  V30 2711 H 264.103 0.144968 -0.737895 0
M  V30 2712 H 266.074 -0.286051 -2.97026 0
M  V30 2713 C 264.823 1.48096 -3.14583 0
M  V30 2714 H 264.146 1.00457 -3.86973 0
M  V30 2715 H 265.586 2.03273 -3.72097 0
M  V30 2716 C 264.045 2.46321 -2.29843 0
M  V30 2717 O 264.575 3.50815 -1.95682 0
M  V30 2718 N 262.781 2.17166 -1.931 0
M  V30 2719 H 262.328 1.32218 -2.21079 0
M  V30 2720 H 262.286 2.83127 -1.36698 0
M  V30 2721 N 266.058 1.56714 -0.166846 0
M  V30 2722 C 266.968 2.21331 0.777791 0
M  V30 2723 C 267.984 1.20358 1.25658 0
M  V30 2724 O 269.16 1.53005 1.30964 0
M  V30 2725 C 266.225 2.83787 1.99163 0
M  V30 2726 C 265.286 3.99947 1.56016 0
M  V30 2727 C 264.519 4.59415 2.71613 0
M  V30 2728 O 264.742 4.17769 3.88362 0
M  V30 2729 O 263.676 5.49359 2.45945 0
M  V30 2730 H 267.502 3.02605 0.257636 0
M  V30 2731 H 265.087 1.49275 0.0611393 0
M  V30 2732 H 266.969 3.23405 2.70161 0
M  V30 2733 H 265.644 2.05513 2.50092 0
M  V30 2734 H 264.551 3.65007 0.819809 0
M  V30 2735 H 265.884 4.79801 1.09782 0
M  V30 2736 N 267.536 -0.106894 1.57237 0
M  V30 2737 C 268.813 -0.843526 1.76477 0
M  V30 2738 C 269.193 -1.97499 0.745464 0
M  V30 2739 O 268.541 -2.27357 -0.228306 0
M  V30 2740 C 268.751 -1.34903 3.21873 0
M  V30 2741 C 270.099 -1.79654 3.8472 0
M  V30 2742 O 271.123 -1.44554 3.2555 0
M  V30 2743 O 269.982 -2.44515 4.88748 0
M  V30 2744 H 267.076 -0.401468 0.723016 0
M  V30 2745 H 269.622 -0.0896927 1.69463 0
M  V30 2746 H 268.394 -0.53781 3.87586 0
M  V30 2747 H 268.017 -2.16522 3.33473 0
M  V30 2748 N 269.014 -1.53014 -0.377408 0
M  V30 2749 C 270.262 -1.6829 -1.11906 0
M  V30 2750 C 270.583 -0.431206 -1.90173 0
M  V30 2751 O 269.853 0.554595 -1.87886 0
M  V30 2752 H 268.433 -0.620371 -0.416112 0
M  V30 2753 H 271.095 -1.90167 -0.426893 0
M  V30 2754 H 270.191 -2.53862 -1.8155 0
M  V30 2755 N 270.492 0.636531 -1.44174 0
M  V30 2756 C 271.439 1.74875 -1.50624 0
M  V30 2757 C 272.409 1.62275 -0.35442 0
M  V30 2758 O 273.594 1.82276 -0.563908 0
M  V30 2759 C 270.734 3.13102 -1.45125 0
M  V30 2760 C 269.847 3.36717 -2.7064 0
M  V30 2761 C 268.982 4.64885 -2.57013 0
M  V30 2762 C 268.021 4.8166 -3.77717 0
M  V30 2763 N 267.158 6.01101 -3.62798 0
M  V30 2764 H 271.998 1.68697 -2.45653 0
M  V30 2765 H 269.535 0.823004 -1.21922 0
M  V30 2766 H 271.493 3.93034 -1.39929 0
M  V30 2767 H 270.123 3.18308 -0.536671 0
M  V30 2768 H 269.175 2.50763 -2.86046 0
M  V30 2769 H 270.487 3.44993 -3.60252 0
M  V30 2770 H 269.641 5.52969 -2.49619 0
M  V30 2771 H 268.38 4.58957 -1.64953 0
M  V30 2772 H 267.385 3.92007 -3.85501 0
M  V30 2773 H 268.61 4.89406 -4.70807 0
M  V30 2774 H 266.556 5.96273 -2.73486 0
M  V30 2775 H 266.473 6.10409 -4.46023 0
M  V30 2776 H 267.741 6.91761 -3.59286 0
M  V30 2777 N 271.97 1.30982 0.876444 0
M  V30 2778 C 272.9 1.20668 1.99903 0
M  V30 2779 C 273.881 0.095354 1.69833 0
M  V30 2780 O 275.066 0.27885 1.92188 0
M  V30 2781 C 272.196 0.90655 3.3526 0
M  V30 2782 C 271.15 1.97675 3.79617 0
M  V30 2783 C 270.476 1.52943 5.1236 0
M  V30 2784 C 271.776 3.389 3.97422 0
M  V30 2785 H 273.47 2.14586 2.0879 0
M  V30 2786 H 271.016 1.03308 1.00317 0
M  V30 2787 H 272.969 0.821025 4.13324 0
M  V30 2788 H 271.693 -0.0682969 3.26529 0
M  V30 2789 H 270.352 2.05205 3.03787 0
M  V30 2790 H 270 0.54262 5.00065 0
M  V30 2791 H 269.7 2.24532 5.43009 0
M  V30 2792 H 271.224 1.45786 5.92941 0
M  V30 2793 H 272.638 3.34081 4.659 0
M  V30 2794 H 271.035 4.0865 4.3946 0
M  V30 2795 H 272.105 3.80163 3.01006 0
M  V30 2796 N 273.449 -1.08991 1.13837 0
M  V30 2797 C 274.677 -1.85011 0.926202 0
M  V30 2798 C 275.092 -1.8135 -0.525127 0
M  V30 2799 O 274.449 -1.21287 -1.36366 0
M  V30 2800 C 274.5 -3.32802 1.41155 0
M  V30 2801 O 274.221 -3.36444 2.80601 0
M  V30 2802 C 275.722 -4.25649 1.23847 0
M  V30 2803 H 272.942 -0.584249 0.32999 0
M  V30 2804 H 275.486 -1.37688 1.51202 0
M  V30 2805 H 273.641 -3.77536 0.868631 0
M  V30 2806 H 274.055 -4.28657 3.02248 0
M  V30 2807 H 275.529 -5.27485 1.62675 0
M  V30 2808 H 276.006 -4.38828 0.18065 0
M  V30 2809 H 276.612 -3.86735 1.76964 0
M  V30 2810 N 274.927 -0.932562 -1.27047 0
M  V30 2811 C 275.857 -0.452902 -2.29066 0
M  V30 2812 C 276.838 0.489338 -1.62909 0
M  V30 2813 O 278.023 0.393046 -1.90181 0
M  V30 2814 C 275.153 0.290698 -3.46081 0
M  V30 2815 C 274.107 -0.564168 -4.24265 0
M  V30 2816 C 273.433 0.308886 -5.33807 0
M  V30 2817 C 274.733 -1.83112 -4.89149 0
M  V30 2818 H 276.427 -1.30552 -2.69437 0
M  V30 2819 H 273.973 -0.629201 -1.29526 0
M  V30 2820 H 275.926 0.637233 -4.16554 0
M  V30 2821 H 274.65 1.17738 -3.0464 0
M  V30 2822 H 273.309 -0.893477 -3.55545 0
M  V30 2823 H 272.957 1.19467 -4.88607 0
M  V30 2824 H 272.657 -0.259633 -5.87026 0
M  V30 2825 H 274.181 0.650884 -6.07121 0
M  V30 2826 H 275.595 -1.55236 -5.51883 0
M  V30 2827 H 273.992 -2.34353 -5.52448 0
M  V30 2828 H 275.062 -2.54772 -4.12576 0
M  V30 2829 N 276.405 1.4127 -0.698611 0
M  V30 2830 C 277.651 2.01478 -0.231207 0
M  V30 2831 C 277.984 1.55215 1.16713 0
M  V30 2832 O 277.259 0.764672 1.78838 0
M  V30 2833 C 277.542 3.58912 -0.292281 0
M  V30 2834 C 277.395 4.15293 -1.72778 0
M  V30 2835 C 278.714 4.38736 0.346194 0
M  V30 2836 H 275.833 0.732025 -0.0854878 0
M  V30 2837 H 278.475 1.67977 -0.887906 0
M  V30 2838 H 276.625 3.87582 0.26686 0
M  V30 2839 H 278.297 3.97486 -2.341 0
M  V30 2840 H 276.54 3.7022 -2.26096 0
M  V30 2841 H 277.211 5.24452 -1.72202 0
M  V30 2842 H 279.687 4.15897 -0.130035 0
M  V30 2843 H 278.563 5.48221 0.272932 0
M  V30 2844 H 278.824 4.18425 1.42734 0
M  V30 2845 N 277.883 0.443576 1.51229 0
M  V30 2846 C 278.831 -0.37904 2.29491 0
M  V30 2847 C 279.825 -1.0153 1.35603 0
M  V30 2848 O 281.031 -0.94955 1.52917 0
M  V30 2849 H 277.406 -0.141053 0.738653 0
M  V30 2850 H 279.377 0.301799 2.9687 0
M  V30 2851 C 278.126 -1.46426 3.15364 0
M  V30 2852 H 277.449 -0.984037 3.87501 0
M  V30 2853 H 278.889 -2.01297 3.7317 0
M  V30 2854 C 277.348 -2.45099 2.31146 0
M  V30 2855 O 277.878 -3.49773 1.9754 0
M  V30 2856 N 276.084 -2.16139 1.94249 0
M  V30 2857 H 275.631 -1.31044 2.21777 0
M  V30 2858 H 275.589 -2.82398 1.38198 0
M  V30 2859 N 279.361 -1.56624 0.175154 0
M  V30 2860 C 280.311 -2.14747 -0.766004 0
M  V30 2861 C 281.295 -1.08275 -1.19018 0
M  V30 2862 O 282.487 -1.34388 -1.15191 0
M  V30 2863 C 279.616 -2.79478 -1.99366 0
M  V30 2864 C 278.702 -3.93114 -1.5913 0
M  V30 2865 N 279.093 -4.97752 -0.89872 0
M  V30 2866 C 277.391 -4.04345 -1.88204 0
M  V30 2867 C 278.092 -5.77473 -0.700012 0
M  V30 2868 N 277.068 -5.29207 -1.24263 0
M  V30 2869 H 280.87 -2.93015 -0.22793 0
M  V30 2870 H 278.384 -1.6238 -0.0253843 0
M  V30 2871 H 280.381 -3.19498 -2.67818 0
M  V30 2872 H 279.041 -2.02692 -2.53665 0
M  V30 2873 H 280.052 -5.14903 -0.556347 0
M  V30 2874 H 276.729 -3.38667 -2.44153 0
M  V30 2875 H 278.119 -6.71728 -0.152047 0
M  V30 2876 N 280.839 0.0985539 -1.57292 0
M  V30 2877 C 281.769 1.12064 -2.04851 0
M  V30 2878 C 282.75 1.41981 -0.936767 0
M  V30 2879 O 283.935 1.52071 -1.20781 0
M  V30 2880 C 281.065 2.44144 -2.47004 0
M  V30 2881 C 280.019 2.28643 -3.6181 0
M  V30 2882 C 279.345 3.65869 -3.89929 0
M  V30 2883 C 280.645 1.72986 -4.92822 0
M  V30 2884 H 282.339 0.724979 -2.9049 0
M  V30 2885 H 279.885 0.34729 -1.39749 0
M  V30 2886 H 281.838 3.15914 -2.78884 0
M  V30 2887 H 280.562 2.85639 -1.5836 0
M  V30 2888 H 279.221 1.59318 -3.30172 0
M  V30 2889 H 278.869 4.04885 -2.98458 0
M  V30 2890 H 278.569 3.56344 -4.67218 0
M  V30 2891 H 280.093 4.39112 -4.2428 0
M  V30 2892 H 281.507 2.34593 -5.23105 0
M  V30 2893 H 279.904 1.74229 -5.74251 0
M  V30 2894 H 280.974 0.689007 -4.7998 0
M  V30 2895 N 282.317 1.53212 0.369288 0
M  V30 2896 C 283.565 1.68881 1.11012 0
M  V30 2897 C 283.886 0.441285 1.89941 0
M  V30 2898 O 283.156 -0.544623 1.88177 0
M  V30 2899 H 281.736 0.622569 0.412816 0
M  V30 2900 H 284.398 1.90391 0.416802 0
M  V30 2901 H 283.494 2.54822 1.80201 0
M  V30 2902 N 283.795 -0.628877 1.44509 0
M  V30 2903 C 285.044 -1.38437 1.4669 0
M  V30 2904 C 285.357 -1.95322 0.104272 0
M  V30 2905 O 286.563 -2.715 0.00362163 0
M  V30 2906 C 285.019 -2.50659 2.5826 0
M  V30 2907 C 284.627 -2.00277 4.0074 0
M  V30 2908 C 286.371 -3.27844 2.69664 0
M  V30 2909 C 284.278 -3.09854 5.0373 0
M  V30 2910 H 283.208 -0.520245 0.545766 0
M  V30 2911 H 285.859 -0.676313 1.70582 0
M  V30 2912 H 284.241 -3.2405 2.27612 0
M  V30 2913 H 285.415 -1.33736 4.40966 0
M  V30 2914 H 283.73 -1.35901 3.93599 0
M  V30 2915 H 286.327 -4.09534 3.43781 0
M  V30 2916 H 286.67 -3.77471 1.75559 0
M  V30 2917 H 287.203 -2.61543 2.99733 0
M  V30 2918 H 283.942 -2.65168 5.99472 0
M  V30 2919 H 283.462 -3.7503 4.68095 0
M  V30 2920 H 285.141 -3.74592 5.27532 0
M  V30 2921 N 285.273 -1.31445 -0.869486 0
M  V30 2922 C 286.55 -1.11795 -1.60503 0
M  V30 2923 C 286.93 0.327168 -2.08549 0
M  V30 2924 O 286.278 1.32135 -1.8642 0
M  V30 2925 C 286.488 -2.13258 -2.76265 0
M  V30 2926 C 287.836 -2.45805 -3.46215 0
M  V30 2927 O 288.86 -2.11688 -2.86473 0
M  V30 2928 O 287.719 -3.04228 -4.5399 0
M  V30 2929 H 284.813 -0.430421 -0.706163 0
M  V30 2930 H 287.359 -1.42925 -0.914907 0
M  V30 2931 H 286.131 -3.10461 -2.3818 0
M  V30 2932 H 285.754 -1.83035 -3.52964 0
M  V30 2933 N 286.751 1.08385 -1.14413 0
M  V30 2934 C 287.681 2.17321 -0.854044 0
M  V30 2935 C 288.662 1.69024 0.191049 0
M  V30 2936 O 289.847 1.94141 0.0476779 0
M  V30 2937 C 286.977 3.45719 -0.330983 0
M  V30 2938 C 285.931 4.07409 -1.31155 0
M  V30 2939 C 285.257 5.30762 -0.64778 0
M  V30 2940 C 286.557 4.48665 -2.67388 0
M  V30 2941 H 288.251 2.41845 -1.76498 0
M  V30 2942 H 285.797 1.16233 -0.850051 0
M  V30 2943 H 287.75 4.21241 -0.115645 0
M  V30 2944 H 286.474 3.2075 0.615381 0
M  V30 2945 H 285.133 3.33919 -1.51306 0
M  V30 2946 H 284.781 5.02078 0.304398 0
M  V30 2947 H 284.481 5.72992 -1.30207 0
M  V30 2948 H 286.005 6.08998 -0.441972 0
M  V30 2949 H 287.419 5.15364 -2.51143 0
M  V30 2950 H 285.816 5.01814 -3.29093 0
M  V30 2951 H 286.886 3.60543 -3.24248 0
M  V30 2952 N 288.23 0.939286 1.26551 0
M  V30 2953 C 289.478 0.58469 1.93457 0
M  V30 2954 C 289.799 -0.878774 1.74076 0
M  V30 2955 O 289.069 -1.62421 1.09528 0
M  V30 2956 H 287.649 0.21325 0.715914 0
M  V30 2957 H 290.311 1.1942 1.54029 0
M  V30 2958 H 289.407 0.800849 3.0165 0
M  V30 2959 N 289.708 -1.40897 0.706093 0
M  V30 2960 C 290.618 -2.3455 0.0482286 0
M  V30 2961 C 291.634 -1.56796 -0.754396 0
M  V30 2962 O 292.81 -1.89228 -0.689538 0
M  V30 2963 C 289.875 -3.35625 -0.869303 0
M  V30 2964 C 288.936 -4.29261 -0.0576994 0
M  V30 2965 C 288.169 -5.25508 -0.931531 0
M  V30 2966 O 288.392 -5.27472 -2.17092 0
M  V30 2967 O 287.326 -6.00727 -0.375587 0
M  V30 2968 H 291.152 -2.92407 0.820476 0
M  V30 2969 H 288.737 -1.4193 0.4665 0
M  V30 2970 H 290.619 -3.97635 -1.39514 0
M  V30 2971 H 289.294 -2.80196 -1.62086 0
M  V30 2972 H 288.201 -3.70566 0.512988 0
M  V30 2973 H 289.534 -4.87817 0.655426 0
M  V30 2974 N 291.186 -0.45159 -1.50991 0
M  V30 2975 C 292.414 0.108334 -2.06616 0
M  V30 2976 C 292.829 1.35224 -1.31757 0
M  V30 2977 O 292.186 1.78475 -0.381174 0
M  V30 2978 C 292.237 0.41619 -3.59096 0
M  V30 2979 O 291.958 -0.778361 -4.3113 0
M  V30 2980 C 293.459 1.02523 -4.31282 0
M  V30 2981 H 290.679 0.00159995 -0.670998 0
M  V30 2982 H 293.223 -0.634771 -1.94399 0
M  V30 2983 H 291.378 1.10921 -3.71181 0
M  V30 2984 H 291.792 -0.511181 -5.22003 0
M  V30 2985 H 293.266 1.19053 -5.39009 0
M  V30 2986 H 293.743 2.01013 -3.905 0
M  V30 2987 H 294.349 0.371173 -4.23677 0
M  V30 2988 N 292.664 1.56529 -0.183458 0
M  V30 2989 C 294.075 1.83739 0.331177 0
M  V30 2990 C 294.426 1.10373 1.62211 0
M  V30 2991 O 293.551 0.36071 2.13373 0
M  V30 2992 C 294.146 3.33306 0.607646 0
M  V30 2993 C 292.705 3.60969 1.06668 0
M  V30 2994 C 291.852 2.77086 0.109029 0
M  V30 2995 H 294.803 1.53379 -0.407484 0
M  V30 2996 H 294.824 3.51444 1.45832 0
M  V30 2997 H 294.336 3.86677 -0.332086 0
M  V30 2998 H 292.437 3.13021 2.0211 0
M  V30 2999 H 292.55 4.69231 0.967447 0
M  V30 3000 H 290.914 2.47319 0.608714 0
M  V30 3001 H 291.697 3.33241 -0.82494 0
M  V30 3002 N 294.142 -0.090211 1.57342 0
M  V30 3003 C 295.052 -1.12735 2.05738 0
M  V30 3004 C 296.068 -1.43557 0.983231 0
M  V30 3005 O 297.244 -1.54101 1.29672 0
M  V30 3006 C 294.309 -2.42659 2.47624 0
M  V30 3007 C 293.37 -2.18975 3.69254 0
M  V30 3008 C 292.603 -3.42704 4.09133 0
M  V30 3009 O 292.826 -4.51127 3.49057 0
M  V30 3010 O 291.76 -3.32003 5.02053 0
M  V30 3011 H 295.586 -0.746279 2.94388 0
M  V30 3012 H 293.171 -0.303064 1.46294 0
M  V30 3013 H 295.053 -3.19155 2.7517 0
M  V30 3014 H 293.728 -2.80182 1.62109 0
M  V30 3015 H 292.635 -1.40244 3.46818 0
M  V30 3016 H 293.968 -1.86342 4.55563 0
M  V30 3017 N 295.62 -1.53406 -0.361157 0
M  V30 3018 C 296.552 -1.76446 -1.46286 0
M  V30 3019 C 297.565 -0.645322 -1.49464 0
M  V30 3020 O 298.754 -0.921681 -1.52864 0
M  V30 3021 C 295.854 -1.83332 -2.85031 0
M  V30 3022 C 295.027 -3.13033 -3.05498 0
M  V30 3023 C 294.086 -3.11104 -4.24383 0
M  V30 3024 O 293.112 -3.84888 -4.19344 0
M  V30 3025 N 294.314 -2.32234 -5.32022 0
M  V30 3026 H 297.079 -2.71508 -1.26899 0
M  V30 3027 H 294.64 -1.52238 -0.550915 0
M  V30 3028 H 296.632 -1.79514 -3.62708 0
M  V30 3029 H 295.202 -0.955342 -2.97644 0
M  V30 3030 H 294.422 -3.30119 -2.15442 0
M  V30 3031 H 295.71 -3.9874 -3.16044 0
M  V30 3032 H 295.108 -1.71807 -5.38979 0
M  V30 3033 H 293.665 -2.3423 -6.08259 0
M  V30 3034 N 297.098 0.621204 -1.44841 0
M  V30 3035 C 298.347 1.37658 -1.47422 0
M  V30 3036 C 298.66 1.95264 -0.114629 0
M  V30 3037 O 299.866 2.71494 -0.0180199 0
M  V30 3038 C 298.322 2.49285 -2.59586 0
M  V30 3039 C 297.93 1.98149 -4.01797 0
M  V30 3040 C 299.674 3.26409 -2.71399 0
M  V30 3041 C 297.581 3.07178 -5.05367 0
M  V30 3042 H 296.511 0.517344 -0.548517 0
M  V30 3043 H 299.162 0.667257 -1.70938 0
M  V30 3044 H 297.544 3.22839 -2.29328 0
M  V30 3045 H 298.718 1.31395 -4.41669 0
M  V30 3046 H 297.033 1.33812 -3.94314 0
M  V30 3047 H 299.63 4.07706 -3.45948 0
M  V30 3048 H 299.973 3.76535 -1.77559 0
M  V30 3049 H 300.506 2.5995 -3.01116 0
M  V30 3050 H 297.245 2.61985 -6.00869 0
M  V30 3051 H 296.765 3.72542 -4.70077 0
M  V30 3052 H 298.444 3.71789 -5.29511 0
M  V30 3053 N 298.576 1.31904 0.862503 0
M  V30 3054 C 299.506 1.22782 1.98612 0
M  V30 3055 C 300.487 0.113362 1.69722 0
M  V30 3056 O 301.672 0.299218 1.91881 0
M  V30 3057 C 298.802 0.942058 3.34279 0
M  V30 3058 C 297.756 2.0169 3.77499 0
M  V30 3059 C 297.082 1.58369 5.10709 0
M  V30 3060 C 298.382 3.43096 3.93805 0
M  V30 3061 H 300.076 2.16788 2.06502 0
M  V30 3062 H 297.622 1.04366 0.992154 0
M  V30 3063 H 299.575 0.864818 4.1243 0
M  V30 3064 H 298.299 -0.0336603 3.26583 0
M  V30 3065 H 296.958 2.08416 3.01593 0
M  V30 3066 H 296.606 0.595628 4.99461 0
M  V30 3067 H 296.306 2.30279 5.40597 0
M  V30 3068 H 297.83 1.52067 5.91361 0
M  V30 3069 H 299.244 3.39003 4.62331 0
M  V30 3070 H 297.641 4.13288 4.35101 0
M  V30 3071 H 298.711 3.83334 2.96957 0
M  V30 3072 N 300.054 -1.07777 1.14986 0
M  V30 3073 C 301.279 -1.84558 0.946213 0
M  V30 3074 C 301.704 -1.81323 -0.500362 0
M  V30 3075 O 301.062 -1.20301 -1.35637 0
M  V30 3076 C 301.11 -3.29736 1.45968 0
M  V30 3077 O 300.214 -4.07149 0.65601 0
M  V30 3078 H 299.555 -0.571641 0.33782 0
M  V30 3079 H 302.085 -1.35991 1.52865 0
M  V30 3080 H 302.095 -3.80574 1.47063 0
M  V30 3081 H 300.77 -3.31406 2.51283 0
M  V30 3082 H 299.347 -3.65994 0.714322 0
M  V30 3083 N 301.532 -0.945985 -1.26051 0
M  V30 3084 C 302.479 -0.45809 -2.26208 0
M  V30 3085 C 303.449 0.484816 -1.58867 0
M  V30 3086 O 304.634 0.399969 -1.86561 0
M  V30 3087 C 301.774 0.266131 -3.44072 0
M  V30 3088 C 300.887 -0.713005 -4.26075 0
M  V30 3089 C 300.022 0.0329013 -5.3119 0
M  V30 3090 C 299.061 -0.93774 -6.04874 0
M  V30 3091 N 298.198 -0.223274 -7.01745 0
M  V30 3092 H 303.038 -1.3171 -2.67313 0
M  V30 3093 H 300.575 -0.66069 -1.31428 0
M  V30 3094 H 302.533 0.702514 -4.11243 0
M  V30 3095 H 301.163 1.08925 -3.03867 0
M  V30 3096 H 300.215 -1.26789 -3.58648 0
M  V30 3097 H 301.527 -1.45406 -4.77136 0
M  V30 3098 H 300.681 0.528335 -6.04395 0
M  V30 3099 H 299.42 0.806801 -4.8098 0
M  V30 3100 H 298.425 -1.44425 -5.30492 0
M  V30 3101 H 299.65 -1.71172 -6.57173 0
M  V30 3102 H 297.596 0.532046 -6.53839 0
M  V30 3103 H 297.513 -0.90357 -7.50581 0
M  V30 3104 H 298.781 0.250907 -7.79096 0
M  V30 3105 N 303.011 1.40521 -0.713556 0
M  V30 3106 C 303.941 2.33381 -0.0743864 0
M  V30 3107 C 304.922 1.52784 0.747735 0
M  V30 3108 O 306.107 1.81258 0.697071 0
M  V30 3109 C 303.237 3.36748 0.849598 0
M  V30 3110 C 302.191 4.27793 0.133247 0
M  V30 3111 C 301.517 5.21679 1.17281 0
M  V30 3112 C 302.817 5.12415 -1.01134 0
M  V30 3113 H 304.511 2.87081 -0.850007 0
M  V30 3114 H 302.057 1.38034 -0.410201 0
M  V30 3115 H 304.01 4.00648 1.30612 0
M  V30 3116 H 302.734 2.81439 1.65709 0
M  V30 3117 H 301.393 3.65342 -0.303426 0
M  V30 3118 H 301.041 4.62677 1.9733 0
M  V30 3119 H 300.741 5.83435 0.698397 0
M  V30 3120 H 302.265 5.88456 1.62947 0
M  V30 3121 H 303.679 5.69781 -0.634274 0
M  V30 3122 H 302.076 5.83203 -1.41399 0
M  V30 3123 H 303.146 4.48514 -1.84292 0
M  V30 3124 N 304.489 0.459591 1.5075 0
M  V30 3125 C 305.766 -0.160371 1.94941 0
M  V30 3126 C 306.146 -1.58048 1.39943 0
M  V30 3127 O 305.494 -2.206 0.595629 0
M  V30 3128 C 305.704 -0.115432 3.48809 0
M  V30 3129 C 307.052 -0.310026 4.23467 0
M  V30 3130 O 308.076 -0.192543 3.55679 0
M  V30 3131 O 306.935 -0.546031 5.43765 0
M  V30 3132 H 304.029 -0.117925 0.818549 0
M  V30 3133 H 306.575 0.519169 1.61563 0
M  V30 3134 H 305.347 0.87652 3.81357 0
M  V30 3135 H 304.97 -0.836928 3.88692 0
M  V30 3136 N 305.967 -1.56429 0.191757 0
M  V30 3137 C 307.244 -1.89224 -0.495332 0
M  V30 3138 C 307.624 -1.10478 -1.79883 0
M  V30 3139 O 306.972 -0.204852 -2.2758 0
M  V30 3140 C 307.182 -3.41548 -0.717367 0
M  V30 3141 C 308.53 -4.11711 -1.03823 0
M  V30 3142 O 309.554 -3.4698 -0.805204 0
M  V30 3143 O 308.413 -5.2611 -1.47887 0
M  V30 3144 H 305.507 -0.785788 -0.25781 0
M  V30 3145 H 308.053 -1.68111 0.231721 0
M  V30 3146 H 306.825 -3.90772 0.203287 0
M  V30 3147 H 306.448 -3.68342 -1.497 0
M  V30 3148 N 307.445 0.0818655 -1.57387 0
M  V30 3149 C 308.722 0.815343 -1.77796 0
M  V30 3150 C 309.102 1.96289 -0.77679 0
M  V30 3151 O 308.45 2.27691 0.192106 0
M  V30 3152 C 308.66 1.29765 -3.23978 0
M  V30 3153 C 310.008 1.7351 -3.8753 0
M  V30 3154 O 311.032 1.39356 -3.27808 0
M  V30 3155 O 309.891 2.36708 -4.92576 0
M  V30 3156 H 306.985 0.389914 -0.729312 0
M  V30 3157 H 309.531 0.0627213 -1.69584 0
M  V30 3158 H 308.303 0.47608 -3.88393 0
M  V30 3159 H 307.926 2.11189 -3.36875 0
M  V30 3160 N 308.923 1.53595 0.353017 0
M  V30 3161 C 310.339 1.43648 0.695516 0
M  V30 3162 C 310.539 0.585617 1.92802 0
M  V30 3163 O 309.595 0.0729223 2.52395 0
M  V30 3164 C 310.908 2.8701 0.896991 0
M  V30 3165 C 312.456 2.96723 0.996209 0
M  V30 3166 C 312.931 4.41173 1.23007 0
M  V30 3167 N 314.422 4.44657 1.29749 0
M  V30 3168 C 315.157 5.53547 1.49577 0
M  V30 3169 N 314.653 6.72461 1.66639 0
M  V30 3170 N 316.446 5.41145 1.52048 0
M  V30 3171 H 308.597 2.07415 -0.457481 0
M  V30 3172 H 310.86 0.9372 -0.142687 0
M  V30 3173 H 310.566 3.51644 0.0629938 0
M  V30 3174 H 310.44 3.31401 1.80148 0
M  V30 3175 H 312.827 2.32235 1.82074 0
M  V30 3176 H 312.908 2.55707 0.0688331 0
M  V30 3177 H 312.552 5.06238 0.410505 0
M  V30 3178 H 312.482 4.79772 2.17086 0
M  V30 3179 H 314.973 3.58963 1.18126 0
M  V30 3180 H 315.286 7.51214 1.81378 0
M  V30 3181 H 313.631 6.75423 1.63794 0
M  V30 3182 H 316.822 4.47205 1.38294 0
M  V30 3183 H 316.995 6.26068 1.67159 0
M  V30 3184 N 310.401 -0.613514 1.45168 0
M  V30 3185 C 311.65 -1.36874 1.4815 0
M  V30 3186 C 311.963 -1.952 0.124982 0
M  V30 3187 O 313.169 -2.71481 0.0324176 0
M  V30 3188 C 311.625 -2.47905 2.60904 0
M  V30 3189 C 311.233 -1.96016 4.02842 0
M  V30 3190 C 312.977 -3.24965 2.73126 0
M  V30 3191 C 310.884 -3.04494 5.06988 0
M  V30 3192 H 309.814 -0.514428 0.551253 0
M  V30 3193 H 312.465 -0.658182 1.7129 0
M  V30 3194 H 310.847 -3.21618 2.31037 0
M  V30 3195 H 312.021 -1.29051 4.4236 0
M  V30 3196 H 310.336 -1.31719 3.95018 0
M  V30 3197 H 312.933 -4.05865 3.48106 0
M  V30 3198 H 313.276 -3.75588 1.79553 0
M  V30 3199 H 313.809 -2.5835 3.0249 0
M  V30 3200 H 310.548 -2.58795 6.0225 0
M  V30 3201 H 310.068 -3.70044 4.72046 0
M  V30 3202 H 311.747 -3.68976 5.31475 0
M  V30 3203 N 311.879 -1.3236 -0.855495 0
M  V30 3204 C 312.826 -1.21225 -1.964 0
M  V30 3205 C 313.796 -0.0946204 -1.6583 0
M  V30 3206 O 314.981 -0.27002 -1.8888 0
M  V30 3207 C 312.121 -0.940419 -3.32039 0
M  V30 3208 C 311.234 -2.14276 -3.75113 0
M  V30 3209 C 310.369 -1.80648 -4.9954 0
M  V30 3210 C 309.408 -2.97208 -5.35102 0
M  V30 3211 N 308.545 -2.63678 -6.50706 0
M  V30 3212 H 313.385 -2.16042 -2.05255 0
M  V30 3213 H 310.922 -1.07451 -1.00463 0
M  V30 3214 H 312.88 -0.763311 -4.10158 0
M  V30 3215 H 311.51 -0.0290413 -3.22787 0
M  V30 3216 H 310.562 -2.43017 -2.92655 0
M  V30 3217 H 311.874 -3.01468 -3.97389 0
M  V30 3218 H 311.028 -1.59484 -5.85363 0
M  V30 3219 H 309.767 -0.906678 -4.79198 0
M  V30 3220 H 308.772 -3.19004 -4.47791 0
M  V30 3221 H 309.997 -3.87918 -5.57401 0
M  V30 3222 H 307.943 -1.76238 -6.31883 0
M  V30 3223 H 307.86 -3.444 -6.72997 0
M  V30 3224 H 309.128 -2.45942 -7.39684 0
M  V30 3225 N 313.357 1.07166 -1.15556 0
M  V30 3226 C 314.634 1.76546 -0.842069 0
M  V30 3227 C 315.014 2.00453 0.661939 0
M  V30 3228 O 314.362 1.62452 1.60691 0
M  V30 3229 C 314.572 3.07266 -1.65495 0
M  V30 3230 C 315.92 3.81578 -1.86234 0
M  V30 3231 O 316.944 3.17083 -1.62287 0
M  V30 3232 O 315.803 4.97419 -2.26355 0
M  V30 3233 H 312.897 0.766756 -0.309862 0
M  V30 3234 H 315.443 1.13514 -1.26145 0
M  V30 3235 H 314.215 2.85494 -2.67598 0
M  V30 3236 H 313.838 3.7803 -1.23203 0
M  V30 3237 N 314.835 0.952656 1.25548 0
M  V30 3238 C 316.112 0.523818 1.88456 0
M  V30 3239 C 316.492 -0.998871 1.85973 0
M  V30 3240 O 315.84 -1.86381 1.3219 0
M  V30 3241 C 316.05 1.0982 3.31271 0
M  V30 3242 C 317.398 1.17385 4.08051 0
M  V30 3243 O 318.422 1.04961 3.40384 0
M  V30 3244 O 317.281 1.36852 5.29088 0
M  V30 3245 H 314.375 0.172485 0.808813 0
M  V30 3246 H 316.921 1.04596 1.33633 0
M  V30 3247 H 315.693 2.1415 3.27499 0
M  V30 3248 H 315.316 0.559191 3.93648 0
M  V30 3249 N 316.313 -1.40141 0.720998 0
M  V30 3250 C 317.59 -1.94677 0.189757 0
M  V30 3251 C 317.97 -1.65879 -1.30566 0
M  V30 3252 O 317.318 -0.979391 -2.06447 0
M  V30 3253 C 317.528 -3.45279 0.508304 0
M  V30 3254 C 318.876 -4.22209 0.449934 0
M  V30 3255 O 319.9 -3.53413 0.444677 0
M  V30 3256 O 318.759 -5.44788 0.432189 0
M  V30 3257 H 315.853 -0.826459 0.0299026 0
M  V30 3258 H 318.399 -1.49719 0.7989 0
M  V30 3259 H 317.171 -3.59619 1.54239 0
M  V30 3260 H 316.794 -3.97386 -0.130525 0
M  V30 3261 N 317.792 -0.46758 -1.50504 0
M  V30 3262 C 319.038 0.0887532 -2.02606 0
M  V30 3263 C 319.371 1.39686 -1.34913 0
M  V30 3264 O 318.646 1.88644 -0.473694 0
M  V30 3265 C 318.929 0.276206 -3.59039 0
M  V30 3266 C 318.782 -1.05267 -4.37309 0
M  V30 3267 C 320.101 1.03235 -4.27821 0
M  V30 3268 H 317.22 0.0307814 -0.736357 0
M  V30 3269 H 319.862 -0.612485 -1.79857 0
M  V30 3270 H 318.012 0.8735 -3.78553 0
M  V30 3271 H 319.684 -1.68628 -4.29374 0
M  V30 3272 H 317.927 -1.65015 -4.01189 0
M  V30 3273 H 318.598 -0.875197 -5.45018 0
M  V30 3274 H 321.074 0.526111 -4.12761 0
M  V30 3275 H 319.95 1.1323 -5.37094 0
M  V30 3276 H 320.211 2.06806 -3.90748 0
M  V30 3277 N 319.27 1.56325 -0.20005 0
M  V30 3278 C 320.686 1.58839 0.155716 0
M  V30 3279 C 320.886 1.21636 1.60645 0
M  V30 3280 O 319.942 0.941437 2.34293 0
M  V30 3281 C 321.255 3.0032 -0.151124 0
M  V30 3282 C 322.803 3.12866 -0.0916284 0
M  V30 3283 C 323.278 4.56488 -0.371845 0
M  V30 3284 N 324.769 4.62089 -0.320641 0
M  V30 3285 C 325.504 5.71116 -0.511243 0
M  V30 3286 N 325 6.88592 -0.762461 0
M  V30 3287 N 326.793 5.60335 -0.445157 0
M  V30 3288 H 318.944 1.78788 -1.14668 0
M  V30 3289 H 321.207 0.829996 -0.458051 0
M  V30 3290 H 320.913 3.32117 -1.15721 0
M  V30 3291 H 320.787 3.73257 0.543986 0
M  V30 3292 H 323.174 2.80878 0.905065 0
M  V30 3293 H 323.255 2.42304 -0.81989 0
M  V30 3294 H 322.899 4.89189 -1.36588 0
M  V30 3295 H 322.829 5.25246 0.377362 0
M  V30 3296 H 325.32 3.77665 -0.13329 0
M  V30 3297 H 325.633 7.67581 -0.896576 0
M  V30 3298 H 323.978 6.90387 -0.799412 0
M  V30 3299 H 327.169 4.67436 -0.249278 0
M  V30 3300 H 327.342 6.45243 -0.597116 0
M  V30 3301 N 320.748 -0.0735177 1.57428 0
M  V30 3302 C 321.698 -1.09442 2.00016 0
M  V30 3303 C 322.682 -1.34575 0.881947 0
M  V30 3304 O 323.874 -1.34905 1.14585 0
M  V30 3305 C 321.003 -2.40865 2.4462 0
M  V30 3306 C 320.089 -2.19014 3.63172 0
M  V30 3307 N 320.48 -1.67087 4.77405 0
M  V30 3308 C 318.778 -2.49494 3.69688 0
M  V30 3309 C 319.479 -1.6001 5.5926 0
M  V30 3310 N 318.455 -2.05999 5.03056 0
M  V30 3311 H 322.257 -0.686227 2.85776 0
M  V30 3312 H 319.771 -0.280617 1.59957 0
M  V30 3313 H 321.768 -3.14763 2.73368 0
M  V30 3314 H 320.428 -2.82403 1.60246 0
M  V30 3315 H 321.439 -1.35975 4.99731 0
M  V30 3316 H 318.116 -2.94409 2.96023 0
M  V30 3317 H 319.506 -1.2073 6.60964 0
M  V30 3318 N 322.226 -1.5378 -0.344866 0
M  V30 3319 C 323.503 -1.61589 -1.10219 0
M  V30 3320 C 323.883 -0.436316 -2.06542 0
M  V30 3321 O 323.231 0.571543 -2.21237 0
M  V30 3322 C 323.441 -2.97602 -1.82301 0
M  V30 3323 C 324.789 -3.5291 -2.36093 0
M  V30 3324 O 325.813 -2.99768 -1.924 0
M  V30 3325 O 324.672 -4.45859 -3.16026 0
M  V30 3326 H 321.766 -0.653522 -0.506792 0
M  V30 3327 H 324.312 -1.66126 -0.346465 0
M  V30 3328 H 323.084 -3.74893 -1.12121 0
M  V30 3329 H 322.707 -2.9665 -2.64735 0
M  V30 3330 N 323.704 0.605807 -1.45491 0
M  V30 3331 C 324.952 1.36207 -1.49305 0
M  V30 3332 C 325.273 1.94519 -0.136863 0
M  V30 3333 O 324.543 1.77261 0.833983 0
M  V30 3334 H 323.123 0.50565 -0.549843 0
M  V30 3335 H 325.785 0.711239 -1.81459 0
M  V30 3336 H 324.881 2.18058 -2.23287 0
M  V30 3337 N 325.182 1.32811 0.848464 0
M  V30 3338 C 326.598 1.11937 1.13764 0
M  V30 3339 C 326.798 -0.0960789 2.01271 0
M  V30 3340 O 325.854 -0.779165 2.40178 0
M  V30 3341 C 327.167 2.402 1.809 0
M  V30 3342 C 328.715 2.46016 1.93508 0
M  V30 3343 C 329.19 3.74215 2.64059 0
M  V30 3344 N 330.681 3.75232 2.71579 0
M  V30 3345 C 331.416 4.71134 3.26833 0
M  V30 3346 N 330.912 5.77406 3.8285 0
M  V30 3347 N 332.705 4.58623 3.24995 0
M  V30 3348 H 324.856 2.1073 0.265855 0
M  V30 3349 H 327.119 0.930671 0.180431 0
M  V30 3350 H 326.825 3.29093 1.24058 0
M  V30 3351 H 326.699 2.51628 2.81004 0
M  V30 3352 H 329.086 1.57577 2.49506 0
M  V30 3353 H 329.167 2.38536 0.923811 0
M  V30 3354 H 328.811 4.63031 2.08722 0
M  V30 3355 H 328.741 3.78968 3.65637 0
M  V30 3356 H 331.232 2.98423 2.31845 0
M  V30 3357 H 331.545 6.46632 4.23187 0
M  V30 3358 H 329.89 5.81152 3.81165 0
M  V30 3359 H 333.081 3.74762 2.80484 0
M  V30 3360 H 333.254 5.33535 3.67756 0
M  V30 3361 N 326.66 -1.06551 1.16123 0
M  V30 3362 C 327.61 -2.12209 0.833736 0
M  V30 3363 C 328.594 -1.59825 -0.185656 0
M  V30 3364 O 329.786 -1.76994 0.0147906 0
M  V30 3365 C 326.915 -3.41674 0.333697 0
M  V30 3366 C 326.001 -4.00892 1.38372 0
M  V30 3367 N 326.392 -4.34256 2.59337 0
M  V30 3368 C 324.69 -4.28463 1.23836 0
M  V30 3369 C 325.391 -4.81291 3.26701 0
M  V30 3370 N 324.367 -4.80565 2.54083 0
M  V30 3371 H 328.169 -2.35849 1.75364 0
M  V30 3372 H 325.683 -1.24068 1.04789 0
M  V30 3373 H 327.68 -4.16822 0.0806918 0
M  V30 3374 H 326.34 -3.19475 -0.58017 0
M  V30 3375 H 327.351 -4.24687 2.96415 0
M  V30 3376 H 324.028 -4.15721 0.38504 0
M  V30 3377 H 325.418 -5.16332 4.29943 0
M  V30 3378 N 328.138 -0.959301 -1.25041 0
M  V30 3379 C 329.101 -0.487677 -2.23952 0
M  V30 3380 C 330.101 0.41119 -1.55454 0
M  V30 3381 O 331.291 0.207825 -1.72956 0
M  V30 3382 C 328.423 0.294807 -3.39623 0
M  V30 3383 H 329.616 -1.36198 -2.67189 0
M  V30 3384 H 327.169 -0.743042 -1.37508 0
M  V30 3385 H 327.904 1.18658 -3.01813 0
M  V30 3386 H 327.689 -0.35012 -3.90534 0
M  V30 3387 H 329.179 0.614089 -4.1306 0
M  V30 3388 N 329.616 1.39756 -0.72842 0
M  V30 3389 C 330.566 2.2792 -0.0603424 0
M  V30 3390 C 331.55 1.43922 0.719399 0
M  V30 3391 O 332.742 1.66895 0.589489 0
M  V30 3392 C 329.871 3.32582 0.851104 0
M  V30 3393 C 328.957 4.24049 0.0658641 0
M  V30 3394 N 329.348 4.96653 -0.957578 0
M  V30 3395 C 327.646 4.45013 0.296509 0
M  V30 3396 C 328.347 5.63836 -1.43052 0
M  V30 3397 N 327.323 5.38397 -0.750315 0
M  V30 3398 H 331.125 2.81504 -0.84455 0
M  V30 3399 H 328.639 1.5236 -0.562155 0
M  V30 3400 H 330.636 3.94603 1.34514 0
M  V30 3401 H 329.296 2.80558 1.63454 0
M  V30 3402 H 330.307 5.00297 -1.33877 0
M  V30 3403 H 326.984 4.03943 1.05527 0
M  V30 3404 H 328.374 6.31974 -2.28163 0
M  V30 3405 N 331.094 0.475555 1.50254 0
M  V30 3406 C 332.371 -0.139685 1.95101 0
M  V30 3407 C 332.751 -1.56555 1.41611 0
M  V30 3408 O 332.099 -2.19956 0.618993 0
M  V30 3409 C 332.309 -0.0784298 3.48912 0
M  V30 3410 C 333.657 -0.265095 4.23772 0
M  V30 3411 O 334.681 -0.154808 3.55863 0
M  V30 3412 O 333.54 -0.488327 5.44314 0
M  V30 3413 H 330.634 -0.109236 0.819754 0
M  V30 3414 H 333.18 0.536276 1.61004 0
M  V30 3415 H 331.952 0.916918 3.80405 0
M  V30 3416 H 331.575 -0.795655 3.89558 0
M  V30 3417 N 332.573 -1.56217 0.208337 0
M  V30 3418 C 333.803 -2.02043 -0.431523 0
M  V30 3419 C 334.211 -1.08755 -1.54819 0
M  V30 3420 O 333.554 -0.0870009 -1.83494 0
M  V30 3421 C 333.616 -3.44239 -1.03633 0
M  V30 3422 C 333.28 -4.56965 -0.0567502 0
M  V30 3423 C 334.277 -5.14624 0.738773 0
M  V30 3424 C 331.962 -5.02266 0.0581736 0
M  V30 3425 C 333.956 -6.16045 1.63605 0
M  V30 3426 C 331.643 -6.03528 0.959001 0
M  V30 3427 C 332.641 -6.60293 1.7465 0
M  V30 3428 O 332.329 -7.59586 2.6322 0
M  V30 3429 H 332.061 -0.666772 -0.111313 0
M  V30 3430 H 334.615 -2.02919 0.318277 0
M  V30 3431 H 332.845 -3.40391 -1.83497 0
M  V30 3432 H 334.534 -3.73793 -1.58221 0
M  V30 3433 H 335.3 -4.80483 0.660364 0
M  V30 3434 H 331.179 -4.57771 -0.544633 0
M  V30 3435 H 334.723 -6.60279 2.25116 0
M  V30 3436 H 330.62 -6.37092 1.03848 0
M  V30 3437 H 331.388 -7.77057 2.57148 0
M  V30 3438 N 334.051 0.0651679 -1.57465 0
M  V30 3439 C 335.328 0.79644 -1.78651 0
M  V30 3440 C 335.708 1.95454 -0.797566 0
M  V30 3441 O 335.056 2.27882 0.167946 0
M  V30 3442 C 335.266 1.26322 -3.25337 0
M  V30 3443 C 336.614 1.6939 -3.89348 0
M  V30 3444 O 337.638 1.35872 -3.29268 0
M  V30 3445 O 336.497 2.31471 -4.95059 0
M  V30 3446 H 333.591 0.382157 -0.733407 0
M  V30 3447 H 336.137 0.0447311 -1.69641 0
M  V30 3448 H 334.909 0.434859 -3.88876 0
M  V30 3449 H 334.532 2.07604 -3.39096 0
M  V30 3450 N 335.529 1.53961 0.336706 0
M  V30 3451 C 336.759 1.75229 1.09446 0
M  V30 3452 C 337.167 0.494602 1.82621 0
M  V30 3453 O 336.51 -0.543764 1.75468 0
M  V30 3454 C 336.572 2.88288 2.1478 0
M  V30 3455 C 336.236 4.27656 1.6112 0
M  V30 3456 C 337.233 5.08981 1.0599 0
M  V30 3457 C 334.918 4.74161 1.6576 0
M  V30 3458 C 336.912 6.34916 0.562129 0
M  V30 3459 C 334.599 6.00067 1.15595 0
M  V30 3460 C 335.597 6.80278 0.609147 0
M  V30 3461 O 335.285 8.03818 0.114999 0
M  V30 3462 H 335.017 0.588881 0.331956 0
M  V30 3463 H 337.571 2.01614 0.392566 0
M  V30 3464 H 335.801 2.57443 2.88548 0
M  V30 3465 H 337.49 2.97461 2.76174 0
M  V30 3466 H 338.256 4.74213 1.01722 0
M  V30 3467 H 334.135 4.11781 2.07261 0
M  V30 3468 H 337.679 6.9747 0.134668 0
M  V30 3469 H 333.576 6.3433 1.19566 0
M  V30 3470 H 334.344 8.18172 0.231651 0
M  V30 3471 N 337.007 -0.598083 1.45811 0
M  V30 3472 C 338.253 -1.35882 1.50545 0
M  V30 3473 C 338.586 -1.93616 0.150445 0
M  V30 3474 O 337.861 -1.75604 -0.83628 0
M  V30 3475 C 338.144 -2.49966 2.59208 0
M  V30 3476 C 337.997 -1.97367 4.04186 0
M  V30 3477 C 339.316 -3.52068 2.64076 0
M  V30 3478 H 336.435 -0.492717 0.548087 0
M  V30 3479 H 339.077 -0.673319 1.77669 0
M  V30 3480 H 337.227 -3.08443 2.3621 0
M  V30 3481 H 338.899 -1.43466 4.38423 0
M  V30 3482 H 337.142 -1.283 4.14393 0
M  V30 3483 H 337.813 -2.79649 4.75921 0
M  V30 3484 H 340.289 -3.03448 2.84708 0
M  V30 3485 H 339.165 -4.2937 3.41954 0
M  V30 3486 H 339.426 -4.08304 1.69531 0
M  V30 3487 N 338.485 -1.33259 -0.841409 0
M  V30 3488 C 339.435 -1.19872 -1.93945 0
M  V30 3489 C 340.419 -0.102269 -1.60575 0
M  V30 3490 O 341.611 -0.330114 -1.73894 0
M  V30 3491 C 338.74 -0.937517 -3.30251 0
M  V30 3492 C 337.826 -2.07629 -3.69799 0
M  V30 3493 N 338.217 -3.32604 -3.81062 0
M  V30 3494 C 336.515 -1.98242 -3.9952 0
M  V30 3495 C 337.216 -4.07275 -4.15333 0
M  V30 3496 N 336.192 -3.35691 -4.27566 0
M  V30 3497 H 339.994 -2.14604 -2.00805 0
M  V30 3498 H 337.508 -1.2523 -1.03398 0
M  V30 3499 H 339.505 -0.822545 -4.08705 0
M  V30 3500 H 338.165 0.00128798 -3.247 0
M  V30 3501 H 339.176 -3.67382 -3.65035 0
M  V30 3502 H 335.853 -1.12005 -4.02195 0
M  V30 3503 H 337.243 -5.1511 -4.31406 0
M  V30 3504 N 339.963 1.05934 -1.16686 0
M  V30 3505 C 341.379 1.30938 -0.912542 0
M  V30 3506 C 341.579 1.96803 0.432533 0
M  V30 3507 O 340.635 2.23693 1.17123 0
M  V30 3508 C 341.948 2.18649 -2.06429 0
M  V30 3509 C 343.496 2.32055 -2.10047 0
M  V30 3510 C 343.971 3.23122 -3.24586 0
M  V30 3511 N 345.462 3.30706 -3.24327 0
M  V30 3512 C 346.197 4.01273 -4.09594 0
M  V30 3513 N 345.693 4.74332 -5.04956 0
M  V30 3514 N 347.486 3.97361 -3.97569 0
M  V30 3515 H 339.637 0.615777 -2.03278 0
M  V30 3516 H 341.9 0.334077 -0.887185 0
M  V30 3517 H 341.606 1.77534 -3.03603 0
M  V30 3518 H 341.48 3.19252 -2.00894 0
M  V30 3519 H 343.867 2.72415 -1.13464 0
M  V30 3520 H 343.948 1.31107 -2.19647 0
M  V30 3521 H 343.592 2.83477 -4.2143 0
M  V30 3522 H 343.522 4.24057 -3.12223 0
M  V30 3523 H 346.013 2.78644 -2.55276 0
M  V30 3524 H 346.326 5.25716 -5.6643 0
M  V30 3525 H 344.671 4.733 -5.08933 0
M  V30 3526 H 347.862 3.39405 -3.22369 0
M  V30 3527 H 348.035 4.52089 -4.64241 0
M  V30 3528 N 341.441 0.965919 1.2453 0
M  V30 3529 C 342.687 0.62776 1.92839 0
M  V30 3530 C 343.02 -0.834694 1.75347 0
M  V30 3531 O 342.295 -1.60031 1.10546 0
M  V30 3532 C 342.578 1.00109 3.45905 0
M  V30 3533 C 342.431 2.52011 3.72573 0
M  V30 3534 C 343.75 0.53435 4.36844 0
M  V30 3535 H 340.869 0.229537 0.700344 0
M  V30 3536 H 343.511 1.2046 1.46933 0
M  V30 3537 H 341.661 0.510238 3.85135 0
M  V30 3538 H 343.333 3.08559 3.42912 0
M  V30 3539 H 341.576 2.95287 3.17786 0
M  V30 3540 H 342.247 2.73183 4.79661 0
M  V30 3541 H 344.723 0.955565 4.04979 0
M  V30 3542 H 343.599 0.824152 5.42678 0
M  V30 3543 H 343.86 -0.565589 4.38467 0
M  V30 3544 N 342.919 -1.39368 0.735821 0
M  V30 3545 C 344.335 -1.54204 0.411492 0
M  V30 3546 C 344.535 -1.70268 -1.07755 0
M  V30 3547 O 343.591 -1.70364 -1.86366 0
M  V30 3548 C 344.904 -2.75925 1.19523 0
M  V30 3549 C 346.452 -2.89761 1.18354 0
M  V30 3550 C 346.927 -4.14421 1.94986 0
M  V30 3551 N 348.418 -4.21462 1.92156 0
M  V30 3552 C 349.153 -5.16871 2.48258 0
M  V30 3553 N 348.649 -6.18063 3.13001 0
M  V30 3554 N 350.442 -5.09093 2.38287 0
M  V30 3555 H 342.593 -1.27189 1.70108 0
M  V30 3556 H 344.856 -0.616517 0.720147 0
M  V30 3557 H 344.562 -2.70401 2.24892 0
M  V30 3558 H 344.436 -3.68614 0.800222 0
M  V30 3559 H 346.823 -2.94777 0.137975 0
M  V30 3560 H 346.904 -1.98133 1.61793 0
M  V30 3561 H 346.548 -4.10166 2.99543 0
M  V30 3562 H 346.478 -5.05095 1.48953 0
M  V30 3563 H 348.969 -3.48979 1.44991 0
M  V30 3564 H 349.282 -6.87326 3.53275 0
M  V30 3565 H 347.627 -6.18448 3.17091 0
M  V30 3566 H 350.818 -4.28973 1.8735 0
M  V30 3567 H 350.991 -5.83272 2.82308 0
M  V30 3568 N 344.397 -0.483516 -1.5 0
M  V30 3569 C 345.674 0.129337 -1.95172 0
M  V30 3570 C 346.054 1.55802 -1.4244 0
M  V30 3571 O 345.402 2.19625 -0.630649 0
M  V30 3572 C 345.612 0.0599251 -3.48949 0
M  V30 3573 C 346.96 0.242617 -4.23906 0
M  V30 3574 O 347.984 0.135933 -3.55941 0
M  V30 3575 O 346.843 0.459454 -5.44565 0
M  V30 3576 H 343.937 0.104887 -0.820322 0
M  V30 3577 H 346.483 -0.544807 -1.60717 0
M  V30 3578 H 345.255 -0.937079 -3.79914 0
M  V30 3579 H 344.878 0.774984 -3.89974 0
M  V30 3580 N 345.875 1.56104 -0.216619 0
M  V30 3581 C 347.124 1.97348 0.416744 0
M  V30 3582 C 347.437 1.10715 1.6125 0
M  V30 3583 O 348.643 1.41836 2.31506 0
M  V30 3584 C 347.099 3.51059 0.792835 0
M  V30 3585 C 346.707 4.46387 -0.379828 0
M  V30 3586 C 348.451 4.01026 1.39208 0
M  V30 3587 C 346.358 5.91397 0.0184223 0
M  V30 3588 H 345.288 0.736942 0.159475 0
M  V30 3589 H 347.939 1.80827 -0.31205 0
M  V30 3590 H 346.321 3.63162 1.57891 0
M  V30 3591 H 347.495 4.46029 -1.15737 0
M  V30 3592 H 345.81 4.06734 -0.891979 0
M  V30 3593 H 348.407 5.0686 1.70286 0
M  V30 3594 H 348.75 3.46587 2.30614 0
M  V30 3595 H 349.283 3.92125 0.669537 0
M  V30 3596 H 346.022 6.49807 -0.862002 0
M  V30 3597 H 345.542 5.94961 0.760384 0
M  V30 3598 H 347.221 6.45455 0.446818 0
M  V30 3599 N 347.353 -0.0568162 1.57498 0
M  V30 3600 C 348.263 -1.08346 2.08083 0
M  V30 3601 C 349.279 -1.41439 1.01346 0
M  V30 3602 O 350.455 -1.51316 1.32912 0
M  V30 3603 C 347.52 -2.37352 2.52715 0
M  V30 3604 C 346.581 -2.11093 3.73816 0
M  V30 3605 C 345.814 -3.33949 4.1631 0
M  V30 3606 O 346.037 -4.43622 3.58547 0
M  V30 3607 O 344.971 -3.21279 5.08983 0
M  V30 3608 H 348.797 -0.683667 2.95905 0
M  V30 3609 H 346.382 -0.271965 1.46904 0
M  V30 3610 H 348.264 -3.13246 2.81877 0
M  V30 3611 H 346.939 -2.76681 1.68016 0
M  V30 3612 H 345.846 -1.32856 3.49714 0
M  V30 3613 H 347.179 -1.76637 4.59413 0
M  V30 3614 N 348.832 -1.54138 -0.328536 0
M  V30 3615 C 349.795 -1.82462 -1.38709 0
M  V30 3616 C 350.795 -0.696229 -1.44946 0
M  V30 3617 O 351.985 -0.964535 -1.4506 0
M  V30 3618 C 349.117 -1.98018 -2.77492 0
M  V30 3619 H 350.31 -2.77037 -1.14851 0
M  V30 3620 H 347.863 -1.45779 -0.563751 0
M  V30 3621 H 348.598 -1.05637 -3.06613 0
M  V30 3622 H 348.383 -2.80124 -2.74359 0
M  V30 3623 H 349.873 -2.21396 -3.54081 0
M  V30 3624 N 350.31 0.590341 -1.46126 0
M  V30 3625 C 351.587 1.35029 -1.41515 0
M  V30 3626 C 351.967 2.10888 -0.0946472 0
M  V30 3627 O 351.315 2.08998 0.923693 0
M  V30 3628 C 351.525 2.28269 -2.63997 0
M  V30 3629 C 352.873 2.90338 -3.09821 0
M  V30 3630 O 353.897 2.38585 -2.64492 0
M  V30 3631 O 352.756 3.84321 -3.88535 0
M  V30 3632 H 349.85 0.606317 -0.562413 0
M  V30 3633 H 352.396 0.611994 -1.58281 0
M  V30 3634 H 351.168 1.71591 -3.51671 0
M  V30 3635 H 350.791 3.0945 -2.49652 0
M  V30 3636 N 351.788 1.33704 0.83433 0
M  V30 3637 C 353.016 1.28467 1.62185 0
M  V30 3638 C 353.431 -0.143526 1.88254 0
M  V30 3639 O 352.788 -1.08709 1.4659 0
M  V30 3640 C 352.839 2.06174 2.96942 0
M  V30 3641 O 352.56 3.43422 2.72016 0
M  V30 3642 C 354.061 2.08201 3.91366 0
M  V30 3643 H 351.281 0.4424 0.504503 0
M  V30 3644 H 353.825 1.76145 1.03891 0
M  V30 3645 H 351.98 1.62167 3.51825 0
M  V30 3646 H 352.394 3.83453 3.57861 0
M  V30 3647 H 353.868 2.67017 4.83121 0
M  V30 3648 H 354.345 1.07343 4.2588 0
M  V30 3649 H 354.951 2.52246 3.42421 0
M  V30 3650 N 353.266 -1.05314 1.17247 0
M  V30 3651 C 354.677 -1.59753 0.96623 0
M  V30 3652 C 355.028 -1.9005 -0.487378 0
M  V30 3653 O 354.153 -1.68126 -1.36245 0
M  V30 3654 C 354.748 -2.90249 1.74759 0
M  V30 3655 C 353.307 -3.41352 1.58606 0
M  V30 3656 C 352.454 -2.15103 1.75002 0
M  V30 3657 H 355.405 -0.881406 1.31973 0
M  V30 3658 H 355.426 -3.60097 1.22925 0
M  V30 3659 H 354.938 -2.68166 2.8055 0
M  V30 3660 H 353.039 -3.68474 0.552985 0
M  V30 3661 H 353.152 -4.16019 2.37624 0
M  V30 3662 H 351.516 -2.25804 1.17833 0
M  V30 3663 H 352.299 -1.95491 2.82202 0
M  V30 3664 N 354.744 -0.972509 -1.24016 0
M  V30 3665 C 355.707 -0.511403 -2.23422 0
M  V30 3666 C 356.707 0.394679 -1.55881 0
M  V30 3667 O 357.897 0.189469 -1.73167 0
M  V30 3668 C 355.029 0.258769 -3.39916 0
M  V30 3669 H 356.222 -1.39024 -2.6573 0
M  V30 3670 H 353.775 -0.757585 -1.36713 0
M  V30 3671 H 354.51 1.1545 -3.03054 0
M  V30 3672 H 354.295 -0.391522 -3.9014 0
M  V30 3673 H 355.785 0.570244 -4.13688 0
M  V30 3674 N 356.222 1.38976 -0.743202 0
M  V30 3675 C 357.638 1.53984 -0.419664 0
M  V30 3676 C 357.838 1.70837 1.0685 0
M  V30 3677 O 356.894 1.7135 1.8546 0
M  V30 3678 C 358.207 2.75287 -1.20985 0
M  V30 3679 C 359.755 2.89129 -1.19889 0
M  V30 3680 C 360.23 4.13381 -1.97181 0
M  V30 3681 N 361.721 4.20437 -1.94389 0
M  V30 3682 C 362.456 5.15547 -2.50996 0
M  V30 3683 N 361.952 6.16395 -3.16274 0
M  V30 3684 N 363.745 5.07822 -2.40984 0
M  V30 3685 H 355.896 1.26285 -1.7078 0
M  V30 3686 H 358.159 0.612689 -0.723406 0
M  V30 3687 H 357.865 2.69204 -2.26323 0
M  V30 3688 H 357.739 3.68184 -0.819759 0
M  V30 3689 H 360.126 2.947 -0.153606 0
M  V30 3690 H 360.207 1.97272 -1.62841 0
M  V30 3691 H 359.851 4.08572 -3.01714 0
M  V30 3692 H 359.781 5.04298 -1.51629 0
M  V30 3693 H 362.272 3.48205 -1.46839 0
M  V30 3694 H 362.585 6.85443 -3.56915 0
M  V30 3695 H 360.93 6.16758 -3.20367 0
M  V30 3696 H 364.121 4.27973 -1.89622 0
M  V30 3697 H 364.294 5.81767 -2.85397 0
M  V30 3698 N 357.7 0.491464 1.49741 0
M  V30 3699 C 358.93 -0.0534375 2.06531 0
M  V30 3700 C 359.338 -1.32233 1.35318 0
M  V30 3701 O 358.681 -1.78781 0.422243 0
M  V30 3702 C 358.743 -0.387034 3.57411 0
M  V30 3703 C 358.407 0.782764 4.50246 0
M  V30 3704 C 359.404 1.67059 4.92329 0
M  V30 3705 C 357.089 0.978866 4.9267 0
M  V30 3706 C 359.083 2.73874 5.75562 0
M  V30 3707 C 356.77 2.05022 5.75682 0
M  V30 3708 C 357.768 2.92851 6.17031 0
M  V30 3709 O 357.456 3.98138 6.98385 0
M  V30 3710 H 357.188 0.0129324 0.675876 0
M  V30 3711 H 359.742 0.685238 1.93633 0
M  V30 3712 H 357.972 -1.17918 3.68283 0
M  V30 3713 H 359.661 -0.869419 3.96479 0
M  V30 3714 H 360.427 1.53086 4.60206 0
M  V30 3715 H 356.306 0.304646 4.59992 0
M  V30 3716 H 359.85 3.42458 6.07757 0
M  V30 3717 H 355.747 2.18993 6.07217 0
M  V30 3718 H 356.515 3.95374 7.16674 0
M  V30 3719 N 359.178 -1.55987 0.224894 0
M  V30 3720 C 360.126 -2.21808 -0.700283 0
M  V30 3721 C 361.12 -1.19854 -1.19714 0
M  V30 3722 O 362.326 -1.37925 -1.15658 0
M  V30 3723 H 358.701 -0.711226 -0.244258 0
M  V30 3724 H 360.672 -2.98152 -0.121749 0
M  V30 3725 C 359.421 -2.91444 -1.8962 0
M  V30 3726 H 358.744 -3.69655 -1.52299 0
M  V30 3727 H 360.184 -3.40894 -2.52125 0
M  V30 3728 C 358.643 -1.94098 -2.75368 0
M  V30 3729 O 359.173 -1.46004 -3.74227 0
M  V30 3730 N 357.379 -1.61675 -2.41474 0
M  V30 3731 H 356.926 -2.00979 -1.61137 0
M  V30 3732 H 356.884 -0.968036 -2.99126 0
M  V30 3733 N 360.656 0.0484629 -1.57525 0
M  V30 3734 C 361.619 1.03956 -2.04269 0
M  V30 3735 C 362.619 1.30211 -0.943496 0
M  V30 3736 O 363.809 1.25539 -1.20771 0
M  V30 3737 C 360.941 2.37742 -2.44319 0
M  V30 3738 H 362.134 0.636182 -2.93075 0
M  V30 3739 H 359.687 0.294811 -1.53494 0
M  V30 3740 H 360.422 2.82866 -1.5861 0
M  V30 3741 H 360.207 2.20021 -3.24551 0
M  V30 3742 H 361.697 3.08936 -2.80978 0
M  V30 3743 N 362.134 1.5431 0.320358 0
M  V30 3744 C 363.411 1.63322 1.07635 0
M  V30 3745 C 363.791 0.46912 2.05821 0
M  V30 3746 O 363.139 -0.536274 2.22118 0
M  V30 3747 C 363.349 3.00465 1.77544 0
M  V30 3748 C 364.697 3.56621 2.30449 0
M  V30 3749 O 365.721 3.02791 1.87606 0
M  V30 3750 O 364.58 4.5083 3.08892 0
M  V30 3751 H 361.674 0.661502 0.496331 0
M  V30 3752 H 364.22 1.66656 0.319992 0
M  V30 3753 H 362.992 3.76629 1.06143 0
M  V30 3754 H 362.615 3.00824 2.59982 0
M  V30 3755 N 363.613 -0.582584 1.46437 0
M  V30 3756 C 365.024 -1.1647 1.45916 0
M  V30 3757 C 365.375 -1.95177 0.200077 0
M  V30 3758 O 364.5 -2.04874 -0.696819 0
M  V30 3759 C 365.095 -2.11885 2.64367 0
M  V30 3760 C 363.654 -2.65421 2.66887 0
M  V30 3761 C 362.801 -1.41294 2.38603 0
M  V30 3762 H 365.752 -0.370514 1.54314 0
M  V30 3763 H 365.773 -2.9535 2.39892 0
M  V30 3764 H 365.285 -1.54573 3.5599 0
M  V30 3765 H 363.386 -3.26602 1.79338 0
M  V30 3766 H 363.499 -3.08147 3.66854 0
M  V30 3767 H 361.863 -1.71109 1.88663 0
M  V30 3768 H 362.646 -0.858125 3.32402 0
M  V30 3769 N 365.091 -1.34144 -0.827227 0
M  V30 3770 C 366.368 -1.16844 -1.56865 0
M  V30 3771 C 366.748 0.260654 -2.09485 0
M  V30 3772 O 366.096 1.26138 -1.9053 0
M  V30 3773 C 366.306 -2.21939 -2.6934 0
M  V30 3774 C 367.654 -2.56695 -3.3822 0
M  V30 3775 O 368.678 -2.20695 -2.79593 0
M  V30 3776 O 367.537 -3.18518 -4.44082 0
M  V30 3777 H 364.631 -0.452669 -0.692112 0
M  V30 3778 H 367.177 -1.45763 -0.868973 0
M  V30 3779 H 365.949 -3.17882 -2.28182 0
M  V30 3780 H 365.572 -1.94172 -3.46962 0
M  V30 3781 N 366.569 1.04691 -1.17803 0
M  V30 3782 C 367.985 1.29963 -0.926379 0
M  V30 3783 C 368.185 1.97251 0.411635 0
M  V30 3784 O 367.241 2.24922 1.14744 0
M  V30 3785 C 368.554 2.16447 -2.08737 0
M  V30 3786 C 370.102 2.29814 -2.12496 0
M  V30 3787 C 370.577 3.19661 -3.27995 0
M  V30 3788 N 372.068 3.27247 -3.27816 0
M  V30 3789 C 372.803 3.96906 -4.13827 0
M  V30 3790 N 372.299 4.6895 -5.09959 0
M  V30 3791 N 374.092 3.93122 -4.01761 0
M  V30 3792 H 366.243 0.594182 -2.0392 0
M  V30 3793 H 368.506 0.324649 -0.890678 0
M  V30 3794 H 368.212 1.74304 -3.05469 0
M  V30 3795 H 368.086 3.17103 -2.04268 0
M  V30 3796 H 370.473 2.71196 -1.16347 0
M  V30 3797 H 370.554 1.2877 -2.21025 0
M  V30 3798 H 370.198 2.78991 -4.24413 0
M  V30 3799 H 370.128 4.20722 -3.16703 0
M  V30 3800 H 372.619 2.75921 -2.58217 0
M  V30 3801 H 372.932 5.19679 -5.71974 0
M  V30 3802 H 371.277 4.67875 -5.13924 0
M  V30 3803 H 374.468 3.35967 -3.2595 0
M  V30 3804 H 374.641 4.47139 -4.6901 0
M  V30 3805 N 368.047 0.979072 1.23499 0
M  V30 3806 C 368.977 0.537606 2.27227 0
M  V30 3807 C 369.958 -0.428539 1.64613 0
M  V30 3808 O 371.143 -0.322191 1.91509 0
M  V30 3809 C 368.273 -0.162052 3.46922 0
M  V30 3810 C 367.227 0.721242 4.21879 0
M  V30 3811 C 366.553 -0.110555 5.34586 0
M  V30 3812 C 367.853 2.01141 4.82016 0
M  V30 3813 H 369.547 1.40462 2.64406 0
M  V30 3814 H 367.093 0.67684 1.27102 0
M  V30 3815 H 369.046 -0.482192 4.18632 0
M  V30 3816 H 367.77 -1.06351 3.08799 0
M  V30 3817 H 366.429 1.02482 3.51984 0
M  V30 3818 H 366.077 -1.0125 4.92704 0
M  V30 3819 H 365.777 0.477325 5.85658 0
M  V30 3820 H 367.301 -0.425107 6.09118 0
M  V30 3821 H 368.715 1.75612 5.45741 0
M  V30 3822 H 367.112 2.54695 5.43369 0
M  V30 3823 H 368.182 2.69909 4.02836 0
M  V30 3824 N 369.525 -1.3858 0.750561 0
M  V30 3825 C 370.772 -2.00184 0.305373 0
M  V30 3826 C 371.1 -1.59575 -1.11203 0
M  V30 3827 O 370.355 -0.823236 -1.77542 0
M  V30 3828 C 370.654 -3.55455 0.372373 0
M  V30 3829 C 370.32 -4.15765 1.745 0
M  V30 3830 C 368.982 -4.31951 2.12065 0
M  V30 3831 C 371.334 -4.49067 2.64553 0
M  V30 3832 C 368.662 -4.78734 3.39162 0
M  V30 3833 C 371.014 -4.97265 3.91038 0
M  V30 3834 C 369.678 -5.11658 4.28676 0
M  V30 3835 H 368.948 -0.732526 0.111744 0
M  V30 3836 H 371.595 -1.65673 0.960451 0
M  V30 3837 H 369.9 -3.90084 -0.366272 0
M  V30 3838 H 371.597 -4.00999 0.00953918 0
M  V30 3839 H 368.187 -4.03579 1.44297 0
M  V30 3840 H 372.371 -4.36166 2.36796 0
M  V30 3841 H 367.627 -4.88062 3.68246 0
M  V30 3842 H 371.801 -5.22003 4.60962 0
M  V30 3843 H 369.428 -5.47668 5.27222 0
M  V30 3844 N 371.003 -0.499398 -1.49478 0
M  V30 3845 C 371.913 0.284489 -2.32869 0
M  V30 3846 C 372.929 0.968885 -1.44529 0
M  V30 3847 O 374.105 0.95062 -1.77553 0
M  V30 3848 C 371.17 1.33594 -3.19928 0
M  V30 3849 C 370.231 0.665149 -4.24116 0
M  V30 3850 C 369.464 1.6665 -5.07014 0
M  V30 3851 O 369.687 2.89618 -4.91404 0
M  V30 3852 O 368.621 1.22271 -5.8935 0
M  V30 3853 H 372.447 -0.39802 -3.01081 0
M  V30 3854 H 370.032 -0.260758 -1.47107 0
M  V30 3855 H 371.914 1.94431 -3.73864 0
M  V30 3856 H 370.589 2.0014 -2.54412 0
M  V30 3857 H 369.496 0.0170769 -3.74096 0
M  V30 3858 H 370.829 0.0421555 -4.92182 0
M  V30 3859 N 372.481 1.55866 -0.233164 0
M  V30 3860 C 373.706 2.03449 0.402906 0
M  V30 3861 C 374.131 1.11166 1.51736 0
M  V30 3862 O 373.489 0.101996 1.81013 0
M  V30 3863 C 373.537 3.49165 0.9009 0
M  V30 3864 O 372.641 3.60019 2.01147 0
M  V30 3865 H 371.982 0.657913 0.0897025 0
M  V30 3866 H 374.512 2.01493 -0.355201 0
M  V30 3867 H 374.522 3.89716 1.2077 0
M  V30 3868 H 373.197 4.15813 0.0852889 0
M  V30 3869 H 371.774 3.3136 1.71042 0
M  V30 3870 N 373.959 -0.0401083 1.57549 0
M  V30 3871 C 375.184 -0.748931 1.93406 0
M  V30 3872 C 375.609 -1.68686 0.832274 0
M  V30 3873 O 374.967 -1.80047 -0.212818 0
M  V30 3874 C 375.015 -1.4916 3.28304 0
M  V30 3875 O 374.119 -2.6042 3.19774 0
M  V30 3876 H 373.46 -0.202212 0.63246 0
M  V30 3877 H 375.99 0.00112086 2.046 0
M  V30 3878 H 376 -1.86395 3.62934 0
M  V30 3879 H 374.675 -0.80364 4.08062 0
M  V30 3880 H 373.252 -2.25808 2.96758 0
M  V30 3881 N 375.437 -1.54477 -0.31217 0
M  V30 3882 C 376.685 -1.72884 -1.04668 0
M  V30 3883 C 377.006 -0.511477 -1.88173 0
M  V30 3884 O 376.276 0.474407 -1.90069 0
M  V30 3885 H 374.856 -0.637461 -0.389425 0
M  V30 3886 H 377.518 -1.91807 -0.345852 0
M  V30 3887 H 376.614 -2.61334 -1.70619 0
M  V30 3888 N 376.915 0.57481 -1.46744 0
M  V30 3889 C 378.155 1.34369 -1.54027 0
M  V30 3890 C 378.519 1.91051 -0.190642 0
M  V30 3891 O 379.72 2.68444 -0.138255 0
M  V30 3892 C 377.991 2.43706 -2.61423 0
M  V30 3893 S 379.55 3.30915 -2.88167 0
M  V30 3894 H 376.368 0.45768 -0.544105 0
M  V30 3895 H 378.97 0.659959 -1.84024 0
M  V30 3896 H 377.674 2.0047 -3.58106 0
M  V30 3897 H 377.205 3.16842 -2.33184 0
M  V30 3898 H 379.22 4.42742 -2.24039 0
M  V30 3899 N 378.394 1.34581 0.820102 0
M  V30 3900 C 379.357 1.2628 1.91275 0
M  V30 3901 C 380.357 0.177344 1.59819 0
M  V30 3902 O 381.547 0.430156 1.68806 0
M  V30 3903 C 378.679 0.950327 3.27386 0
M  V30 3904 H 379.872 2.23421 2.00057 0
M  V30 3905 H 377.425 1.1891 1.0144 0
M  V30 3906 H 378.16 -0.0177938 3.24295 0
M  V30 3907 H 377.945 1.73549 3.51601 0
M  V30 3908 H 379.435 0.917492 4.07396 0
M  V30 3909 N 379.872 -1.04064 1.18357 0
M  V30 3910 C 381.12 -1.76915 0.977013 0
M  V30 3911 C 381.441 -1.88624 -0.494577 0
M  V30 3912 O 380.711 -1.41125 -1.3587 0
M  V30 3913 H 379.291 -0.65535 0.358504 0
M  V30 3914 H 381.953 -1.25592 1.49039 0
M  V30 3915 H 381.049 -2.78178 1.41504 0
M  V30 3916 N 381.35 -0.985608 -1.22978 0
M  V30 3917 C 382.297 -0.529825 -2.24636 0
M  V30 3918 C 383.267 0.434028 -1.60329 0
M  V30 3919 O 384.452 0.340414 -1.87739 0
M  V30 3920 C 381.592 0.156533 -3.44745 0
M  V30 3921 C 380.705 -0.848197 -4.23591 0
M  V30 3922 C 379.84 -0.136109 -5.31026 0
M  V30 3923 C 378.879 -1.1297 -6.01585 0
M  V30 3924 N 378.016 -0.446415 -7.00679 0
M  V30 3925 H 382.856 -1.40148 -2.62988 0
M  V30 3926 H 380.393 -0.702168 -1.29259 0
M  V30 3927 H 382.351 0.571324 -4.1327 0
M  V30 3928 H 380.981 0.992025 -3.07179 0
M  V30 3929 H 380.033 -1.38135 -3.54433 0
M  V30 3930 H 381.345 -1.60512 -4.72268 0
M  V30 3931 H 380.499 0.335784 -6.0577 0
M  V30 3932 H 379.238 0.653373 -4.83304 0
M  V30 3933 H 378.243 -1.6123 -5.25628 0
M  V30 3934 H 379.468 -1.91993 -6.51395 0
M  V30 3935 H 377.414 0.323763 -6.55201 0
M  V30 3936 H 377.331 -1.1419 -7.47326 0
M  V30 3937 H 378.599 0.00291697 -7.795 0
M  V30 3938 N 382.828 1.3818 -0.7579 0
M  V30 3939 C 383.758 2.33027 -0.148597 0
M  V30 3940 C 384.739 1.55085 0.69875 0
M  V30 3941 O 385.924 1.83384 0.639053 0
M  V30 3942 C 383.054 3.3928 0.742034 0
M  V30 3943 C 382.008 4.28 -0.00291946 0
M  V30 3944 C 381.334 5.25146 1.00625 0
M  V30 3945 C 382.634 5.08938 -1.17385 0
M  V30 3946 H 384.328 2.84231 -0.940909 0
M  V30 3947 H 381.874 1.36659 -0.453908 0
M  V30 3948 H 383.827 4.046 1.17799 0
M  V30 3949 H 382.551 2.86569 1.56671 0
M  V30 3950 H 381.21 3.64192 -0.419504 0
M  V30 3951 H 380.858 4.68721 1.8251 0
M  V30 3952 H 380.558 5.85361 0.512428 0
M  V30 3953 H 382.082 5.93342 1.44143 0
M  V30 3954 H 383.496 5.67474 -0.815224 0
M  V30 3955 H 381.893 5.7841 -1.59882 0
M  V30 3956 H 382.963 4.42424 -1.98468 0
M  V30 3957 N 384.306 0.507319 1.49211 0
M  V30 3958 C 385.269 -0.256763 2.27757 0
M  V30 3959 C 386.269 -0.888287 1.34038 0
M  V30 3960 O 387.459 -0.751841 1.5714 0
M  V30 3961 C 384.591 -1.36905 3.12202 0
M  V30 3962 H 385.784 0.432557 2.96764 0
M  V30 3963 H 383.337 0.262488 1.5408 0
M  V30 3964 H 384.072 -2.09233 2.47775 0
M  V30 3965 H 383.857 -0.921599 3.81115 0
M  V30 3966 H 385.347 -1.9071 3.7151 0
M  V30 3967 N 385.784 -1.5574 0.241426 0
M  V30 3968 C 387.03 -1.99104 -0.385406 0
M  V30 3969 C 387.363 -1.1293 -1.57988 0
M  V30 3970 O 386.638 -0.191449 -1.93555 0
M  V30 3971 C 386.921 -3.51087 -0.800616 0
M  V30 3972 C 386.774 -4.48028 0.398874 0
M  V30 3973 C 388.093 -4.08015 -1.64959 0
M  V30 3974 H 385.212 -0.723848 -0.138614 0
M  V30 3975 H 387.854 -1.86903 0.341642 0
M  V30 3976 H 386.004 -3.61615 -1.4201 0
M  V30 3977 H 387.676 -4.49487 1.03726 0
M  V30 3978 H 385.919 -4.21077 1.04293 0
M  V30 3979 H 386.59 -5.51962 0.0651056 0
M  V30 3980 H 389.066 -4.00555 -1.12672 0
M  V30 3981 H 387.942 -5.14635 -1.90898 0
M  V30 3982 H 388.203 -3.56131 -2.61961 0
M  V30 3983 N 387.262 0.0317525 -1.57568 0
M  V30 3984 C 388.509 0.723104 -1.89149 0
M  V30 3985 C 388.837 1.75504 -0.838377 0
M  V30 3986 O 388.092 1.95037 0.160982 0
M  V30 3987 C 388.391 1.43167 -3.27472 0
M  V30 3988 C 388.057 0.535972 -4.47703 0
M  V30 3989 C 386.719 0.289262 -4.8033 0
M  V30 3990 C 389.071 -0.0826125 -5.21135 0
M  V30 3991 C 386.399 -0.584853 -5.83778 0
M  V30 3992 C 388.751 -0.944414 -6.25511 0
M  V30 3993 C 387.415 -1.20061 -6.56614 0
M  V30 3994 H 386.685 0.264602 -0.692146 0
M  V30 3995 H 389.332 -0.0169496 -1.91492 0
M  V30 3996 H 387.637 2.24497 -3.21105 0
M  V30 3997 H 389.334 1.97209 -3.49155 0
M  V30 3998 H 385.924 0.738414 -4.22191 0
M  V30 3999 H 390.108 0.0950302 -4.96209 0
M  V30 4000 H 385.364 -0.79168 -6.06253 0
M  V30 4001 H 389.538 -1.43026 -6.81554 0
M  V30 4002 H 387.165 -1.87967 -7.36595 0
M  V30 4003 N 388.74 1.54641 0.303973 0
M  V30 4004 C 389.703 1.84646 1.35789 0
M  V30 4005 C 390.703 0.7192 1.4382 0
M  V30 4006 O 391.893 0.987491 1.43507 0
M  V30 4007 C 389.025 2.02407 2.74307 0
M  V30 4008 H 390.218 2.78829 1.10429 0
M  V30 4009 H 387.771 1.46658 0.540487 0
M  V30 4010 H 388.506 1.10502 3.04893 0
M  V30 4011 H 388.291 2.84453 2.69868 0
M  V30 4012 H 389.781 2.27002 3.50514 0
M  V30 4013 N 390.218 -0.567019 1.47046 0
M  V30 4014 C 391.464 -1.32658 1.53394 0
M  V30 4015 C 391.797 -1.93254 0.19148 0
M  V30 4016 O 391.072 -1.77338 -0.798844 0
M  V30 4017 C 391.355 -2.44412 2.64452 0
M  V30 4018 C 391.208 -1.88749 4.08282 0
M  V30 4019 C 392.527 -3.46387 2.71485 0
M  V30 4020 H 389.646 -0.48098 0.558415 0
M  V30 4021 H 392.288 -0.635481 1.79058 0
M  V30 4022 H 390.438 -3.03363 2.427 0
M  V30 4023 H 392.11 -1.34134 4.41368 0
M  V30 4024 H 390.353 -1.19481 4.17021 0
M  V30 4025 H 391.024 -2.69491 4.81745 0
M  V30 4026 H 393.5 -2.9734 2.91081 0
M  V30 4027 H 392.376 -4.2202 3.50985 0
M  V30 4028 H 392.637 -4.04616 1.78153 0
M  V30 4029 N 391.696 -1.35014 -0.812953 0
M  V30 4030 C 393.112 -1.14914 -1.10757 0
M  V30 4031 C 393.312 0.0426818 -2.01455 0
M  V30 4032 O 392.368 0.715212 -2.42159 0
M  V30 4033 C 393.681 -2.44911 -1.74468 0
M  V30 4034 C 395.229 -2.5106 -1.86917 0
M  V30 4035 C 395.704 -3.81085 -2.54044 0
M  V30 4036 N 397.195 -3.82301 -2.61535 0
M  V30 4037 C 397.93 -4.79634 -3.14227 0
M  V30 4038 N 397.426 -5.87353 -3.67407 0
M  V30 4039 N 399.219 -4.67078 -3.12721 0
M  V30 4040 H 391.37 -2.1136 -0.20989 0
M  V30 4041 H 393.633 -0.935128 -0.155692 0
M  V30 4042 H 393.339 -3.32267 -1.15289 0
M  V30 4043 H 393.213 -2.58989 -2.74234 0
M  V30 4044 H 395.6 -1.64137 -2.45241 0
M  V30 4045 H 395.681 -2.40901 -0.860242 0
M  V30 4046 H 395.325 -4.68402 -1.96372 0
M  V30 4047 H 395.255 -3.88529 -3.55461 0
M  V30 4048 H 397.746 -3.04465 -2.23851 0
M  V30 4049 H 398.059 -6.57624 -4.05894 0
M  V30 4050 H 396.404 -5.91054 -3.65623 0
M  V30 4051 H 399.595 -3.82067 -2.70449 0
M  V30 4052 H 399.768 -5.43098 -3.53481 0
M  V30 4053 N 393.175 1.03435 -1.18907 0
M  V30 4054 C 394.105 2.13503 -0.945448 0
M  V30 4055 C 395.086 1.69682 0.119189 0
M  V30 4056 O 396.271 1.94169 -0.034707 0
M  V30 4057 C 393.401 3.44004 -0.477316 0
M  V30 4058 C 392.355 4.0148 -1.48316 0
M  V30 4059 C 391.681 5.27537 -0.872311 0
M  V30 4060 C 392.981 4.36921 -2.86177 0
M  V30 4061 H 394.675 2.34141 -1.86597 0
M  V30 4062 H 392.221 1.12523 -0.898584 0
M  V30 4063 H 394.174 4.20372 -0.294204 0
M  V30 4064 H 392.898 3.23072 0.478786 0
M  V30 4065 H 391.557 3.27201 -1.65332 0
M  V30 4066 H 391.205 5.02917 0.0911752 0
M  V30 4067 H 390.905 5.66954 -1.54393 0
M  V30 4068 H 392.429 6.06576 -0.699871 0
M  V30 4069 H 393.843 5.04248 -2.72776 0
M  V30 4070 H 392.24 4.87405 -3.50081 0
M  V30 4071 H 393.31 3.46466 -3.39248 0
M  V30 4072 N 394.653 0.992116 1.22453 0
M  V30 4073 C 395.93 0.583508 1.86694 0
M  V30 4074 C 396.31 -0.9392 1.89056 0
M  V30 4075 O 395.658 -1.82081 1.38053 0
M  V30 4076 C 395.868 1.20304 3.2761 0
M  V30 4077 C 397.216 1.30308 4.0411 0
M  V30 4078 O 398.24 1.15737 3.36873 0
M  V30 4079 O 397.099 1.53615 5.24466 0
M  V30 4080 H 394.193 0.198129 0.802916 0
M  V30 4081 H 396.739 1.08794 1.30238 0
M  V30 4082 H 395.511 2.24461 3.2052 0
M  V30 4083 H 395.134 0.684144 3.9167 0
M  V30 4084 N 396.131 -1.37776 0.765217 0
M  V30 4085 C 397.359 -2.04124 0.337767 0
M  V30 4086 C 397.774 -1.57715 -1.03785 0
M  V30 4087 O 397.131 -0.755447 -1.6613 0
M  V30 4088 C 397.182 -3.59658 0.364442 0
M  V30 4089 O 396.903 -4.04367 1.68579 0
M  V30 4090 C 398.404 -4.43236 -0.0754221 0
M  V30 4091 H 395.624 -0.655696 0.142491 0
M  V30 4092 H 398.168 -1.76238 1.03732 0
M  V30 4093 H 396.323 -3.86339 -0.286471 0
M  V30 4094 H 396.737 -4.98857 1.61993 0
M  V30 4095 H 398.211 -5.52 -0.00560067 0
M  V30 4096 H 398.688 -4.2455 -1.12491 0
M  V30 4097 H 399.294 -4.21767 0.547055 0
M  V30 4098 N 397.609 -0.515225 -1.4894 0
M  V30 4099 C 398.856 0.024215 -2.02486 0
M  V30 4100 C 399.184 1.35671 -1.39368 0
M  V30 4101 O 398.439 1.88566 -0.523574 0
M  V30 4102 C 398.738 0.210595 -3.56779 0
M  V30 4103 C 398.404 -1.04569 -4.38607 0
M  V30 4104 C 397.066 -1.39002 -4.60686 0
M  V30 4105 C 399.418 -1.88008 -4.86109 0
M  V30 4106 C 396.746 -2.568 -5.27514 0
M  V30 4107 C 399.098 -3.04972 -5.54234 0
M  V30 4108 C 397.762 -3.39768 -5.74555 0
M  V30 4109 H 397.032 0.00886088 -0.740947 0
M  V30 4110 H 399.679 -0.678263 -1.79086 0
M  V30 4111 H 397.984 0.99572 -3.78936 0
M  V30 4112 H 399.681 0.642659 -3.95817 0
M  V30 4113 H 396.271 -0.767497 -4.21672 0
M  V30 4114 H 400.455 -1.62719 -4.68867 0
M  V30 4115 H 395.711 -2.8398 -5.41447 0
M  V30 4116 H 399.885 -3.69943 -5.90013 0
M  V30 4117 H 397.512 -4.31148 -6.26112 0
M  V30 4118 N 399.087 1.5561 -0.249682 0
M  V30 4119 C 399.997 2.25143 0.659375 0
M  V30 4120 C 401.013 1.2685 1.19101 0
M  V30 4121 O 402.189 1.59732 1.22669 0
M  V30 4122 C 399.254 2.93945 1.8384 0
M  V30 4123 C 398.315 4.07655 1.34596 0
M  V30 4124 C 397.548 4.73167 2.46878 0
M  V30 4125 O 397.771 4.37768 3.65671 0
M  V30 4126 O 396.705 5.61623 2.16478 0
M  V30 4127 H 400.531 3.03545 0.0968698 0
M  V30 4128 H 398.116 1.49389 -0.018074 0
M  V30 4129 H 399.998 3.37271 2.52638 0
M  V30 4130 H 398.673 2.18481 2.38847 0
M  V30 4131 H 397.58 3.68839 0.625174 0
M  V30 4132 H 398.913 4.84946 0.841941 0
M  V30 4133 N 400.565 -0.0233959 1.57583 0
M  V30 4134 C 401.528 -1.00693 2.05897 0
M  V30 4135 C 402.528 -1.28693 0.964092 0
M  V30 4136 O 403.718 -1.23602 1.22753 0
M  V30 4137 C 400.85 -2.33825 2.4807 0
M  V30 4138 H 402.043 -0.589476 2.9405 0
M  V30 4139 H 399.596 -0.270354 1.53944 0
M  V30 4140 H 400.331 -2.80307 1.6309 0
M  V30 4141 H 400.116 -2.1483 3.2801 0
M  V30 4142 H 401.606 -3.04426 2.85857 0
M  V30 4143 N 402.043 -1.548 -0.295768 0
M  V30 4144 C 402.953 -1.89177 -1.38742 0
M  V30 4145 C 403.969 -0.786481 -1.55211 0
M  V30 4146 O 405.145 -1.08344 -1.69775 0
M  V30 4147 C 402.21 -2.13663 -2.73036 0
M  V30 4148 C 401.271 -3.37349 -2.65508 0
M  V30 4149 C 400.504 -3.60658 -3.93398 0
M  V30 4150 O 400.727 -2.86882 -4.93006 0
M  V30 4151 O 399.661 -4.54179 -3.94975 0
M  V30 4152 H 403.487 -2.82059 -1.12589 0
M  V30 4153 H 401.072 -1.41056 -0.492295 0
M  V30 4154 H 402.954 -2.3094 -3.52484 0
M  V30 4155 H 401.629 -1.23967 -2.99022 0
M  V30 4156 H 400.536 -3.25431 -1.84514 0
M  V30 4157 H 401.869 -4.27192 -2.44474 0
M  V30 4158 N 403.521 0.559213 -1.47345 0
M  V30 4159 C 404.468 1.66645 -1.59682 0
M  V30 4160 C 405.438 1.60168 -0.43994 0
M  V30 4161 O 406.623 1.79031 -0.659736 0
M  V30 4162 C 403.763 3.04969 -1.61518 0
M  V30 4163 C 402.876 3.21897 -2.88108 0
M  V30 4164 C 402.011 4.50608 -2.81294 0
M  V30 4165 C 401.05 4.60961 -4.02717 0
M  V30 4166 N 400.187 5.81024 -3.94151 0
M  V30 4167 H 405.027 1.55439 -2.54249 0
M  V30 4168 H 402.564 0.757219 -1.26113 0
M  V30 4169 H 404.522 3.85064 -1.60566 0
M  V30 4170 H 403.152 3.15015 -0.704645 0
M  V30 4171 H 402.204 2.35248 -2.98936 0
M  V30 4172 H 403.516 3.25412 -3.78032 0
M  V30 4173 H 402.67 5.3896 -2.7858 0
M  V30 4174 H 401.409 4.49568 -1.89049 0
M  V30 4175 H 400.414 3.71021 -4.05738 0
M  V30 4176 H 401.639 4.63761 -4.96087 0
M  V30 4177 H 399.585 5.80938 -3.04708 0
M  V30 4178 H 399.502 5.85909 -4.77752 0
M  V30 4179 H 400.77 6.71744 -3.9545 0
M  V30 4180 N 404.999 1.35443 0.805782 0
M  V30 4181 C 405.947 1.28465 1.93906 0
M  V30 4182 C 406.941 0.17943 1.68447 0
M  V30 4183 O 408.147 0.345459 1.76654 0
M  V30 4184 H 404.522 0.399528 0.637088 0
M  V30 4185 H 406.493 2.24206 1.96912 0
M  V30 4186 C 405.242 1.07432 3.30687 0
M  V30 4187 H 404.565 1.91716 3.50835 0
M  V30 4188 H 406.005 1.06591 4.10383 0
M  V30 4189 C 404.464 -0.22179 3.36169 0
M  V30 4190 O 404.994 -1.21731 3.82811 0
M  V30 4191 N 403.2 -0.260841 2.89427 0
M  V30 4192 H 402.747 0.549884 2.51663 0
M  V30 4193 H 402.705 -1.12777 2.93477 0
M  V30 4194 N 406.477 -1.02803 1.19454 0
M  V30 4195 C 407.409 -2.11181 0.890807 0
M  V30 4196 C 408.422 -1.6238 -0.116829 0
M  V30 4197 O 409.611 -1.78144 0.112694 0
M  V30 4198 C 406.711 -3.37461 0.311942 0
M  V30 4199 C 405.884 -4.15446 1.36834 0
M  V30 4200 C 404.943 -5.20039 0.802864 0
M  V30 4201 O 403.969 -5.49602 1.48077 0
M  V30 4202 N 405.171 -5.79165 -0.393417 0
M  V30 4203 H 407.936 -2.37827 1.82369 0
M  V30 4204 H 405.497 -1.19101 1.09666 0
M  V30 4205 H 407.489 -4.0462 -0.0802225 0
M  V30 4206 H 406.059 -3.08156 -0.52524 0
M  V30 4207 H 405.279 -3.43423 1.93531 0
M  V30 4208 H 406.567 -4.64335 2.08015 0
M  V30 4209 H 405.965 -5.57466 -0.961658 0
M  V30 4210 H 404.522 -6.47729 -0.727351 0
M  V30 4211 N 407.956 -0.998596 -1.21925 0
M  V30 4212 C 408.888 -0.511879 -2.23411 0
M  V30 4213 C 409.901 0.396094 -1.57908 0
M  V30 4214 O 411.09 0.197316 -1.77406 0
M  V30 4215 C 408.19 0.276802 -3.37768 0
M  V30 4216 C 407.363 -0.628687 -4.32858 0
M  V30 4217 C 406.422 0.109272 -5.26087 0
M  V30 4218 O 405.448 -0.507237 -5.66935 0
M  V30 4219 N 406.65 1.38983 -5.63617 0
M  V30 4220 H 409.415 -1.38457 -2.658 0
M  V30 4221 H 406.976 -0.873981 -1.36283 0
M  V30 4222 H 408.968 0.77928 -3.97126 0
M  V30 4223 H 407.538 1.05063 -2.94415 0
M  V30 4224 H 406.758 -1.31175 -3.71735 0
M  V30 4225 H 408.046 -1.24514 -4.93329 0
M  V30 4226 H 407.444 1.91194 -5.32411 0
M  V30 4227 H 406.001 1.83739 -6.25367 0
M  V30 4228 N 409.434 1.37368 -0.772513 0
M  V30 4229 C 410.68 1.99969 -0.337681 0
M  V30 4230 C 411.013 1.61184 1.08321 0
M  V30 4231 O 410.288 0.858395 1.74533 0
M  V30 4232 C 410.571 3.56858 -0.482121 0
M  V30 4233 C 410.424 4.0555 -1.94549 0
M  V30 4234 C 411.743 4.39955 0.113143 0
M  V30 4235 H 408.862 0.726464 -0.124171 0
M  V30 4236 H 411.504 1.63034 -0.975699 0
M  V30 4237 H 409.654 3.88452 0.0610361 0
M  V30 4238 H 411.326 3.84518 -2.54841 0
M  V30 4239 H 409.569 3.57715 -2.45403 0
M  V30 4240 H 410.24 5.14587 -1.9976 0
M  V30 4241 H 412.716 4.14623 -0.35031 0
M  V30 4242 H 411.592 5.48897 -0.0180514 0
M  V30 4243 H 411.853 4.25403 1.20354 0
M  V30 4244 N 410.912 0.523116 1.48665 0
M  V30 4245 C 412.159 -0.0134763 2.02496 0
M  V30 4246 C 412.487 -1.3493 1.40086 0
M  V30 4247 O 411.742 -1.88286 0.533567 0
M  V30 4248 C 412.041 -0.191671 3.56886 0
M  V30 4249 C 411.707 1.06893 4.38046 0
M  V30 4250 C 410.369 1.41443 4.59943 0
M  V30 4251 C 412.721 1.90584 4.85106 0
M  V30 4252 C 410.049 2.59594 5.26144 0
M  V30 4253 C 412.401 3.07907 5.52609 0
M  V30 4254 C 411.065 3.42811 5.72745 0
M  V30 4255 H 410.335 -0.00493133 0.740984 0
M  V30 4256 H 412.982 0.687751 1.78724 0
M  V30 4257 H 411.287 -0.97561 3.79459 0
M  V30 4258 H 412.984 -0.621659 3.96152 0
M  V30 4259 H 409.574 0.789848 4.21259 0
M  V30 4260 H 413.758 1.65203 4.67997 0
M  V30 4261 H 409.014 2.86847 5.39934 0
M  V30 4262 H 413.188 3.73066 5.88043 0
M  V30 4263 H 410.815 4.34462 6.23816 0
M  V30 4264 N 412.39 -1.55475 0.257931 0
M  V30 4265 C 413.62 -2.03314 -0.367026 0
M  V30 4266 C 414.028 -1.13625 -1.51281 0
M  V30 4267 O 413.371 -0.145334 -1.83124 0
M  V30 4268 C 413.433 -3.47362 -0.926284 0
M  V30 4269 C 413.097 -4.56914 0.0886584 0
M  V30 4270 C 414.094 -5.12013 0.902123 0
M  V30 4271 C 411.779 -5.01827 0.217936 0
M  V30 4272 C 413.773 -6.10529 1.83122 0
M  V30 4273 C 411.46 -6.00172 1.15052 0
M  V30 4274 C 412.458 -6.54402 1.95568 0
M  V30 4275 O 412.146 -7.50827 2.87253 0
M  V30 4276 H 411.878 -0.669976 -0.0900443 0
M  V30 4277 H 414.432 -2.01804 0.382673 0
M  V30 4278 H 412.662 -3.46056 -1.72575 0
M  V30 4279 H 414.351 -3.78637 -1.46249 0
M  V30 4280 H 415.117 -4.78139 0.812891 0
M  V30 4281 H 410.996 -4.59272 -0.398721 0
M  V30 4282 H 414.54 -6.52783 2.46008 0
M  V30 4283 H 410.437 -6.33465 1.24064 0
M  V30 4284 H 411.205 -7.68483 2.81739 0
M  V30 4285 N 413.868 0.0150385 -1.57593 0
M  V30 4286 C 415.117 0.702115 -1.89085 0
M  V30 4287 C 415.43 1.75764 -0.858277 0
M  V30 4288 O 416.636 2.49829 -1.0629 0
M  V30 4289 C 415.092 1.29992 -3.35604 0
M  V30 4290 C 414.7 0.280007 -4.47124 0
M  V30 4291 C 416.444 1.96606 -3.76227 0
M  V30 4292 C 414.351 0.886949 -5.84711 0
M  V30 4293 H 413.281 0.265997 -0.705522 0
M  V30 4294 H 415.932 -0.0430408 -1.8345 0
M  V30 4295 H 414.314 2.09525 -3.36029 0
M  V30 4296 H 415.488 -0.489631 -4.58191 0
M  V30 4297 H 413.803 -0.284835 -4.15425 0
M  V30 4298 H 416.4 2.42893 -4.76347 0
M  V30 4299 H 416.743 2.79024 -3.08952 0
M  V30 4300 H 417.276 1.23828 -3.78036 0
M  V30 4301 H 414.015 0.101876 -6.55421 0
M  V30 4302 H 413.535 1.6261 -5.77337 0
M  V30 4303 H 415.214 1.39011 -6.3189 0
M  V30 4304 N 415.346 1.54954 0.287554 0
M  V30 4305 C 416.594 1.74528 1.01904 0
M  V30 4306 C 416.915 0.541349 1.87335 0
M  V30 4307 O 416.185 -0.444108 1.908 0
M  V30 4308 H 414.765 0.643576 0.379235 0
M  V30 4309 H 417.427 1.92333 0.315294 0
M  V30 4310 H 416.523 2.64015 1.6644 0
M  V30 4311 N 416.824 -0.551391 1.4764 0
M  V30 4312 C 418.052 -1.33357 1.58189 0
M  V30 4313 C 418.467 -1.87342 0.234199 0
M  V30 4314 O 417.824 -1.65301 -0.77343 0
M  V30 4315 C 417.875 -2.49942 2.61173 0
M  V30 4316 O 417.596 -1.98187 3.90709 0
M  V30 4317 C 419.097 -3.42072 2.8196 0
M  V30 4318 H 416.317 -0.40631 0.533998 0
M  V30 4319 H 418.861 -0.667367 1.93304 0
M  V30 4320 H 417.016 -3.12489 2.28975 0
M  V30 4321 H 417.43 -2.74342 4.47031 0
M  V30 4322 H 418.904 -4.20278 3.57869 0
M  V30 4323 H 419.381 -3.95978 1.89995 0
M  V30 4324 H 419.987 -2.85336 3.15378 0
M  V30 4325 N 418.302 -1.35869 -0.798587 0
M  V30 4326 C 419.25 -1.29491 -1.93222 0
M  V30 4327 C 420.244 -0.18836 -1.6835 0
M  V30 4328 O 421.45 -0.354822 -1.76468 0
M  V30 4329 H 417.825 -0.402901 -0.63496 0
M  V30 4330 H 419.796 -2.25247 -1.9572 0
M  V30 4331 C 418.545 -1.09184 -3.30112 0
M  V30 4332 H 417.868 -1.93574 -3.49813 0
M  V30 4333 H 419.308 -1.08766 -4.09812 0
M  V30 4334 C 417.767 0.203959 -3.36282 0
M  V30 4335 O 418.297 1.19699 -3.83451 0
M  V30 4336 N 416.503 0.245488 -2.89561 0
M  V30 4337 H 416.05 -0.563223 -2.51367 0
M  V30 4338 H 416.008 1.11219 -2.94071 0
M  V30 4339 N 419.78 1.02168 -1.19998 0
M  V30 4340 C 420.712 2.10705 -0.901994 0
M  V30 4341 C 421.725 1.6244 0.108216 0
M  V30 4342 O 422.914 1.78082 -0.12214 0
M  V30 4343 C 420.014 3.37291 -0.329834 0
M  V30 4344 C 419.187 4.14714 -1.39035 0
M  V30 4345 C 418.246 5.19606 -0.830432 0
M  V30 4346 O 417.272 5.48809 -1.50989 0
M  V30 4347 N 418.474 5.79366 0.362696 0
M  V30 4348 H 421.239 2.36856 -1.83628 0
M  V30 4349 H 418.8 1.18518 -1.10296 0
M  V30 4350 H 420.792 4.04657 0.0587633 0
M  V30 4351 H 419.362 3.0843 0.508891 0
M  V30 4352 H 418.582 3.42392 -1.9535 0
M  V30 4353 H 419.87 4.63226 -2.10474 0
M  V30 4354 H 419.268 5.57968 0.932081 0
M  V30 4355 H 417.825 6.48106 0.69299 0
M  V30 4356 N 421.258 1.00505 1.21394 0
M  V30 4357 C 422.669 0.721082 1.72213 0
M  V30 4358 C 423.02 -0.761263 1.80829 0
M  V30 4359 O 422.145 -1.59464 1.46288 0
M  V30 4360 C 422.74 1.30228 3.12772 0
M  V30 4361 C 421.299 1.06743 3.60947 0
M  V30 4362 C 420.446 1.41507 2.38477 0
M  V30 4363 H 423.397 1.17594 1.06571 0
M  V30 4364 H 423.418 0.686955 3.74247 0
M  V30 4365 H 422.93 2.38115 3.06468 0
M  V30 4366 H 421.031 0.00572162 3.726 0
M  V30 4367 H 421.144 1.73936 4.46411 0
M  V30 4368 H 419.508 0.833852 2.40664 0
M  V30 4369 H 420.291 2.50424 2.34824 0
M  V30 4370 N 422.737 -1.36956 0.779787 0
M  V30 4371 C 423.647 -2.33965 0.172491 0
M  V30 4372 C 424.663 -1.60574 -0.670222 0
M  V30 4373 O 425.839 -1.92617 -0.588263 0
M  V30 4374 C 422.904 -3.39761 -0.690173 0
M  V30 4375 C 421.965 -4.28964 0.169924 0
M  V30 4376 C 421.198 -5.29707 -0.651662 0
M  V30 4377 O 421.421 -5.38238 -1.88827 0
M  V30 4378 O 420.355 -6.01873 -0.0566264 0
M  V30 4379 H 424.181 -2.87647 0.974321 0
M  V30 4380 H 421.766 -1.39258 0.541078 0
M  V30 4381 H 423.648 -4.04471 -1.1824 0
M  V30 4382 H 422.323 -2.88394 -1.47006 0
M  V30 4383 H 421.23 -3.67326 0.708696 0
M  V30 4384 H 422.563 -4.83656 0.913085 0
M  V30 4385 N 424.215 -0.530993 -1.48385 0
M  V30 4386 C 425.461 0.00274135 -2.028 0
M  V30 4387 C 425.794 1.33838 -1.40716 0
M  V30 4388 O 425.069 1.86465 -0.553277 0
M  V30 4389 C 425.352 0.123676 -3.59888 0
M  V30 4390 C 425.205 -1.2372 -4.3245 0
M  V30 4391 C 426.524 0.849967 -4.31814 0
M  V30 4392 H 423.643 -0.000477758 -0.737 0
M  V30 4393 H 426.285 -0.688217 -1.77098 0
M  V30 4394 H 424.435 0.712157 -3.81917 0
M  V30 4395 H 426.107 -1.86687 -4.21836 0
M  V30 4396 H 424.35 -1.81882 -3.93829 0
M  V30 4397 H 425.021 -1.10557 -5.40815 0
M  V30 4398 H 427.497 0.350572 -4.14621 0
M  V30 4399 H 426.373 0.903486 -5.41413 0
M  V30 4400 H 426.634 1.90047 -3.99167 0
M  V30 4401 N 425.693 1.55336 -0.266172 0
M  V30 4402 C 426.623 2.25146 0.618981 0
M  V30 4403 C 427.604 1.23845 1.16604 0
M  V30 4404 O 428.789 1.52544 1.20183 0
M  V30 4405 C 425.919 2.96572 1.80728 0
M  V30 4406 C 424.873 4.04726 1.39215 0
M  V30 4407 C 424.199 4.63678 2.66283 0
M  V30 4408 C 425.499 5.19407 0.548942 0
M  V30 4409 H 427.193 2.99377 0.0368116 0
M  V30 4410 H 424.739 1.43991 0.0162651 0
M  V30 4411 H 426.692 3.44116 2.43232 0
M  V30 4412 H 425.416 2.19861 2.41514 0
M  V30 4413 H 424.075 3.57979 0.790351 0
M  V30 4414 H 423.723 3.83646 3.25308 0
M  V30 4415 H 423.423 5.367 2.39222 0
M  V30 4416 H 424.947 5.13967 3.29651 0
M  V30 4417 H 426.361 5.63059 1.07876 0
M  V30 4418 H 424.758 5.98936 0.373593 0
M  V30 4419 H 425.828 4.8295 -0.434394 0
M  V30 4420 N 427.171 -0.0066808 1.57599 0
M  V30 4421 C 428.399 -0.704087 1.94551 0
M  V30 4422 C 428.814 -1.67677 0.867746 0
M  V30 4423 O 428.171 -1.8185 -0.153925 0
M  V30 4424 C 428.222 -1.44177 3.31505 0
M  V30 4425 O 427.943 -0.508097 4.35144 0
M  V30 4426 C 429.444 -2.23429 3.82876 0
M  V30 4427 H 426.664 -0.196523 0.641576 0
M  V30 4428 H 429.208 0.042453 2.04456 0
M  V30 4429 H 427.363 -2.13999 3.22929 0
M  V30 4430 H 427.777 -1.02782 5.14331 0
M  V30 4431 H 429.251 -2.70552 4.8115 0
M  V30 4432 H 429.728 -3.05818 3.15233 0
M  V30 4433 H 430.334 -1.58636 3.94607 0
M  V30 4434 N 428.649 -1.55105 -0.279332 0
M  V30 4435 C 429.559 -1.90638 -1.36727 0
M  V30 4436 C 430.575 -0.802899 -1.54368 0
M  V30 4437 O 431.751 -1.10138 -1.68616 0
M  V30 4438 C 428.816 -2.16547 -2.70755 0
M  V30 4439 C 427.877 -3.40146 -2.61915 0
M  V30 4440 C 427.11 -3.6481 -3.8955 0
M  V30 4441 O 427.333 -2.92095 -4.89935 0
M  V30 4442 O 426.267 -4.58343 -3.90135 0
M  V30 4443 H 430.093 -2.83237 -1.09591 0
M  V30 4444 H 427.678 -1.4157 -0.477306 0
M  V30 4445 H 429.56 -2.34665 -3.50014 0
M  V30 4446 H 428.235 -1.27131 -2.9769 0
M  V30 4447 H 427.142 -3.2737 -1.81052 0
M  V30 4448 H 428.475 -4.29761 -2.3993 0
M  V30 4449 N 430.127 0.543554 -1.4793 0
M  V30 4450 C 431.376 1.29649 -1.54512 0
M  V30 4451 C 431.689 1.94382 -0.217973 0
M  V30 4452 O 432.895 2.71017 -0.161908 0
M  V30 4453 C 431.351 2.35175 -2.72435 0
M  V30 4454 C 430.959 1.76572 -4.11736 0
M  V30 4455 C 432.703 3.11564 -2.8832 0
M  V30 4456 C 430.61 2.79958 -5.20939 0
M  V30 4457 H 429.54 0.487541 -0.57517 0
M  V30 4458 H 432.191 0.575708 -1.74235 0
M  V30 4459 H 430.573 3.10229 -2.46118 0
M  V30 4460 H 431.747 1.07799 -4.48013 0
M  V30 4461 H 430.062 1.12722 -4.00852 0
M  V30 4462 H 432.659 3.88794 -3.67074 0
M  V30 4463 H 433.002 3.66594 -1.97268 0
M  V30 4464 H 433.535 2.43623 -3.14472 0
M  V30 4465 H 430.274 2.29766 -6.13912 0
M  V30 4466 H 429.794 3.47101 -4.89164 0
M  V30 4467 H 431.473 3.43198 -5.48474 0
M  V30 4468 N 431.605 1.3629 0.791371 0
M  V30 4469 C 433.021 1.16661 1.08914 0
M  V30 4470 C 433.221 -0.0106266 2.01497 0
M  V30 4471 O 432.277 -0.676596 2.43266 0
M  V30 4472 C 433.59 2.47656 1.70549 0
M  V30 4473 C 435.138 2.54002 1.82899 0
M  V30 4474 C 435.613 3.85078 2.47949 0
M  V30 4475 N 437.104 3.86413 2.5542 0
M  V30 4476 C 437.839 4.84572 3.06557 0
M  V30 4477 N 437.335 5.93124 3.58016 0
M  V30 4478 N 439.128 4.71994 3.05251 0
M  V30 4479 H 431.279 2.11668 0.176238 0
M  V30 4480 H 433.542 0.937486 0.140796 0
M  V30 4481 H 433.248 3.34059 1.09989 0
M  V30 4482 H 433.122 2.63319 2.70079 0
M  V30 4483 H 435.509 1.68018 2.42598 0
M  V30 4484 H 435.59 2.42239 0.821808 0
M  V30 4485 H 435.234 4.71467 1.88895 0
M  V30 4486 H 435.164 3.94135 3.49235 0
M  V30 4487 H 437.655 3.07988 2.18979 0
M  V30 4488 H 437.968 6.63999 3.95381 0
M  V30 4489 H 436.313 5.96796 3.56173 0
M  V30 4490 H 439.504 3.86321 2.64336 0
M  V30 4491 H 439.677 5.48653 3.44796 0
M  V30 4492 N 433.083 -1.0153 1.20538 0
M  V30 4493 C 434.499 -1.27461 0.96051 0
M  V30 4494 C 434.699 -1.98273 -0.359193 0
M  V30 4495 O 433.755 -2.27886 -1.0874 0
M  V30 4496 C 435.068 -2.10837 2.14402 0
M  V30 4497 C 436.616 -2.24099 2.18515 0
M  V30 4498 C 437.091 -3.10852 3.36355 0
M  V30 4499 N 438.582 -3.18441 3.36377 0
M  V30 4500 C 439.317 -3.85795 4.24205 0
M  V30 4501 N 438.813 -4.55264 5.22213 0
M  V30 4502 N 440.606 -3.82331 4.12043 0
M  V30 4503 H 432.757 -0.539907 2.05423 0
M  V30 4504 H 435.02 -0.30092 0.898972 0
M  V30 4505 H 434.726 -1.66144 3.09983 0
M  V30 4506 H 434.6 -3.11576 2.12604 0
M  V30 4507 H 436.987 -2.68016 1.23497 0
M  V30 4508 H 437.068 -1.22865 2.24361 0
M  V30 4509 H 436.712 -2.6764 4.31661 0
M  V30 4510 H 436.642 -4.12177 3.27746 0
M  V30 4511 H 439.133 -2.68978 2.65442 0
M  V30 4512 H 439.446 -5.04331 5.85551 0
M  V30 4513 H 437.791 -4.54085 5.26148 0
M  V30 4514 H 440.982 -3.27207 3.34743 0
M  V30 4515 H 441.155 -4.34547 4.807 0
M  V30 4516 N 434.561 -1.01147 -1.20859 0
M  V30 4517 C 435.511 -0.548247 -2.2131 0
M  V30 4518 C 436.495 0.393646 -1.5601 0
M  V30 4519 O 437.687 0.217445 -1.75659 0
M  V30 4520 C 434.816 0.117252 -3.431 0
M  V30 4521 C 433.902 -0.846043 -4.15575 0
M  V30 4522 N 434.293 -2.00149 -4.64515 0
M  V30 4523 C 432.591 -0.665783 -4.41003 0
M  V30 4524 C 433.292 -2.60764 -5.19978 0
M  V30 4525 N 432.268 -1.88868 -5.09735 0
M  V30 4526 H 436.07 -1.42921 -2.56809 0
M  V30 4527 H 433.584 -0.876142 -1.36739 0
M  V30 4528 H 435.581 0.46662 -4.1428 0
M  V30 4529 H 434.241 0.994115 -3.09107 0
M  V30 4530 H 435.252 -2.38162 -4.5989 0
M  V30 4531 H 431.929 0.163456 -4.1718 0
M  V30 4532 H 433.319 -3.58519 -5.68255 0
M  V30 4533 N 436.039 1.36541 -0.78704 0
M  V30 4534 C 437.288 1.98552 -0.35494 0
M  V30 4535 C 437.601 1.63171 1.07864 0
M  V30 4536 O 438.807 2.18399 1.61289 0
M  V30 4537 C 437.263 3.55136 -0.583671 0
M  V30 4538 C 436.871 3.99444 -2.02851 0
M  V30 4539 C 438.615 4.2395 -0.215957 0
M  V30 4540 C 436.522 5.48796 -2.20403 0
M  V30 4541 H 435.452 0.742888 -0.128972 0
M  V30 4542 H 438.103 1.5587 -0.968337 0
M  V30 4543 H 436.485 3.95875 0.0994046 0
M  V30 4544 H 437.659 3.6991 -2.74779 0
M  V30 4545 H 435.974 3.43459 -2.35425 0
M  V30 4546 H 438.571 5.33709 -0.325405 0
M  V30 4547 H 438.914 4.07827 0.835646 0
M  V30 4548 H 439.447 3.88565 -0.852175 0
M  V30 4549 H 436.186 5.69864 -3.23937 0
M  V30 4550 H 435.706 5.79964 -1.52977 0
M  V30 4551 H 437.385 6.14986 -2.01002 0
M  V30 4552 N 437.518 0.538854 1.48102 0
M  V30 4553 C 438.448 -0.207654 2.32575 0
M  V30 4554 C 439.429 -0.926559 1.4265 0
M  V30 4555 O 440.614 -0.91061 1.71527 0
M  V30 4556 C 437.744 -1.24957 3.24042 0
M  V30 4557 C 436.698 -0.648263 4.23062 0
M  V30 4558 C 436.024 -1.79348 5.03725 0
M  V30 4559 C 437.324 0.385897 5.20872 0
M  V30 4560 H 439.018 0.497534 2.95237 0
M  V30 4561 H 436.564 0.240715 1.41974 0
M  V30 4562 H 438.517 -1.77983 3.81969 0
M  V30 4563 H 437.241 -1.98446 2.59397 0
M  V30 4564 H 435.9 -0.139452 3.66335 0
M  V30 4565 H 435.548 -2.51696 4.35498 0
M  V30 4566 H 435.248 -1.39702 5.70751 0
M  V30 4567 H 436.772 -2.32735 5.64506 0
M  V30 4568 H 438.186 -0.057607 5.73271 0
M  V30 4569 H 436.583 0.700227 5.96001 0
M  V30 4570 H 437.653 1.28848 4.67468 0
M  V30 4571 N 438.996 -1.55193 0.274407 0
M  V30 4572 C 439.959 -2.212 -0.600279 0
M  V30 4573 C 440.959 -1.18963 -1.08187 0
M  V30 4574 O 442.149 -1.43873 -0.982158 0
M  V30 4575 C 439.281 -2.87739 -1.82809 0
M  V30 4576 H 440.474 -2.9989 -0.0239682 0
M  V30 4577 H 438.027 -1.5628 0.0250192 0
M  V30 4578 H 438.762 -2.13058 -2.44493 0
M  V30 4579 H 438.547 -3.62658 -1.49069 0
M  V30 4580 H 440.037 -3.38171 -2.45011 0
M  V30 4581 N 440.474 -0.00167713 -1.576 0
M  V30 4582 C 441.422 1.0074 -2.09652 0
M  V30 4583 C 442.416 1.35483 -1.01689 0
M  V30 4584 O 443.622 1.34028 -1.20152 0
M  V30 4585 H 439.997 0.342537 -0.669457 0
M  V30 4586 H 441.968 0.542841 -2.93421 0
M  V30 4587 C 440.717 2.2899 -2.61647 0
M  V30 4588 H 440.04 2.03124 -3.44355 0
M  V30 4589 H 441.48 2.9787 -3.01744 0
M  V30 4590 C 439.939 3.00085 -1.53136 0
M  V30 4591 O 440.469 3.91135 -0.91524 0
M  V30 4592 N 438.675 2.6194 -1.25841 0
M  V30 4593 H 438.222 1.8798 -1.76129 0
M  V30 4594 H 438.18 3.09822 -0.534576 0
M  V30 4595 N 441.952 1.55251 0.271103 0
M  V30 4596 C 443.199 1.75946 1.00245 0
M  V30 4597 C 443.527 0.561611 1.86215 0
M  V30 4598 O 442.782 -0.455832 1.90317 0
M  V30 4599 C 443.081 3.01879 1.91321 0
M  V30 4600 C 442.747 4.34337 1.21086 0
M  V30 4601 C 441.409 4.70338 1.01666 0
M  V30 4602 C 443.761 5.16325 0.71119 0
M  V30 4603 C 441.089 5.8588 0.310099 0
M  V30 4604 C 443.441 6.32597 0.0182157 0
M  V30 4605 C 442.105 6.67236 -0.18768 0
M  V30 4606 H 441.375 0.643833 0.366824 0
M  V30 4607 H 444.022 1.89521 0.27458 0
M  V30 4608 H 442.327 2.83212 2.70736 0
M  V30 4609 H 444.024 3.15088 2.48033 0
M  V30 4610 H 440.614 4.06043 1.37213 0
M  V30 4611 H 444.798 4.88987 0.848844 0
M  V30 4612 H 440.054 6.1124 0.139873 0
M  V30 4613 H 444.228 6.9538 -0.376711 0
M  V30 4614 H 441.855 7.56618 -0.73715 0
M  V30 4615 N 443.43 -0.535701 1.48216 0
M  V30 4616 C 444.34 -1.66785 1.64985 0
M  V30 4617 C 445.356 -1.65654 0.532414 0
M  V30 4618 O 446.532 -1.8471 0.80275 0
M  V30 4619 C 443.597 -3.0326 1.68031 0
M  V30 4620 C 442.658 -3.1529 2.9136 0
M  V30 4621 C 441.891 -4.45255 2.94252 0
M  V30 4622 O 442.114 -5.32011 2.05719 0
M  V30 4623 O 441.048 -4.6153 3.86359 0
M  V30 4624 H 444.874 -1.55576 2.60825 0
M  V30 4625 H 442.459 -0.70815 1.31551 0
M  V30 4626 H 444.341 -3.84436 1.72589 0
M  V30 4627 H 443.016 -3.14805 0.753628 0
M  V30 4628 H 441.923 -2.3343 2.92337 0
M  V30 4629 H 443.256 -3.08658 3.83394 0
M  V30 4630 N 444.908 -1.36708 -0.784132 0
M  V30 4631 C 445.856 -1.31533 -1.91838 0
M  V30 4632 C 446.85 -0.206205 -1.6814 0
M  V30 4633 O 448.056 -0.373519 -1.76082 0
M  V30 4634 H 444.431 -0.409613 -0.630651 0
M  V30 4635 H 446.402 -2.2731 -1.9332 0
M  V30 4636 C 445.151 -1.12679 -3.28936 0
M  V30 4637 H 444.474 -1.97274 -3.4774 0
M  V30 4638 H 445.914 -1.13106 -4.08636 0
M  V30 4639 C 444.373 0.168281 -3.36479 0
M  V30 4640 O 444.903 1.15625 -3.84699 0
M  V30 4641 N 443.109 0.214762 -2.89805 0
M  V30 4642 H 442.656 -0.589852 -2.50756 0
M  V30 4643 H 442.614 1.08094 -2.95234 0
M  V30 4644 N 446.386 1.0089 -1.21074 0
M  V30 4645 C 447.316 2.1145 -0.990523 0
M  V30 4646 C 448.297 1.69897 0.0831699 0
M  V30 4647 O 449.482 1.94052 -0.0758853 0
M  V30 4648 C 446.612 3.42914 -0.550177 0
M  V30 4649 C 445.566 3.98244 -1.56799 0
M  V30 4650 C 444.892 5.25568 -0.984013 0
M  V30 4651 C 446.192 4.30752 -2.95381 0
M  V30 4652 H 447.886 2.3013 -1.91521 0
M  V30 4653 H 445.432 1.10592 -0.92225 0
M  V30 4654 H 447.385 4.19653 -0.383305 0
M  V30 4655 H 446.109 3.24014 0.41015 0
M  V30 4656 H 444.768 3.23621 -1.72236 0
M  V30 4657 H 444.416 5.02998 -0.0155216 0
M  V30 4658 H 444.116 5.63551 -1.66384 0
M  V30 4659 H 445.64 6.04955 -0.828378 0
M  V30 4660 H 447.054 4.98349 -2.8341 0
M  V30 4661 H 445.451 4.79869 -3.60341 0
M  V30 4662 H 446.521 3.39192 -3.46521 0
M  V30 4663 N 447.864 1.01787 1.20321 0
M  V30 4664 C 449.275 0.739307 1.71438 0
M  V30 4665 C 449.626 -0.742041 1.81627 0
M  V30 4666 O 448.751 -1.57903 1.47971 0
M  V30 4667 C 449.346 1.33538 3.11373 0
M  V30 4668 C 447.905 1.10566 3.59795 0
M  V30 4669 C 447.052 1.44028 2.36962 0
M  V30 4670 H 450.003 1.18718 1.05317 0
M  V30 4671 H 450.024 0.726611 3.73498 0
M  V30 4672 H 449.536 2.41352 3.03926 0
M  V30 4673 H 447.637 0.0452405 3.72573 0
M  V30 4674 H 447.75 1.78661 4.44542 0
M  V30 4675 H 446.114 0.85933 2.39766 0
M  V30 4676 H 446.897 2.52901 2.32155 0
M  V30 4677 N 449.342 -1.36122 0.79427 0
M  V30 4678 C 450.588 -1.99406 0.369452 0
M  V30 4679 C 450.921 -1.62886 -1.05743 0
M  V30 4680 O 450.196 -0.886053 -1.73145 0
M  V30 4681 C 450.479 -3.56046 0.538833 0
M  V30 4682 C 450.332 -4.02404 2.00976 0
M  V30 4683 C 451.651 -4.40079 -0.0431359 0
M  V30 4684 H 448.77 -0.724397 0.135712 0
M  V30 4685 H 451.412 -1.61461 1.00151 0
M  V30 4686 H 449.562 -3.885 0.000771004 0
M  V30 4687 H 451.234 -3.80415 2.60926 0
M  V30 4688 H 449.477 -3.53765 2.51063 0
M  V30 4689 H 450.148 -5.11344 2.07922 0
M  V30 4690 H 452.624 -4.14013 0.416228 0
M  V30 4691 H 451.5 -5.48799 0.105374 0
M  V30 4692 H 451.761 -4.27264 -1.13571 0
M  V30 4693 N 450.82 -0.546701 -1.47814 0
M  V30 4694 C 451.783 0.196287 -2.28358 0
M  V30 4695 C 452.783 0.852437 -1.36346 0
M  V30 4696 O 453.973 0.709913 -1.59078 0
M  V30 4697 C 451.105 1.28579 -3.15722 0
M  V30 4698 H 452.298 -0.511086 -2.95513 0
M  V30 4699 H 449.851 -0.303248 -1.5333 0
M  V30 4700 H 450.586 2.0259 -2.53235 0
M  V30 4701 H 450.371 0.820229 -3.83425 0
M  V30 4702 H 451.861 1.80793 -3.76435 0
M  V30 4703 N 452.299 1.55045 -0.282633 0
M  V30 4704 C 453.547 1.99365 0.331334 0
M  V30 4705 C 453.868 1.1725 1.55812 0
M  V30 4706 O 453.138 0.263871 1.94115 0
M  V30 4707 H 451.718 0.736397 0.125414 0
M  V30 4708 H 454.38 1.90964 -0.389711 0
M  V30 4709 H 453.476 3.0596 0.616036 0
M  V30 4710 N 453.777 0.010035 1.57597 0
M  V30 4711 C 454.687 -0.994226 2.12491 0
M  V30 4712 C 455.703 -1.37013 1.07254 0
M  V30 4713 O 456.879 -1.45542 1.3921 0
M  V30 4714 C 453.944 -2.2642 2.62555 0
M  V30 4715 C 453.005 -1.95049 3.82432 0
M  V30 4716 C 452.238 -3.15991 4.30099 0
M  V30 4717 O 452.461 -4.28015 3.7704 0
M  V30 4718 O 451.395 -2.99403 5.22151 0
M  V30 4719 H 455.221 -0.557549 2.98538 0
M  V30 4720 H 452.806 -0.209413 1.47925 0
M  V30 4721 H 454.688 -3.01009 2.9491 0
M  V30 4722 H 453.363 -2.69306 1.796 0
M  V30 4723 H 452.27 -1.17904 3.55034 0
M  V30 4724 H 453.603 -1.56992 4.66491 0
M  V30 4725 N 455.255 -1.55392 -0.262866 0
M  V30 4726 C 456.485 -1.80251 -1.00961 0
M  V30 4727 C 456.893 -0.58117 -1.80053 0
M  V30 4728 O 456.236 0.459427 -1.77862 0
M  V30 4729 C 456.298 -2.98207 -2.00781 0
M  V30 4730 C 455.962 -4.34856 -1.40533 0
M  V30 4731 C 456.959 -5.13459 -0.815853 0
M  V30 4732 C 454.644 -4.8153 -1.42948 0
M  V30 4733 C 456.638 -6.36875 -0.258562 0
M  V30 4734 C 454.325 -6.04899 -0.868334 0
M  V30 4735 C 455.323 -6.8241 -0.283884 0
M  V30 4736 O 455.011 -8.03451 0.268644 0
M  V30 4737 H 454.743 -0.604049 -0.303482 0
M  V30 4738 H 457.297 -2.03257 -0.295926 0
M  V30 4739 H 455.527 -2.70917 -2.75936 0
M  V30 4740 H 457.216 -3.10299 -2.61667 0
M  V30 4741 H 457.982 -4.78526 -0.789812 0
M  V30 4742 H 453.861 -4.21201 -1.87378 0
M  V30 4743 H 457.405 -6.97318 0.198257 0
M  V30 4744 H 453.302 -6.39312 -0.891649 0
M  V30 4745 H 454.07 -8.18346 0.158974 0
M  V30 4746 N 456.733 0.527833 -1.48498 0
M  V30 4747 C 457.666 1.64892 -1.57753 0
M  V30 4748 C 458.644 1.5687 -0.427867 0
M  V30 4749 O 459.828 1.77311 -0.639764 0
M  V30 4750 C 456.955 3.03301 -1.50752 0
M  V30 4751 C 456.001 3.29675 -2.70586 0
M  V30 4752 S 456.834 3.15712 -4.32535 0
M  V30 4753 C 457.99 4.56564 -4.28136 0
M  V30 4754 H 458.223 1.56792 -2.52594 0
M  V30 4755 H 455.756 0.710959 -1.37057 0
M  V30 4756 H 457.714 3.83123 -1.474 0
M  V30 4757 H 456.375 3.08839 -0.572454 0
M  V30 4758 H 455.568 4.3065 -2.61833 0
M  V30 4759 H 455.17 2.57526 -2.71212 0
M  V30 4760 H 457.462 5.48126 -3.98201 0
M  V30 4761 H 458.405 4.70371 -5.29298 0
M  V30 4762 H 458.813 4.35987 -3.58574 0
M  V30 4763 N 458.211 1.37122 0.776871 0
M  V30 4764 C 459.161 1.28989 1.88005 0
M  V30 4765 C 460.145 0.178765 1.59904 0
M  V30 4766 O 461.337 0.412705 1.72121 0
M  V30 4767 C 458.466 1.09402 3.25402 0
M  V30 4768 C 457.552 2.25036 3.59471 0
M  V30 4769 N 457.943 3.50407 3.64759 0
M  V30 4770 C 456.241 2.17078 3.89607 0
M  V30 4771 C 456.942 4.26628 3.95428 0
M  V30 4772 N 455.918 3.55709 4.11062 0
M  V30 4773 H 459.72 2.2394 1.90337 0
M  V30 4774 H 457.234 1.30021 0.973052 0
M  V30 4775 H 459.231 1.01661 4.04315 0
M  V30 4776 H 457.891 0.153632 3.24336 0
M  V30 4777 H 458.902 3.8438 3.47091 0
M  V30 4778 H 455.579 1.31067 3.96393 0
M  V30 4779 H 456.969 5.35107 4.06338 0
M  V30 4780 N 459.689 -1.00246 1.21608 0
M  V30 4781 C 461.105 -1.26435 0.973975 0
M  V30 4782 C 461.305 -1.98642 -0.338143 0
M  V30 4783 O 460.361 -2.29026 -1.06317 0
M  V30 4784 C 461.674 -2.08551 2.16626 0
M  V30 4785 C 463.222 -2.21769 2.20879 0
M  V30 4786 C 463.697 -3.07267 3.39633 0
M  V30 4787 N 465.188 -3.14855 3.39736 0
M  V30 4788 C 465.923 -3.81274 4.28273 0
M  V30 4789 N 465.419 -4.497 5.27012 0
M  V30 4790 N 467.212 -3.7794 4.16074 0
M  V30 4791 H 459.363 -0.518089 2.05984 0
M  V30 4792 H 461.626 -0.291368 0.902113 0
M  V30 4793 H 461.332 -1.62847 3.11727 0
M  V30 4794 H 461.206 -3.09303 2.15897 0
M  V30 4795 H 463.593 -2.66691 1.26332 0
M  V30 4796 H 463.674 -1.20478 2.25652 0
M  V30 4797 H 463.318 -2.63047 4.34475 0
M  V30 4798 H 463.248 -4.08678 3.321 0
M  V30 4799 H 465.739 -2.66147 2.6828 0
M  V30 4800 H 466.052 -4.98092 5.90867 0
M  V30 4801 H 464.397 -4.48479 5.30935 0
M  V30 4802 H 467.588 -3.23638 3.38195 0
M  V30 4803 H 467.761 -4.29424 4.85282 0
M  V30 4804 N 461.167 -1.02423 -1.1978 0
M  V30 4805 C 462.444 -0.632802 -1.85081 0
M  V30 4806 C 462.824 0.888745 -1.9148 0
M  V30 4807 O 462.172 1.78357 -1.42832 0
M  V30 4808 C 462.382 -1.28947 -3.24305 0
M  V30 4809 C 463.73 -1.40976 -4.00513 0
M  V30 4810 O 464.754 -1.24628 -3.33686 0
M  V30 4811 O 463.613 -1.67467 -5.20209 0
M  V30 4812 H 460.707 -0.219348 -0.79738 0
M  V30 4813 H 463.253 -1.12209 -1.27307 0
M  V30 4814 H 462.025 -2.3288 -3.14456 0
M  V30 4815 H 461.648 -0.787748 -3.89718 0
M  V30 4816 N 462.645 1.35699 -0.801477 0
M  V30 4817 C 463.894 1.98165 -0.375979 0
M  V30 4818 C 464.207 1.64306 1.06127 0
M  V30 4819 O 465.413 2.20097 1.58964 0
M  V30 4820 C 463.869 3.54497 -0.621305 0
M  V30 4821 C 463.477 3.9727 -2.07076 0
M  V30 4822 C 465.221 4.23697 -0.26091 0
M  V30 4823 C 463.128 5.46427 -2.26211 0
M  V30 4824 H 462.058 0.741478 -0.136844 0
M  V30 4825 H 464.709 1.54834 -0.984814 0
M  V30 4826 H 463.091 3.95958 0.0574112 0
M  V30 4827 H 464.265 3.66974 -2.78687 0
M  V30 4828 H 462.58 3.40943 -2.39054 0
M  V30 4829 H 465.177 5.33334 -0.381994 0
M  V30 4830 H 465.52 4.0869 0.792344 0
M  V30 4831 H 466.053 3.87639 -0.893339 0
M  V30 4832 H 462.792 5.66396 -3.29963 0
M  V30 4833 H 462.312 5.78309 -1.59119 0
M  V30 4834 H 463.991 6.12819 -2.07513 0
M  V30 4835 N 464.123 0.554532 1.47522 0
M  V30 4836 C 465.353 0.0342074 2.06572 0
M  V30 4837 C 465.761 -1.26375 1.40805 0
M  V30 4838 O 465.104 -1.7683 0.49769 0
M  V30 4839 C 465.166 -0.235096 3.5873 0
M  V30 4840 C 464.83 0.973024 4.46521 0
M  V30 4841 C 465.827 1.8779 4.848 0
M  V30 4842 C 463.512 1.18694 4.88075 0
M  V30 4843 C 465.506 2.98039 5.63428 0
M  V30 4844 C 463.193 2.29254 5.66468 0
M  V30 4845 C 464.191 3.18757 6.04055 0
M  V30 4846 O 463.879 4.27401 6.8087 0
M  V30 4847 H 463.611 0.041587 0.67472 0
M  V30 4848 H 466.165 0.766748 1.90552 0
M  V30 4849 H 464.395 -1.02191 3.72953 0
M  V30 4850 H 466.084 -0.700477 3.9981 0
M  V30 4851 H 466.85 1.72467 4.53299 0
M  V30 4852 H 462.729 0.49947 4.58286 0
M  V30 4853 H 466.273 3.67926 5.92685 0
M  V30 4854 H 462.17 2.4455 5.97382 0
M  V30 4855 H 462.938 4.25415 6.9926 0
M  V30 4856 N 465.601 -1.54893 0.290851 0
M  V30 4857 C 466.878 -1.91991 -0.373989 0
M  V30 4858 C 467.258 -1.21694 -1.72493 0
M  V30 4859 O 466.606 -0.34917 -2.25816 0
M  V30 4860 C 466.816 -3.45419 -0.498703 0
M  V30 4861 C 468.164 -4.1748 -0.774298 0
M  V30 4862 O 469.188 -3.51398 -0.582908 0
M  V30 4863 O 468.047 -5.3445 -1.14129 0
M  V30 4864 H 465.141 -0.800593 -0.207315 0
M  V30 4865 H 467.687 -1.66297 0.338164 0
M  V30 4866 H 466.459 -3.88688 0.451392 0
M  V30 4867 H 466.082 -3.77117 -1.25972 0
M  V30 4868 N 467.08 -0.0183926 -1.57589 0
M  V30 4869 C 468.329 0.66185 -1.90532 0
M  V30 4870 C 468.642 1.73904 -0.895366 0
M  V30 4871 O 469.848 2.47518 -1.11566 0
M  V30 4872 C 468.304 1.22844 -3.38286 0
M  V30 4873 C 467.912 0.185103 -4.47617 0
M  V30 4874 C 469.656 1.88581 -3.80312 0
M  V30 4875 C 467.563 0.762723 -5.86461 0
M  V30 4876 H 466.493 0.250972 -0.711006 0
M  V30 4877 H 469.144 -0.0819435 -1.83317 0
M  V30 4878 H 467.526 2.0235 -3.40398 0
M  V30 4879 H 468.7 -0.58671 -4.5705 0
M  V30 4880 H 467.015 -0.372889 -4.14727 0
M  V30 4881 H 469.612 2.32735 -4.81392 0
M  V30 4882 H 469.955 2.72408 -3.14801 0
M  V30 4883 H 470.488 1.15782 -3.80578 0
M  V30 4884 H 467.227 -0.0371713 -6.55489 0
M  V30 4885 H 466.747 1.50327 -5.80656 0
M  V30 4886 H 468.426 1.25576 -6.34697 0
M  V30 4887 N 468.558 1.5553 0.254621 0
M  V30 4888 C 469.521 1.88872 1.29846 0
M  V30 4889 C 470.521 0.764591 1.41459 0
M  V30 4890 O 471.711 1.03265 1.40293 0
M  V30 4891 C 468.843 2.11032 2.67728 0
M  V30 4892 H 470.036 2.82201 1.01502 0
M  V30 4893 H 467.589 1.48303 0.493556 0
M  V30 4894 H 468.324 1.20146 3.01223 0
M  V30 4895 H 468.109 2.92895 2.60682 0
M  V30 4896 H 469.599 2.38038 3.43115 0
M  V30 4897 N 470.036 -0.519951 1.48776 0
M  V30 4898 C 470.946 -1.65025 1.66745 0
M  V30 4899 C 471.962 -1.6508 0.549954 0
M  V30 4900 O 473.138 -1.83848 0.822295 0
M  V30 4901 C 470.203 -3.0146 1.71238 0
M  V30 4902 C 469.264 -3.12182 2.94688 0
M  V30 4903 C 468.497 -4.42109 2.98958 0
M  V30 4904 O 468.72 -5.29799 2.1135 0
M  V30 4905 O 467.654 -4.57406 3.91233 0
M  V30 4906 H 471.48 -1.52801 2.62461 0
M  V30 4907 H 469.065 -0.694157 1.32294 0
M  V30 4908 H 470.947 -3.82584 1.76657 0
M  V30 4909 H 469.622 -3.13988 0.786975 0
M  V30 4910 H 468.529 -2.30316 2.94797 0
M  V30 4911 H 469.862 -3.04574 3.86646 0
M  V30 4912 N 471.514 -1.37532 -0.769588 0
M  V30 4913 C 472.461 -1.3347 -1.88293 0
M  V30 4914 C 473.431 -0.199891 -1.64893 0
M  V30 4915 O 474.616 -0.389594 -1.8678 0
M  V30 4916 C 471.756 -1.14968 -3.25387 0
M  V30 4917 C 470.869 -2.37698 -3.60727 0
M  V30 4918 C 470.004 -2.12051 -4.8704 0
M  V30 4919 C 469.043 -3.30636 -5.15117 0
M  V30 4920 N 468.18 -3.04527 -6.3262 0
M  V30 4921 H 473.02 -2.28658 -1.911 0
M  V30 4922 H 470.557 -1.13622 -0.934257 0
M  V30 4923 H 472.515 -1.02261 -4.04473 0
M  V30 4924 H 471.145 -0.234263 -3.21949 0
M  V30 4925 H 470.197 -2.61137 -2.76608 0
M  V30 4926 H 471.509 -3.26131 -3.77413 0
M  V30 4927 H 470.663 -1.96388 -5.74035 0
M  V30 4928 H 469.402 -1.20959 -4.72462 0
M  V30 4929 H 468.407 -3.46836 -4.26597 0
M  V30 4930 H 469.632 -4.22582 -5.31603 0
M  V30 4931 H 467.578 -2.16067 -6.19396 0
M  V30 4932 H 467.495 -3.86503 -6.49732 0
M  V30 4933 H 468.763 -2.92485 -7.22546 0
M  V30 4934 N 472.992 0.995999 -1.22138 0
M  V30 4935 C 474.222 1.76809 -1.06874 0
M  V30 4936 C 474.63 1.85265 0.383866 0
M  V30 4937 O 473.973 1.31969 1.27789 0
M  V30 4938 C 474.035 3.2186 -1.60144 0
M  V30 4939 C 473.699 3.36958 -3.0872 0
M  V30 4940 C 474.696 3.2452 -4.0618 0
M  V30 4941 C 472.381 3.62109 -3.48112 0
M  V30 4942 C 474.375 3.37013 -5.41019 0
M  V30 4943 C 472.062 3.74243 -4.831 0
M  V30 4944 C 473.06 3.61702 -5.79362 0
M  V30 4945 O 472.748 3.73436 -7.119 0
M  V30 4946 H 472.48 0.562207 -0.375365 0
M  V30 4947 H 475.034 1.26113 -1.62125 0
M  V30 4948 H 473.264 3.73734 -0.992981 0
M  V30 4949 H 474.953 3.80775 -1.40589 0
M  V30 4950 H 475.719 3.05004 -3.77091 0
M  V30 4951 H 471.598 3.70949 -2.73712 0
M  V30 4952 H 475.142 3.27141 -6.16137 0
M  V30 4953 H 471.039 3.93266 -5.11872 0
M  V30 4954 H 471.807 3.90328 -7.19435 0
M  V30 4955 N 474.47 1.03057 1.19235 0
M  V30 4956 C 475.718 0.726581 1.88587 0
M  V30 4957 C 476.039 -0.747227 1.80115 0
M  V30 4958 O 475.309 -1.53849 1.21274 0
M  V30 4959 H 473.889 0.265768 0.698124 0
M  V30 4960 H 476.551 1.30516 1.44746 0
M  V30 4961 H 475.647 1.0224 2.94879 0
M  V30 4962 N 475.948 -1.35272 0.808662 0
M  V30 4963 C 476.895 -2.29764 0.218482 0
M  V30 4964 C 477.865 -1.52911 -0.648652 0
M  V30 4965 O 479.05 -1.81341 -0.593297 0
M  V30 4966 C 476.19 -3.39388 -0.625282 0
M  V30 4967 C 475.303 -4.31202 0.262516 0
M  V30 4968 C 474.438 -5.27919 -0.589451 0
M  V30 4969 C 473.477 -6.11371 0.298617 0
M  V30 4970 N 472.614 -7.0022 -0.513443 0
M  V30 4971 H 477.454 -2.79645 1.02968 0
M  V30 4972 H 474.991 -1.37629 0.519303 0
M  V30 4973 H 476.949 -4.01615 -1.12966 0
M  V30 4974 H 475.579 -2.90777 -1.40173 0
M  V30 4975 H 474.631 -3.69962 0.885013 0
M  V30 4976 H 475.943 -4.89748 0.945971 0
M  V30 4977 H 475.097 -5.95529 -1.15888 0
M  V30 4978 H 473.836 -4.69875 -1.30647 0
M  V30 4979 H 472.841 -5.42707 0.880301 0
M  V30 4980 H 474.066 -6.71494 1.01352 0
M  V30 4981 H 472.012 -6.44662 -1.21439 0
M  V30 4982 H 471.929 -7.55917 0.111922 0
M  V30 4983 H 473.197 -7.72175 -1.06608 0
M  V30 4984 N 477.426 -0.562348 -1.47226 0
M  V30 4985 C 478.703 0.0256985 -1.95583 0
M  V30 4986 C 479.083 1.48032 -1.50498 0
M  V30 4987 O 478.431 2.15973 -0.746181 0
M  V30 4988 C 478.641 -0.125129 -3.48776 0
M  V30 4989 C 479.989 0.0175728 -4.24596 0
M  V30 4990 O 481.013 -0.0529341 -3.56161 0
M  V30 4991 O 479.872 0.170145 -5.46235 0
M  V30 4992 H 476.966 0.0612565 -0.824728 0
M  V30 4993 H 479.512 -0.629233 -1.57603 0
M  V30 4994 H 478.284 -1.13715 -3.74412 0
M  V30 4995 H 477.907 0.567178 -3.93534 0
M  V30 4996 N 478.904 1.54736 -0.299062 0
M  V30 4997 C 480.132 2.04512 0.313447 0
M  V30 4998 C 480.547 1.17643 1.47667 0
M  V30 4999 O 479.904 0.20164 1.81383 0
M  V30 5000 C 479.955 3.53171 0.771542 0
M  V30 5001 O 479.676 4.36736 -0.345379 0
M  V30 5002 C 481.177 4.18936 1.4494 0
M  V30 5003 H 478.397 0.667507 0.0683784 0
M  V30 5004 H 480.941 1.99752 -0.438129 0
M  V30 5005 H 479.096 3.58298 1.47314 0
M  V30 5006 H 479.51 5.24499 0.0109219 0
M  V30 5007 H 480.984 5.24482 1.72111 0
M  V30 5008 H 481.461 3.68554 2.38883 0
M  V30 5009 H 482.067 4.17879 0.791028 0
M  V30 5010 N 480.382 0.0267497 1.57577 0
M  V30 5011 C 481.629 -0.652404 1.91703 0
M  V30 5012 C 481.957 -1.72271 0.902936 0
M  V30 5013 O 481.212 -1.955 -0.0884843 0
M  V30 5014 C 481.511 -1.30914 3.3256 0
M  V30 5015 C 481.177 -0.369441 4.49384 0
M  V30 5016 C 479.839 -0.110791 4.81072 0
M  V30 5017 C 482.191 0.275971 5.20469 0
M  V30 5018 C 479.519 0.801116 5.81205 0
M  V30 5019 C 481.871 1.17592 6.21575 0
M  V30 5020 C 480.535 1.44348 6.51705 0
M  V30 5021 H 479.805 -0.238732 0.70149 0
M  V30 5022 H 482.452 0.0880091 1.91298 0
M  V30 5023 H 480.757 -2.12425 3.29216 0
M  V30 5024 H 482.454 -1.84115 3.56234 0
M  V30 5025 H 479.044 -0.581211 4.24641 0
M  V30 5026 H 483.228 0.0892 4.9622 0
M  V30 5027 H 478.484 1.01614 6.02897 0
M  V30 5028 H 482.658 1.68223 6.75777 0
M  V30 5029 H 480.285 2.15176 7.29111 0
M  V30 5030 N 481.861 -1.55662 -0.24637 0
M  V30 5031 C 482.791 -1.93377 -1.30873 0
M  V30 5032 C 483.772 -0.798773 -1.50179 0
M  V30 5033 O 484.957 -1.0591 -1.62778 0
M  V30 5034 C 482.087 -2.22893 -2.66338 0
M  V30 5035 C 481.041 -3.38649 -2.61727 0
M  V30 5036 C 480.367 -3.53708 -4.00992 0
M  V30 5037 C 481.667 -4.74323 -2.18666 0
M  V30 5038 H 483.361 -2.82363 -0.995552 0
M  V30 5039 H 480.907 -1.35854 -0.477464 0
M  V30 5040 H 482.86 -2.47866 -3.40794 0
M  V30 5041 H 481.584 -1.30733 -2.99293 0
M  V30 5042 H 480.243 -3.13685 -1.89729 0
M  V30 5043 H 479.891 -2.58967 -4.31214 0
M  V30 5044 H 479.591 -4.31551 -3.98795 0
M  V30 5045 H 481.115 -3.81003 -4.77147 0
M  V30 5046 H 482.529 -4.98665 -2.82854 0
M  V30 5047 H 480.926 -5.55273 -2.27579 0
M  V30 5048 H 481.996 -4.71349 -1.13834 0
M  V30 5049 N 483.339 0.512053 -1.4905 0
M  V30 5050 C 484.272 1.63209 -1.59493 0
M  V30 5051 C 485.25 1.56407 -0.444481 0
M  V30 5052 O 486.434 1.76623 -0.658535 0
M  V30 5053 C 483.561 3.01685 -1.53961 0
M  V30 5054 C 482.607 3.26786 -2.74068 0
M  V30 5055 S 483.44 3.11107 -4.35859 0
M  V30 5056 C 484.596 4.51997 -4.32954 0
M  V30 5057 H 484.829 1.54104 -2.54243 0
M  V30 5058 H 482.362 0.696382 -1.37804 0
M  V30 5059 H 484.32 3.81538 -1.51455 0
M  V30 5060 H 482.981 3.08215 -0.605178 0
M  V30 5061 H 482.174 4.27849 -2.66386 0
M  V30 5062 H 481.776 2.54635 -2.73928 0
M  V30 5063 H 484.068 5.43871 -4.03993 0
M  V30 5064 H 485.011 4.64731 -5.34257 0
M  V30 5065 H 485.419 4.32159 -3.63178 0
M  V30 5066 N 484.817 1.37938 0.762283 0
M  V30 5067 C 486.066 1.32989 1.51647 0
M  V30 5068 C 486.379 -0.0802922 1.95435 0
M  V30 5069 O 487.585 -0.252295 2.70325 0
M  V30 5070 C 486.041 2.33485 2.73885 0
M  V30 5071 C 485.649 3.80079 2.37157 0
M  V30 5072 C 487.393 2.37563 3.51801 0
M  V30 5073 C 485.3 4.72283 3.55954 0
M  V30 5074 H 484.23 0.494301 0.56937 0
M  V30 5075 H 486.881 1.63448 0.834083 0
M  V30 5076 H 485.263 1.96056 3.44061 0
M  V30 5077 H 486.437 4.26398 1.74704 0
M  V30 5078 H 484.752 3.79037 1.72395 0
M  V30 5079 H 487.349 3.0365 4.40114 0
M  V30 5080 H 487.692 1.39199 3.92338 0
M  V30 5081 H 488.225 2.73747 2.8863 0
M  V30 5082 H 484.964 5.7181 3.2049 0
M  V30 5083 H 484.484 4.30663 4.1748 0
M  V30 5084 H 486.163 4.89876 4.22647 0
M  V30 5085 N 486.295 -0.989507 1.22664 0
M  V30 5086 C 487.572 -1.70326 0.961688 0
M  V30 5087 C 487.952 -2.04537 -0.522279 0
M  V30 5088 O 487.3 -1.73136 -1.49118 0
M  V30 5089 C 487.51 -2.95135 1.86269 0
M  V30 5090 C 488.858 -3.67842 2.12078 0
M  V30 5091 O 489.882 -3.0515 1.83745 0
M  V30 5092 O 488.741 -4.80644 2.60083 0
M  V30 5093 H 485.835 -0.743589 0.361946 0
M  V30 5094 H 488.381 -1.04555 1.33665 0
M  V30 5095 H 487.153 -2.66382 2.8663 0
M  V30 5096 H 486.776 -3.68645 1.48952 0
M  V30 5097 N 487.773 -1.03688 -1.18687 0
M  V30 5098 C 488.72 -0.624624 -2.22187 0
M  V30 5099 C 489.69 0.365636 -1.62026 0
M  V30 5100 O 490.875 0.260481 -1.89014 0
M  V30 5101 C 488.015 0.0101738 -3.45099 0
M  V30 5102 C 487.128 -1.02709 -4.19613 0
M  V30 5103 C 486.263 -0.361213 -5.2997 0
M  V30 5104 C 485.302 -1.38384 -5.96252 0
M  V30 5105 N 484.439 -0.743196 -6.98155 0
M  V30 5106 H 489.279 -1.51176 -2.56807 0
M  V30 5107 H 486.816 -0.75636 -1.26165 0
M  V30 5108 H 488.774 0.395528 -4.15321 0
M  V30 5109 H 487.404 0.860848 -3.1111 0
M  V30 5110 H 486.456 -1.53043 -3.48256 0
M  V30 5111 H 487.768 -1.80398 -4.65036 0
M  V30 5112 H 486.922 0.0785537 -6.06649 0
M  V30 5113 H 485.661 0.447799 -4.8564 0
M  V30 5114 H 484.666 -1.83378 -5.18317 0
M  V30 5115 H 485.891 -2.19448 -6.42666 0
M  V30 5116 H 483.837 0.0455789 -6.55984 0
M  V30 5117 H 483.754 -1.45784 -7.41811 0
M  V30 5118 H 485.022 -0.327698 -7.78811 0
M  V30 5119 N 489.251 1.34841 -0.815825 0
M  V30 5120 C 490.181 2.32187 -0.247298 0
M  V30 5121 C 491.162 1.5791 0.632344 0
M  V30 5122 O 492.347 1.8593 0.560698 0
M  V30 5123 C 489.477 3.42122 0.597466 0
M  V30 5124 C 488.431 4.27602 -0.184446 0
M  V30 5125 C 487.757 5.28942 0.782609 0
M  V30 5126 C 489.057 5.03502 -1.38865 0
M  V30 5127 H 490.751 2.79985 -1.06061 0
M  V30 5128 H 488.297 1.34611 -0.511461 0
M  V30 5129 H 490.25 4.09232 1.00533 0
M  V30 5130 H 488.974 2.92956 1.44376 0
M  V30 5131 H 487.633 3.62085 -0.573592 0
M  V30 5132 H 487.281 4.7604 1.62466 0
M  V30 5133 H 486.981 5.87008 0.263695 0
M  V30 5134 H 488.505 5.98922 1.18848 0
M  V30 5135 H 489.919 5.63506 -1.05518 0
M  V30 5136 H 488.316 5.71108 -1.8427 0
M  V30 5137 H 489.386 4.33608 -2.17054 0
M  V30 5138 N 490.729 0.570148 1.46925 0
M  V30 5139 C 491.977 0.0508523 2.02036 0
M  V30 5140 C 492.298 -1.30885 1.44548 0
M  V30 5141 O 491.568 -1.85647 0.625453 0
M  V30 5142 H 490.148 0.0158088 0.746833 0
M  V30 5143 H 492.81 0.743086 1.80178 0
M  V30 5144 H 491.906 -0.027575 3.12088 0
M  V30 5145 N 492.207 -1.54576 0.307264 0
M  V30 5146 C 493.435 -2.04675 -0.302597 0
M  V30 5147 C 493.85 -1.18425 -1.47041 0
M  V30 5148 O 493.207 -0.211257 -1.81273 0
M  V30 5149 C 493.258 -3.53575 -0.752801 0
M  V30 5150 O 492.979 -4.36547 0.368536 0
M  V30 5151 C 494.48 -4.19699 -1.42717 0
M  V30 5152 H 491.7 -0.66786 -0.0648374 0
M  V30 5153 H 494.244 -1.99516 0.448716 0
M  V30 5154 H 492.399 -3.59074 -1.45412 0
M  V30 5155 H 492.813 -5.24497 0.0168937 0
M  V30 5156 H 494.287 -5.25388 -1.69327 0
M  V30 5157 H 494.764 -3.69815 -2.36925 0
M  V30 5158 H 495.37 -4.18293 -0.768856 0
M  V30 5159 N 493.685 -0.035106 -1.57561 0
M  V30 5160 C 494.962 0.681212 -1.83354 0
M  V30 5161 C 495.342 1.89986 -0.920252 0
M  V30 5162 O 494.69 2.28489 0.0226815 0
M  V30 5163 C 494.9 1.05376 -3.32712 0
M  V30 5164 C 496.248 1.44286 -3.99333 0
M  V30 5165 O 497.272 1.14656 -3.37242 0
M  V30 5166 O 496.131 1.99518 -5.08778 0
M  V30 5167 H 493.225 0.334741 -0.756226 0
M  V30 5168 H 495.771 -0.0632448 -1.69582 0
M  V30 5169 H 494.543 0.186668 -3.90854 0
M  V30 5170 H 494.166 1.85619 -3.51613 0
M  V30 5171 N 495.163 1.55791 0.238111 0
M  V30 5172 C 496.11 1.9105 1.29493 0
M  V30 5173 C 497.08 0.765733 1.47397 0
M  V30 5174 O 498.265 1.02017 1.61236 0
M  V30 5175 C 495.405 2.21826 2.64362 0
M  V30 5176 C 494.518 3.49153 2.54394 0
M  V30 5177 C 493.653 3.69455 3.81676 0
M  V30 5178 C 492.692 4.90353 3.66361 0
M  V30 5179 N 491.829 5.07131 4.85554 0
M  V30 5180 H 496.669 2.81172 0.987233 0
M  V30 5181 H 494.206 1.39179 0.476203 0
M  V30 5182 H 496.164 2.37675 3.4288 0
M  V30 5183 H 494.794 1.34897 2.93262 0
M  V30 5184 H 493.846 3.41587 1.67399 0
M  V30 5185 H 495.158 4.37818 2.38991 0
M  V30 5186 H 494.312 3.85311 4.68636 0
M  V30 5187 H 493.051 2.7904 3.99985 0
M  V30 5188 H 492.056 4.74464 2.77784 0
M  V30 5189 H 493.281 5.82237 3.49538 0
M  V30 5190 H 491.227 4.19654 5.04209 0
M  V30 5191 H 491.144 5.89899 4.72816 0
M  V30 5192 H 492.412 5.27407 5.73988 0
M  V30 5193 N 496.642 -0.504142 1.49319 0
M  V30 5194 C 497.575 -1.62361 1.60356 0
M  V30 5195 C 498.553 -1.56169 0.45277 0
M  V30 5196 O 499.737 -1.76271 0.667892 0
M  V30 5197 C 496.864 -3.00864 1.55559 0
M  V30 5198 C 495.91 -3.25328 2.75797 0
M  V30 5199 S 496.743 -3.08791 4.37503 0
M  V30 5200 C 497.899 -4.49695 4.35345 0
M  V30 5201 H 498.132 -1.52753 2.55056 0
M  V30 5202 H 495.665 -0.689065 1.38171 0
M  V30 5203 H 497.623 -3.8073 1.53477 0
M  V30 5204 H 496.284 -3.0789 0.621515 0
M  V30 5205 H 495.477 -4.2643 2.68651 0
M  V30 5206 H 495.079 -2.53179 2.75275 0
M  V30 5207 H 497.371 -5.41721 4.06871 0
M  V30 5208 H 498.314 -4.61891 5.36714 0
M  V30 5209 H 498.722 -4.30227 3.65465 0
M  V30 5210 N 498.12 -1.38341 -0.754957 0
M  V30 5211 C 499.531 -1.30803 -1.3322 0
M  V30 5212 C 499.882 0.0368 -1.96165 0
M  V30 5213 O 499.007 0.938844 -1.94974 0
M  V30 5214 C 499.602 -2.3688 -2.42225 0
M  V30 5215 C 498.161 -2.32925 -2.95674 0
M  V30 5216 C 497.308 -2.19819 -1.69042 0
M  V30 5217 H 500.259 -1.48719 -0.553937 0
M  V30 5218 H 500.28 -2.02517 -3.22129 0
M  V30 5219 H 499.792 -3.34747 -1.96383 0
M  V30 5220 H 497.893 -1.38635 -3.45848 0
M  V30 5221 H 498.006 -3.27008 -3.50146 0
M  V30 5222 H 496.37 -1.66648 -1.92615 0
M  V30 5223 H 497.153 -3.19625 -1.25279 0
M  V30 5224 N 499.598 0.982988 -1.23187 0
M  V30 5225 C 500.845 1.72392 -1.06241 0
M  V30 5226 C 501.173 1.9032 0.40108 0
M  V30 5227 O 500.428 1.45084 1.31336 0
M  V30 5228 C 500.727 3.12736 -1.73006 0
M  V30 5229 C 500.393 3.14695 -3.22921 0
M  V30 5230 C 499.055 3.14937 -3.63824 0
M  V30 5231 C 501.407 3.10211 -4.1883 0
M  V30 5232 C 498.735 3.08408 -4.99101 0
M  V30 5233 C 501.087 3.05224 -5.54095 0
M  V30 5234 C 499.751 3.03787 -5.94365 0
M  V30 5235 H 499.021 0.630829 -0.388762 0
M  V30 5236 H 501.668 1.15053 -1.53085 0
M  V30 5237 H 499.973 3.73446 -1.18514 0
M  V30 5238 H 501.67 3.68828 -1.57374 0
M  V30 5239 H 498.26 3.15262 -2.90358 0
M  V30 5240 H 502.444 3.09166 -3.8824 0
M  V30 5241 H 497.7 3.05646 -5.29519 0
M  V30 5242 H 501.874 3.00712 -6.28128 0
M  V30 5243 H 499.501 2.98483 -6.99151 0
M  V30 5244 N 501.076 1.04316 1.18135 0
M  V30 5245 C 502.323 0.74802 1.88178 0
M  V30 5246 C 502.651 -0.72441 1.80506 0
M  V30 5247 O 501.906 -1.54463 1.20165 0
M  V30 5248 C 502.205 1.16271 3.37958 0
M  V30 5249 C 501.871 2.63585 3.65833 0
M  V30 5250 C 500.533 3.03829 3.73151 0
M  V30 5251 C 502.885 3.58822 3.78016 0
M  V30 5252 C 500.213 4.38194 3.90132 0
M  V30 5253 C 502.565 4.92909 3.96514 0
M  V30 5254 C 501.229 5.3282 4.02068 0
M  V30 5255 H 500.499 0.27372 0.688592 0
M  V30 5256 H 503.146 1.30863 1.39811 0
M  V30 5257 H 501.451 0.520938 3.88321 0
M  V30 5258 H 503.148 0.911672 3.90499 0
M  V30 5259 H 499.738 2.31414 3.60757 0
M  V30 5260 H 503.922 3.28875 3.71692 0
M  V30 5261 H 499.178 4.68631 3.92677 0
M  V30 5262 H 503.352 5.66606 4.04883 0
M  V30 5263 H 500.979 6.36943 4.14979 0
M  V30 5264 N 502.554 -1.34406 0.822964 0
M  V30 5265 C 503.801 -1.98284 0.411057 0
M  V30 5266 C 504.129 -1.65245 -1.02588 0
M  V30 5267 O 503.384 -0.91619 -1.72929 0
M  V30 5268 C 503.683 -3.52981 0.560268 0
M  V30 5269 C 503.349 -4.05931 1.96293 0
M  V30 5270 C 502.011 -4.20103 2.34664 0
M  V30 5271 C 504.363 -4.34412 2.87985 0
M  V30 5272 C 501.691 -4.60082 3.64062 0
M  V30 5273 C 504.043 -4.75838 4.16847 0
M  V30 5274 C 502.707 -4.88215 4.55195 0
M  V30 5275 H 501.977 -0.725573 0.150416 0
M  V30 5276 H 504.624 -1.60349 1.04692 0
M  V30 5277 H 502.929 -3.91477 -0.158982 0
M  V30 5278 H 504.626 -4.00385 0.222087 0
M  V30 5279 H 501.216 -3.95363 1.65487 0
M  V30 5280 H 505.4 -4.23001 2.59584 0
M  V30 5281 H 500.656 -4.67856 3.93599 0
M  V30 5282 H 504.83 -4.96834 4.87984 0
M  V30 5283 H 502.457 -5.18952 5.55512 0
M  V30 5284 N 504.032 -0.577932 -1.46621 0
M  V30 5285 C 504.98 0.170882 -2.31971 0
M  V30 5286 C 505.974 0.889086 -1.44193 0
M  V30 5287 O 507.18 0.808017 -1.60845 0
M  V30 5288 H 503.555 0.0739763 -0.748353 0
M  V30 5289 H 505.526 -0.567856 -2.92947 0
M  V30 5290 C 504.275 1.17438 -3.27267 0
M  V30 5291 H 503.598 0.63116 -3.94787 0
M  V30 5292 H 505.038 1.66882 -3.89778 0
M  V30 5293 C 503.497 2.23292 -2.52274 0
M  V30 5294 O 504.027 3.30567 -2.28229 0
M  V30 5295 N 502.233 1.97772 -2.12919 0
M  V30 5296 H 501.78 1.10545 -2.32675 0
M  V30 5297 H 501.738 2.68809 -1.63062 0
M  V30 5298 N 505.51 1.54411 -0.315457 0
M  V30 5299 C 506.44 2.27002 0.547039 0
M  V30 5300 C 507.421 1.27492 1.12605 0
M  V30 5301 O 508.606 1.5629 1.15269 0
M  V30 5302 C 505.736 3.02171 1.71201 0
M  V30 5303 C 504.69 4.0895 1.26268 0
M  V30 5304 C 504.016 4.71915 2.51396 0
M  V30 5305 C 505.316 5.20891 0.383419 0
M  V30 5306 H 507.01 2.99343 -0.0584517 0
M  V30 5307 H 504.556 1.4397 -0.0295527 0
M  V30 5308 H 506.509 3.51681 2.32161 0
M  V30 5309 H 505.233 2.27433 2.34397 0
M  V30 5310 H 503.892 3.60312 0.676062 0
M  V30 5311 H 503.54 3.93801 3.12937 0
M  V30 5312 H 503.24 5.44039 2.22026 0
M  V30 5313 H 504.764 5.24195 3.13133 0
M  V30 5314 H 506.178 5.66206 0.899082 0
M  V30 5315 H 504.575 5.99821 0.182857 0
M  V30 5316 H 505.645 4.81324 -0.587821 0
M  V30 5317 N 506.988 0.0434614 1.5754 0
M  V30 5318 C 507.935 -0.93356 2.11077 0
M  V30 5319 C 508.905 -1.31383 1.01626 0
M  V30 5320 O 510.09 -1.40465 1.29129 0
M  V30 5321 C 507.23 -2.20578 2.65404 0
M  V30 5322 C 506.343 -1.88068 3.88914 0
M  V30 5323 C 505.478 -3.09691 4.31584 0
M  V30 5324 C 504.517 -2.73067 5.47815 0
M  V30 5325 N 503.654 -3.87359 5.85574 0
M  V30 5326 H 508.494 -0.470118 2.94268 0
M  V30 5327 H 506.031 -0.220434 1.45439 0
M  V30 5328 H 507.989 -2.95011 2.94999 0
M  V30 5329 H 506.619 -2.64513 1.85021 0
M  V30 5330 H 505.671 -1.03816 3.6596 0
M  V30 5331 H 506.983 -1.57104 4.73413 0
M  V30 5332 H 506.137 -3.92431 4.62691 0
M  V30 5333 H 504.876 -3.43827 3.45882 0
M  V30 5334 H 503.881 -1.88742 5.16388 0
M  V30 5335 H 505.106 -2.40131 6.35227 0
M  V30 5336 H 503.052 -4.21311 5.02825 0
M  V30 5337 H 502.969 -3.60068 6.64746 0
M  V30 5338 H 504.237 -4.70761 6.21292 0
M  V30 5339 N 508.466 -1.55915 -0.229846 0
M  V30 5340 C 509.714 -1.7819 -0.953565 0
M  V30 5341 C 510.035 -0.610504 -1.85197 0
M  V30 5342 O 509.305 0.372988 -1.92316 0
M  V30 5343 H 507.885 -0.657208 -0.355087 0
M  V30 5344 H 510.547 -1.9337 -0.243693 0
M  V30 5345 H 509.643 -2.70011 -1.56527 0
M  V30 5346 N 509.944 0.496216 -1.49584 0
M  V30 5347 C 511.36 0.827814 -1.36453 0
M  V30 5348 C 511.56 1.97464 -0.401285 0
M  V30 5349 O 510.616 2.51958 0.165296 0
M  V30 5350 C 511.929 1.16352 -2.77277 0
M  V30 5351 C 513.477 1.27145 -2.86013 0
M  V30 5352 C 513.952 1.64042 -4.27615 0
M  V30 5353 N 515.443 1.71082 -4.30448 0
M  V30 5354 C 516.178 2.01085 -5.36984 0
M  V30 5355 N 515.674 2.2928 -6.5376 0
M  V30 5356 N 517.467 2.02376 -5.24405 0
M  V30 5357 H 509.618 -0.259947 -2.10803 0
M  V30 5358 H 511.881 -0.0537163 -0.946477 0
M  V30 5359 H 511.587 0.394153 -3.49484 0
M  V30 5360 H 511.461 2.10582 -3.12946 0
M  V30 5361 H 513.848 2.03152 -2.1404 0
M  V30 5362 H 513.929 0.309542 -2.5392 0
M  V30 5363 H 513.573 0.88583 -5.00115 0
M  V30 5364 H 513.503 2.6134 -4.57175 0
M  V30 5365 H 515.994 1.51434 -3.46232 0
M  V30 5366 H 516.307 2.51376 -7.30774 0
M  V30 5367 H 514.652 2.26726 -6.56978 0
M  V30 5368 H 517.843 1.79829 -4.32179 0
M  V30 5369 H 518.016 2.25425 -6.07526 0
M  V30 5370 N 511.423 1.38739 0.74761 0
M  V30 5371 C 512.651 1.38521 1.53686 0
M  V30 5372 C 513.066 -0.0235129 1.88785 0
M  V30 5373 O 512.423 -0.991662 1.53207 0
M  V30 5374 C 512.474 2.24641 2.83229 0
M  V30 5375 O 512.195 3.60026 2.49625 0
M  V30 5376 C 513.696 2.32669 3.77333 0
M  V30 5377 H 510.916 0.473589 0.475347 0
M  V30 5378 H 513.46 1.82395 0.924786 0
M  V30 5379 H 511.615 1.84213 3.40799 0
M  V30 5380 H 512.029 4.05435 3.3275 0
M  V30 5381 H 513.503 2.97201 4.65162 0
M  V30 5382 H 513.98 1.3421 4.18192 0
M  V30 5383 H 514.586 2.73512 3.25685 0
M  V30 5384 N 512.901 -0.976442 1.23707 0
M  V30 5385 C 514.178 -1.69296 0.979699 0
M  V30 5386 C 514.558 -2.0508 -0.500555 0
M  V30 5387 O 513.906 -1.74708 -1.47273 0
M  V30 5388 C 514.116 -2.93143 1.89389 0
M  V30 5389 C 515.464 -3.65572 2.15968 0
M  V30 5390 O 516.488 -3.03184 1.86971 0
M  V30 5391 O 515.347 -4.77859 2.65167 0
M  V30 5392 H 512.441 -0.739708 0.369812 0
M  V30 5393 H 514.987 -1.03131 1.34767 0
M  V30 5394 H 513.759 -2.63327 2.89439 0
M  V30 5395 H 513.382 -3.67044 1.52854 0
M  V30 5396 N 514.379 -1.04941 -1.1758 0
M  V30 5397 C 515.342 -0.652456 -2.19717 0
M  V30 5398 C 516.342 0.294745 -1.58076 0
M  V30 5399 O 517.532 0.0789579 -1.74021 0
M  V30 5400 C 514.664 0.0420712 -3.40874 0
M  V30 5401 H 515.857 -1.55642 -2.5635 0
M  V30 5402 H 513.41 -0.842995 -1.31618 0
M  V30 5403 H 514.145 0.95943 -3.09783 0
M  V30 5404 H 513.93 -0.638844 -3.86861 0
M  V30 5405 H 515.42 0.306 -4.16477 0
M  V30 5406 N 515.857 1.33968 -0.830081 0
M  V30 5407 C 516.79 2.27303 -0.202182 0
M  V30 5408 C 517.768 1.49235 0.645581 0
M  V30 5409 O 518.952 1.78433 0.607762 0
M  V30 5410 C 516.079 3.31025 0.716932 0
M  V30 5411 C 515.125 4.26466 -0.0542271 0
M  V30 5412 S 515.958 5.16707 -1.40622 0
M  V30 5413 C 517.114 6.23962 -0.492167 0
M  V30 5414 H 517.347 2.8021 -0.99346 0
M  V30 5415 H 514.88 1.41124 -0.626359 0
M  V30 5416 H 516.838 3.91271 1.24165 0
M  V30 5417 H 515.499 2.76951 1.4818 0
M  V30 5418 H 514.692 4.99858 0.644785 0
M  V30 5419 H 514.294 3.7051 -0.509722 0
M  V30 5420 H 516.586 6.76774 0.31347 0
M  V30 5421 H 517.529 6.97927 -1.19599 0
M  V30 5422 H 517.937 5.64447 -0.0774176 0
M  V30 5423 N 517.335 0.585699 1.46312 0
M  V30 5424 C 518.265 -0.133556 2.33118 0
M  V30 5425 C 519.246 -0.880707 1.45525 0
M  V30 5426 O 520.431 -0.855579 1.74337 0
M  V30 5427 C 517.561 -1.14585 3.27853 0
M  V30 5428 C 516.515 -0.513341 4.2491 0
M  V30 5429 C 515.841 -1.63231 5.09175 0
M  V30 5430 C 517.141 0.551413 5.19381 0
M  V30 5431 H 518.835 0.59121 2.93505 0
M  V30 5432 H 516.381 0.285761 1.41136 0
M  V30 5433 H 518.334 -1.65741 3.87438 0
M  V30 5434 H 517.058 -1.90093 2.65579 0
M  V30 5435 H 515.717 -0.0228349 3.66593 0
M  V30 5436 H 515.365 -2.37713 4.43285 0
M  V30 5437 H 515.065 -1.21473 5.74907 0
M  V30 5438 H 516.589 -2.14658 5.71624 0
M  V30 5439 H 518.003 0.124804 5.73164 0
M  V30 5440 H 516.4 0.889486 5.93471 0
M  V30 5441 H 517.47 1.43655 4.63132 0
M  V30 5442 N 518.813 -1.54241 0.323641 0
M  V30 5443 C 519.723 -2.28033 -0.551205 0
M  V30 5444 C 520.739 -1.32388 -1.12913 0
M  V30 5445 O 521.915 -1.65403 -1.14908 0
M  V30 5446 C 518.98 -3.02382 -1.69606 0
M  V30 5447 C 518.041 -4.13612 -1.14993 0
M  V30 5448 C 517.274 -4.84407 -2.24022 0
M  V30 5449 O 517.497 -4.54716 -3.44368 0
M  V30 5450 O 516.431 -5.71312 -1.89436 0
M  V30 5451 H 520.257 -3.03662 0.048066 0
M  V30 5452 H 517.842 -1.49133 0.0893289 0
M  V30 5453 H 519.724 -3.48941 -2.36259 0
M  V30 5454 H 518.399 -2.29628 -2.28151 0
M  V30 5455 H 517.306 -3.71402 -0.448484 0
M  V30 5456 H 518.639 -4.8841 -0.609608 0
M  V30 5457 N 520.291 -0.0518155 -1.57515 0
M  V30 5458 C 521.238 0.922352 -2.11569 0
M  V30 5459 C 522.208 1.30842 -1.02321 0
M  V30 5460 O 523.393 1.39778 -1.29872 0
M  V30 5461 C 520.533 2.19167 -2.6657 0
M  V30 5462 C 519.646 1.86003 -3.89906 0
M  V30 5463 C 518.781 3.07398 -4.33221 0
M  V30 5464 C 517.82 2.70158 -5.49255 0
M  V30 5465 N 516.957 3.84248 -5.8762 0
M  V30 5466 H 521.797 0.454506 -2.94514 0
M  V30 5467 H 519.334 0.212718 -1.45554 0
M  V30 5468 H 521.292 2.93443 -2.96559 0
M  V30 5469 H 519.922 2.63528 -1.86421 0
M  V30 5470 H 518.974 1.01874 -3.66505 0
M  V30 5471 H 520.286 1.54592 -4.74239 0
M  V30 5472 H 519.44 3.89972 -4.64765 0
M  V30 5473 H 518.179 3.41988 -3.477 0
M  V30 5474 H 517.184 1.86001 -5.17382 0
M  V30 5475 H 518.409 2.36759 -6.36492 0
M  V30 5476 H 516.355 4.18638 -5.05053 0
M  V30 5477 H 516.272 3.56538 -6.66646 0
M  V30 5478 H 517.54 4.6746 -6.2378 0
M  V30 5479 N 521.769 1.56035 0.221574 0
M  V30 5480 C 523.015 1.79312 0.947372 0
M  V30 5481 C 523.348 0.621453 1.83988 0
M  V30 5482 O 522.623 -0.379287 1.90766 0
M  V30 5483 C 522.906 3.1267 1.78633 0
M  V30 5484 C 522.759 4.40284 0.920312 0
M  V30 5485 C 524.078 3.4247 2.7641 0
M  V30 5486 H 521.197 0.652328 0.342982 0
M  V30 5487 H 523.839 1.88765 0.216244 0
M  V30 5488 H 521.989 3.04741 2.40967 0
M  V30 5489 H 523.661 4.60232 0.313718 0
M  V30 5490 H 521.904 4.33212 0.225734 0
M  V30 5491 H 522.575 5.30033 1.54171 0
M  V30 5492 H 525.051 3.50526 2.24211 0
M  V30 5493 H 523.927 4.3695 3.32213 0
M  V30 5494 H 524.188 2.64635 3.54148 0
M  V30 5495 N 523.247 -0.488276 1.49845 0
M  V30 5496 C 524.194 -1.58836 1.67451 0
M  V30 5497 C 525.164 -1.57886 0.515857 0
M  V30 5498 O 526.349 -1.75679 0.744403 0
M  V30 5499 C 523.489 -2.96915 1.75885 0
M  V30 5500 C 522.602 -3.07784 3.03138 0
M  V30 5501 C 521.737 -4.36673 3.02473 0
M  V30 5502 C 520.776 -4.41222 4.24252 0
M  V30 5503 N 519.913 -5.61557 4.21424 0
M  V30 5504 H 524.753 -1.43131 2.61376 0
M  V30 5505 H 522.29 -0.696186 1.29583 0
M  V30 5506 H 524.248 -3.76965 1.78755 0
M  V30 5507 H 522.878 -3.11295 0.85414 0
M  V30 5508 H 521.93 -2.20717 3.09819 0
M  V30 5509 H 523.242 -3.07005 3.93128 0
M  V30 5510 H 522.396 -5.25055 3.03977 0
M  V30 5511 H 521.135 -4.40037 2.10283 0
M  V30 5512 H 520.14 -3.5124 4.22978 0
M  V30 5513 H 521.365 -4.39564 5.17649 0
M  V30 5514 H 519.311 -5.65738 3.32078 0
M  V30 5515 H 519.228 -5.62447 5.05163 0
M  V30 5516 H 520.496 -6.52111 4.2705 0
M  V30 5517 N 524.725 -1.39134 -0.740242 0
M  V30 5518 C 525.972 -1.36071 -1.49969 0
M  V30 5519 C 526.3 0.0450245 -1.94448 0
M  V30 5520 O 525.555 1.02482 -1.66721 0
M  V30 5521 C 525.854 -2.27457 -2.75678 0
M  V30 5522 C 525.52 -3.75185 -2.50094 0
M  V30 5523 C 524.182 -4.15439 -2.42825 0
M  V30 5524 C 526.534 -4.68643 -2.28086 0
M  V30 5525 C 523.862 -5.4722 -2.11584 0
M  V30 5526 C 526.214 -6.00695 -1.98363 0
M  V30 5527 C 524.878 -6.40018 -1.8956 0
M  V30 5528 H 524.148 -0.497921 -0.548777 0
M  V30 5529 H 526.795 -1.71599 -0.85007 0
M  V30 5530 H 525.1 -1.8503 -3.45356 0
M  V30 5531 H 526.797 -2.22384 -3.33686 0
M  V30 5532 H 523.387 -3.43279 -2.56627 0
M  V30 5533 H 527.571 -4.3838 -2.32672 0
M  V30 5534 H 522.827 -5.76615 -2.03287 0
M  V30 5535 H 527.001 -6.72644 -1.80341 0
M  V30 5536 H 524.628 -7.42051 -1.65117 0
M  V30 5537 N 526.204 0.969867 -1.24223 0
M  V30 5538 C 527.451 1.71256 -1.08063 0
M  V30 5539 C 527.779 1.90734 0.380872 0
M  V30 5540 O 527.034 1.46469 1.29789 0
M  V30 5541 C 527.333 3.10883 -1.76314 0
M  V30 5542 C 526.999 3.11252 -3.26241 0
M  V30 5543 C 525.661 3.1106 -3.67144 0
M  V30 5544 C 528.013 3.05751 -4.22097 0
M  V30 5545 C 525.341 3.03097 -5.02344 0
M  V30 5546 C 527.693 2.9933 -5.57301 0
M  V30 5547 C 526.357 2.97466 -5.97554 0
M  V30 5548 H 525.627 0.62667 -0.395431 0
M  V30 5549 H 528.274 1.13422 -1.54297 0
M  V30 5550 H 526.579 3.72168 -1.22468 0
M  V30 5551 H 528.276 3.67138 -1.61277 0
M  V30 5552 H 524.866 3.12165 -2.93685 0
M  V30 5553 H 529.05 3.05031 -3.91497 0
M  V30 5554 H 524.306 3.00013 -5.32731 0
M  V30 5555 H 528.48 2.94033 -6.31283 0
M  V30 5556 H 526.107 2.91051 -7.02277 0
M  V30 5557 N 527.682 1.05563 1.17022 0
M  V30 5558 C 529.098 0.777684 1.39371 0
M  V30 5559 C 529.298 -0.626269 1.91521 0
M  V30 5560 O 528.354 -1.38806 2.10924 0
M  V30 5561 C 529.667 1.83642 2.3811 0
M  V30 5562 C 531.215 1.85907 2.51809 0
M  V30 5563 C 531.69 2.90813 3.53824 0
M  V30 5564 N 533.181 2.898 3.61345 0
M  V30 5565 C 533.916 3.6762 4.40049 0
M  V30 5566 N 533.412 4.55237 5.22237 0
M  V30 5567 N 535.205 3.56044 4.34959 0
M  V30 5568 H 527.356 1.9614 0.815047 0
M  V30 5569 H 529.619 0.849527 0.420722 0
M  V30 5570 H 529.325 2.84425 2.06871 0
M  V30 5571 H 529.199 1.6812 3.37662 0
M  V30 5572 H 531.586 0.857865 2.82356 0
M  V30 5573 H 531.667 2.05506 1.52318 0
M  V30 5574 H 531.311 3.91122 3.24015 0
M  V30 5575 H 531.241 2.68465 4.53028 0
M  V30 5576 H 533.732 2.26274 3.02669 0
M  V30 5577 H 534.045 5.11291 5.79484 0
M  V30 5578 H 532.39 4.59296 5.21605 0
M  V30 5579 H 535.581 2.86986 3.69806 0
M  V30 5580 H 535.754 4.16938 4.96051 0
M  V30 5581 N 529.16 -1.33526 0.837174 0
M  V30 5582 C 530.571 -1.80182 0.489017 0
M  V30 5583 C 530.922 -1.69285 -0.991826 0
M  V30 5584 O 530.047 -1.24113 -1.77271 0
M  V30 5585 C 530.642 -3.27149 0.880866 0
M  V30 5586 C 529.201 -3.71828 0.584872 0
M  V30 5587 C 528.348 -2.54974 1.09011 0
M  V30 5588 H 531.299 -1.21071 1.02603 0
M  V30 5589 H 531.32 -3.80024 0.190239 0
M  V30 5590 H 530.832 -3.35048 1.95869 0
M  V30 5591 H 528.933 -3.69457 -0.48295 0
M  V30 5592 H 529.046 -4.65366 1.13892 0
M  V30 5593 H 527.41 -2.4952 0.511047 0
M  V30 5594 H 528.193 -2.65637 2.17467 0
M  V30 5595 N 530.638 -0.59345 -1.46 0
M  V30 5596 C 531.588 0.154751 -2.27474 0
M  V30 5597 C 532.572 0.851849 -1.365 0
M  V30 5598 O 533.764 0.744171 -1.60596 0
M  V30 5599 C 530.893 1.16079 -3.2308 0
M  V30 5600 C 529.979 0.465256 -4.2154 0
M  V30 5601 N 530.37 -0.485197 -5.03467 0
M  V30 5602 C 528.668 0.714634 -4.40237 0
M  V30 5603 C 529.369 -0.892709 -5.74809 0
M  V30 5604 N 528.345 -0.239511 -5.43072 0
M  V30 5605 H 532.147 -0.57546 -2.88211 0
M  V30 5606 H 529.661 -0.416046 -1.5698 0
M  V30 5607 H 531.658 1.71108 -3.80168 0
M  V30 5608 H 530.318 1.89171 -2.63903 0
M  V30 5609 H 531.329 -0.861258 -5.10689 0
M  V30 5610 H 528.006 1.43131 -3.92199 0
M  V30 5611 H 529.396 -1.67581 -6.50666 0
M  V30 5612 N 532.116 1.54067 -0.331816 0
M  V30 5613 C 533.363 2.00715 0.268269 0
M  V30 5614 C 533.691 1.21986 1.51491 0
M  V30 5615 O 532.946 0.292309 1.93505 0
M  V30 5616 C 533.245 3.51634 0.639392 0
M  V30 5617 C 532.911 4.48018 -0.509019 0
M  V30 5618 C 531.573 4.74089 -0.824209 0
M  V30 5619 C 533.925 5.05237 -1.28003 0
M  V30 5620 C 531.253 5.54637 -1.91298 0
M  V30 5621 C 533.605 5.86972 -2.35895 0
M  V30 5622 C 532.269 6.11342 -2.67987 0
M  V30 5623 H 531.539 0.734469 0.0981667 0
M  V30 5624 H 534.186 1.8596 -0.457304 0
M  V30 5625 H 532.491 3.6416 1.44551 0
M  V30 5626 H 534.188 3.85175 1.11539 0
M  V30 5627 H 530.778 4.27851 -0.253287 0
M  V30 5628 H 534.962 4.8507 -1.04978 0
M  V30 5629 H 530.218 5.71747 -2.16599 0
M  V30 5630 H 534.392 6.30327 -2.96076 0
M  V30 5631 H 532.019 6.73544 -3.5248 0
M  V30 5632 N 533.594 0.0601682 1.57485 0
M  V30 5633 C 534.822 -0.620937 1.97363 0
M  V30 5634 C 535.237 -1.63846 0.938082 0
M  V30 5635 O 534.594 -1.82339 -0.0766578 0
M  V30 5636 C 534.645 -1.29987 3.37321 0
M  V30 5637 O 534.366 -0.323081 4.36907 0
M  V30 5638 C 535.867 -2.06989 3.92008 0
M  V30 5639 H 533.087 -0.169135 0.649334 0
M  V30 5640 H 535.631 0.129132 2.04092 0
M  V30 5641 H 533.786 -2.0011 3.31715 0
M  V30 5642 H 534.2 -0.808754 5.18227 0
M  V30 5643 H 535.674 -2.49901 4.92192 0
M  V30 5644 H 536.151 -2.92173 3.2792 0
M  V30 5645 H 536.757 -1.41757 4.0098 0
M  V30 5646 N 535.072 -1.5615 -0.213296 0
M  V30 5647 C 536.349 -1.70349 -0.961281 0
M  V30 5648 C 536.729 -0.609791 -2.02101 0
M  V30 5649 O 536.077 0.381987 -2.25285 0
M  V30 5650 C 536.287 -3.11982 -1.56424 0
M  V30 5651 C 537.635 -3.71649 -2.05334 0
M  V30 5652 O 538.659 -3.14995 -1.66302 0
M  V30 5653 O 537.518 -4.71038 -2.77102 0
M  V30 5654 H 534.612 -0.694121 -0.449582 0
M  V30 5655 H 537.158 -1.68464 -0.204426 0
M  V30 5656 H 535.93 -3.83046 -0.799457 0
M  V30 5657 H 535.553 -3.18019 -2.38641 0
M  V30 5658 N 536.55 0.480323 -1.50102 0
M  V30 5659 C 537.966 0.813295 -1.37323 0
M  V30 5660 C 538.166 1.97027 -0.422206 0
M  V30 5661 O 537.222 2.5212 0.138563 0
M  V30 5662 C 538.535 1.13404 -2.78496 0
M  V30 5663 C 540.083 1.24104 -2.87345 0
M  V30 5664 C 540.558 1.59497 -4.29331 0
M  V30 5665 N 542.049 1.66507 -4.32238 0
M  V30 5666 C 542.784 1.95378 -5.39087 0
M  V30 5667 N 542.28 2.22333 -6.56155 0
M  V30 5668 N 544.073 1.96803 -5.26522 0
M  V30 5669 H 536.224 -0.282291 -2.10516 0
M  V30 5670 H 538.487 -0.063752 -0.945854 0
M  V30 5671 H 538.193 0.357064 -3.49883 0
M  V30 5672 H 538.067 2.07251 -3.15162 0
M  V30 5673 H 540.454 2.00871 -2.16183 0
M  V30 5674 H 540.535 0.282593 -2.54234 0
M  V30 5675 H 540.179 0.832736 -5.01027 0
M  V30 5676 H 540.109 2.56477 -4.59921 0
M  V30 5677 H 542.6 1.47753 -3.47818 0
M  V30 5678 H 542.913 2.43611 -7.33399 0
M  V30 5679 H 541.258 2.19745 -6.59346 0
M  V30 5680 H 544.449 1.75235 -4.34062 0
M  V30 5681 H 544.622 2.18969 -6.09883 0
M  V30 5682 N 538.028 1.39524 0.732853 0
M  V30 5683 C 538.991 1.38189 1.82857 0
M  V30 5684 C 539.991 0.278624 1.58368 0
M  V30 5685 O 541.181 0.536639 1.65728 0
M  V30 5686 C 538.313 1.15661 3.2068 0
M  V30 5687 H 539.506 2.35692 1.85444 0
M  V30 5688 H 537.059 1.2512 0.936728 0
M  V30 5689 H 537.794 0.188482 3.23752 0
M  V30 5690 H 537.579 1.95559 3.39852 0
M  V30 5691 H 539.069 1.17472 4.00737 0
M  V30 5692 N 539.506 -0.963266 1.24736 0
M  V30 5693 C 540.439 -2.05758 0.986852 0
M  V30 5694 C 541.417 -1.62398 -0.0809272 0
M  V30 5695 O 542.601 -1.88414 0.0569347 0
M  V30 5696 C 539.728 -3.35135 0.490095 0
M  V30 5697 C 538.774 -3.97451 1.54709 0
M  V30 5698 S 539.607 -4.34519 3.12976 0
M  V30 5699 C 540.763 -5.67026 2.65014 0
M  V30 5700 H 540.996 -2.27539 1.91346 0
M  V30 5701 H 538.529 -1.10176 1.08169 0
M  V30 5702 H 540.487 -4.09962 0.21012 0
M  V30 5703 H 539.148 -3.11335 -0.415873 0
M  V30 5704 H 538.341 -4.90704 1.15003 0
M  V30 5705 H 537.943 -3.29071 1.77731 0
M  V30 5706 H 540.235 -6.44748 2.08102 0
M  V30 5707 H 541.178 -6.11594 3.56873 0
M  V30 5708 H 541.586 -5.25847 2.05294 0
M  V30 5709 N 540.985 -1.06182 -1.16461 0
M  V30 5710 C 541.917 -0.629584 -2.20383 0
M  V30 5711 C 542.93 0.311834 -1.59786 0
M  V30 5712 O 544.119 0.103 -1.78203 0
M  V30 5713 C 541.219 0.0973695 -3.3876 0
M  V30 5714 C 540.392 -0.857252 -4.28917 0
M  V30 5715 C 539.451 -0.169749 -5.25926 0
M  V30 5716 O 538.477 -0.807044 -5.6345 0
M  V30 5717 N 539.679 1.08911 -5.70192 0
M  V30 5718 H 542.444 -1.52352 -2.58087 0
M  V30 5719 H 540.005 -0.944993 -1.31459 0
M  V30 5720 H 541.997 0.567676 -4.00699 0
M  V30 5721 H 540.567 0.893093 -2.99571 0
M  V30 5722 H 539.787 -1.50696 -3.64259 0
M  V30 5723 H 541.075 -1.50489 -4.86035 0
M  V30 5724 H 540.473 1.62703 -5.41797 0
M  V30 5725 H 539.03 1.50331 -6.34227 0
M  V30 5726 N 542.463 1.3308 -0.844243 0
M  V30 5727 C 543.41 2.29104 -0.279323 0
M  V30 5728 C 544.38 1.54577 0.607882 0
M  V30 5729 O 545.565 1.8285 0.545009 0
M  V30 5730 C 542.705 3.40927 0.53508 0
M  V30 5731 C 541.818 4.30354 -0.376749 0
M  V30 5732 C 540.953 5.29297 0.449276 0
M  V30 5733 C 539.992 6.10365 -0.460606 0
M  V30 5734 N 539.129 7.01335 0.327612 0
M  V30 5735 H 543.969 2.76817 -1.10346 0
M  V30 5736 H 541.506 1.36203 -0.555611 0
M  V30 5737 H 543.464 4.04469 1.02278 0
M  V30 5738 H 542.094 2.94391 1.32414 0
M  V30 5739 H 541.146 3.67485 -0.982791 0
M  V30 5740 H 542.458 4.87067 -1.07549 0
M  V30 5741 H 541.612 5.98392 1.00058 0
M  V30 5742 H 540.351 4.73174 1.18143 0
M  V30 5743 H 539.356 5.40182 -1.02388 0
M  V30 5744 H 540.581 6.68571 -1.1912 0
M  V30 5745 H 538.527 6.47655 1.04305 0
M  V30 5746 H 538.444 7.55355 -0.3123 0
M  V30 5747 H 539.712 7.74731 0.86098 0
M  V30 5748 N 543.941 0.601185 1.45683 0
M  V30 5749 C 545.188 0.0938811 2.02282 0
M  V30 5750 C 545.516 -1.27315 1.47041 0
M  V30 5751 O 544.771 -1.85193 0.632623 0
M  V30 5752 C 545.07 -0.00222425 3.574 0
M  V30 5753 C 544.736 1.29963 4.31764 0
M  V30 5754 C 543.398 1.65625 4.51798 0
M  V30 5755 C 545.75 2.1603 4.74321 0
M  V30 5756 C 543.078 2.87119 5.11644 0
M  V30 5757 C 545.43 3.36766 5.3551 0
M  V30 5758 C 544.094 3.72689 5.53768 0
M  V30 5759 H 543.364 0.0343535 0.740203 0
M  V30 5760 H 546.011 0.781522 1.74827 0
M  V30 5761 H 544.316 -0.773096 3.84097 0
M  V30 5762 H 546.013 -0.410794 3.9889 0
M  V30 5763 H 542.603 1.01204 4.1648 0
M  V30 5764 H 546.787 1.89778 4.58582 0
M  V30 5765 H 542.043 3.15065 5.2397 0
M  V30 5766 H 546.217 4.03713 5.67441 0
M  V30 5767 H 543.844 4.66918 5.99909 0
M  V30 5768 N 545.419 -1.53889 0.339982 0
M  V30 5769 C 546.667 -2.00458 -0.257112 0
M  V30 5770 C 546.988 -1.22953 -1.51353 0
M  V30 5771 O 546.258 -0.335734 -1.93002 0
M  V30 5772 H 544.838 -0.740544 -0.0979965 0
M  V30 5773 H 547.5 -1.89386 0.460317 0
M  V30 5774 H 546.596 -3.08035 -0.502057 0
M  V30 5775 N 546.897 -0.0685191 -1.57451 0
M  V30 5776 C 547.847 0.909895 -2.09057 0
M  V30 5777 C 548.831 1.26088 -0.999528 0
M  V30 5778 O 550.023 1.24041 -1.26265 0
M  V30 5779 C 547.152 2.17863 -2.65312 0
M  V30 5780 C 546.238 1.85427 -3.81415 0
M  V30 5781 N 546.629 1.23426 -4.9051 0
M  V30 5782 C 544.927 2.15196 -3.90649 0
M  V30 5783 C 545.628 1.09008 -5.71395 0
M  V30 5784 N 544.604 1.59871 -5.1956 0
M  V30 5785 H 548.406 0.426145 -2.90794 0
M  V30 5786 H 545.92 0.135462 -1.61834 0
M  V30 5787 H 547.917 2.88872 -3.00597 0
M  V30 5788 H 546.577 2.66829 -1.85021 0
M  V30 5789 H 547.588 0.904305 -5.09944 0
M  V30 5790 H 544.265 2.66562 -3.21327 0
M  V30 5791 H 545.655 0.607305 -6.6915 0
M  V30 5792 N 548.375 1.56261 0.205012 0
M  V30 5793 C 549.305 1.96779 1.257 0
M  V30 5794 C 550.286 0.838309 1.48008 0
M  V30 5795 O 551.471 1.10189 1.59913 0
M  V30 5796 C 548.601 2.29876 2.60335 0
M  V30 5797 C 547.555 3.45469 2.52656 0
M  V30 5798 C 546.881 3.64215 3.91473 0
M  V30 5799 C 548.181 4.79954 2.06014 0
M  V30 5800 H 549.875 2.84904 0.920338 0
M  V30 5801 H 547.421 1.37072 0.441277 0
M  V30 5802 H 549.374 2.56814 3.34102 0
M  V30 5803 H 548.098 1.38622 2.95722 0
M  V30 5804 H 546.757 3.18605 1.81345 0
M  V30 5805 H 546.405 2.70309 4.24196 0
M  V30 5806 H 546.105 4.41973 3.87213 0
M  V30 5807 H 547.629 3.93519 4.66878 0
M  V30 5808 H 549.043 5.05989 2.69533 0
M  V30 5809 H 547.44 5.61111 2.12777 0
M  V30 5810 H 548.51 4.74201 1.01297 0
M  V30 5811 N 549.853 -0.472356 1.50355 0
M  V30 5812 C 551.1 -1.22453 1.61281 0
M  V30 5813 C 551.428 -1.91972 0.31256 0
M  V30 5814 O 550.683 -1.82696 -0.701475 0
M  V30 5815 C 550.982 -2.29257 2.74182 0
M  V30 5816 C 550.648 -1.76999 4.14708 0
M  V30 5817 C 549.31 -1.62467 4.52944 0
M  V30 5818 C 551.662 -1.38215 5.0254 0
M  V30 5819 C 548.99 -1.07574 5.76754 0
M  V30 5820 C 551.342 -0.847638 6.26895 0
M  V30 5821 C 550.006 -0.688946 6.63935 0
M  V30 5822 H 549.276 -0.448087 0.590168 0
M  V30 5823 H 551.923 -0.520744 1.84284 0
M  V30 5824 H 550.228 -3.05538 2.45263 0
M  V30 5825 H 551.925 -2.87212 2.7984 0
M  V30 5826 H 548.515 -1.89276 3.84542 0
M  V30 5827 H 552.699 -1.48276 4.73633 0
M  V30 5828 H 547.955 -0.940237 6.04127 0
M  V30 5829 H 552.129 -0.538455 6.94315 0
M  V30 5830 H 549.756 -0.261435 7.5975 0
M  V30 5831 N 551.331 -1.39911 -0.725443 0
M  V30 5832 C 552.742 -1.33599 -1.30415 0
M  V30 5833 C 553.093 -0.00481792 -1.96199 0
M  V30 5834 O 552.218 0.897275 -1.96921 0
M  V30 5835 C 552.813 -2.41965 -2.37146 0
M  V30 5836 C 551.372 -2.39144 -2.90667 0
M  V30 5837 C 550.519 -2.23355 -1.64341 0
M  V30 5838 H 553.47 -1.4986 -0.522267 0
M  V30 5839 H 553.491 -2.09304 -3.17761 0
M  V30 5840 H 553.003 -3.38837 -1.89238 0
M  V30 5841 H 551.104 -1.4594 -3.4283 0
M  V30 5842 H 551.217 -3.34362 -3.43131 0
M  V30 5843 H 549.581 -1.70696 -1.89037 0
M  V30 5844 H 550.364 -3.2221 -1.18471 0
M  V30 5845 N 552.809 0.956637 -1.25245 0
M  V30 5846 C 554.034 1.74104 -1.12706 0
M  V30 5847 C 554.459 1.85436 0.315429 0
M  V30 5848 O 553.817 1.33334 1.22848 0
M  V30 5849 C 553.865 3.1338 -1.78396 0
M  V30 5850 O 552.969 3.98485 -1.06224 0
M  V30 5851 H 552.31 0.53476 -0.393609 0
M  V30 5852 H 554.84 1.19924 -1.65769 0
M  V30 5853 H 554.85 3.6385 -1.846 0
M  V30 5854 H 553.525 3.04448 -2.83345 0
M  V30 5855 H 552.102 3.56952 -1.07886 0
M  V30 5856 N 554.287 1.06798 1.15896 0
M  V30 5857 C 555.237 0.653213 2.18443 0
M  V30 5858 C 556.221 -0.318763 1.57711 0
M  V30 5859 O 557.413 -0.133388 1.76497 0
M  V30 5860 C 554.542 0.0465785 3.43268 0
M  V30 5861 C 553.628 1.04336 4.11066 0
M  V30 5862 N 554.019 2.22084 4.54436 0
M  V30 5863 C 552.317 0.875433 4.37324 0
M  V30 5864 C 553.018 2.85276 5.06944 0
M  V30 5865 N 551.994 2.12973 5.00143 0
M  V30 5866 H 555.796 1.55011 2.49698 0
M  V30 5867 H 553.31 0.940384 1.32403 0
M  V30 5868 H 555.307 -0.26843 4.16035 0
M  V30 5869 H 553.967 -0.845504 3.13499 0
M  V30 5870 H 554.978 2.59833 4.48004 0
M  V30 5871 H 551.655 0.0357721 4.17485 0
M  V30 5872 H 553.045 3.85223 5.50503 0
M  V30 5873 N 555.766 -1.3263 0.851289 0
M  V30 5874 C 556.696 -2.31449 0.308771 0
M  V30 5875 C 557.677 -1.59531 -0.590255 0
M  V30 5876 O 558.862 -1.87351 -0.511205 0
M  V30 5877 C 555.992 -3.43586 -0.506548 0
M  V30 5878 C 554.946 -4.26963 0.297753 0
M  V30 5879 C 554.272 -5.30831 -0.642094 0
M  V30 5880 C 555.572 -4.99643 1.52166 0
M  V30 5881 H 557.266 -2.77074 1.13447 0
M  V30 5882 H 554.812 -1.33207 0.546971 0
M  V30 5883 H 556.765 -4.11754 -0.896474 0
M  V30 5884 H 555.489 -2.96681 -1.36558 0
M  V30 5885 H 554.148 -3.60437 0.669391 0
M  V30 5886 H 553.796 -4.8018 -1.49788 0
M  V30 5887 H 553.496 -5.87501 -0.107968 0
M  V30 5888 H 555.02 -6.01862 -1.02927 0
M  V30 5889 H 556.434 -5.6051 1.20421 0
M  V30 5890 H 554.831 -5.66022 1.99347 0
M  V30 5891 H 555.901 -4.27701 2.28474 0
M  V30 5892 N 557.244 -0.608902 -1.45362 0
M  V30 5893 C 558.655 -0.189511 -1.85736 0
M  V30 5894 C 559.006 1.2539 -1.50903 0
M  V30 5895 O 558.131 1.95094 -0.936347 0
M  V30 5896 C 558.726 -0.33716 -3.37118 0
M  V30 5897 C 557.285 0.0275487 -3.7639 0
M  V30 5898 C 556.432 -0.660983 -2.69307 0
M  V30 5899 H 559.383 -0.815499 -1.36144 0
M  V30 5900 H 559.404 0.430257 -3.7806 0
M  V30 5901 H 558.916 -1.38779 -3.62439 0
M  V30 5902 H 557.017 1.0773 -3.56686 0
M  V30 5903 H 557.13 -0.367018 -4.77692 0
M  V30 5904 H 555.494 -0.0984958 -2.54509 0
M  V30 5905 H 556.277 -1.71377 -2.97464 0
M  V30 5906 N 558.722 1.53707 -0.348139 0
M  V30 5907 C 560.133 1.86213 0.134797 0
M  V30 5908 C 560.484 1.26925 1.49614 0
M  V30 5909 O 559.609 0.584573 2.08355 0
M  V30 5910 C 560.204 3.37866 0.251371 0
M  V30 5911 C 558.763 3.70233 0.678543 0
M  V30 5912 C 557.91 2.76683 -0.184925 0
M  V30 5913 H 560.861 1.48204 -0.567571 0
M  V30 5914 H 560.882 3.64908 1.07806 0
M  V30 5915 H 560.394 3.80988 -0.739581 0
M  V30 5916 H 558.495 3.32659 1.67835 0
M  V30 5917 H 558.608 4.76836 0.465251 0
M  V30 5918 H 556.972 2.52374 0.343465 0
M  V30 5919 H 557.755 3.22635 -1.1731 0
M  V30 5920 N 560.2 0.0768682 1.57412 0
M  V30 5921 C 561.616 -0.279772 1.57129 0
M  V30 5922 C 561.816 -1.69688 1.08666 0
M  V30 5923 O 560.872 -2.40953 0.754843 0
M  V30 5924 C 562.185 -0.0848055 3.0058 0
M  V30 5925 C 563.733 -0.153954 3.12621 0
M  V30 5926 C 564.208 0.0127946 4.57998 0
M  V30 5927 N 565.699 -0.0426435 4.6318 0
M  V30 5928 C 566.434 0.0618892 5.73367 0
M  V30 5929 N 565.93 0.220229 6.9245 0
M  V30 5930 N 567.723 0.00446072 5.621 0
M  V30 5931 H 559.874 1.00297 1.87228 0
M  V30 5932 H 562.137 0.391565 0.863354 0
M  V30 5933 H 561.843 0.89325 3.40168 0
M  V30 5934 H 561.717 -0.834961 3.67843 0
M  V30 5935 H 564.104 -1.1225 2.72917 0
M  V30 5936 H 564.185 0.627389 2.47987 0
M  V30 5937 H 563.829 0.978128 4.98392 0
M  V30 5938 H 563.759 -0.788016 5.20671 0
M  V30 5939 H 566.25 -0.163226 3.77547 0
M  V30 5940 H 566.563 0.291999 7.72248 0
M  V30 5941 H 564.908 0.255658 6.9453 0
M  V30 5942 H 568.099 -0.117979 4.67951 0
M  V30 5943 H 568.272 0.0893796 6.47938 0
M  V30 5944 N 561.678 -1.56367 -0.196722 0
M  V30 5945 C 562.611 -1.89475 -1.2718 0
M  V30 5946 C 563.589 -0.754667 -1.44026 0
M  V30 5947 O 564.773 -1.00551 -1.59442 0
M  V30 5948 C 561.9 -2.12352 -2.63864 0
M  V30 5949 C 560.946 -3.35053 -2.63897 0
M  V30 5950 S 561.779 -4.90228 -2.15492 0
M  V30 5951 C 562.935 -5.16171 -3.54004 0
M  V30 5952 H 563.168 -2.80365 -0.989075 0
M  V30 5953 H 560.701 -1.49125 -0.40014 0
M  V30 5954 H 562.659 -2.26214 -3.42545 0
M  V30 5955 H 561.32 -1.22214 -2.89349 0
M  V30 5956 H 560.513 -3.48182 -3.64397 0
M  V30 5957 H 560.115 -3.20176 -1.93296 0
M  V30 5958 H 562.407 -5.06591 -4.49857 0
M  V30 5959 H 563.35 -6.17938 -3.45771 0
M  V30 5960 H 563.758 -4.43814 -3.48841 0
M  V30 5961 N 563.156 0.464375 -1.50603 0
M  V30 5962 C 564.103 1.56152 -1.69956 0
M  V30 5963 C 565.073 1.57046 -0.54091 0
M  V30 5964 O 566.258 1.74473 -0.772258 0
M  V30 5965 C 563.398 2.94079 -1.80586 0
M  V30 5966 C 562.511 3.02923 -3.07996 0
M  V30 5967 C 561.646 4.31806 -3.09382 0
M  V30 5968 C 560.685 4.34417 -4.31218 0
M  V30 5969 N 559.822 5.54782 -4.30304 0
M  V30 5970 H 564.662 1.38955 -2.6362 0
M  V30 5971 H 562.199 0.675482 -1.30674 0
M  V30 5972 H 564.157 3.74073 -1.8473 0
M  V30 5973 H 562.787 3.09896 -0.903556 0
M  V30 5974 H 561.839 2.1576 -3.13292 0
M  V30 5975 H 563.151 3.00712 -3.97962 0
M  V30 5976 H 562.305 5.20153 -3.12292 0
M  V30 5977 H 561.044 4.36636 -2.17257 0
M  V30 5978 H 560.049 3.44467 -4.28512 0
M  V30 5979 H 561.274 4.31273 -5.24576 0
M  V30 5980 H 559.22 5.60384 -3.41037 0
M  V30 5981 H 559.137 5.54339 -5.14047 0
M  V30 5982 H 560.405 6.45235 -4.3737 0
M  V30 5983 N 564.634 1.40294 0.718013 0
M  V30 5984 C 565.582 1.40536 1.85344 0
M  V30 5985 C 566.576 0.286192 1.66965 0
M  V30 5986 O 567.782 0.457105 1.74099 0
M  V30 5987 H 564.157 0.439236 0.61039 0
M  V30 5988 H 566.128 2.36275 1.82255 0
M  V30 5989 C 564.877 1.28245 3.23185 0
M  V30 5990 H 564.2 2.1364 3.37932 0
M  V30 5991 H 565.64 1.32474 4.02774 0
M  V30 5992 C 564.099 -0.0075503 3.36899 0
M  V30 5993 O 564.629 -0.971391 3.89778 0
M  V30 5994 N 562.835 -0.0762479 2.905 0
M  V30 5995 H 562.382 0.708819 2.47656 0
M  V30 5996 H 562.34 -0.938846 3.00055 0
M  V30 5997 N 566.112 -0.949982 1.2575 0
M  V30 5998 C 567.358 -1.69822 1.11947 0
M  V30 5999 C 567.713 -1.89455 -0.335334 0
M  V30 6000 O 567.006 -1.45778 -1.24336 0
M  V30 6001 C 567.2 -3.08039 1.81237 0
M  V30 6002 C 567.029 -3.0189 3.33305 0
M  V30 6003 C 565.799 -3.05391 4.02573 0
M  V30 6004 C 567.997 -2.827 4.29634 0
M  V30 6005 N 565.979 -2.89449 5.4138 0
M  V30 6006 C 567.35 -2.75237 5.55558 0
M  V30 6007 C 569.405 -2.67416 4.19992 0
M  V30 6008 C 568.108 -2.54051 6.72942 0
M  V30 6009 C 570.134 -2.47602 5.37073 0
M  V30 6010 C 569.496 -2.40863 6.6194 0
M  V30 6011 H 565.595 -0.629188 0.464378 0
M  V30 6012 H 568.179 -1.1249 1.58916 0
M  V30 6013 H 566.35 -3.63528 1.36756 0
M  V30 6014 H 568.082 -3.71671 1.60134 0
M  V30 6015 H 564.837 -3.14763 3.53866 0
M  V30 6016 H 565.261 -2.84669 6.14241 0
M  V30 6017 H 569.903 -2.71398 3.24196 0
M  V30 6018 H 567.621 -2.48811 7.68842 0
M  V30 6019 H 571.207 -2.36694 5.31477 0
M  V30 6020 H 570.087 -2.25732 7.51009 0
M  V30 6021 N 567.59 -1.07411 -1.15328 0
M  V30 6022 C 569.006 -0.799759 -1.38116 0
M  V30 6023 C 569.206 0.59572 -1.92493 0
M  V30 6024 O 568.262 1.35433 -2.13106 0
M  V30 6025 C 569.575 -1.87407 -2.35158 0
M  V30 6026 C 571.123 -1.89889 -2.48819 0
M  V30 6027 C 571.598 -2.96406 -3.49153 0
M  V30 6028 N 573.089 -2.95512 -3.56689 0
M  V30 6029 C 573.824 -3.74575 -4.34144 0
M  V30 6030 N 573.32 -4.63488 -5.14928 0
M  V30 6031 N 575.113 -3.62919 -4.29239 0
M  V30 6032 H 567.264 -1.97411 -0.78374 0
M  V30 6033 H 569.527 -0.856113 -0.407154 0
M  V30 6034 H 569.233 -2.8768 -2.0232 0
M  V30 6035 H 569.107 -1.73471 -3.34944 0
M  V30 6036 H 571.494 -0.902677 -2.80955 0
M  V30 6037 H 571.575 -2.07904 -1.49029 0
M  V30 6038 H 571.219 -3.96227 -3.17752 0
M  V30 6039 H 571.149 -2.75638 -4.48699 0
M  V30 6040 H 573.64 -2.31061 -2.99031 0
M  V30 6041 H 573.953 -5.20445 -5.71276 0
M  V30 6042 H 572.298 -4.67537 -5.14232 0
M  V30 6043 H 575.489 -2.92833 -3.65194 0
M  V30 6044 H 575.662 -4.24777 -4.89355 0
M  V30 6045 N 569.068 1.32177 -0.85831 0
M  V30 6046 C 570.345 1.91781 -0.384624 0
M  V30 6047 C 570.725 1.78171 1.13217 0
M  V30 6048 O 570.073 1.18209 1.95548 0
M  V30 6049 C 570.283 3.38414 -0.853047 0
M  V30 6050 C 571.631 4.15542 -0.872359 0
M  V30 6051 O 572.655 3.47148 -0.797926 0
M  V30 6052 O 571.514 5.37678 -0.978009 0
M  V30 6053 H 568.608 0.819259 -0.112886 0
M  V30 6054 H 571.154 1.40923 -0.945453 0
M  V30 6055 H 569.926 3.4228 -1.89632 0
M  V30 6056 H 569.549 3.96683 -0.269874 0
M  V30 6057 N 570.547 0.616602 1.45037 0
M  V30 6058 C 571.494 -0.0969439 2.30596 0
M  V30 6059 C 572.464 -0.851151 1.42635 0
M  V30 6060 O 573.649 -0.835092 1.71554 0
M  V30 6061 C 570.789 -1.08234 3.27688 0
M  V30 6062 C 569.902 -0.328072 4.30752 0
M  V30 6063 C 569.037 -1.30399 5.14946 0
M  V30 6064 C 568.076 -0.538049 6.09731 0
M  V30 6065 N 567.213 -1.46371 6.86673 0
M  V30 6066 H 572.053 0.63864 2.91076 0
M  V30 6067 H 569.59 0.326733 1.43425 0
M  V30 6068 H 571.548 -1.66688 3.82454 0
M  V30 6069 H 570.178 -1.78523 2.68941 0
M  V30 6070 H 569.23 0.372136 3.78575 0
M  V30 6071 H 570.542 0.269142 4.98073 0
M  V30 6072 H 569.696 -1.96032 5.74157 0
M  V30 6073 H 568.435 -1.93514 4.47665 0
M  V30 6074 H 567.44 0.131852 5.49642 0
M  V30 6075 H 568.665 0.0881732 6.79043 0
M  V30 6076 H 566.611 -2.08233 6.22073 0
M  V30 6077 H 566.528 -0.920152 7.50379 0
M  V30 6078 H 567.796 -2.10932 7.50418 0
M  V30 6079 N 572.025 -1.5352 0.356285 0
M  V30 6080 C 573.255 -2.05236 -0.236983 0
M  V30 6081 C 573.663 -1.23016 -1.43749 0
M  V30 6082 O 573.006 -0.2615 -1.81829 0
M  V30 6083 C 573.068 -3.52549 -0.7035 0
M  V30 6084 C 572.732 -4.55425 0.379059 0
M  V30 6085 C 573.729 -5.0524 1.22592 0
M  V30 6086 C 571.414 -4.99425 0.536638 0
M  V30 6087 C 573.408 -5.97647 2.21578 0
M  V30 6088 C 571.095 -5.9164 1.52988 0
M  V30 6089 C 572.093 -6.4064 2.3679 0
M  V30 6090 O 571.781 -7.31039 3.34421 0
M  V30 6091 H 571.513 -0.674346 -0.047254 0
M  V30 6092 H 574.067 -1.98962 0.510238 0
M  V30 6093 H 572.297 -3.56331 -1.50217 0
M  V30 6094 H 573.986 -3.87171 -1.21873 0
M  V30 6095 H 574.752 -4.72002 1.11532 0
M  V30 6096 H 570.631 -4.60879 -0.105834 0
M  V30 6097 H 574.175 -6.35816 2.87025 0
M  V30 6098 H 570.072 -6.24293 1.64099 0
M  V30 6099 H 570.84 -7.49009 3.30041 0
M  V30 6100 N 573.503 -0.0852151 -1.57369 0
M  V30 6101 C 574.413 0.891712 -2.16992 0
M  V30 6102 C 575.429 1.3174 -1.13669 0
M  V30 6103 O 576.605 1.38735 -1.45995 0
M  V30 6104 C 573.67 2.13635 -2.73059 0
M  V30 6105 C 572.731 1.7658 -3.91303 0
M  V30 6106 C 571.964 2.95111 -4.44686 0
M  V30 6107 O 572.187 4.09539 -3.97032 0
M  V30 6108 O 571.121 2.74149 -5.35841 0
M  V30 6109 H 574.947 0.414477 -3.00858 0
M  V30 6110 H 572.532 0.138598 -1.48756 0
M  V30 6111 H 574.414 2.86595 -3.08935 0
M  V30 6112 H 573.089 2.6043 -1.92244 0
M  V30 6113 H 571.996 1.00831 -3.60255 0
M  V30 6114 H 573.329 1.34557 -4.7345 0
M  V30 6115 N 574.981 1.5647 0.188427 0
M  V30 6116 C 575.931 1.91479 1.23774 0
M  V30 6117 C 576.915 0.78119 1.40664 0
M  V30 6118 O 578.107 1.04414 1.42922 0
M  V30 6119 C 575.236 2.26354 2.58106 0
M  V30 6120 C 574.322 3.46186 2.44981 0
M  V30 6121 N 574.713 4.63911 2.01546 0
M  V30 6122 C 573.011 3.50456 2.75856 0
M  V30 6123 C 573.712 5.46064 2.00472 0
M  V30 6124 N 572.688 4.86648 2.42229 0
M  V30 6125 H 576.49 2.79994 0.893339 0
M  V30 6126 H 574.004 1.57477 0.39682 0
M  V30 6127 H 576.001 2.49622 3.33908 0
M  V30 6128 H 574.661 1.39168 2.93364 0
M  V30 6129 H 575.672 4.88451 1.7215 0
M  V30 6130 H 572.349 2.73704 3.15265 0
M  V30 6131 H 573.739 6.50368 1.68734 0
M  V30 6132 N 576.459 -0.456382 1.50847 0
M  V30 6133 C 577.409 -1.55045 1.67168 0
M  V30 6134 C 578.393 -1.52061 0.525958 0
M  V30 6135 O 579.585 -1.58836 0.781036 0
M  V30 6136 C 576.714 -2.93386 1.78268 0
M  V30 6137 C 575.8 -3.01198 2.98564 0
M  V30 6138 N 576.191 -2.78792 4.22029 0
M  V30 6139 C 574.489 -3.32346 2.97426 0
M  V30 6140 C 575.19 -2.91953 5.03128 0
M  V30 6141 N 574.166 -3.22797 4.37382 0
M  V30 6142 H 577.968 -1.36444 2.60308 0
M  V30 6143 H 575.482 -0.663375 1.48233 0
M  V30 6144 H 577.479 -3.72071 1.88067 0
M  V30 6145 H 576.139 -3.13022 0.862965 0
M  V30 6146 H 577.15 -2.54087 4.51287 0
M  V30 6147 H 573.827 -3.57877 2.15012 0
M  V30 6148 H 575.217 -2.78745 6.11351 0
M  V30 6149 N 577.937 -1.40673 -0.710563 0
M  V30 6150 C 578.867 -1.44095 -1.83736 0
M  V30 6151 C 579.848 -0.301286 -1.67411 0
M  V30 6152 O 581.033 -0.510618 -1.87367 0
M  V30 6153 C 578.163 -1.30773 -3.21738 0
M  V30 6154 C 577.117 -2.42395 -3.52745 0
M  V30 6155 C 576.443 -2.14147 -4.89944 0
M  V30 6156 C 577.743 -3.84738 -3.53234 0
M  V30 6157 H 579.437 -2.38396 -1.81129 0
M  V30 6158 H 576.983 -1.14746 -0.870017 0
M  V30 6159 H 578.936 -1.31783 -4.00264 0
M  V30 6160 H 577.66 -0.329507 -3.24934 0
M  V30 6161 H 576.319 -2.40643 -2.76562 0
M  V30 6162 H 575.967 -1.14703 -4.89747 0
M  V30 6163 H 575.667 -2.88934 -5.11655 0
M  V30 6164 H 577.191 -2.16848 -5.70797 0
M  V30 6165 H 578.605 -3.88286 -4.2179 0
M  V30 6166 H 577.002 -4.59085 -3.86473 0
M  V30 6167 H 578.072 -4.13962 -2.52514 0
M  V30 6168 N 579.415 0.9433 -1.26252 0
M  V30 6169 C 580.345 2.05902 -1.10122 0
M  V30 6170 C 581.326 1.70099 -0.00700552 0
M  V30 6171 O 582.511 1.93377 -0.178641 0
M  V30 6172 C 579.641 3.39516 -0.731175 0
M  V30 6173 C 578.595 3.89372 -1.77688 0
M  V30 6174 C 577.921 5.19613 -1.26122 0
M  V30 6175 C 579.221 4.14489 -3.17799 0
M  V30 6176 H 580.915 2.19655 -2.03451 0
M  V30 6177 H 578.461 1.05548 -0.979576 0
M  V30 6178 H 580.414 4.17031 -0.605215 0
M  V30 6179 H 579.138 3.25733 0.23782 0
M  V30 6180 H 577.797 3.14036 -1.89148 0
M  V30 6181 H 577.445 5.02208 -0.282128 0
M  V30 6182 H 577.145 5.53939 -1.96023 0
M  V30 6183 H 578.669 5.99713 -1.14789 0
M  V30 6184 H 580.083 4.82625 -3.09428 0
M  V30 6185 H 578.48 4.60094 -3.85271 0
M  V30 6186 H 579.55 3.20347 -3.64014 0
M  V30 6187 N 580.893 1.08022 1.14757 0
M  V30 6188 C 581.823 0.728248 2.21853 0
M  V30 6189 C 582.804 -0.287486 1.67653 0
M  V30 6190 O 583.989 -0.158727 1.9355 0
M  V30 6191 C 581.119 0.132549 3.47047 0
M  V30 6192 C 580.073 1.07619 4.14249 0
M  V30 6193 C 579.399 0.342907 5.33599 0
M  V30 6194 C 580.699 2.41268 4.63235 0
M  V30 6195 H 582.393 1.62365 2.51551 0
M  V30 6196 H 579.939 0.782125 1.20908 0
M  V30 6197 H 581.892 -0.125665 4.21213 0
M  V30 6198 H 580.616 -0.797971 3.16702 0
M  V30 6199 H 579.275 1.31944 3.42033 0
M  V30 6200 H 578.923 -0.59129 4.99513 0
M  V30 6201 H 578.623 0.971955 5.79506 0
M  V30 6202 H 580.147 0.0926538 6.1053 0
M  V30 6203 H 581.561 2.21232 5.28894 0
M  V30 6204 H 579.958 2.9983 5.19829 0
M  V30 6205 H 581.028 3.03079 3.78512 0
M  V30 6206 N 582.371 -1.3172 0.865308 0
M  V30 6207 C 583.318 -2.2863 0.315736 0
M  V30 6208 C 584.288 -1.55524 -0.583213 0
M  V30 6209 O 585.473 -1.83694 -0.51585 0
M  V30 6210 C 582.613 -3.41735 -0.480773 0
M  V30 6211 C 581.726 -4.297 0.445167 0
M  V30 6212 C 580.861 -5.29944 -0.365012 0
M  V30 6213 C 579.9 -6.09554 0.557651 0
M  V30 6214 N 579.037 -7.01768 -0.215994 0
M  V30 6215 H 583.877 -2.75026 1.14736 0
M  V30 6216 H 581.414 -1.35302 0.577209 0
M  V30 6217 H 583.372 -4.06045 -0.958306 0
M  V30 6218 H 582.002 -2.96461 -1.27714 0
M  V30 6219 H 581.054 -3.65875 1.04113 0
M  V30 6220 H 582.366 -4.85295 1.15284 0
M  V30 6221 H 581.52 -5.99908 -0.905255 0
M  V30 6222 H 580.259 -4.74994 -1.106 0
M  V30 6223 H 579.264 -5.38485 1.10969 0
M  V30 6224 H 580.489 -6.66591 1.29742 0
M  V30 6225 H 578.435 -6.49232 -0.939878 0
M  V30 6226 H 578.352 -7.54762 0.432431 0
M  V30 6227 H 579.62 -7.76002 -0.737618 0
M  V30 6228 N 583.85 -0.624285 -1.44708 0
M  V30 6229 C 584.783 0.133905 -2.27807 0
M  V30 6230 C 585.76 0.857794 -1.38133 0
M  V30 6231 O 586.945 0.863277 -1.6757 0
M  V30 6232 C 584.072 1.19541 -3.16903 0
M  V30 6233 C 583.118 0.572813 -4.22636 0
M  V30 6234 S 583.951 -0.631953 -5.31758 0
M  V30 6235 C 585.106 0.429733 -6.24423 0
M  V30 6236 H 585.34 -0.571072 -2.91764 0
M  V30 6237 H 582.873 -0.412261 -1.48794 0
M  V30 6238 H 584.831 1.80293 -3.68788 0
M  V30 6239 H 583.492 1.87255 -2.5218 0
M  V30 6240 H 582.685 1.37205 -4.84965 0
M  V30 6241 H 582.287 0.0400641 -3.73979 0
M  V30 6242 H 584.579 1.30421 -6.64828 0
M  V30 6243 H 585.522 -0.157804 -7.07924 0
M  V30 6244 H 585.93 0.75256 -5.59461 0
M  V30 6245 N 585.328 1.53329 -0.364422 0
M  V30 6246 C 586.291 2.24323 0.470292 0
M  V30 6247 C 587.291 1.25068 1.01067 0
M  V30 6248 O 588.481 1.49354 0.896605 0
M  V30 6249 C 585.613 2.97908 1.65722 0
M  V30 6250 H 586.806 2.9952 -0.150917 0
M  V30 6251 H 584.359 1.55868 -0.116092 0
M  V30 6252 H 585.094 2.2695 2.31655 0
M  V30 6253 H 584.879 3.70732 1.27671 0
M  V30 6254 H 586.369 3.5188 2.24878 0
M  V30 6255 N 586.806 0.0935595 1.57322 0
M  V30 6256 C 588.054 -0.569383 1.93913 0
M  V30 6257 C 588.375 -1.68817 0.976009 0
M  V30 6258 O 587.645 -1.9588 0.0278099 0
M  V30 6259 H 586.225 -0.21332 0.715894 0
M  V30 6260 H 588.887 0.156531 1.9427 0
M  V30 6261 H 587.983 -0.980577 2.96296 0
M  V30 6262 N 588.284 -1.56567 -0.180126 0
M  V30 6263 C 589.561 -1.7235 -0.924931 0
M  V30 6264 C 589.941 -0.652523 -2.00762 0
M  V30 6265 O 589.289 0.334115 -2.26044 0
M  V30 6266 C 589.499 -3.1523 -1.49771 0
M  V30 6267 C 590.847 -3.75921 -1.97405 0
M  V30 6268 O 591.871 -3.18452 -1.59583 0
M  V30 6269 O 590.73 -4.7681 -2.67048 0
M  V30 6270 H 587.824 -0.703502 -0.434758 0
M  V30 6271 H 590.37 -1.6886 -0.168647 0
M  V30 6272 H 589.142 -3.84656 -0.718027 0
M  V30 6273 H 588.765 -3.23009 -2.31842 0
M  V30 6274 N 589.762 0.448376 -1.51087 0
M  V30 6275 C 591.01 1.19635 -1.62886 0
M  V30 6276 C 591.331 1.91977 -0.342024 0
M  V30 6277 O 590.601 1.85094 0.641636 0
M  V30 6278 H 589.181 0.444598 -0.600285 0
M  V30 6279 H 591.843 0.515138 -1.87969 0
M  V30 6280 H 590.939 1.93194 -2.45117 0
M  V30 6281 N 591.24 1.41047 0.703093 0
M  V30 6282 C 592.486 1.40207 1.46526 0
M  V30 6283 C 592.819 0.00847763 1.94198 0
M  V30 6284 O 592.094 -0.962437 1.69019 0
M  V30 6285 C 592.377 2.40238 2.6825 0
M  V30 6286 C 592.23 3.88674 2.26391 0
M  V30 6287 C 593.549 2.37627 3.70434 0
M  V30 6288 H 590.668 0.510594 0.531472 0
M  V30 6289 H 593.31 1.72271 0.801422 0
M  V30 6290 H 591.46 2.13026 3.24888 0
M  V30 6291 H 593.132 4.2676 1.75138 0
M  V30 6292 H 591.375 4.03903 1.58255 0
M  V30 6293 H 592.046 4.542 3.13698 0
M  V30 6294 H 594.522 2.61759 3.23452 0
M  V30 6295 H 593.398 3.09645 4.53223 0
M  V30 6296 H 593.659 1.39223 4.19606 0
M  V30 6297 N 592.718 -0.936591 1.26751 0
M  V30 6298 C 593.966 -1.67998 1.12343 0
M  V30 6299 C 594.287 -1.92137 -0.332938 0
M  V30 6300 O 593.557 -1.52132 -1.23421 0
M  V30 6301 H 592.137 -0.622609 0.412756 0
M  V30 6302 H 594.799 -1.12509 1.59147 0
M  V30 6303 H 593.895 -2.65185 1.64571 0
M  V30 6304 N 594.196 -1.08629 -1.14182 0
M  V30 6305 C 595.106 -0.730126 -2.22949 0
M  V30 6306 C 596.122 0.26436 -1.7198 0
M  V30 6307 O 597.298 0.107742 -2.01112 0
M  V30 6308 C 594.363 -0.147227 -3.46387 0
M  V30 6309 C 593.424 -1.19662 -4.12286 0
M  V30 6310 C 592.657 -0.641437 -5.29831 0
M  V30 6311 O 592.88 0.538351 -5.67854 0
M  V30 6312 O 591.814 -1.39257 -5.85569 0
M  V30 6313 H 595.64 -1.63753 -2.55771 0
M  V30 6314 H 593.225 -0.860118 -1.22157 0
M  V30 6315 H 595.107 0.174923 -4.21037 0
M  V30 6316 H 593.782 0.733304 -3.15285 0
M  V30 6317 H 592.689 -1.57133 -3.395 0
M  V30 6318 H 594.022 -2.0495 -4.475 0
M  V30 6319 N 595.674 1.31259 -0.872281 0
M  V30 6320 C 596.637 2.26744 -0.334656 0
M  V30 6321 C 597.637 1.52307 0.515681 0
M  V30 6322 O 598.827 1.71148 0.324656 0
M  V30 6323 C 595.959 3.36841 0.524482 0
M  V30 6324 H 597.152 2.75812 -1.17762 0
M  V30 6325 H 594.705 1.42232 -0.648064 0
M  V30 6326 H 595.44 2.93069 1.38855 0
M  V30 6327 H 595.225 3.92009 -0.0844299 0
M  V30 6328 H 596.715 4.07944 0.892838 0
M  V30 6329 N 597.152 0.631951 1.44375 0
M  V30 6330 C 598.099 -0.0724807 2.30686 0
M  V30 6331 C 599.069 -0.835975 1.43529 0
M  V30 6332 O 600.254 -0.816849 1.7243 0
M  V30 6333 C 597.394 -1.04753 3.28817 0
M  V30 6334 C 596.507 -0.282367 4.31076 0
M  V30 6335 C 595.642 -1.2493 5.163 0
M  V30 6336 C 594.681 -0.473349 6.10267 0
M  V30 6337 N 593.818 -1.39079 6.88187 0
M  V30 6338 H 598.658 0.669477 2.90383 0
M  V30 6339 H 596.195 0.341927 1.43071 0
M  V30 6340 H 598.153 -1.62623 3.842 0
M  V30 6341 H 596.783 -1.75661 2.70819 0
M  V30 6342 H 595.835 0.412268 3.78159 0
M  V30 6343 H 597.147 0.321955 4.9776 0
M  V30 6344 H 596.301 -1.89931 5.76204 0
M  V30 6345 H 595.04 -1.88755 4.49692 0
M  V30 6346 H 594.045 0.190142 5.49471 0
M  V30 6347 H 595.27 0.16019 6.78911 0
M  V30 6348 H 593.216 -2.01623 6.24247 0
M  V30 6349 H 593.133 -0.840513 7.51313 0
M  V30 6350 H 594.401 -2.02961 7.52613 0
M  V30 6351 N 598.631 -1.53133 0.372548 0
M  V30 6352 C 599.856 -2.0625 -0.218098 0
M  V30 6353 C 600.281 -1.24375 -1.41111 0
M  V30 6354 O 599.639 -0.264554 -1.79359 0
M  V30 6355 C 599.687 -3.55858 -0.582876 0
M  V30 6356 O 598.791 -3.76667 -1.67917 0
M  V30 6357 H 598.132 -0.663317 -0.030104 0
M  V30 6358 H 600.662 -1.97477 0.535169 0
M  V30 6359 H 600.672 -3.99007 -0.851925 0
M  V30 6360 H 599.347 -4.14892 0.289428 0
M  V30 6361 H 597.924 -3.45413 -1.40513 0
M  V30 6362 N 600.109 -0.101901 -1.5727 0
M  V30 6363 C 601.355 0.554864 -1.95686 0
M  V30 6364 C 601.71 1.65368 -0.983415 0
M  V30 6365 O 601.003 1.91597 -0.0105374 0
M  V30 6366 C 601.197 1.14898 -3.38427 0
M  V30 6367 C 601.026 0.109251 -4.49567 0
M  V30 6368 C 599.796 -0.316633 -5.04307 0
M  V30 6369 C 601.994 -0.665196 -5.0998 0
M  V30 6370 N 599.976 -1.34393 -5.99009 0
M  V30 6371 C 601.347 -1.54413 -6.00464 0
M  V30 6372 C 603.402 -0.717966 -4.92696 0
M  V30 6373 C 602.105 -2.47122 -6.75517 0
M  V30 6374 C 604.131 -1.63268 -5.68417 0
M  V30 6375 C 603.493 -2.49923 -6.58572 0
M  V30 6376 H 599.592 0.17317 -0.762585 0
M  V30 6377 H 602.176 -0.18605 -1.93809 0
M  V30 6378 H 600.347 1.85969 -3.40984 0
M  V30 6379 H 602.079 1.76867 -3.64006 0
M  V30 6380 H 598.834 0.0724419 -4.73545 0
M  V30 6381 H 599.258 -1.85598 -6.51062 0
M  V30 6382 H 603.9 -0.0621637 -4.22754 0
M  V30 6383 H 601.618 -3.13724 -7.44717 0
M  V30 6384 H 605.204 -1.67874 -5.57054 0
M  V30 6385 H 604.084 -3.19553 -7.16139 0
M  V30 6386 N 601.587 1.56661 0.17182 0
M  V30 6387 C 602.517 1.99401 1.21498 0
M  V30 6388 C 603.498 0.869516 1.46197 0
M  V30 6389 O 604.683 1.13556 1.57539 0
M  V30 6390 C 601.813 2.35346 2.55401 0
M  V30 6391 C 600.767 3.5075 2.45272 0
M  V30 6392 C 600.093 3.72437 3.8366 0
M  V30 6393 C 601.393 4.84216 1.95787 0
M  V30 6394 H 603.087 2.86792 0.859699 0
M  V30 6395 H 600.633 1.37977 0.412103 0
M  V30 6396 H 602.586 2.63843 3.2858 0
M  V30 6397 H 601.31 1.44864 2.92715 0
M  V30 6398 H 599.969 3.2238 1.74547 0
M  V30 6399 H 599.617 2.79246 4.18367 0
M  V30 6400 H 599.317 4.50087 3.77751 0
M  V30 6401 H 600.841 4.03334 4.58426 0
M  V30 6402 H 602.255 5.11592 2.5874 0
M  V30 6403 H 600.652 5.65498 2.00827 0
M  V30 6404 H 601.722 4.76243 0.912159 0
M  V30 6405 N 603.065 -0.440357 1.51323 0
M  V30 6406 C 604.311 -1.19181 1.64085 0
M  V30 6407 C 604.644 -1.90936 0.354575 0
M  V30 6408 O 603.919 -1.8347 -0.645675 0
M  V30 6409 C 604.202 -2.2112 2.84215 0
M  V30 6410 C 604.055 -1.53468 4.22809 0
M  V30 6411 C 605.374 -3.22133 2.99864 0
M  V30 6412 H 602.493 -0.431924 0.597169 0
M  V30 6413 H 605.135 -0.481443 1.83799 0
M  V30 6414 H 603.285 -2.81703 2.67537 0
M  V30 6415 H 604.957 -0.962455 4.51148 0
M  V30 6416 H 603.2 -0.837086 4.25647 0
M  V30 6417 H 603.871 -2.27694 5.02852 0
M  V30 6418 H 606.347 -2.71601 3.15233 0
M  V30 6419 H 605.223 -3.90756 3.85488 0
M  V30 6420 H 605.484 -3.88061 2.11804 0
M  V30 6421 N 604.543 -1.41418 -0.695603 0
M  V30 6422 C 605.82 -1.31264 -1.45014 0
M  V30 6423 C 606.2 0.0597994 -2.11015 0
M  V30 6424 O 605.548 1.07403 -2.01685 0
M  V30 6425 C 605.758 -2.466 -2.4696 0
M  V30 6426 C 607.106 -2.87763 -3.12214 0
M  V30 6427 O 608.13 -2.46339 -2.57285 0
M  V30 6428 O 606.989 -3.59395 -4.11701 0
M  V30 6429 H 604.083 -0.516576 -0.645816 0
M  V30 6430 H 606.629 -1.53382 -0.726084 0
M  V30 6431 H 605.401 -3.38183 -1.96845 0
M  V30 6432 H 605.024 -2.26358 -3.26876 0
M  V30 6433 N 606.021 0.929856 -1.27246 0
M  V30 6434 C 607.251 1.70895 -1.16096 0
M  V30 6435 C 607.659 1.87039 0.285122 0
M  V30 6436 O 607.002 1.38557 1.20614 0
M  V30 6437 C 607.064 3.12919 -1.7698 0
M  V30 6438 C 606.728 3.2012 -3.26148 0
M  V30 6439 C 607.725 3.02533 -4.22812 0
M  V30 6440 C 605.41 3.43148 -3.66817 0
M  V30 6441 C 607.404 3.07861 -5.58122 0
M  V30 6442 C 605.091 3.48109 -5.02258 0
M  V30 6443 C 606.089 3.30483 -5.97721 0
M  V30 6444 O 605.777 3.35175 -7.30694 0
M  V30 6445 H 605.509 0.54152 -0.404639 0
M  V30 6446 H 608.063 1.17342 -1.68582 0
M  V30 6447 H 606.293 3.67945 -1.18969 0
M  V30 6448 H 607.982 3.72787 -1.60576 0
M  V30 6449 H 608.748 2.84586 -3.92728 0
M  V30 6450 H 604.627 3.55918 -2.9299 0
M  V30 6451 H 608.171 2.94021 -6.32612 0
M  V30 6452 H 604.068 3.65579 -5.31998 0
M  V30 6453 H 604.836 3.51644 -7.39114 0
M  V30 6454 N 607.499 1.09233 1.13605 0
M  V30 6455 C 608.746 0.827159 1.84836 0
M  V30 6456 C 609.074 -0.647199 1.83416 0
M  V30 6457 O 608.329 -1.49228 1.26608 0
M  V30 6458 C 608.628 1.305 3.32723 0
M  V30 6459 C 608.294 2.78864 3.54325 0
M  V30 6460 C 606.956 3.19382 3.59928 0
M  V30 6461 C 609.308 3.74532 3.62457 0
M  V30 6462 C 606.636 4.54346 3.71196 0
M  V30 6463 C 608.988 5.09283 3.75252 0
M  V30 6464 C 607.652 5.49394 3.79108 0
M  V30 6465 H 606.922 0.302679 0.676363 0
M  V30 6466 H 609.569 1.36676 1.34134 0
M  V30 6467 H 607.874 0.68517 3.85762 0
M  V30 6468 H 609.571 1.07648 3.86281 0
M  V30 6469 H 606.161 2.46507 3.50617 0
M  V30 6470 H 610.345 3.44343 3.57409 0
M  V30 6471 H 605.601 4.84864 3.72447 0
M  V30 6472 H 609.775 5.83269 3.80487 0
M  V30 6473 H 607.402 6.5397 3.87591 0
M  V30 6474 N 608.977 -1.30795 0.87923 0
M  V30 6475 C 609.924 -2.28282 0.339968 0
M  V30 6476 C 610.894 -1.56134 -0.566685 0
M  V30 6477 O 612.079 -1.84231 -0.496338 0
M  V30 6478 C 609.219 -3.42225 -0.444501 0
M  V30 6479 C 608.332 -4.29204 0.490717 0
M  V30 6480 C 607.467 -5.30302 -0.308784 0
M  V30 6481 C 606.506 -6.08929 0.622272 0
M  V30 6482 N 605.643 -7.01957 -0.14155 0
M  V30 6483 H 610.483 -2.73794 1.17647 0
M  V30 6484 H 608.02 -1.34682 0.591527 0
M  V30 6485 H 609.978 -4.07038 -0.915186 0
M  V30 6486 H 608.608 -2.97799 -1.24562 0
M  V30 6487 H 607.66 -3.6475 1.07988 0
M  V30 6488 H 608.972 -4.84045 1.20425 0
M  V30 6489 H 608.126 -6.00835 -0.841575 0
M  V30 6490 H 606.865 -4.7614 -1.05556 0
M  V30 6491 H 605.87 -5.37278 1.16674 0
M  V30 6492 H 607.095 -6.65178 1.36804 0
M  V30 6493 H 605.041 -6.50192 -0.870966 0
M  V30 6494 H 604.958 -7.54261 0.51246 0
M  V30 6495 H 606.226 -7.76741 -0.655271 0
M  V30 6496 N 610.455 -0.639598 -1.44038 0
M  V30 6497 C 611.387 0.0987684 -2.28987 0
M  V30 6498 C 612.4 0.80058 -1.41755 0
M  V30 6499 O 613.589 0.660611 -1.65826 0
M  V30 6500 C 610.689 1.16242 -3.18341 0
M  V30 6501 C 609.862 0.541447 -4.34036 0
M  V30 6502 C 608.921 1.50017 -5.04362 0
M  V30 6503 O 607.947 1.01403 -5.60095 0
M  V30 6504 N 609.149 2.83441 -5.06598 0
M  V30 6505 H 611.914 -0.630305 -2.92997 0
M  V30 6506 H 609.475 -0.481376 -1.54578 0
M  V30 6507 H 611.467 1.80429 -3.62253 0
M  V30 6508 H 610.037 1.79362 -2.56024 0
M  V30 6509 H 609.257 -0.27923 -3.9321 0
M  V30 6510 H 610.545 0.107379 -5.08687 0
M  V30 6511 H 609.943 3.2551 -4.62666 0
M  V30 6512 H 608.5 3.42966 -5.54272 0
M  V30 6513 N 611.933 1.52934 -0.380664 0
M  V30 6514 C 612.896 2.24809 0.446473 0
M  V30 6515 C 613.896 1.26133 0.997347 0
M  V30 6516 O 615.086 1.50297 0.880714 0
M  V30 6517 C 612.218 2.99649 1.62553 0
M  V30 6518 H 613.411 2.99343 -0.182677 0
M  V30 6519 H 610.964 1.55736 -0.132618 0
M  V30 6520 H 611.699 2.29395 2.29235 0
M  V30 6521 H 611.484 3.72066 1.23732 0
M  V30 6522 H 612.974 3.54246 2.21133 0
M  V30 6523 N 613.412 0.11024 1.57214 0
M  V30 6524 C 614.322 -0.857077 2.18383 0
M  V30 6525 C 615.338 -1.29915 1.1575 0
M  V30 6526 O 616.514 -1.36394 1.48184 0
M  V30 6527 C 613.579 -2.09264 2.76423 0
M  V30 6528 C 612.64 -1.70333 3.94063 0
M  V30 6529 C 611.873 -2.87999 4.49324 0
M  V30 6530 O 612.096 -4.0317 4.03497 0
M  V30 6531 O 611.03 -2.6559 5.40135 0
M  V30 6532 H 614.856 -0.366561 3.0148 0
M  V30 6533 H 612.441 -0.114914 1.48957 0
M  V30 6534 H 614.323 -2.81644 3.13456 0
M  V30 6535 H 612.998 -2.57339 1.96363 0
M  V30 6536 H 611.905 -0.950864 3.61814 0
M  V30 6537 H 613.238 -1.27007 4.75531 0
M  V30 6538 N 614.89 -1.56749 -0.16351 0
M  V30 6539 C 616.138 -1.82074 -0.87713 0
M  V30 6540 C 616.459 -0.688503 -1.82441 0
M  V30 6541 O 615.729 0.291085 -1.93725 0
M  V30 6542 H 614.309 -0.671677 -0.326893 0
M  V30 6543 H 616.971 -1.9423 -0.161459 0
M  V30 6544 H 616.067 -2.76407 -1.44934 0
M  V30 6545 N 616.368 0.432326 -1.51554 0
M  V30 6546 C 617.645 1.19288 -1.55015 0
M  V30 6547 C 618.025 2.08701 -0.317375 0
M  V30 6548 O 617.373 2.17602 0.697243 0
M  V30 6549 C 617.583 1.99037 -2.86679 0
M  V30 6550 C 618.931 2.55907 -3.38817 0
M  V30 6551 O 619.955 2.09243 -2.88263 0
M  V30 6552 O 618.814 3.41029 -4.27038 0
M  V30 6553 H 615.908 0.543369 -0.623441 0
M  V30 6554 H 618.454 0.440988 -1.6387 0
M  V30 6555 H 617.226 1.33397 -3.6786 0
M  V30 6556 H 616.849 2.81281 -2.8101 0
M  V30 6557 N 617.846 1.41785 0.688094 0
M  V30 6558 C 619.093 1.41544 1.44816 0
M  V30 6559 C 619.421 0.0271746 1.94481 0
M  V30 6560 O 618.676 -0.962235 1.7041 0
M  V30 6561 C 618.975 2.37532 2.67046 0
M  V30 6562 C 618.641 3.84209 2.35996 0
M  V30 6563 C 617.303 4.24165 2.27239 0
M  V30 6564 C 619.655 4.76785 2.10536 0
M  V30 6565 C 616.983 5.54695 1.91128 0
M  V30 6566 C 619.335 6.07644 1.75931 0
M  V30 6567 C 617.999 6.46613 1.65675 0
M  V30 6568 H 617.269 0.517945 0.529919 0
M  V30 6569 H 619.916 1.74635 0.785797 0
M  V30 6570 H 618.221 1.9772 3.38251 0
M  V30 6571 H 619.918 2.34615 3.25203 0
M  V30 6572 H 616.508 3.52567 2.4371 0
M  V30 6573 H 620.692 4.46714 2.16242 0
M  V30 6574 H 615.948 5.83762 1.81746 0
M  V30 6575 H 620.122 6.78874 1.55252 0
M  V30 6576 H 617.749 7.47668 1.37463 0
M  V30 6577 N 619.324 -0.923095 1.27737 0
M  V30 6578 C 620.571 -1.67127 1.14345 0
M  V30 6579 C 620.899 -1.92017 -0.30982 0
M  V30 6580 O 620.154 -1.51185 -1.24264 0
M  V30 6581 C 620.453 -3.04125 1.8773 0
M  V30 6582 C 620.119 -2.98929 3.37568 0
M  V30 6583 C 618.781 -2.9722 3.78436 0
M  V30 6584 C 621.133 -2.89875 4.33154 0
M  V30 6585 C 618.461 -2.84244 5.13247 0
M  V30 6586 C 620.813 -2.7844 5.68026 0
M  V30 6587 C 619.477 -2.75083 6.08182 0
M  V30 6588 H 618.747 -0.611562 0.418417 0
M  V30 6589 H 621.394 -1.07618 1.584 0
M  V30 6590 H 619.699 -3.67366 1.36196 0
M  V30 6591 H 621.396 -3.609 1.74792 0
M  V30 6592 H 617.986 -3.0105 3.05069 0
M  V30 6593 H 622.17 -2.9029 4.02548 0
M  V30 6594 H 617.426 -2.80034 5.43499 0
M  V30 6595 H 621.6 -2.70401 6.4176 0
M  V30 6596 H 619.227 -2.64786 7.12596 0
M  V30 6597 N 620.802 -1.09834 -1.13024 0
M  V30 6598 C 622.048 -0.83819 -1.84668 0
M  V30 6599 C 622.381 0.634645 -1.83537 0
M  V30 6600 O 621.656 1.46753 -1.27647 0
M  V30 6601 C 621.939 -1.37933 -3.32636 0
M  V30 6602 C 621.792 -2.91857 -3.42257 0
M  V30 6603 C 623.111 -1.01654 -4.28199 0
M  V30 6604 H 620.23 -0.30595 -0.670495 0
M  V30 6605 H 622.872 -1.36044 -1.32635 0
M  V30 6606 H 621.022 -0.935111 -3.77078 0
M  V30 6607 H 622.694 -3.44759 -3.06495 0
M  V30 6608 H 620.937 -3.28776 -2.83 0
M  V30 6609 H 621.608 -3.24799 -4.46329 0
M  V30 6610 H 624.084 -1.39973 -3.9185 0
M  V30 6611 H 622.96 -1.42217 -5.30156 0
M  V30 6612 H 623.221 0.0747794 -4.42037 0
M  V30 6613 N 622.28 1.30327 -0.886154 0
M  V30 6614 C 623.52 1.97886 -0.511912 0
M  V30 6615 C 623.884 1.68417 0.921944 0
M  V30 6616 O 625.085 2.29319 1.40237 0
M  V30 6617 C 623.356 3.48775 -0.780444 0
M  V30 6618 S 624.915 4.35844 -0.508482 0
M  V30 6619 H 621.733 0.685024 -0.190428 0
M  V30 6620 H 624.335 1.58413 -1.14567 0
M  V30 6621 H 623.039 3.67714 -1.82248 0
M  V30 6622 H 622.57 3.93171 -0.134284 0
M  V30 6623 H 624.585 4.91893 0.65239 0
M  V30 6624 N 623.758 0.647228 1.43697 0
M  V30 6625 C 624.986 0.16575 2.06235 0
M  V30 6626 C 625.401 -1.1662 1.48476 0
M  V30 6627 O 624.758 -1.7187 0.613762 0
M  V30 6628 C 624.809 0.0621651 3.61447 0
M  V30 6629 O 624.53 1.34146 4.17057 0
M  V30 6630 C 626.031 -0.446102 4.4105 0
M  V30 6631 H 623.251 0.0871158 0.665321 0
M  V30 6632 H 625.795 0.886183 1.84301 0
M  V30 6633 H 623.95 -0.608794 3.82587 0
M  V30 6634 H 624.364 1.19675 5.10664 0
M  V30 6635 H 625.838 -0.46755 5.50016 0
M  V30 6636 H 626.315 -1.47627 4.13646 0
M  V30 6637 H 626.921 0.192159 4.24866 0
M  V30 6638 N 625.236 -1.5273 0.388769 0
M  V30 6639 C 626.647 -1.86505 -0.0853788 0
M  V30 6640 C 626.998 -1.30847 -1.46197 0
M  V30 6641 O 626.123 -0.639609 -2.06732 0
M  V30 6642 C 626.718 -3.38414 -0.161703 0
M  V30 6643 C 625.277 -3.71902 -0.580144 0
M  V30 6644 C 624.424 -2.76095 0.258218 0
M  V30 6645 H 627.375 -1.46647 0.606665 0
M  V30 6646 H 627.396 -3.67638 -0.980936 0
M  V30 6647 H 626.908 -3.78893 0.840333 0
M  V30 6648 H 625.009 -3.36992 -1.58957 0
M  V30 6649 H 625.122 -4.77902 -0.338663 0
M  V30 6650 H 623.486 -2.53195 -0.276432 0
M  V30 6651 H 624.269 -3.19411 1.25822 0
M  V30 6652 N 626.714 -0.118576 -1.57153 0
M  V30 6653 C 627.624 0.845484 -2.18835 0
M  V30 6654 C 628.64 1.29299 -1.16438 0
M  V30 6655 O 629.816 1.35607 -1.48905 0
M  V30 6656 C 626.881 2.07795 -2.77529 0
M  V30 6657 C 625.942 1.6824 -3.9496 0
M  V30 6658 C 625.175 2.85612 -4.50845 0
M  V30 6659 O 625.398 4.01025 -4.05629 0
M  V30 6660 O 624.332 2.62721 -5.41536 0
M  V30 6661 H 628.158 0.350568 -3.0167 0
M  V30 6662 H 625.743 0.107013 -1.49016 0
M  V30 6663 H 627.625 2.79978 -3.14945 0
M  V30 6664 H 626.3 2.56294 -1.97725 0
M  V30 6665 H 625.207 0.931663 -3.62313 0
M  V30 6666 H 626.54 1.24484 -4.76198 0
M  V30 6667 N 628.193 1.56834 0.155195 0
M  V30 6668 C 629.103 2.009 1.21146 0
M  V30 6669 C 630.119 0.923029 1.475 0
M  V30 6670 O 631.295 1.23189 1.59331 0
M  V30 6671 C 628.36 2.37378 2.52691 0
M  V30 6672 C 627.421 3.59883 2.34057 0
M  V30 6673 C 626.654 3.94612 3.59329 0
M  V30 6674 O 626.877 3.30104 4.65175 0
M  V30 6675 O 625.811 4.87895 3.52479 0
M  V30 6676 H 629.637 2.9105 0.867371 0
M  V30 6677 H 627.222 1.44916 0.363298 0
M  V30 6678 H 629.104 2.61737 3.3026 0
M  V30 6679 H 627.779 1.50385 2.86646 0
M  V30 6680 H 626.686 3.40722 1.54465 0
M  V30 6681 H 628.019 4.47468 2.0502 0
M  V30 6682 N 629.671 -0.424282 1.51781 0
M  V30 6683 C 630.919 -1.17028 1.64769 0
M  V30 6684 C 631.24 -1.91409 0.372523 0
M  V30 6685 O 630.51 -1.86091 -0.612108 0
M  V30 6686 H 629.09 -0.434992 0.607282 0
M  V30 6687 H 631.752 -0.485169 1.88765 0
M  V30 6688 H 630.848 -1.8927 2.4816 0
M  V30 6689 N 631.149 -1.42148 -0.680565 0
M  V30 6690 C 632.374 -1.45901 -1.47403 0
M  V30 6691 C 632.799 -0.0700985 -1.87969 0
M  V30 6692 O 632.157 0.930145 -1.55621 0
M  V30 6693 C 632.205 -2.38661 -2.70321 0
M  V30 6694 O 631.309 -1.85399 -3.68376 0
M  V30 6695 H 630.65 -0.494565 -0.443059 0
M  V30 6696 H 633.18 -1.86774 -0.835251 0
M  V30 6697 H 633.19 -2.55046 -3.18458 0
M  V30 6698 H 631.865 -3.39571 -2.40134 0
M  V30 6699 H 630.442 -1.78541 -3.2738 0
M  V30 6700 N 632.627 0.916307 -1.28225 0
M  V30 6701 C 633.574 2.01841 -1.11932 0
M  V30 6702 C 634.544 1.66091 -0.0171604 0
M  V30 6703 O 635.729 1.89934 -0.181617 0
M  V30 6704 C 632.869 3.36065 -0.784504 0
M  V30 6705 C 631.982 3.847 -1.96544 0
M  V30 6706 C 631.117 5.07423 -1.57149 0
M  V30 6707 C 630.156 5.48384 -2.71922 0
M  V30 6708 N 629.293 6.62298 -2.33037 0
M  V30 6709 H 634.133 2.1511 -2.06232 0
M  V30 6710 H 631.67 1.05366 -1.02647 0
M  V30 6711 H 633.628 4.13272 -0.571148 0
M  V30 6712 H 632.258 3.22571 0.121565 0
M  V30 6713 H 631.31 3.03673 -2.291 0
M  V30 6714 H 632.622 4.1102 -2.82603 0
M  V30 6715 H 631.776 5.92165 -1.32004 0
M  V30 6716 H 630.515 4.82906 -0.682153 0
M  V30 6717 H 629.52 4.62184 -2.97768 0
M  V30 6718 H 630.745 5.7489 -3.61494 0
M  V30 6719 H 628.691 6.39416 -1.4657 0
M  V30 6720 H 628.608 6.8833 -3.12631 0
M  V30 6721 H 629.876 7.50352 -2.11169 0
M  V30 6722 N 634.105 1.10431 1.1244 0
M  V30 6723 C 635.068 0.756542 2.16354 0
M  V30 6724 C 636.068 -0.21899 1.59302 0
M  V30 6725 O 637.258 0.00415969 1.742 0
M  V30 6726 C 634.39 0.120612 3.40687 0
M  V30 6727 H 635.583 1.67696 2.48632 0
M  V30 6728 H 633.136 0.904832 1.27446 0
M  V30 6729 H 633.871 -0.810536 3.14008 0
M  V30 6730 H 633.656 0.822693 3.83372 0
M  V30 6731 H 635.146 -0.106945 4.17463 0
M  V30 6732 N 635.583 -1.29855 0.893053 0
M  V30 6733 C 636.83 -1.95826 0.515585 0
M  V30 6734 C 637.158 -1.70451 -0.936842 0
M  V30 6735 O 636.413 -1.00657 -1.67829 0
M  V30 6736 C 636.712 -3.49515 0.746588 0
M  V30 6737 C 636.378 -3.94955 2.17535 0
M  V30 6738 C 635.04 -4.07073 2.56603 0
M  V30 6739 C 637.392 -4.18536 3.10607 0
M  V30 6740 C 634.72 -4.40138 3.87938 0
M  V30 6741 C 637.072 -4.53073 4.41484 0
M  V30 6742 C 635.736 -4.634 4.80434 0
M  V30 6743 H 635.006 -0.71658 0.188666 0
M  V30 6744 H 637.653 -1.54574 1.13045 0
M  V30 6745 H 635.958 -3.9177 0.0487551 0
M  V30 6746 H 637.655 -3.98644 0.434009 0
M  V30 6747 H 634.245 -3.86035 1.86212 0
M  V30 6748 H 638.429 -4.08646 2.81641 0
M  V30 6749 H 633.685 -4.46335 4.17846 0
M  V30 6750 H 637.859 -4.70269 5.13634 0
M  V30 6751 H 635.486 -4.88775 5.82239 0
M  V30 6752 N 637.061 -0.65484 -1.43351 0
M  V30 6753 C 637.991 0.0221809 -2.33489 0
M  V30 6754 C 638.972 0.810272 -1.49561 0
M  V30 6755 O 640.157 0.771426 -1.78221 0
M  V30 6756 C 637.287 0.988117 -3.32947 0
M  V30 6757 C 636.241 0.310026 -4.26876 0
M  V30 6758 C 635.567 1.38752 -5.16384 0
M  V30 6759 C 636.867 -0.798589 -5.16159 0
M  V30 6760 H 638.561 -0.730571 -2.9035 0
M  V30 6761 H 636.107 -0.352773 -1.39612 0
M  V30 6762 H 638.06 1.47067 -3.94904 0
M  V30 6763 H 636.784 1.77205 -2.74346 0
M  V30 6764 H 635.443 -0.152097 -3.66284 0
M  V30 6765 H 635.091 2.16293 -4.54121 0
M  V30 6766 H 634.791 0.939051 -5.80048 0
M  V30 6767 H 636.315 1.87141 -5.81215 0
M  V30 6768 H 637.729 -0.398126 -5.71916 0
M  V30 6769 H 636.126 -1.17163 -5.88552 0
M  V30 6770 H 637.196 -1.65588 -4.55751 0
M  V30 6771 N 638.539 1.52521 -0.396863 0
M  V30 6772 C 639.489 2.2348 0.451722 0
M  V30 6773 C 640.473 1.2415 1.0235 0
M  V30 6774 O 641.665 1.4945 0.948348 0
M  V30 6775 C 638.794 3.05067 1.57445 0
M  V30 6776 C 637.88 4.11799 1.01404 0
M  V30 6777 N 638.271 5.05482 0.179234 0
M  V30 6778 C 636.569 4.27064 1.28578 0
M  V30 6779 C 637.27 5.81552 -0.131202 0
M  V30 6780 N 636.246 5.41523 0.474735 0
M  V30 6781 H 640.048 2.93269 -0.192534 0
M  V30 6782 H 637.562 1.61081 -0.206591 0
M  V30 6783 H 639.559 3.54446 2.19485 0
M  V30 6784 H 638.219 2.36816 2.22145 0
M  V30 6785 H 639.23 5.17573 -0.18411 0
M  V30 6786 H 635.907 3.70042 1.93327 0
M  V30 6787 H 637.297 6.67023 -0.808061 0
M  V30 6788 N 640.017 0.126909 1.57088 0
M  V30 6789 C 641.433 -0.229641 1.57939 0
M  V30 6790 C 641.633 -1.66145 1.1401 0
M  V30 6791 O 640.689 -2.3843 0.831119 0
M  V30 6792 C 642.002 0.0108648 3.00698 0
M  V30 6793 C 643.55 -0.054418 3.12953 0
M  V30 6794 C 644.025 0.158497 4.57726 0
M  V30 6795 N 645.516 0.104735 4.63082 0
M  V30 6796 C 646.251 0.24427 5.72879 0
M  V30 6797 N 645.747 0.440415 6.91399 0
M  V30 6798 N 647.54 0.183286 5.61801 0
M  V30 6799 H 639.691 1.06203 1.83942 0
M  V30 6800 H 641.954 0.418834 0.85046 0
M  V30 6801 H 641.66 1.00102 3.37154 0
M  V30 6802 H 641.534 -0.717512 3.70313 0
M  V30 6803 H 643.921 -1.0351 2.7635 0
M  V30 6804 H 644.002 0.705967 2.45865 0
M  V30 6805 H 643.646 1.13619 4.95028 0
M  V30 6806 H 643.576 -0.62197 5.22914 0
M  V30 6807 H 646.067 -0.0430298 3.77876 0
M  V30 6808 H 646.38 0.537536 7.70928 0
M  V30 6809 H 644.725 0.476488 6.93365 0
M  V30 6810 H 647.916 0.0309561 4.6809 0
M  V30 6811 H 648.089 0.295471 6.47326 0
M  V30 6812 N 641.495 -1.56914 -0.146875 0
M  V30 6813 C 642.742 -1.83356 -0.859467 0
M  V30 6814 C 643.07 -0.707811 -1.81164 0
M  V30 6815 O 642.325 0.303155 -1.93338 0
M  V30 6816 C 642.624 -3.16128 -1.66727 0
M  V30 6817 C 642.29 -4.42586 -0.861881 0
M  V30 6818 C 640.952 -4.76929 -0.639687 0
M  V30 6819 C 643.304 -5.20344 -0.298643 0
M  V30 6820 C 640.632 -5.86491 0.156451 0
M  V30 6821 C 642.984 -6.30742 0.484536 0
M  V30 6822 C 641.648 -6.63635 0.717306 0
M  V30 6823 H 640.918 -0.670947 -0.314501 0
M  V30 6824 H 643.565 -1.91104 -0.123108 0
M  V30 6825 H 641.87 -3.03831 -2.47374 0
M  V30 6826 H 643.567 -3.33802 -2.2221 0
M  V30 6827 H 640.157 -4.15662 -1.04513 0
M  V30 6828 H 644.341 -4.94186 -0.457585 0
M  V30 6829 H 639.597 -6.10419 0.346292 0
M  V30 6830 H 643.771 -6.90188 0.928105 0
M  V30 6831 H 641.398 -7.48367 1.33607 0
M  V30 6832 N 642.974 0.416227 -1.52004 0
M  V30 6833 C 643.937 1.48926 -1.74223 0
M  V30 6834 C 644.937 1.48693 -0.612119 0
M  V30 6835 O 646.127 1.50343 -0.879921 0
M  V30 6836 C 643.259 2.88372 -1.81809 0
M  V30 6837 H 644.452 1.3052 -2.70008 0
M  V30 6838 H 642.005 0.646271 -1.42313 0
M  V30 6839 H 642.74 3.12157 -0.879135 0
M  V30 6840 H 642.525 2.89944 -2.6396 0
M  V30 6841 H 644.015 3.66173 -2.00766 0
M  V30 6842 N 644.452 1.42507 0.673017 0
M  V30 6843 C 645.415 1.4582 1.76831 0
M  V30 6844 C 646.415 0.345542 1.57043 0
M  V30 6845 O 647.605 0.606447 1.63303 0
M  V30 6846 C 644.737 1.29158 3.15485 0
M  V30 6847 H 645.93 2.43345 1.7528 0
M  V30 6848 H 643.483 1.28981 0.882817 0
M  V30 6849 H 644.218 0.325626 3.22661 0
M  V30 6850 H 644.003 2.09797 3.31252 0
M  V30 6851 H 645.493 1.34363 3.95394 0
M  V30 6852 N 645.93 -0.909495 1.28709 0
M  V30 6853 C 646.893 -1.99399 1.13016 0
M  V30 6854 C 647.893 -1.60654 0.068536 0
M  V30 6855 O 649.083 -1.71334 0.314671 0
M  V30 6856 C 646.215 -3.33078 0.726085 0
M  V30 6857 H 647.408 -2.14751 2.09338 0
M  V30 6858 H 644.961 -1.09272 1.11756 0
M  V30 6859 H 645.696 -3.23428 -0.23771 0
M  V30 6860 H 645.481 -3.62562 1.49302 0
M  V30 6861 H 646.971 -4.12681 0.639058 0
M  V30 6862 N 647.408 -1.11026 -1.11852 0
M  V30 6863 C 648.656 -0.854769 -1.83134 0
M  V30 6864 C 648.977 0.621375 -1.84835 0
M  V30 6865 O 648.247 1.45129 -1.31584 0
M  V30 6866 H 646.827 -0.313229 -0.678157 0
M  V30 6867 H 649.489 -1.40178 -1.35411 0
M  V30 6868 H 648.585 -1.22311 -2.87135 0
M  V30 6869 N 648.886 1.2938 -0.899927 0
M  V30 6870 C 649.849 2.25983 -0.382677 0
M  V30 6871 C 650.849 1.53366 0.483259 0
M  V30 6872 O 652.039 1.71798 0.28828 0
M  V30 6873 C 649.171 3.37878 0.452915 0
M  V30 6874 H 650.364 2.73252 -1.23586 0
M  V30 6875 H 647.917 1.40825 -0.678088 0
M  V30 6876 H 648.652 2.95949 1.32608 0
M  V30 6877 H 648.437 3.91742 -0.167562 0
M  V30 6878 H 649.927 4.09746 0.806107 0
M  V30 6879 N 650.364 0.662433 1.43002 0
M  V30 6880 C 651.327 -0.0142016 2.29196 0
M  V30 6881 C 652.327 -0.741394 1.42688 0
M  V30 6882 O 653.517 -0.581257 1.64216 0
M  V30 6883 C 650.649 -1.03084 3.24941 0
M  V30 6884 H 651.842 0.7443 2.90517 0
M  V30 6885 H 649.395 0.424133 1.50435 0
M  V30 6886 H 650.13 -1.81826 2.68533 0
M  V30 6887 H 649.915 -0.512946 3.8873 0
M  V30 6888 H 651.405 -1.50308 3.89612 0
M  V30 6889 N 651.842 -1.52309 0.404946 0
M  V30 6890 C 653.091 -2.00952 -0.173529 0
M  V30 6891 C 653.404 -1.29512 -1.46581 0
M  V30 6892 O 654.61 -1.6895 -2.12528 0
M  V30 6893 C 653.066 -3.58097 -0.359801 0
M  V30 6894 C 652.674 -4.38449 0.920138 0
M  V30 6895 C 654.418 -4.14984 -0.893794 0
M  V30 6896 C 652.325 -5.87227 0.701285 0
M  V30 6897 H 651.255 -0.750871 -0.0686244 0
M  V30 6898 H 653.906 -1.75687 0.529749 0
M  V30 6899 H 652.288 -3.79675 -1.12531 0
M  V30 6900 H 653.462 -4.28633 1.69147 0
M  V30 6901 H 651.777 -3.92859 1.38024 0
M  V30 6902 H 654.374 -5.23813 -1.0735 0
M  V30 6903 H 654.717 -3.72072 -1.8673 0
M  V30 6904 H 655.25 -3.97358 -0.187453 0
M  V30 6905 H 651.989 -6.34491 1.64624 0
M  V30 6906 H 651.509 -5.99792 -0.0308288 0
M  V30 6907 H 653.188 -6.46096 0.341846 0
M  V30 6908 N 653.32 -0.135238 -1.57019 0
M  V30 6909 C 654.736 0.221262 -1.58059 0
M  V30 6910 C 654.936 1.65538 -1.14889 0
M  V30 6911 O 653.992 2.37985 -0.843751 0
M  V30 6912 C 655.305 -0.0268114 -3.00688 0
M  V30 6913 C 656.853 0.0378206 -3.12977 0
M  V30 6914 C 657.328 -0.182769 -4.57635 0
M  V30 6915 N 658.819 -0.129292 -4.6302 0
M  V30 6916 C 659.554 -0.274648 -5.72742 0
M  V30 6917 N 659.05 -0.477075 -6.91155 0
M  V30 6918 N 660.843 -0.213077 -5.61696 0
M  V30 6919 H 652.994 -1.07177 -1.83376 0
M  V30 6920 H 655.257 -0.423338 -0.848227 0
M  V30 6921 H 654.963 -1.01889 -3.36618 0
M  V30 6922 H 654.837 0.697863 -3.70688 0
M  V30 6923 H 657.224 1.02043 -2.76896 0
M  V30 6924 H 657.305 -0.718996 -2.45487 0
M  V30 6925 H 656.949 -1.16243 -4.94419 0
M  V30 6926 H 656.879 0.59423 -5.23237 0
M  V30 6927 H 659.37 0.0229896 -3.77893 0
M  V30 6928 H 659.683 -0.578413 -7.70632 0
M  V30 6929 H 658.028 -0.513252 -6.93102 0
M  V30 6930 H 661.219 -0.0557796 -4.68067 0
M  V30 6931 H 661.392 -0.329796 -6.4716 0
M  V30 6932 N 654.798 1.5699 0.138552 0
M  V30 6933 C 656.028 1.87704 0.863184 0
M  V30 6934 C 656.436 0.722411 1.74865 0
M  V30 6935 O 655.779 -0.316636 1.80951 0
M  V30 6936 C 655.841 3.13219 1.76449 0
M  V30 6937 C 655.505 4.44648 1.05532 0
M  V30 6938 C 656.502 5.18318 0.405252 0
M  V30 6939 C 654.187 4.91367 1.04231 0
M  V30 6940 C 656.181 6.36916 -0.24835 0
M  V30 6941 C 653.868 6.09887 0.384904 0
M  V30 6942 C 654.866 6.82508 -0.259292 0
M  V30 6943 O 654.554 7.98775 -0.906258 0
M  V30 6944 H 654.286 0.626255 0.254521 0
M  V30 6945 H 656.84 2.04966 0.133472 0
M  V30 6946 H 655.07 2.91988 2.53535 0
M  V30 6947 H 656.759 3.30111 2.36181 0
M  V30 6948 H 657.525 4.83289 0.407053 0
M  V30 6949 H 653.404 4.34759 1.53315 0
M  V30 6950 H 656.948 6.93538 -0.751755 0
M  V30 6951 H 652.845 6.44376 0.380799 0
M  V30 6952 H 653.613 8.14494 -0.80877 0
M  V30 6953 N 656.276 -0.40816 1.52223 0
M  V30 6954 C 657.208 -1.51642 1.71864 0
M  V30 6955 C 658.221 -1.51378 0.599056 0
M  V30 6956 O 659.41 -1.55626 0.874239 0
M  V30 6957 C 656.51 -2.90534 1.74481 0
M  V30 6958 C 655.683 -3.14979 3.03491 0
M  V30 6959 C 654.742 -4.33749 2.97907 0
M  V30 6960 O 653.768 -4.30982 3.71811 0
M  V30 6961 N 654.97 -5.38912 2.15764 0
M  V30 6962 H 657.735 -1.35188 2.67478 0
M  V30 6963 H 655.296 -0.597468 1.50472 0
M  V30 6964 H 657.288 -3.68056 1.68275 0
M  V30 6965 H 655.858 -3.00441 0.863363 0
M  V30 6966 H 655.078 -2.25492 3.23337 0
M  V30 6967 H 656.366 -3.28156 3.88833 0
M  V30 6968 H 655.764 -5.44008 1.55152 0
M  V30 6969 H 654.321 -6.15174 2.15415 0
M  V30 6970 N 657.755 -1.42862 -0.66545 0
M  V30 6971 C 658.718 -1.46756 -1.76055 0
M  V30 6972 C 659.718 -0.353866 -1.56858 0
M  V30 6973 O 660.908 -0.615099 -1.62979 0
M  V30 6974 C 658.04 -1.30829 -3.14796 0
M  V30 6975 H 659.233 -2.44271 -1.73987 0
M  V30 6976 H 656.786 -1.29447 -0.875965 0
M  V30 6977 H 657.521 -0.342733 -3.22484 0
M  V30 6978 H 657.306 -2.11551 -3.30134 0
M  V30 6979 H 658.796 -1.36458 -3.94676 0
M  V30 6980 N 659.233 0.902656 -1.29189 0
M  V30 6981 C 660.479 1.65532 -1.17163 0
M  V30 6982 C 660.812 1.92216 0.276879 0
M  V30 6983 O 660.087 1.53048 1.20027 0
M  V30 6984 C 660.37 3.00629 -1.98228 0
M  V30 6985 C 660.223 2.81029 -3.51202 0
M  V30 6986 C 661.542 4.01321 -1.80635 0
M  V30 6987 H 658.661 0.60071 -0.426985 0
M  V30 6988 H 661.303 1.04578 -1.5863 0
M  V30 6989 H 659.453 3.52656 -1.62991 0
M  V30 6990 H 661.125 2.35927 -3.96404 0
M  V30 6991 H 659.368 2.1587 -3.76275 0
M  V30 6992 H 660.039 3.77014 -4.03192 0
M  V30 6993 H 662.515 3.58394 -2.11406 0
M  V30 6994 H 661.391 4.93792 -2.3971 0
M  V30 6995 H 661.652 4.35505 -0.760754 0
M  V30 6996 N 660.711 1.11618 1.11262 0
M  V30 6997 C 661.661 0.745274 2.15475 0
M  V30 6998 C 662.645 -0.251585 1.58921 0
M  V30 6999 O 663.837 -0.0584093 1.76904 0
M  V30 7000 C 660.966 0.192128 3.42762 0
M  V30 7001 C 660.052 1.21676 4.0627 0
M  V30 7002 N 660.443 2.41158 4.44608 0
M  V30 7003 C 658.741 1.06013 4.33217 0
M  V30 7004 C 659.442 3.0652 4.94389 0
M  V30 7005 N 658.418 2.33994 4.9066 0
M  V30 7006 H 662.22 1.65462 2.42898 0
M  V30 7007 H 659.734 0.995695 1.28295 0
M  V30 7008 H 661.731 -0.0917339 4.16799 0
M  V30 7009 H 660.391 -0.711778 3.16802 0
M  V30 7010 H 661.402 2.786 4.3658 0
M  V30 7011 H 658.079 0.212809 4.16957 0
M  V30 7012 H 659.469 4.08225 5.33669 0
M  V30 7013 N 662.189 -1.289 0.906776 0
M  V30 7014 C 663.414 -1.99939 0.551303 0
M  V30 7015 C 663.839 -1.67366 -0.858496 0
M  V30 7016 O 663.197 -0.902176 -1.57259 0
M  V30 7017 C 663.245 -3.52523 0.758937 0
M  V30 7018 O 662.349 -4.11983 -0.185308 0
M  V30 7019 H 661.69 -0.628376 0.214568 0
M  V30 7020 H 664.22 -1.64225 1.2203 0
M  V30 7021 H 664.23 -4.02522 0.666329 0
M  V30 7022 H 662.905 -3.75566 1.78671 0
M  V30 7023 H 661.482 -3.72873 -0.0445577 0
M  V30 7024 N 663.667 -0.670007 -1.42649 0
M  V30 7025 C 664.944 -0.119451 -1.95235 0
M  V30 7026 C 665.324 1.36461 -1.61064 0
M  V30 7027 O 664.672 2.09843 -0.904329 0
M  V30 7028 C 664.882 -0.383498 -3.46887 0
M  V30 7029 C 666.23 -0.297431 -4.23557 0
M  V30 7030 O 667.254 -0.31698 -3.54787 0
M  V30 7031 O 666.113 -0.235507 -5.45992 0
M  V30 7032 H 663.207 -8.85474e-05 -0.827 0
M  V30 7033 H 665.753 -0.744406 -1.52501 0
M  V30 7034 H 664.525 -1.41174 -3.64946 0
M  V30 7035 H 664.148 0.273702 -3.96657 0
M  V30 7036 N 665.145 1.52092 -0.413018 0
M  V30 7037 C 666.055 2.30858 0.417318 0
M  V30 7038 C 667.071 1.38746 1.05003 0
M  V30 7039 O 668.247 1.71821 1.05069 0
M  V30 7040 C 665.312 3.11756 1.51687 0
M  V30 7041 C 664.373 4.19613 0.906825 0
M  V30 7042 C 663.606 4.96644 1.95399 0
M  V30 7043 O 663.829 4.7402 3.17271 0
M  V30 7044 O 662.763 5.81385 1.55805 0
M  V30 7045 H 666.589 3.02865 -0.225028 0
M  V30 7046 H 664.174 1.48358 -0.176126 0
M  V30 7047 H 666.056 3.62122 2.15512 0
M  V30 7048 H 664.731 2.42539 2.14375 0
M  V30 7049 H 663.638 3.73385 0.231183 0
M  V30 7050 H 664.971 4.91134 0.323814 0
M  V30 7051 N 666.623 0.143563 1.56945 0
M  V30 7052 C 667.869 -0.50916 1.96304 0
M  V30 7053 C 668.202 -1.64741 1.0283 0
M  V30 7054 O 667.477 -1.94374 0.0700361 0
M  V30 7055 C 667.76 -1.0186 3.45393 0
M  V30 7056 C 667.613 0.117923 4.49645 0
M  V30 7057 C 668.932 -1.90151 3.96901 0
M  V30 7058 H 666.051 -0.183608 0.713763 0
M  V30 7059 H 668.693 0.224095 1.88674 0
M  V30 7060 H 666.843 -1.64345 3.52027 0
M  V30 7061 H 668.515 0.754145 4.55094 0
M  V30 7062 H 666.758 0.777568 4.26774 0
M  V30 7063 H 667.429 -0.280187 5.51288 0
M  V30 7064 H 669.905 -1.375 3.92725 0
M  V30 7065 H 668.781 -2.22707 5.0169 0
M  V30 7066 H 669.042 -2.83718 3.39052 0
M  V30 7067 N 668.101 -1.57061 -0.130224 0
M  V30 7068 C 669.011 -2.02802 -1.17934 0
M  V30 7069 C 670.027 -0.946378 -1.46013 0
M  V30 7070 O 671.203 -1.25708 -1.57351 0
M  V30 7071 C 668.268 -2.41368 -2.48882 0
M  V30 7072 C 667.329 -3.63561 -2.28301 0
M  V30 7073 C 666.562 -4.00279 -3.53005 0
M  V30 7074 O 666.785 -3.37463 -4.59864 0
M  V30 7075 O 665.719 -4.93441 -3.44673 0
M  V30 7076 H 669.545 -2.92394 -0.820958 0
M  V30 7077 H 667.13 -1.45475 -0.340197 0
M  V30 7078 H 669.012 -2.66958 -3.26054 0
M  V30 7079 H 667.687 -1.54926 -2.84217 0
M  V30 7080 H 666.594 -3.43136 -1.49025 0
M  V30 7081 H 667.927 -4.50673 -1.97875 0
M  V30 7082 N 669.579 0.400081 -1.52437 0
M  V30 7083 C 670.856 1.15973 -1.57511 0
M  V30 7084 C 671.236 2.0798 -0.361572 0
M  V30 7085 O 670.584 2.19032 0.650929 0
M  V30 7086 C 670.794 1.92912 -2.90837 0
M  V30 7087 C 672.142 2.48662 -3.44169 0
M  V30 7088 O 673.166 2.03081 -2.92637 0
M  V30 7089 O 672.025 3.31894 -4.34176 0
M  V30 7090 H 669.119 0.530023 -0.634827 0
M  V30 7091 H 671.665 0.40613 -1.64769 0
M  V30 7092 H 670.437 1.25564 -3.70607 0
M  V30 7093 H 670.06 2.75257 -2.86913 0
M  V30 7094 N 671.057 1.43213 0.657864 0
M  V30 7095 C 672.306 1.43871 1.41365 0
M  V30 7096 C 672.619 0.064898 1.95492 0
M  V30 7097 O 673.825 -0.0510796 2.71452 0
M  V30 7098 C 672.281 2.53158 2.55811 0
M  V30 7099 C 671.889 3.96624 2.08311 0
M  V30 7100 C 673.633 2.63004 3.3321 0
M  V30 7101 C 671.54 4.97385 3.1994 0
M  V30 7102 H 670.47 0.535174 0.531136 0
M  V30 7103 H 673.121 1.69185 0.710543 0
M  V30 7104 H 671.503 2.21037 3.2857 0
M  V30 7105 H 672.677 4.38182 1.42593 0
M  V30 7106 H 670.992 3.90781 1.43804 0
M  V30 7107 H 673.589 3.3546 4.16378 0
M  V30 7108 H 673.932 1.67918 3.80932 0
M  V30 7109 H 674.465 2.94403 2.67529 0
M  V30 7110 H 671.204 5.94007 2.77192 0
M  V30 7111 H 670.724 4.60444 3.84385 0
M  V30 7112 H 672.403 5.19877 3.85145 0
M  V30 7113 N 672.536 -0.895792 1.29666 0
M  V30 7114 C 673.466 -2.01673 1.17688 0
M  V30 7115 C 674.447 -1.69955 0.0701317 0
M  V30 7116 O 675.632 -1.9258 0.250289 0
M  V30 7117 C 672.762 -3.36568 0.856681 0
M  V30 7118 C 671.716 -3.82509 1.92017 0
M  V30 7119 C 671.042 -5.14574 1.4532 0
M  V30 7120 C 672.342 -4.02409 3.32963 0
M  V30 7121 H 674.036 -2.11953 2.11463 0
M  V30 7122 H 671.582 -1.01839 1.01807 0
M  V30 7123 H 673.535 -4.14498 0.759577 0
M  V30 7124 H 672.259 -3.26391 -0.116763 0
M  V30 7125 H 670.918 -3.068 2.00673 0
M  V30 7126 H 670.566 -5.00815 0.468325 0
M  V30 7127 H 670.266 -5.46283 2.16447 0
M  V30 7128 H 671.79 -5.9504 1.36968 0
M  V30 7129 H 673.204 -4.70808 3.27127 0
M  V30 7130 H 671.601 -4.45478 4.02082 0
M  V30 7131 H 672.671 -3.06616 3.75652 0
M  V30 7132 N 674.014 -1.12206 -1.10668 0
M  V30 7133 C 674.977 -0.790867 -2.15123 0
M  V30 7134 C 675.977 0.193618 -1.5963 0
M  V30 7135 O 677.167 -0.0318728 -1.74171 0
M  V30 7136 C 674.299 -0.174797 -3.40452 0
M  V30 7137 H 675.492 -1.7163 -2.45933 0
M  V30 7138 H 673.045 -0.924993 -1.2599 0
M  V30 7139 H 673.78 0.760478 -3.15257 0
M  V30 7140 H 673.565 -0.88358 -3.82015 0
M  V30 7141 H 675.055 0.0405162 -4.1758 0
M  V30 7142 N 675.492 1.28418 -0.913599 0
M  V30 7143 C 676.422 2.29713 -0.418847 0
M  V30 7144 C 677.403 1.62165 0.513469 0
M  V30 7145 O 678.588 1.89576 0.421235 0
M  V30 7146 C 675.718 3.45612 0.342042 0
M  V30 7147 C 674.672 4.25056 -0.501123 0
M  V30 7148 C 673.998 5.3329 0.388097 0
M  V30 7149 C 675.298 4.91814 -1.75831 0
M  V30 7150 H 676.992 2.71346 -1.26538 0
M  V30 7151 H 674.538 1.30446 -0.609903 0
M  V30 7152 H 676.491 4.15562 0.699 0
M  V30 7153 H 675.215 3.02858 1.22248 0
M  V30 7154 H 673.874 3.56833 -0.840598 0
M  V30 7155 H 673.522 4.8678 1.26707 0
M  V30 7156 H 673.222 5.87347 -0.172459 0
M  V30 7157 H 674.746 6.06088 0.74094 0
M  V30 7158 H 676.16 5.54126 -1.47026 0
M  V30 7159 H 674.557 5.55866 -2.26126 0
M  V30 7160 H 675.627 4.16313 -2.4862 0
M  V30 7161 N 676.97 0.677563 1.42291 0
M  V30 7162 C 678.247 0.129803 1.95169 0
M  V30 7163 C 678.627 -1.35605 1.61786 0
M  V30 7164 O 677.975 -2.09361 0.915444 0
M  V30 7165 C 678.185 0.401889 3.46678 0
M  V30 7166 C 679.533 0.319889 4.23393 0
M  V30 7167 O 680.557 0.33579 3.54614 0
M  V30 7168 O 679.416 0.264459 5.4586 0
M  V30 7169 H 676.51 0.00447433 0.826988 0
M  V30 7170 H 679.056 0.752483 1.52105 0
M  V30 7171 H 677.828 1.43108 3.64192 0
M  V30 7172 H 677.451 -0.252662 3.96796 0
M  V30 7173 N 678.448 -1.51871 0.421078 0
M  V30 7174 C 679.697 -2.01125 -0.152206 0
M  V30 7175 C 680.01 -1.3106 -1.45199 0
M  V30 7176 O 681.216 -1.71195 -2.10724 0
M  V30 7177 C 679.672 -3.58458 -0.3218 0
M  V30 7178 C 679.28 -4.37448 0.96659 0
M  V30 7179 C 681.024 -4.15908 -0.84973 0
M  V30 7180 C 678.931 -5.86451 0.763529 0
M  V30 7181 H 677.861 -0.751556 -0.0606565 0
M  V30 7182 H 680.512 -1.75115 0.548354 0
M  V30 7183 H 678.894 -3.80847 -1.08498 0
M  V30 7184 H 680.068 -4.26814 1.73684 0
M  V30 7185 H 678.383 -3.91373 1.42183 0
M  V30 7186 H 680.98 -5.24922 -1.01788 0
M  V30 7187 H 681.323 -3.74031 -1.82774 0
M  V30 7188 H 681.856 -3.97535 -0.145297 0
M  V30 7189 H 678.595 -6.3271 1.71344 0
M  V30 7190 H 678.115 -5.99791 0.0327889 0
M  V30 7191 H 679.794 -6.45697 0.410354 0
M  V30 7192 N 679.926 -0.151884 -1.56866 0
M  V30 7193 C 680.889 0.771861 -2.15812 0
M  V30 7194 C 681.889 1.17181 -1.10115 0
M  V30 7195 O 683.079 1.09194 -1.35729 0
M  V30 7196 C 680.211 2.04806 -2.7252 0
M  V30 7197 H 681.404 0.259021 -2.98779 0
M  V30 7198 H 678.957 0.097588 -1.55995 0
M  V30 7199 H 679.692 2.60445 -1.93233 0
M  V30 7200 H 679.477 1.77044 -3.49854 0
M  V30 7201 H 680.967 2.70771 -3.1792 0
M  V30 7202 N 681.404 1.57128 0.121893 0
M  V30 7203 C 682.334 2.03165 1.15092 0
M  V30 7204 C 683.315 0.915587 1.43356 0
M  V30 7205 O 684.5 1.1851 1.53847 0
M  V30 7206 C 681.63 2.43352 2.47784 0
M  V30 7207 C 680.584 3.58376 2.33989 0
M  V30 7208 C 679.91 3.84454 3.71617 0
M  V30 7209 C 681.21 4.90199 1.80283 0
M  V30 7210 H 682.904 2.89382 0.768023 0
M  V30 7211 H 680.45 1.39218 0.367998 0
M  V30 7212 H 682.403 2.74163 3.20019 0
M  V30 7213 H 681.127 1.54103 2.87958 0
M  V30 7214 H 679.786 3.2777 1.64202 0
M  V30 7215 H 679.434 2.92414 4.09271 0
M  V30 7216 H 679.134 4.61877 3.6324 0
M  V30 7217 H 680.658 4.17714 4.45362 0
M  V30 7218 H 682.072 5.19565 2.42333 0
M  V30 7219 H 680.469 5.71601 1.82735 0
M  V30 7220 H 681.539 4.78904 0.760184 0
M  V30 7221 N 682.882 -0.391992 1.52647 0
M  V30 7222 C 684.298 -0.731848 1.41831 0
M  V30 7223 C 684.498 -1.9423 0.536361 0
M  V30 7224 O 683.554 -2.52499 0.00866571 0
M  V30 7225 C 684.867 -0.969743 2.84634 0
M  V30 7226 C 686.415 -1.0714 2.94092 0
M  V30 7227 C 686.89 -1.34195 4.37899 0
M  V30 7228 N 688.381 -1.41023 4.41211 0
M  V30 7229 C 689.116 -1.63616 5.49561 0
M  V30 7230 N 688.612 -1.83699 6.68002 0
M  V30 7231 N 690.405 -1.65771 5.371 0
M  V30 7232 H 682.556 0.404547 2.08512 0
M  V30 7233 H 684.819 0.11879 0.940528 0
M  V30 7234 H 684.525 -0.152465 3.51369 0
M  V30 7235 H 684.399 -1.88523 3.26709 0
M  V30 7236 H 686.786 -1.87925 2.27526 0
M  V30 7237 H 686.867 -0.133887 2.55449 0
M  V30 7238 H 686.511 -0.539207 5.0503 0
M  V30 7239 H 686.441 -2.29226 4.74092 0
M  V30 7240 H 688.932 -1.27223 3.55841 0
M  V30 7241 H 689.245 -2.00437 7.46354 0
M  V30 7242 H 687.59 -1.8093 6.71036 0
M  V30 7243 H 690.781 -1.4963 4.43541 0
M  V30 7244 H 690.954 -1.83038 6.21612 0
M  V30 7245 N 684.36 -1.4356 -0.65026 0
M  V30 7246 C 685.776 -1.27025 -0.966269 0
M  V30 7247 C 685.976 -0.192117 -2.00582 0
M  V30 7248 O 685.032 0.428459 -2.48838 0
M  V30 7249 C 686.345 -2.63556 -1.44772 0
M  V30 7250 C 687.893 -2.71111 -1.56421 0
M  V30 7251 C 688.368 -4.08067 -2.07956 0
M  V30 7252 N 689.859 -4.10146 -2.15254 0
M  V30 7253 C 690.594 -5.12952 -2.56258 0
M  V30 7254 N 690.09 -6.26129 -2.96537 0
M  V30 7255 N 691.883 -5.00306 -2.56224 0
M  V30 7256 H 684.034 -2.12367 0.0375758 0
M  V30 7257 H 686.297 -0.946894 -0.0457782 0
M  V30 7258 H 686.003 -3.43429 -0.758271 0
M  V30 7259 H 685.877 -2.89152 -2.42221 0
M  V30 7260 H 688.264 -1.91569 -2.24467 0
M  V30 7261 H 688.345 -2.49277 -0.573967 0
M  V30 7262 H 687.989 -4.88077 -1.40511 0
M  V30 7263 H 687.919 -4.27266 -3.07817 0
M  V30 7264 H 690.41 -3.28453 -1.86887 0
M  V30 7265 H 690.723 -7.00403 -3.26582 0
M  V30 7266 H 689.068 -6.29597 -2.94334 0
M  V30 7267 H 692.259 -4.10952 -2.24135 0
M  V30 7268 H 692.432 -5.80553 -2.87857 0
M  V30 7269 N 685.838 0.888903 -1.30139 0
M  V30 7270 C 686.786 2.0156 -1.16088 0
M  V30 7271 C 687.78 1.69239 -0.0737413 0
M  V30 7272 O 688.986 1.78468 -0.234313 0
M  V30 7273 H 685.361 0.660825 -0.358907 0
M  V30 7274 H 687.332 2.10547 -2.11453 0
M  V30 7275 C 686.081 3.36758 -0.865426 0
M  V30 7276 H 685.404 3.62137 -1.69402 0
M  V30 7277 H 686.844 4.16246 -0.807192 0
M  V30 7278 C 685.303 3.34124 0.431577 0
M  V30 7279 O 685.833 3.7445 1.45431 0
M  V30 7280 N 684.039 2.87229 0.441321 0
M  V30 7281 H 683.586 2.54609 -0.391433 0
M  V30 7282 H 683.544 2.8585 1.30909 0
M  V30 7283 N 687.317 1.12792 1.10072 0
M  V30 7284 C 688.594 0.796867 1.78632 0
M  V30 7285 C 688.974 -0.712739 1.98704 0
M  V30 7286 O 688.322 -1.64773 1.5831 0
M  V30 7287 C 688.532 1.57622 3.11378 0
M  V30 7288 C 689.88 1.76463 3.86194 0
M  V30 7289 O 690.904 1.54165 3.2111 0
M  V30 7290 O 689.763 2.13623 5.03018 0
M  V30 7291 H 686.857 0.290248 0.774394 0
M  V30 7292 H 689.403 1.23215 1.16688 0
M  V30 7293 H 688.175 2.60246 2.92212 0
M  V30 7294 H 687.798 1.13543 3.81043 0
M  V30 7295 N 688.795 -1.27931 0.920396 0
M  V30 7296 C 690.023 -1.98805 0.573087 0
M  V30 7297 C 690.438 -1.68724 -0.847201 0
M  V30 7298 O 689.795 -0.943699 -1.56207 0
M  V30 7299 C 689.846 -3.52971 0.780633 0
M  V30 7300 O 689.567 -3.81994 2.14504 0
M  V30 7301 C 691.068 -4.411 0.44105 0
M  V30 7302 H 688.288 -0.634651 0.21785 0
M  V30 7303 H 690.832 -1.62965 1.23542 0
M  V30 7304 H 688.987 -3.87048 0.165204 0
M  V30 7305 H 689.401 -4.76609 2.18962 0
M  V30 7306 H 690.875 -5.48312 0.637006 0
M  V30 7307 H 691.352 -4.34758 -0.62306 0
M  V30 7308 H 691.958 -4.12532 1.0343 0
M  V30 7309 N 690.273 -0.685099 -1.4193 0
M  V30 7310 C 691.183 -0.013404 -2.34596 0
M  V30 7311 C 692.199 0.777589 -1.55658 0
M  V30 7312 O 693.375 0.717553 -1.88184 0
M  V30 7313 C 690.44 0.919031 -3.34297 0
M  V30 7314 C 689.501 0.121417 -4.29128 0
M  V30 7315 C 688.734 1.00944 -5.24067 0
M  V30 7316 O 688.957 2.24898 -5.24192 0
M  V30 7317 O 687.891 0.464724 -6.00103 0
M  V30 7318 H 691.717 -0.776978 -2.93593 0
M  V30 7319 H 689.302 -0.445379 -1.42607 0
M  V30 7320 H 691.184 1.45402 -3.9552 0
M  V30 7321 H 689.859 1.66228 -2.77759 0
M  V30 7322 H 688.766 -0.45792 -3.71287 0
M  V30 7323 H 690.099 -0.582937 -4.88736 0
M  V30 7324 N 691.751 1.51645 -0.429126 0
M  V30 7325 C 692.997 2.02967 0.132584 0
M  V30 7326 C 693.352 1.30804 1.41096 0
M  V30 7327 O 692.645 0.411705 1.87124 0
M  V30 7328 C 692.839 3.54989 0.414472 0
M  V30 7329 C 692.668 4.41879 -0.83503 0
M  V30 7330 C 691.438 4.86482 -1.36614 0
M  V30 7331 C 693.636 4.84727 -1.71886 0
M  V30 7332 N 691.618 5.5756 -2.56904 0
M  V30 7333 C 692.989 5.54788 -2.76786 0
M  V30 7334 C 695.044 4.66721 -1.73425 0
M  V30 7335 C 693.747 6.08753 -3.8316 0
M  V30 7336 C 695.773 5.21597 -2.7873 0
M  V30 7337 C 695.135 5.91598 -3.8235 0
M  V30 7338 H 691.234 0.781942 0.00956367 0
M  V30 7339 H 693.818 1.8561 -0.587957 0
M  V30 7340 H 691.989 3.72378 1.10405 0
M  V30 7341 H 693.721 3.92982 0.966817 0
M  V30 7342 H 690.476 4.64553 -0.921255 0
M  V30 7343 H 690.9 5.97731 -3.17879 0
M  V30 7344 H 695.542 4.1207 -0.946467 0
M  V30 7345 H 693.26 6.62464 -4.62782 0
M  V30 7346 H 696.846 5.09522 -2.80853 0
M  V30 7347 H 695.726 6.33299 -4.62495 0
M  V30 7348 N 693.229 0.160201 1.56784 0
M  V30 7349 C 694.459 -0.493449 2.00621 0
M  V30 7350 C 694.867 -1.5809 1.03943 0
M  V30 7351 O 694.21 -1.83675 0.0305343 0
M  V30 7352 C 694.272 -1.14169 3.4089 0
M  V30 7353 C 693.936 -0.197243 4.56574 0
M  V30 7354 C 694.933 0.580174 5.16653 0
M  V30 7355 C 692.618 -0.0963038 5.02208 0
M  V30 7356 C 694.612 1.44584 6.20785 0
M  V30 7357 C 692.299 0.772959 6.06192 0
M  V30 7358 C 693.297 1.54263 6.65351 0
M  V30 7359 O 692.985 2.39738 7.67321 0
M  V30 7360 H 692.717 -0.131764 0.663034 0
M  V30 7361 H 695.271 0.255728 2.03802 0
M  V30 7362 H 693.501 -1.93877 3.34587 0
M  V30 7363 H 695.19 -1.69641 3.6875 0
M  V30 7364 H 695.956 0.5123 4.82287 0
M  V30 7365 H 691.835 -0.685143 4.5588 0
M  V30 7366 H 695.379 2.04706 6.66889 0
M  V30 7367 H 691.276 0.842077 6.39984 0
M  V30 7368 H 692.044 2.33131 7.84597 0
M  V30 7369 N 694.707 -1.5719 -0.113559 0
M  V30 7370 C 695.617 -2.04041 -1.15777 0
M  V30 7371 C 696.633 -0.961812 -1.45001 0
M  V30 7372 O 697.809 -1.2737 -1.56009 0
M  V30 7373 C 694.874 -2.43994 -2.46308 0
M  V30 7374 C 693.935 -3.65962 -2.24433 0
M  V30 7375 C 693.168 -4.04 -3.4874 0
M  V30 7376 O 693.391 -3.42321 -4.56259 0
M  V30 7377 O 692.325 -4.97069 -3.3942 0
M  V30 7378 H 696.151 -2.93248 -0.789899 0
M  V30 7379 H 693.736 -1.45828 -0.324748 0
M  V30 7380 H 695.618 -2.70401 -3.23204 0
M  V30 7381 H 694.293 -1.57932 -2.82558 0
M  V30 7382 H 693.2 -3.44697 -1.45377 0
M  V30 7383 H 694.533 -4.52746 -1.93084 0
M  V30 7384 N 696.185 0.383891 -1.52853 0
M  V30 7385 C 697.135 1.46892 -1.74375 0
M  V30 7386 C 698.119 1.49378 -0.597909 0
M  V30 7387 O 699.311 1.54929 -0.855929 0
M  V30 7388 C 696.44 2.84547 -1.92063 0
M  V30 7389 C 695.526 2.8661 -3.12594 0
M  V30 7390 N 695.917 2.58339 -4.3485 0
M  V30 7391 C 694.215 3.17777 -3.12944 0
M  V30 7392 C 694.916 2.67616 -5.16485 0
M  V30 7393 N 693.892 3.01561 -4.52285 0
M  V30 7394 H 697.694 1.23869 -2.66522 0
M  V30 7395 H 695.208 0.591895 -1.51229 0
M  V30 7396 H 697.205 3.62674 -2.05604 0
M  V30 7397 H 695.865 3.08549 -1.01133 0
M  V30 7398 H 696.876 2.32266 -4.62896 0
M  V30 7399 H 693.553 3.47211 -2.31842 0
M  V30 7400 H 694.943 2.4926 -6.23955 0
M  V30 7401 N 697.663 1.43903 0.642637 0
M  V30 7402 C 698.593 1.52697 1.76652 0
M  V30 7403 C 699.574 0.380816 1.65782 0
M  V30 7404 O 700.759 0.599432 1.84717 0
M  V30 7405 C 697.889 1.45975 3.15133 0
M  V30 7406 C 696.843 2.58949 3.40778 0
M  V30 7407 C 696.169 2.37279 4.79169 0
M  V30 7408 C 697.469 4.01153 3.34475 0
M  V30 7409 H 699.163 2.46766 1.69549 0
M  V30 7410 H 696.709 1.18767 0.814279 0
M  V30 7411 H 698.662 1.5073 3.93521 0
M  V30 7412 H 697.386 0.484162 3.22991 0
M  V30 7413 H 696.045 2.53564 2.64765 0
M  V30 7414 H 695.693 1.37939 4.83717 0
M  V30 7415 H 695.393 3.13016 4.97287 0
M  V30 7416 H 696.917 2.43834 5.59801 0
M  V30 7417 H 698.331 4.07968 4.02784 0
M  V30 7418 H 696.728 4.77001 3.64129 0
M  V30 7419 H 697.798 4.25539 2.32475 0
M  V30 7420 N 699.141 -0.881989 1.30609 0
M  V30 7421 C 700.552 -1.44956 1.17664 0
M  V30 7422 C 700.903 -1.94945 -0.221531 0
M  V30 7423 O 700.028 -1.85257 -1.11844 0
M  V30 7424 C 700.623 -2.63474 2.12995 0
M  V30 7425 C 699.182 -3.16312 2.04019 0
M  V30 7426 C 698.329 -1.89008 2.02907 0
M  V30 7427 H 701.28 -0.691645 1.42835 0
M  V30 7428 H 701.301 -3.39783 1.71253 0
M  V30 7429 H 700.813 -2.2706 3.14746 0
M  V30 7430 H 698.914 -3.57376 1.0542 0
M  V30 7431 H 699.027 -3.79409 2.9255 0
M  V30 7432 H 697.391 -2.07465 1.47751 0
M  V30 7433 H 698.174 -1.54848 3.06394 0
M  V30 7434 N 700.619 -1.13374 -1.09472 0
M  V30 7435 C 702.03 -0.90801 -1.63132 0
M  V30 7436 C 702.381 0.555576 -1.8817 0
M  V30 7437 O 701.506 1.42218 -1.63104 0
M  V30 7438 C 702.101 -1.64182 -2.96361 0
M  V30 7439 C 700.66 -1.46197 -3.46848 0
M  V30 7440 C 699.807 -1.67134 -2.21273 0
M  V30 7441 H 702.758 -1.2871 -0.928411 0
M  V30 7442 H 702.779 -1.09863 -3.64294 0
M  V30 7443 H 702.291 -2.707 -2.78106 0
M  V30 7444 H 700.392 -0.419788 -3.70228 0
M  V30 7445 H 700.505 -2.22472 -4.24315 0
M  V30 7446 H 698.869 -1.09616 -2.29905 0
M  V30 7447 H 699.652 -2.74971 -2.05538 0
M  V30 7448 N 702.098 1.27442 -0.927168 0
M  V30 7449 C 703.008 2.30599 -0.431448 0
M  V30 7450 C 704.024 1.67028 0.48761 0
M  V30 7451 O 705.2 1.97962 0.370546 0
M  V30 7452 C 702.265 3.45327 0.308292 0
M  V30 7453 C 701.326 4.24418 -0.645615 0
M  V30 7454 C 700.559 5.33667 0.0589164 0
M  V30 7455 O 700.782 5.5589 1.27838 0
M  V30 7456 O 699.716 5.98774 -0.612638 0
M  V30 7457 H 703.542 2.75036 -1.28797 0
M  V30 7458 H 701.127 1.32382 -0.692495 0
M  V30 7459 H 703.009 4.15107 0.725555 0
M  V30 7460 H 701.684 3.02945 1.14043 0
M  V30 7461 H 700.591 3.57174 -1.11255 0
M  V30 7462 H 701.924 4.70512 -1.44496 0
M  V30 7463 N 703.576 0.692616 1.41565 0
M  V30 7464 C 704.825 0.219452 2.00503 0
M  V30 7465 C 705.138 -1.18683 1.55479 0
M  V30 7466 O 706.344 -1.75731 2.06956 0
M  V30 7467 C 704.8 0.341451 3.58277 0
M  V30 7468 C 704.408 1.75291 4.12283 0
M  V30 7469 C 706.152 -0.0720899 4.24439 0
M  V30 7470 C 704.059 1.82673 5.62481 0
M  V30 7471 H 702.989 0.0782874 0.749925 0
M  V30 7472 H 705.64 0.860386 1.62079 0
M  V30 7473 H 704.022 -0.367683 3.94289 0
M  V30 7474 H 705.196 2.49057 3.87695 0
M  V30 7475 H 703.511 2.11587 3.58636 0
M  V30 7476 H 706.108 -0.0373385 5.34687 0
M  V30 7477 H 706.451 -1.11034 4.0122 0
M  V30 7478 H 706.984 0.586663 3.9345 0
M  V30 7479 H 703.723 2.84539 5.90523 0
M  V30 7480 H 703.243 1.13288 5.89004 0
M  V30 7481 H 704.922 1.58827 6.27203 0
M  V30 7482 N 705.054 -1.51416 0.437162 0
M  V30 7483 C 706.331 -1.94682 -0.189292 0
M  V30 7484 C 706.711 -1.37581 -1.60108 0
M  V30 7485 O 706.059 -0.562815 -2.2146 0
M  V30 7486 C 706.269 -3.48599 -0.167201 0
M  V30 7487 C 707.617 -4.2296 -0.372856 0
M  V30 7488 O 708.641 -3.55354 -0.245323 0
M  V30 7489 O 707.5 -5.42895 -0.626693 0
M  V30 7490 H 704.594 -0.816708 -0.130063 0
M  V30 7491 H 707.14 -1.62316 0.495128 0
M  V30 7492 H 705.912 -3.82616 0.81981 0
M  V30 7493 H 705.535 -3.87406 -0.894537 0
M  V30 7494 N 706.532 -0.168513 -1.56696 0
M  V30 7495 C 707.757 0.486688 -2.01609 0
M  V30 7496 C 708.182 1.56203 -1.04796 0
M  V30 7497 O 707.54 1.8128 -0.0270596 0
M  V30 7498 C 707.588 1.04451 -3.45141 0
M  V30 7499 O 706.692 2.15862 -3.51393 0
M  V30 7500 H 706.033 0.116831 -0.653641 0
M  V30 7501 H 708.563 -0.271579 -2.0279 0
M  V30 7502 H 708.573 1.36782 -3.84389 0
M  V30 7503 H 707.248 0.257155 -4.15104 0
M  V30 7504 H 705.825 1.84597 -3.24004 0
M  V30 7505 N 708.01 1.57248 0.105221 0
M  V30 7506 C 708.942 1.98008 1.15436 0
M  V30 7507 C 709.955 0.881236 1.36887 0
M  V30 7508 O 711.144 1.15943 1.35718 0
M  V30 7509 C 708.244 2.27509 2.51183 0
M  V30 7510 C 707.417 3.58811 2.50147 0
M  V30 7511 C 706.476 3.76365 3.67745 0
M  V30 7512 O 705.502 4.48329 3.50699 0
M  V30 7513 N 706.704 3.16174 4.86841 0
M  V30 7514 H 709.469 2.88616 0.807519 0
M  V30 7515 H 707.03 1.59202 0.29433 0
M  V30 7516 H 709.022 2.36455 3.28438 0
M  V30 7517 H 707.592 1.42959 2.77995 0
M  V30 7518 H 706.812 3.60927 1.5851 0
M  V30 7519 H 708.1 4.45088 2.46524 0
M  V30 7520 H 707.498 2.57701 5.03594 0
M  V30 7521 H 706.055 3.30621 5.61723 0
M  V30 7522 N 709.488 -0.375779 1.53054 0
M  V30 7523 C 710.418 -1.46598 1.81745 0
M  V30 7524 C 711.399 -1.56337 0.670286 0
M  V30 7525 O 712.584 -1.71071 0.919158 0
M  V30 7526 C 709.714 -2.84058 1.99821 0
M  V30 7527 C 708.668 -2.8915 3.15557 0
M  V30 7528 C 707.994 -4.29187 3.18908 0
M  V30 7529 C 709.294 -2.57595 4.54359 0
M  V30 7530 H 710.988 -1.22837 2.73041 0
M  V30 7531 H 708.534 -0.589485 1.31381 0
M  V30 7532 H 710.487 -3.60342 2.18475 0
M  V30 7533 H 709.211 -3.09184 1.05226 0
M  V30 7534 H 707.87 -2.15316 2.96706 0
M  V30 7535 H 707.518 -4.51374 2.2197 0
M  V30 7536 H 707.218 -4.33512 3.96662 0
M  V30 7537 H 708.742 -5.07359 3.39734 0
M  V30 7538 H 710.156 -3.23595 4.73243 0
M  V30 7539 H 708.553 -2.73252 5.34279 0
M  V30 7540 H 709.623 -1.52882 4.60169 0
M  V30 7541 N 710.966 -1.44241 -0.634997 0
M  V30 7542 C 712.212 -1.47038 -1.39669 0
M  V30 7543 C 712.545 -0.101122 -1.93937 0
M  V30 7544 O 711.82 0.880699 -1.73418 0
M  V30 7545 C 712.103 -2.52763 -2.56482 0
M  V30 7546 C 711.956 -3.99032 -2.07589 0
M  V30 7547 C 713.275 -2.55031 -3.58674 0
M  V30 7548 H 710.394 -0.53537 -0.506506 0
M  V30 7549 H 713.036 -1.75898 -0.718317 0
M  V30 7550 H 711.186 -2.28284 -3.14354 0
M  V30 7551 H 712.858 -4.3463 -1.54577 0
M  V30 7552 H 711.101 -4.10994 -1.38804 0
M  V30 7553 H 711.772 -4.68649 -2.91671 0
M  V30 7554 H 714.248 -2.76893 -3.10595 0
M  V30 7555 H 713.124 -3.30916 -4.37934 0
M  V30 7556 H 713.385 -1.59085 -4.12486 0
M  V30 7557 N 712.444 0.87505 -1.31075 0
M  V30 7558 C 713.394 1.96933 -1.14898 0
M  V30 7559 C 714.378 1.60783 -0.0613703 0
M  V30 7560 O 715.57 1.74678 -0.285751 0
M  V30 7561 C 712.699 3.3253 -0.853166 0
M  V30 7562 C 711.785 3.74963 -1.98151 0
M  V30 7563 N 712.176 3.89403 -3.22799 0
M  V30 7564 C 710.474 4.04436 -1.8801 0
M  V30 7565 C 711.175 4.25563 -3.96574 0
M  V30 7566 N 710.151 4.3597 -3.24701 0
M  V30 7567 H 713.953 2.06201 -2.09424 0
M  V30 7568 H 711.467 1.06551 -1.22558 0
M  V30 7569 H 713.464 4.10666 -0.718266 0
M  V30 7570 H 712.124 3.24592 0.0839218 0
M  V30 7571 H 713.135 3.74266 -3.57974 0
M  V30 7572 H 709.812 4.04915 -1.01733 0
M  V30 7573 H 711.202 4.44375 -5.03965 0
M  V30 7574 N 713.922 1.13953 1.08869 0
M  V30 7575 C 714.869 0.82213 2.15661 0
M  V30 7576 C 715.839 -0.218274 1.6466 0
M  V30 7577 O 717.024 -0.0892475 1.90591 0
M  V30 7578 C 714.164 0.300572 3.43789 0
M  V30 7579 C 713.277 1.40071 4.08661 0
M  V30 7580 C 712.412 0.836897 5.24566 0
M  V30 7581 C 711.451 1.91504 5.81371 0
M  V30 7582 N 710.588 1.36875 6.88629 0
M  V30 7583 H 715.428 1.73683 2.42153 0
M  V30 7584 H 712.965 0.866879 1.18843 0
M  V30 7585 H 714.923 -0.0199943 4.17195 0
M  V30 7586 H 713.553 -0.577248 3.17597 0
M  V30 7587 H 712.605 1.83776 3.33062 0
M  V30 7588 H 713.917 2.21534 4.46905 0
M  V30 7589 H 713.071 0.467953 6.04893 0
M  V30 7590 H 711.81 -0.00874207 4.87699 0
M  V30 7591 H 710.815 2.29299 4.99702 0
M  V30 7592 H 712.04 2.76419 6.20298 0
M  V30 7593 H 709.986 0.545211 6.5373 0
M  V30 7594 H 709.903 2.1198 7.25672 0
M  V30 7595 H 711.171 1.02756 7.72698 0
M  V30 7596 N 715.4 -1.26948 0.933913 0
M  V30 7597 C 716.33 -2.29017 0.45534 0
M  V30 7598 C 717.311 -1.62961 -0.487605 0
M  V30 7599 O 718.496 -1.90223 -0.391022 0
M  V30 7600 C 715.626 -3.46112 -0.287015 0
M  V30 7601 C 714.58 -4.24205 0.568682 0
M  V30 7602 C 713.906 -5.3384 -0.303206 0
M  V30 7603 C 715.206 -4.88954 1.83633 0
M  V30 7604 H 716.9 -2.69298 1.30839 0
M  V30 7605 H 714.446 -1.29459 0.630579 0
M  V30 7606 H 716.399 -4.16622 -0.6328 0
M  V30 7607 H 715.123 -3.04765 -1.17414 0
M  V30 7608 H 713.782 -3.5545 0.897261 0
M  V30 7609 H 713.43 -4.88734 -1.18947 0
M  V30 7610 H 713.13 -5.86998 0.265879 0
M  V30 7611 H 714.654 -6.0719 -0.644423 0
M  V30 7612 H 716.068 -5.51717 1.55823 0
M  V30 7613 H 714.465 -5.52198 2.34941 0
M  V30 7614 H 715.535 -4.12305 2.55211 0
M  V30 7615 N 716.879 -0.700114 -1.41195 0
M  V30 7616 C 718.109 -0.241828 -2.0518 0
M  V30 7617 C 718.517 1.1157 -1.52803 0
M  V30 7618 O 717.86 1.70926 -0.673042 0
M  V30 7619 C 717.922 -0.12695 -3.59276 0
M  V30 7620 C 717.586 -1.41725 -4.34469 0
M  V30 7621 C 718.583 -2.35604 -4.63451 0
M  V30 7622 C 716.268 -1.67189 -4.73659 0
M  V30 7623 C 718.262 -3.53204 -5.3059 0
M  V30 7624 C 715.949 -2.85073 -5.40534 0
M  V30 7625 C 716.947 -3.77904 -5.68927 0
M  V30 7626 O 716.635 -4.93723 -6.34424 0
M  V30 7627 H 716.367 -0.109247 -0.667114 0
M  V30 7628 H 718.921 -0.954538 -1.81873 0
M  V30 7629 H 717.151 0.641571 -3.81341 0
M  V30 7630 H 718.84 0.294748 -4.04828 0
M  V30 7631 H 719.606 -2.1719 -4.33651 0
M  V30 7632 H 715.485 -0.957935 -4.50937 0
M  V30 7633 H 719.029 -4.25679 -5.52669 0
M  V30 7634 H 714.926 -3.03402 -5.69752 0
M  V30 7635 H 715.694 -4.93597 -6.5292 0
M  V30 7636 N 718.357 1.51182 -0.445186 0
M  V30 7637 C 719.587 2.06269 0.116922 0
M  V30 7638 C 719.995 1.31188 1.36332 0
M  V30 7639 O 719.338 0.367067 1.79995 0
M  V30 7640 C 719.4 3.56051 0.496757 0
M  V30 7641 C 719.064 4.52441 -0.64394 0
M  V30 7642 C 720.061 4.97233 -1.5184 0
M  V30 7643 C 717.746 4.95447 -0.826905 0
M  V30 7644 C 719.74 5.83712 -2.56046 0
M  V30 7645 C 717.427 5.81714 -1.87222 0
M  V30 7646 C 718.425 6.25745 -2.73738 0
M  V30 7647 O 718.113 7.10298 -3.76474 0
M  V30 7648 H 717.845 0.675954 0.00785733 0
M  V30 7649 H 720.399 1.95648 -0.625371 0
M  V30 7650 H 718.629 3.64483 1.29187 0
M  V30 7651 H 720.318 3.93618 0.990928 0
M  V30 7652 H 721.084 4.64696 -1.38862 0
M  V30 7653 H 716.963 4.60712 -0.163052 0
M  V30 7654 H 720.507 6.18 -3.23607 0
M  V30 7655 H 716.404 6.13664 -2.00218 0
M  V30 7656 H 717.172 7.28493 -3.73149 0
M  V30 7657 N 719.835 0.176821 1.56605 0
M  V30 7658 C 721.083 -0.465793 1.96659 0
M  V30 7659 C 721.404 -1.63406 1.06412 0
M  V30 7660 O 720.674 -1.95457 0.131603 0
M  V30 7661 H 719.254 -0.175072 0.726195 0
M  V30 7662 H 721.916 0.25929 1.93168 0
M  V30 7663 H 721.012 -0.822138 3.01077 0
M  V30 7664 N 721.313 -1.57302 -0.09688 0
M  V30 7665 C 722.263 -1.98369 -1.12399 0
M  V30 7666 C 723.247 -0.861872 -1.3587 0
M  V30 7667 O 724.439 -1.1257 -1.36591 0
M  V30 7668 C 721.568 -2.41017 -2.4447 0
M  V30 7669 C 720.654 -3.59881 -2.24381 0
M  V30 7670 N 721.045 -4.74872 -1.74155 0
M  V30 7671 C 719.343 -3.65943 -2.54954 0
M  V30 7672 C 720.044 -5.56823 -1.68294 0
M  V30 7673 N 719.02 -4.99942 -2.13444 0
M  V30 7674 H 722.822 -2.84726 -0.728575 0
M  V30 7675 H 720.336 -1.59523 -0.304332 0
M  V30 7676 H 722.333 -2.68665 -3.18786 0
M  V30 7677 H 720.993 -1.56036 -2.84751 0
M  V30 7678 H 722.004 -4.97657 -1.43379 0
M  V30 7679 H 718.681 -2.9162 -2.98771 0
M  V30 7680 H 720.071 -6.59099 -1.30528 0
M  V30 7681 N 722.791 0.367657 -1.53252 0
M  V30 7682 C 724.038 1.11052 -1.69333 0
M  V30 7683 C 724.366 1.89363 -0.444064 0
M  V30 7684 O 723.621 1.87094 0.573953 0
M  V30 7685 C 723.92 2.09825 -2.89324 0
M  V30 7686 C 723.586 1.4801 -4.25915 0
M  V30 7687 C 722.248 1.30879 -4.6306 0
M  V30 7688 C 724.6 1.03268 -5.10867 0
M  V30 7689 C 721.928 0.675868 -5.82794 0
M  V30 7690 C 724.28 0.41377 -6.31245 0
M  V30 7691 C 722.944 0.229939 -6.67104 0
M  V30 7692 H 722.214 0.406367 -0.619634 0
M  V30 7693 H 724.861 0.392558 -1.87433 0
M  V30 7694 H 723.166 2.87917 -2.65728 0
M  V30 7695 H 724.863 2.67252 -2.98961 0
M  V30 7696 H 721.453 1.62336 -3.96667 0
M  V30 7697 H 725.637 1.15297 -4.82722 0
M  V30 7698 H 720.893 0.521833 -6.09169 0
M  V30 7699 H 725.067 0.0588768 -6.96375 0
M  V30 7700 H 722.694 -0.262562 -7.59746 0
M  V30 7701 N 724.269 1.44576 0.627338 0
M  V30 7702 C 725.202 1.46206 1.75212 0
M  V30 7703 C 726.18 0.320483 1.5941 0
M  V30 7704 O 727.364 0.518028 1.81242 0
M  V30 7705 C 724.491 1.29834 3.12827 0
M  V30 7706 C 723.537 2.47603 3.47268 0
M  V30 7707 S 724.37 4.10125 3.44322 0
M  V30 7708 C 725.526 3.96183 4.84551 0
M  V30 7709 H 725.759 2.41378 1.73563 0
M  V30 7710 H 723.292 1.3192 0.802283 0
M  V30 7711 H 725.25 1.21075 3.92239 0
M  V30 7712 H 723.911 0.361662 3.12011 0
M  V30 7713 H 723.104 2.3202 4.47418 0
M  V30 7714 H 722.706 2.53121 2.75329 0
M  V30 7715 H 724.998 3.60107 5.73872 0
M  V30 7716 H 725.941 4.96176 5.05188 0
M  V30 7717 H 726.349 3.28177 4.59304 0
M  V30 7718 N 725.747 -0.868086 1.31537 0
M  V30 7719 C 726.987 -1.63526 1.22632 0
M  V30 7720 C 727.351 -1.90828 -0.211815 0
M  V30 7721 O 728.552 -2.65429 -0.424387 0
M  V30 7722 C 726.823 -2.92849 2.04876 0
M  V30 7723 S 728.382 -3.83717 2.12853 0
M  V30 7724 H 725.2 -0.56105 0.436743 0
M  V30 7725 H 727.802 -1.02908 1.66223 0
M  V30 7726 H 726.506 -2.70717 3.08449 0
M  V30 7727 H 726.037 -3.58491 1.62011 0
M  V30 7728 H 728.052 -4.79719 1.26822 0
M  V30 7729 N 727.225 -1.14528 -1.08264 0
M  V30 7730 C 728.455 -0.936604 -1.8415 0
M  V30 7731 C 728.863 0.518298 -1.81962 0
M  V30 7732 O 728.206 1.37096 -1.22272 0
M  V30 7733 C 728.268 -1.36182 -3.32708 0
M  V30 7734 C 727.932 -2.83257 -3.58629 0
M  V30 7735 C 728.929 -3.81366 -3.5335 0
M  V30 7736 C 726.614 -3.20704 -3.86593 0
M  V30 7737 C 728.608 -5.14929 -3.75668 0
M  V30 7738 C 726.295 -4.54443 -4.08564 0
M  V30 7739 C 727.293 -5.51365 -4.03095 0
M  V30 7740 O 726.981 -6.8269 -4.24488 0
M  V30 7741 H 726.713 -0.333254 -0.588148 0
M  V30 7742 H 729.267 -1.5247 -1.3763 0
M  V30 7743 H 727.497 -0.717063 -3.79994 0
M  V30 7744 H 729.186 -1.12372 -3.90035 0
M  V30 7745 H 729.952 -3.53781 -3.31759 0
M  V30 7746 H 725.831 -2.45857 -3.89969 0
M  V30 7747 H 729.375 -5.90568 -3.71315 0
M  V30 7748 H 725.272 -4.81747 -4.29639 0
M  V30 7749 H 726.04 -6.8897 -4.41886 0
M  V30 7750 N 728.703 1.26451 -0.940633 0
M  V30 7751 C 729.949 1.94065 -0.58878 0
M  V30 7752 C 730.282 1.7363 0.869853 0
M  V30 7753 O 729.557 1.073 1.62225 0
M  V30 7754 C 729.84 3.47852 -0.931199 0
M  V30 7755 C 729.693 3.77575 -2.44453 0
M  V30 7756 C 731.012 4.37832 -0.446229 0
M  V30 7757 H 728.131 0.704827 -0.21538 0
M  V30 7758 H 730.773 1.4933 -1.17475 0
M  V30 7759 H 728.923 3.86085 -0.432539 0
M  V30 7760 H 730.595 3.49059 -3.01588 0
M  V30 7761 H 728.838 3.23671 -2.88825 0
M  V30 7762 H 729.509 4.85068 -2.63464 0
M  V30 7763 H 731.985 4.06822 -0.873778 0
M  V30 7764 H 730.861 5.44228 -0.714648 0
M  V30 7765 H 731.122 4.37239 0.653815 0
M  V30 7766 N 730.181 0.707592 1.40822 0
M  V30 7767 C 731.428 0.243671 2.01029 0
M  V30 7768 C 731.756 -1.16057 1.5608 0
M  V30 7769 O 731.011 -1.7999 0.768251 0
M  V30 7770 C 731.31 0.262892 3.56432 0
M  V30 7771 C 730.976 1.61632 4.20935 0
M  V30 7772 C 729.638 1.98682 4.38268 0
M  V30 7773 C 731.99 2.50619 4.5699 0
M  V30 7774 C 729.318 3.2428 4.88937 0
M  V30 7775 C 731.67 3.75562 5.09054 0
M  V30 7776 C 730.334 4.12739 5.24598 0
M  V30 7777 H 729.604 0.0891654 0.735616 0
M  V30 7778 H 732.251 0.909051 1.68548 0
M  V30 7779 H 730.556 -0.486052 3.88773 0
M  V30 7780 H 732.253 -0.113775 4.00839 0
M  V30 7781 H 728.843 1.31818 4.07826 0
M  V30 7782 H 733.027 2.23272 4.43242 0
M  V30 7783 H 728.283 3.53064 4.99155 0
M  V30 7784 H 732.457 4.44692 5.35931 0
M  V30 7785 H 730.084 5.10132 5.63622 0
M  V30 7786 N 731.66 -1.50943 0.453197 0
M  V30 7787 C 732.61 -2.25003 -0.368467 0
M  V30 7788 C 733.594 -1.27864 -0.976714 0
M  V30 7789 O 734.786 -1.52867 -0.892228 0
M  V30 7790 C 731.915 -3.10701 -1.46014 0
M  V30 7791 C 731.001 -4.15278 -0.860506 0
M  V30 7792 N 731.392 -5.05799 0.00849611 0
M  V30 7793 C 729.69 -4.31542 -1.1264 0
M  V30 7794 C 730.391 -5.80664 0.346951 0
M  V30 7795 N 729.367 -5.42912 -0.273426 0
M  V30 7796 H 733.169 -2.92352 0.301246 0
M  V30 7797 H 730.683 -1.60203 0.266233 0
M  V30 7798 H 732.68 -3.62348 -2.06179 0
M  V30 7799 H 731.34 -2.44898 -2.13202 0
M  V30 7800 H 732.351 -5.16533 0.376077 0
M  V30 7801 H 729.028 -3.76962 -1.7946 0
M  V30 7802 H 730.418 -6.63565 1.05507 0
M  V30 7803 N 733.138 -0.185124 -1.56509 0
M  V30 7804 C 734.07 0.771401 -2.15829 0
M  V30 7805 C 735.083 1.18392 -1.11747 0
M  V30 7806 O 736.272 1.12137 -1.38879 0
M  V30 7807 C 733.372 2.05169 -2.69739 0
M  V30 7808 C 732.545 1.80056 -3.98621 0
M  V30 7809 C 731.604 2.92435 -4.37456 0
M  V30 7810 O 730.63 2.62473 -5.05071 0
M  V30 7811 N 731.832 4.20554 -4.00143 0
M  V30 7812 H 734.597 0.264184 -2.98533 0
M  V30 7813 H 732.158 -0.00281069 -1.619 0
M  V30 7814 H 734.15 2.7947 -2.92709 0
M  V30 7815 H 732.72 2.47041 -1.91545 0
M  V30 7816 H 731.94 0.895862 -3.83885 0
M  V30 7817 H 733.228 1.60662 -4.82768 0
M  V30 7818 H 732.626 4.47753 -3.45736 0
M  V30 7819 H 731.183 4.91514 -4.28085 0
M  V30 7820 N 734.616 1.57351 0.0885366 0
M  V30 7821 C 735.893 1.77449 0.822873 0
M  V30 7822 C 736.273 0.768463 1.96616 0
M  V30 7823 O 735.621 -0.201757 2.27608 0
M  V30 7824 C 735.831 3.23425 1.31137 0
M  V30 7825 C 737.179 3.86791 1.75152 0
M  V30 7826 O 738.203 3.27215 1.40745 0
M  V30 7827 O 737.062 4.91568 2.38794 0
M  V30 7828 H 734.156 0.727653 0.393002 0
M  V30 7829 H 736.702 1.69556 0.0699095 0
M  V30 7830 H 735.474 3.88188 0.49254 0
M  V30 7831 H 735.097 3.35977 2.12615 0
M  V30 7832 N 736.094 -0.359525 1.53444 0
M  V30 7833 C 737.324 -1.12036 1.73585 0
M  V30 7834 C 737.732 -1.83335 0.467438 0
M  V30 7835 O 737.075 -1.74641 -0.569753 0
M  V30 7836 C 737.137 -2.19036 2.85068 0
M  V30 7837 C 736.801 -1.67451 4.25217 0
M  V30 7838 C 737.798 -1.13534 5.07352 0
M  V30 7839 C 735.483 -1.72781 4.71648 0
M  V30 7840 C 737.477 -0.656321 6.34012 0
M  V30 7841 C 735.164 -1.2449 5.98285 0
M  V30 7842 C 736.162 -0.710068 6.79299 0
M  V30 7843 O 735.85 -0.234314 8.03558 0
M  V30 7844 H 735.582 -0.340662 0.583888 0
M  V30 7845 H 738.136 -0.422452 2.01009 0
M  V30 7846 H 736.366 -2.92338 2.53131 0
M  V30 7847 H 738.055 -2.80559 2.93328 0
M  V30 7848 H 738.821 -1.08751 4.7265 0
M  V30 7849 H 734.7 -2.13351 4.08659 0
M  V30 7850 H 738.244 -0.238193 6.97193 0
M  V30 7851 H 734.141 -1.28969 6.32485 0
M  V30 7852 H 734.909 -0.353084 8.17738 0
M  V30 7853 N 737.572 -1.44907 -0.619662 0
M  V30 7854 C 738.821 -1.47569 -1.37501 0
M  V30 7855 C 739.134 -0.116707 -1.95252 0
M  V30 7856 O 740.34 -0.020909 -2.71492 0
M  V30 7857 C 738.796 -2.59851 -2.49009 0
M  V30 7858 C 738.404 -4.02008 -1.97722 0
M  V30 7859 C 740.148 -2.71746 -3.2612 0
M  V30 7860 C 738.055 -5.05693 -3.0664 0
M  V30 7861 H 736.985 -0.549068 -0.51676 0
M  V30 7862 H 739.636 -1.71009 -0.665437 0
M  V30 7863 H 738.018 -2.29671 -3.22594 0
M  V30 7864 H 739.192 -4.41809 -1.30925 0
M  V30 7865 H 737.507 -3.94456 -1.33392 0
M  V30 7866 H 740.104 -3.46382 -4.07337 0
M  V30 7867 H 740.447 -1.77959 -3.76346 0
M  V30 7868 H 740.98 -3.01392 -2.5963 0
M  V30 7869 H 737.719 -6.01148 -2.61345 0
M  V30 7870 H 737.239 -4.70473 -3.72042 0
M  V30 7871 H 738.918 -5.29906 -3.71226 0
M  V30 7872 N 739.05 0.861098 -1.31996 0
M  V30 7873 C 740.296 1.61721 -1.22369 0
M  V30 7874 C 740.629 1.93 0.215587 0
M  V30 7875 O 739.904 1.56789 1.15098 0
M  V30 7876 C 740.187 2.9417 -2.07691 0
M  V30 7877 C 740.04 2.69714 -3.59965 0
M  V30 7878 C 741.359 3.95372 -1.93312 0
M  V30 7879 H 738.478 0.586822 -0.44588 0
M  V30 7880 H 741.12 0.994788 -1.61876 0
M  V30 7881 H 739.27 3.47292 -1.74128 0
M  V30 7882 H 740.942 2.23196 -4.03709 0
M  V30 7883 H 739.185 2.03789 -3.82952 0
M  V30 7884 H 739.856 3.63996 -4.14983 0
M  V30 7885 H 742.332 3.51487 -2.22701 0
M  V30 7886 H 741.208 4.85916 -2.55298 0
M  V30 7887 H 741.469 4.32865 -0.898922 0
M  V30 7888 N 740.528 1.15101 1.07655 0
M  V30 7889 C 741.475 0.844958 2.14777 0
M  V30 7890 C 742.445 -0.200798 1.64882 0
M  V30 7891 O 743.63 -0.0690278 1.90675 0
M  V30 7892 C 740.77 0.337018 3.4345 0
M  V30 7893 C 739.883 1.44398 4.07153 0
M  V30 7894 C 739.018 0.892487 5.23649 0
M  V30 7895 C 738.057 1.9766 5.79307 0
M  V30 7896 N 737.194 1.44171 6.87138 0
M  V30 7897 H 742.034 1.76242 2.40297 0
M  V30 7898 H 739.571 0.879435 1.17917 0
M  V30 7899 H 741.529 0.024256 4.17193 0
M  V30 7900 H 740.159 -0.543531 3.18191 0
M  V30 7901 H 739.211 1.87299 3.31094 0
M  V30 7902 H 740.523 2.26262 4.4453 0
M  V30 7903 H 739.677 0.532083 6.04362 0
M  V30 7904 H 738.416 0.0429854 4.87681 0
M  V30 7905 H 737.421 2.34586 4.97242 0
M  V30 7906 H 738.646 2.82982 6.17331 0
M  V30 7907 H 736.592 0.614518 6.53115 0
M  V30 7908 H 736.509 2.19665 7.23383 0
M  V30 7909 H 737.777 1.10945 7.71564 0
M  V30 7910 N 742.006 -1.2595 0.947325 0
M  V30 7911 C 742.953 -2.26159 0.460497 0
M  V30 7912 C 743.923 -1.58919 -0.483125 0
M  V30 7913 O 745.108 -1.86603 -0.397983 0
M  V30 7914 C 742.248 -3.441 -0.26247 0
M  V30 7915 C 741.361 -4.25999 0.717539 0
M  V30 7916 C 740.496 -5.31193 -0.0272486 0
M  V30 7917 C 739.535 -6.04774 0.944177 0
M  V30 7918 N 738.672 -7.01721 0.230741 0
M  V30 7919 H 743.512 -2.67173 1.31995 0
M  V30 7920 H 741.049 -1.31358 0.662088 0
M  V30 7921 H 743.007 -4.11317 -0.698137 0
M  V30 7922 H 741.637 -3.03983 -1.08602 0
M  V30 7923 H 740.689 -3.58513 1.27171 0
M  V30 7924 H 742.001 -4.76981 1.45913 0
M  V30 7925 H 741.155 -6.04451 -0.521903 0
M  V30 7926 H 739.894 -4.81066 -0.801682 0
M  V30 7927 H 738.899 -5.30338 1.4499 0
M  V30 7928 H 740.124 -6.56991 1.71872 0
M  V30 7929 H 738.07 -6.53895 -0.525088 0
M  V30 7930 H 737.987 -7.50484 0.911556 0
M  V30 7931 H 739.255 -7.79122 -0.242616 0
M  V30 7932 N 743.484 -0.715051 -1.40445 0
M  V30 7933 C 744.732 -0.253826 -2.005 0
M  V30 7934 C 745.053 1.15681 -1.5698 0
M  V30 7935 O 744.323 1.78414 -0.809027 0
M  V30 7936 H 742.903 -0.0908537 -0.741454 0
M  V30 7937 H 745.565 -0.920561 -1.7179 0
M  V30 7938 H 744.661 -0.286499 -3.10782 0
M  V30 7939 N 744.962 1.50701 -0.461195 0
M  V30 7940 C 746.208 2.02566 0.0973411 0
M  V30 7941 C 746.541 1.3432 1.40257 0
M  V30 7942 O 745.816 0.465692 1.88843 0
M  V30 7943 C 746.099 3.58919 0.291423 0
M  V30 7944 C 745.952 4.37751 -1.03413 0
M  V30 7945 C 747.271 4.27379 1.05048 0
M  V30 7946 H 744.39 0.73622 0.0339026 0
M  V30 7947 H 747.032 1.80115 -0.604855 0
M  V30 7948 H 745.182 3.78179 0.889539 0
M  V30 7949 H 746.854 4.30085 -1.66806 0
M  V30 7950 H 745.097 4.01885 -1.63313 0
M  V30 7951 H 745.768 5.45384 -0.852085 0
M  V30 7952 H 748.244 4.12534 0.543603 0
M  V30 7953 H 747.12 5.36609 1.15506 0
M  V30 7954 H 747.381 3.89868 2.0846 0
M  V30 7955 N 746.441 0.193421 1.56409 0
M  V30 7956 C 747.718 -0.493318 1.89277 0
M  V30 7957 C 748.098 -1.79765 1.10669 0
M  V30 7958 O 747.446 -2.27558 0.207274 0
M  V30 7959 C 747.656 -0.713732 3.41624 0
M  V30 7960 C 749.004 -1.03385 4.11821 0
M  V30 7961 O 750.028 -0.801511 3.47065 0
M  V30 7962 O 748.887 -1.47327 5.26267 0
M  V30 7963 H 745.981 -0.256973 0.786062 0
M  V30 7964 H 748.527 0.23351 1.68086 0
M  V30 7965 H 747.299 0.207446 3.9075 0
M  V30 7966 H 746.922 -1.49308 3.68501 0
M  V30 7967 N 747.919 -1.57396 -0.0801906 0
M  V30 7968 C 749.165 -1.87113 -0.782083 0
M  V30 7969 C 749.498 -0.78458 -1.77646 0
M  V30 7970 O 748.773 0.205993 -1.93406 0
M  V30 7971 C 749.056 -3.27483 -1.49756 0
M  V30 7972 C 748.909 -4.46782 -0.520171 0
M  V30 7973 C 750.228 -3.65965 -2.44454 0
M  V30 7974 H 747.347 -0.680559 -0.282858 0
M  V30 7975 H 749.989 -1.89946 -0.0454139 0
M  V30 7976 H 748.139 -3.25199 -2.12551 0
M  V30 7977 H 749.811 -4.61187 0.101919 0
M  V30 7978 H 748.054 -4.33485 0.165219 0
M  V30 7979 H 748.725 -5.41761 -1.05824 0
M  V30 7980 H 751.201 -3.69289 -1.91742 0
M  V30 7981 H 750.077 -4.65086 -2.91524 0
M  V30 7982 H 750.338 -2.95446 -3.28883 0
M  V30 7983 N 749.397 0.351382 -1.53633 0
M  V30 7984 C 750.347 1.4316 -1.77452 0
M  V30 7985 C 751.331 1.48076 -0.62946 0
M  V30 7986 O 752.523 1.53078 -0.888599 0
M  V30 7987 C 749.652 2.80409 -1.98055 0
M  V30 7988 C 748.738 2.79915 -3.18604 0
M  V30 7989 N 749.129 2.49057 -4.40232 0
M  V30 7990 C 747.427 3.11067 -3.19614 0
M  V30 7991 C 748.128 2.566 -5.22045 0
M  V30 7992 N 747.104 2.919 -4.5858 0
M  V30 7993 H 750.906 1.18188 -2.69089 0
M  V30 7994 H 748.42 0.559684 -1.52451 0
M  V30 7995 H 750.417 3.58231 -2.13251 0
M  V30 7996 H 749.077 3.06334 -1.07655 0
M  V30 7997 H 750.088 2.22395 -4.67719 0
M  V30 7998 H 746.765 3.42215 -2.39154 0
M  V30 7999 H 748.155 2.35968 -6.29101 0
M  V30 8000 N 750.875 1.45233 0.611969 0
M  V30 8001 C 751.838 1.53189 1.70487 0
M  V30 8002 C 752.838 0.411839 1.55437 0
M  V30 8003 O 754.028 0.675164 1.60584 0
M  V30 8004 C 751.16 1.42422 3.09723 0
M  V30 8005 H 752.353 2.5056 1.64802 0
M  V30 8006 H 749.906 1.32609 0.827318 0
M  V30 8007 H 750.641 0.462185 3.2099 0
M  V30 8008 H 750.426 2.23658 3.22055 0
M  V30 8009 H 751.916 1.51012 3.89339 0
M  V30 8010 N 752.353 -0.854086 1.3245 0
M  V30 8011 C 753.283 -1.97827 1.24044 0
M  V30 8012 C 754.264 -1.69646 0.124166 0
M  V30 8013 O 755.449 -1.91687 0.31143 0
M  V30 8014 C 752.579 -3.33673 0.963324 0
M  V30 8015 C 751.533 -3.76207 2.04089 0
M  V30 8016 C 750.859 -5.0969 1.61618 0
M  V30 8017 C 752.159 -3.91612 3.45597 0
M  V30 8018 H 753.853 -2.05118 2.18099 0
M  V30 8019 H 751.399 -0.985489 1.04996 0
M  V30 8020 H 753.352 -4.11871 0.891061 0
M  V30 8021 H 752.076 -3.26597 -0.0128649 0
M  V30 8022 H 750.735 -3.0026 2.10332 0
M  V30 8023 H 750.383 -4.99072 0.627418 0
M  V30 8024 H 750.083 -5.3912 2.33717 0
M  V30 8025 H 751.607 -5.90381 1.55829 0
M  V30 8026 H 753.021 -4.60163 3.4194 0
M  V30 8027 H 751.418 -4.3246 4.16051 0
M  V30 8028 H 752.488 -2.9451 3.85217 0
M  V30 8029 N 753.831 -1.1567 -1.07043 0
M  V30 8030 C 754.778 -0.856336 -2.14326 0
M  V30 8031 C 755.748 0.192051 -1.64986 0
M  V30 8032 O 756.933 0.0589148 -1.90709 0
M  V30 8033 C 754.073 -0.355227 -3.43267 0
M  V30 8034 C 753.186 -1.46555 -4.06381 0
M  V30 8035 C 752.321 -0.920245 -5.23168 0
M  V30 8036 C 751.36 -2.00729 -5.78251 0
M  V30 8037 N 750.497 -1.47813 -6.86364 0
M  V30 8038 H 755.337 -1.77514 -2.39359 0
M  V30 8039 H 752.874 -0.885676 -1.17449 0
M  V30 8040 H 754.832 -0.0463804 -4.17174 0
M  V30 8041 H 753.462 0.526649 -3.18475 0
M  V30 8042 H 752.514 -1.89052 -3.30096 0
M  V30 8043 H 753.826 -2.28616 -4.43324 0
M  V30 8044 H 752.98 -0.564127 -6.04072 0
M  V30 8045 H 751.719 -0.0688477 -4.87651 0
M  V30 8046 H 750.724 -2.3722 -4.95991 0
M  V30 8047 H 751.949 -2.86252 -6.15822 0
M  V30 8048 H 749.895 -0.649145 -6.5278 0
M  V30 8049 H 749.812 -2.23498 -7.22208 0
M  V30 8050 H 751.08 -1.15036 -7.70965 0
M  V30 8051 N 755.309 1.25446 -0.953992 0
M  V30 8052 C 756.219 2.29632 -0.480264 0
M  V30 8053 C 757.235 1.68025 0.452071 0
M  V30 8054 O 758.411 1.98703 0.328472 0
M  V30 8055 C 755.476 3.45903 0.234974 0
M  V30 8056 C 754.537 4.22953 -0.735495 0
M  V30 8057 C 753.77 5.33672 -0.0542957 0
M  V30 8058 O 753.993 5.58477 1.16018 0
M  V30 8059 O 752.927 5.9734 -0.739509 0
M  V30 8060 H 756.753 2.72242 -1.34602 0
M  V30 8061 H 754.338 1.30883 -0.720419 0
M  V30 8062 H 756.22 4.16552 0.637341 0
M  V30 8063 H 754.895 3.05296 1.07592 0
M  V30 8064 H 753.802 3.54734 -1.18806 0
M  V30 8065 H 755.135 4.67341 -1.54444 0
M  V30 8066 N 756.787 0.722489 1.40064 0
M  V30 8067 C 757.719 0.0349057 2.29173 0
M  V30 8068 C 758.732 -0.716571 1.46182 0
M  V30 8069 O 759.921 -0.562806 1.69395 0
M  V30 8070 C 757.021 -0.974839 3.24577 0
M  V30 8071 C 756.194 -0.287471 4.36454 0
M  V30 8072 C 755.253 -1.20356 5.12251 0
M  V30 8073 O 754.279 -0.685753 5.65054 0
M  V30 8074 N 755.481 -2.53422 5.22262 0
M  V30 8075 H 758.246 0.800058 2.88824 0
M  V30 8076 H 755.807 0.57068 1.51509 0
M  V30 8077 H 757.799 -1.59002 3.72157 0
M  V30 8078 H 756.369 -1.6413 2.66046 0
M  V30 8079 H 755.589 0.508008 3.90913 0
M  V30 8080 H 756.877 0.189382 5.08447 0
M  V30 8081 H 756.275 -2.97981 4.80857 0
M  V30 8082 H 754.832 -3.10067 5.73325 0
M  V30 8083 N 758.265 -1.50454 0.469181 0
M  V30 8084 C 759.198 -2.25149 -0.371928 0
M  V30 8085 C 760.176 -1.28382 -0.997845 0
M  V30 8086 O 761.36 -1.57599 -1.03415 0
M  V30 8087 C 758.487 -3.02629 -1.52097 0
M  V30 8088 C 757.533 -4.14305 -1.01262 0
M  V30 8089 S 758.366 -5.35453 0.0711459 0
M  V30 8090 C 759.522 -6.1648 -1.08181 0
M  V30 8091 H 759.755 -2.96142 0.262134 0
M  V30 8092 H 757.288 -1.52296 0.254042 0
M  V30 8093 H 759.246 -3.47861 -2.17952 0
M  V30 8094 H 757.907 -2.31165 -2.12654 0
M  V30 8095 H 757.1 -4.67913 -1.87278 0
M  V30 8096 H 756.702 -3.71499 -0.431804 0
M  V30 8097 H 758.994 -6.47497 -1.99382 0
M  V30 8098 H 759.937 -7.05679 -0.585028 0
M  V30 8099 H 760.345 -5.48492 -1.33478 0
M  V30 8100 N 759.743 -0.201713 -1.56304 0
M  V30 8101 C 760.673 0.71155 -2.22394 0
M  V30 8102 C 761.654 1.21625 -1.18917 0
M  V30 8103 O 762.839 1.26388 -1.47444 0
M  V30 8104 C 759.969 1.92837 -2.88845 0
M  V30 8105 C 758.923 1.55831 -3.98623 0
M  V30 8106 C 758.249 2.85228 -4.52271 0
M  V30 8107 C 759.549 0.763249 -5.16693 0
M  V30 8108 H 761.243 0.160573 -2.98969 0
M  V30 8109 H 758.789 0.0757916 -1.438 0
M  V30 8110 H 760.742 2.57253 -3.33764 0
M  V30 8111 H 759.466 2.50398 -2.09686 0
M  V30 8112 H 758.125 0.9377 -3.54405 0
M  V30 8113 H 757.773 3.40893 -3.69866 0
M  V30 8114 H 757.473 2.6121 -5.26349 0
M  V30 8115 H 758.997 3.50622 -4.99897 0
M  V30 8116 H 760.411 1.31066 -5.58117 0
M  V30 8117 H 758.808 0.620935 -5.96879 0
M  V30 8118 H 759.878 -0.234322 -4.84334 0
M  V30 8119 N 761.222 1.57436 0.0718424 0
M  V30 8120 C 762.132 2.07039 1.10326 0
M  V30 8121 C 763.148 0.999918 1.424 0
M  V30 8122 O 764.324 1.31462 1.52577 0
M  V30 8123 C 761.389 2.50439 2.39752 0
M  V30 8124 C 760.45 3.71784 2.14651 0
M  V30 8125 C 759.683 4.13104 3.37906 0
M  V30 8126 O 759.906 3.54298 4.47023 0
M  V30 8127 O 758.84 5.05894 3.26121 0
M  V30 8128 H 762.666 2.95239 0.711872 0
M  V30 8129 H 760.251 1.46638 0.28597 0
M  V30 8130 H 762.133 2.78876 3.15921 0
M  V30 8131 H 760.808 1.65368 2.78271 0
M  V30 8132 H 759.715 3.48431 1.36187 0
M  V30 8133 H 761.048 4.57707 1.81012 0
M  V30 8134 N 762.7 -0.34323 1.53817 0
M  V30 8135 C 763.63 -1.42709 1.84814 0
M  V30 8136 C 764.611 -1.5488 0.703297 0
M  V30 8137 O 765.796 -1.69082 0.955237 0
M  V30 8138 C 762.926 -2.79756 2.05801 0
M  V30 8139 C 761.88 -2.82392 3.21619 0
M  V30 8140 C 761.206 -4.22326 3.2794 0
M  V30 8141 C 762.506 -2.479 4.59721 0
M  V30 8142 H 764.2 -1.17018 2.75585 0
M  V30 8143 H 761.746 -0.561485 1.32602 0
M  V30 8144 H 763.699 -3.55627 2.26069 0
M  V30 8145 H 762.423 -3.06883 1.11761 0
M  V30 8146 H 761.082 -2.08974 3.01207 0
M  V30 8147 H 760.73 -4.46564 2.31494 0
M  V30 8148 H 760.43 -4.25001 4.05768 0
M  V30 8149 H 761.954 -5.00039 3.50419 0
M  V30 8150 H 763.368 -3.13484 4.80001 0
M  V30 8151 H 761.765 -2.61857 5.39954 0
M  V30 8152 H 762.835 -1.43087 4.63308 0
M  V30 8153 N 764.178 -1.45556 -0.604258 0
M  V30 8154 C 765.108 -1.57327 -1.72541 0
M  V30 8155 C 766.089 -0.424637 -1.64714 0
M  V30 8156 O 767.274 -0.648196 -1.83063 0
M  V30 8157 C 764.404 -1.54279 -3.11152 0
M  V30 8158 C 763.358 -2.67893 -3.33792 0
M  V30 8159 C 762.684 -2.499 -4.72709 0
M  V30 8160 C 763.984 -4.0988 -3.23722 0
M  V30 8161 H 765.678 -2.51175 -1.62947 0
M  V30 8162 H 763.224 -1.20884 -0.782504 0
M  V30 8163 H 765.177 -1.6111 -3.89386 0
M  V30 8164 H 763.901 -0.569627 -3.21594 0
M  V30 8165 H 762.56 -2.60495 -2.57949 0
M  V30 8166 H 762.208 -1.50715 -4.79889 0
M  V30 8167 H 761.908 -3.26091 -4.88813 0
M  V30 8168 H 763.432 -2.5859 -5.5314 0
M  V30 8169 H 764.846 -4.18503 -3.91826 0
M  V30 8170 H 763.243 -4.86487 -3.51355 0
M  V30 8171 H 764.313 -4.31553 -2.21111 0
M  V30 8172 N 765.656 0.84705 -1.32902 0
M  V30 8173 C 766.588 1.96308 -1.18304 0
M  V30 8174 C 767.601 1.62386 -0.116082 0
M  V30 8175 O 768.79 1.74713 -0.365751 0
M  V30 8176 C 765.89 3.29556 -0.790305 0
M  V30 8177 C 765.063 3.91668 -1.94717 0
M  V30 8178 C 764.122 5.0326 -1.53674 0
M  V30 8179 O 763.148 5.22847 -2.24989 0
M  V30 8180 N 764.35 5.78852 -0.437075 0
M  V30 8181 H 767.115 2.09369 -2.14441 0
M  V30 8182 H 764.676 1.02233 -1.25539 0
M  V30 8183 H 766.668 4.01624 -0.49799 0
M  V30 8184 H 765.238 3.12497 0.0801286 0
M  V30 8185 H 764.458 3.12292 -2.40557 0
M  V30 8186 H 765.746 4.299 -2.72146 0
M  V30 8187 H 765.144 5.65484 0.156316 0
M  V30 8188 H 763.701 6.51479 -0.204399 0
M  V30 8189 N 767.134 1.16236 1.06428 0
M  V30 8190 C 768.066 0.825446 2.1382 0
M  V30 8191 C 769.079 -0.166707 1.61944 0
M  V30 8192 O 770.268 0.0578606 1.78406 0
M  V30 8193 C 767.368 0.208023 3.38261 0
M  V30 8194 C 766.541 1.23994 4.19457 0
M  V30 8195 C 765.6 0.642569 5.22262 0
M  V30 8196 O 764.626 1.31106 5.53895 0
M  V30 8197 N 765.828 -0.571327 5.77682 0
M  V30 8198 H 768.593 1.7497 2.43322 0
M  V30 8199 H 766.154 1.05951 1.22417 0
M  V30 8200 H 768.146 -0.204608 4.04182 0
M  V30 8201 H 766.716 -0.619752 3.06395 0
M  V30 8202 H 765.936 1.82879 3.49212 0
M  V30 8203 H 767.224 1.93638 4.70512 0
M  V30 8204 H 766.622 -1.13263 5.54245 0
M  V30 8205 H 765.179 -0.926187 6.45186 0
M  V30 8206 N 768.612 -1.24939 0.960631 0
M  V30 8207 C 770.028 -1.45039 0.666018 0
M  V30 8208 C 770.228 -1.86021 -0.774501 0
M  V30 8209 O 769.284 -1.99392 -1.54916 0
M  V30 8210 C 770.597 -2.51775 1.64408 0
M  V30 8211 C 772.145 -2.6561 1.65592 0
M  V30 8212 C 772.62 -3.75536 2.62177 0
M  V30 8213 N 774.111 -3.82954 2.60577 0
M  V30 8214 C 774.846 -4.67517 3.31987 0
M  V30 8215 N 774.342 -5.56321 4.1289 0
M  V30 8216 N 776.135 -4.61535 3.20845 0
M  V30 8217 H 768.286 -0.96632 1.89145 0
M  V30 8218 H 770.549 -0.486034 0.813926 0
M  V30 8219 H 770.255 -2.28534 2.67329 0
M  V30 8220 H 770.129 -3.49804 1.41128 0
M  V30 8221 H 772.516 -2.88212 0.633846 0
M  V30 8222 H 772.597 -1.67962 1.92931 0
M  V30 8223 H 772.241 -3.53684 3.64514 0
M  V30 8224 H 772.171 -4.72682 2.32119 0
M  V30 8225 H 774.662 -3.19478 2.01847 0
M  V30 8226 H 774.975 -6.17787 4.64283 0
M  V30 8227 H 773.32 -5.5601 4.16987 0
M  V30 8228 H 776.511 -3.91169 2.57108 0
M  V30 8229 H 776.684 -5.27214 3.76762 0
M  V30 8230 N 770.09 -0.729906 -1.39679 0
M  V30 8231 C 771.338 -0.275077 -2.00219 0
M  V30 8232 C 771.659 1.1401 -1.58199 0
M  V30 8233 O 770.929 1.77546 -0.827904 0
M  V30 8234 H 769.509 -0.0987127 -0.740449 0
M  V30 8235 H 772.171 -0.93873 -1.70804 0
M  V30 8236 H 771.267 -0.319446 -3.10461 0
M  V30 8237 N 771.568 1.50203 -0.477153 0
M  V30 8238 C 772.531 2.27194 0.302599 0
M  V30 8239 C 773.531 1.32221 0.915112 0
M  V30 8240 O 774.721 1.55593 0.783348 0
M  V30 8241 C 771.853 3.0938 1.43167 0
M  V30 8242 H 773.046 2.97575 -0.372678 0
M  V30 8243 H 770.599 1.54578 -0.231392 0
M  V30 8244 H 771.334 2.43509 2.14182 0
M  V30 8245 H 771.119 3.79181 0.998197 0
M  V30 8246 H 772.609 3.67592 1.98157 0
M  V30 8247 N 773.046 0.209999 1.56195 0
M  V30 8248 C 773.978 -0.736967 2.17029 0
M  V30 8249 C 774.991 -1.16599 1.13616 0
M  V30 8250 O 776.18 -1.09914 1.40646 0
M  V30 8251 C 773.28 -2.00852 2.72969 0
M  V30 8252 C 772.453 -1.73691 4.01435 0
M  V30 8253 C 771.512 -2.85439 4.42053 0
M  V30 8254 O 770.538 -2.54405 5.09183 0
M  V30 8255 N 771.74 -4.14135 4.06783 0
M  V30 8256 H 774.505 -0.216656 2.98916 0
M  V30 8257 H 772.066 0.0285672 1.61875 0
M  V30 8258 H 774.058 -2.74778 2.97118 0
M  V30 8259 H 772.628 -2.43963 1.95451 0
M  V30 8260 H 771.848 -0.834676 3.85262 0
M  V30 8261 H 773.136 -1.52961 4.85263 0
M  V30 8262 H 772.534 -4.42196 3.52816 0
M  V30 8263 H 771.091 -4.84642 4.35851 0
M  V30 8264 N 774.524 -1.57472 -0.0634922 0
M  V30 8265 C 775.754 -1.91608 -0.772645 0
M  V30 8266 C 776.162 -0.805019 -1.71219 0
M  V30 8267 O 775.505 0.229941 -1.82255 0
M  V30 8268 C 775.567 -3.21281 -1.61304 0
M  V30 8269 C 775.231 -4.49177 -0.841973 0
M  V30 8270 C 776.228 -5.19661 -0.157494 0
M  V30 8271 C 773.913 -4.9578 -0.80669 0
M  V30 8272 C 775.907 -6.35006 0.551948 0
M  V30 8273 C 773.594 -6.11028 -0.0934812 0
M  V30 8274 C 774.592 -6.80493 0.58463 0
M  V30 8275 O 774.28 -7.93542 1.28633 0
M  V30 8276 H 774.012 -0.637685 -0.224352 0
M  V30 8277 H 776.566 -2.05369 -0.0355279 0
M  V30 8278 H 774.796 -3.03752 -2.39315 0
M  V30 8279 H 776.485 -3.41003 -2.20162 0
M  V30 8280 H 777.251 -4.84681 -0.176006 0
M  V30 8281 H 773.13 -4.41579 -1.32397 0
M  V30 8282 H 776.674 -6.89161 1.0818 0
M  V30 8283 H 772.571 -6.45459 -0.0729258 0
M  V30 8284 H 773.339 -8.09708 1.19646 0
M  V30 8285 N 776.003 0.335068 -1.53997 0
M  V30 8286 C 777.414 0.910191 -1.6301 0
M  V30 8287 C 777.765 1.89271 -0.516809 0
M  V30 8288 O 776.89 2.13516 0.352123 0
M  V30 8289 C 777.485 1.65761 -2.9548 0
M  V30 8290 C 776.044 2.18163 -3.06728 0
M  V30 8291 C 775.191 1.00338 -2.5851 0
M  V30 8292 H 778.142 0.112965 -1.58297 0
M  V30 8293 H 778.163 2.52107 -2.84995 0
M  V30 8294 H 777.675 0.94227 -3.76488 0
M  V30 8295 H 775.776 2.92847 -2.30372 0
M  V30 8296 H 775.889 2.43952 -4.1234 0
M  V30 8297 H 774.253 1.37925 -2.14124 0
M  V30 8298 H 775.036 0.30254 -3.41964 0
M  V30 8299 N 777.481 1.45874 0.596531 0
M  V30 8300 C 778.444 1.54988 1.68853 0
M  V30 8301 C 779.444 0.428302 1.54991 0
M  V30 8302 O 780.634 0.692158 1.59859 0
M  V30 8303 C 777.766 1.457 3.08195 0
M  V30 8304 H 778.959 2.52294 1.62135 0
M  V30 8305 H 776.512 1.33479 0.813206 0
M  V30 8306 H 777.247 0.496204 3.20481 0
M  V30 8307 H 777.032 2.27061 3.19665 0
M  V30 8308 H 778.522 1.55133 3.87716 0
M  V30 8309 N 778.959 -0.83999 1.33349 0
M  V30 8310 C 779.869 -1.98182 1.25543 0
M  V30 8311 C 780.885 -1.73204 0.166208 0
M  V30 8312 O 782.061 -1.97596 0.389589 0
M  V30 8313 C 779.126 -3.32157 0.993614 0
M  V30 8314 C 778.187 -3.70258 2.17273 0
M  V30 8315 C 777.42 -4.9784 1.92331 0
M  V30 8316 O 777.643 -5.63679 0.873074 0
M  V30 8317 O 776.577 -5.33418 2.78835 0
M  V30 8318 H 780.403 -2.07708 2.21565 0
M  V30 8319 H 777.988 -0.972852 1.13384 0
M  V30 8320 H 779.87 -4.12433 0.864711 0
M  V30 8321 H 778.545 -3.23637 0.0636596 0
M  V30 8322 H 777.452 -2.90497 2.35716 0
M  V30 8323 H 778.785 -3.83442 3.08598 0
M  V30 8324 N 780.437 -1.16799 -1.0581 0
M  V30 8325 C 781.387 -0.847231 -2.11674 0
M  V30 8326 C 782.371 0.175476 -1.5994 0
M  V30 8327 O 783.563 -0.0260602 -1.76981 0
M  V30 8328 C 780.692 -0.355446 -3.41455 0
M  V30 8329 C 779.778 -1.40922 -4.00002 0
M  V30 8330 N 780.169 -2.62096 -4.32596 0
M  V30 8331 C 778.467 -1.26562 -4.27666 0
M  V30 8332 C 779.168 -3.29759 -4.79201 0
M  V30 8333 N 778.144 -2.57138 -4.78938 0
M  V30 8334 H 781.946 -1.76862 -2.34727 0
M  V30 8335 H 779.46 -1.05577 -1.23399 0
M  V30 8336 H 781.457 -0.107231 -4.16762 0
M  V30 8337 H 780.117 0.559817 -3.19838 0
M  V30 8338 H 781.128 -2.99113 -4.22791 0
M  V30 8339 H 777.805 -0.411503 -4.15467 0
M  V30 8340 H 779.195 -4.33222 -5.13584 0
M  V30 8341 N 781.915 1.24427 -0.967243 0
M  V30 8342 C 782.863 2.27403 -0.488927 0
M  V30 8343 C 783.857 1.63388 0.447302 0
M  V30 8344 O 785.063 1.77085 0.322643 0
M  V30 8345 H 781.438 0.738921 -0.139643 0
M  V30 8346 H 783.409 2.65122 -1.36942 0
M  V30 8347 C 782.158 3.4709 0.205787 0
M  V30 8348 H 781.481 3.96591 -0.50551 0
M  V30 8349 H 782.921 4.2099 0.504296 0
M  V30 8350 C 781.38 3.04923 1.43261 0
M  V30 8351 O 781.91 3.12043 2.52967 0
M  V30 8352 N 780.116 2.59976 1.29849 0
M  V30 8353 H 779.663 2.54382 0.405876 0
M  V30 8354 H 779.621 2.32128 2.12047 0
M  V30 8355 N 783.393 0.737304 1.3929 0
M  V30 8356 C 784.639 0.286681 2.00763 0
M  V30 8357 C 784.972 -1.12388 1.58375 0
M  V30 8358 O 784.247 -1.76661 0.813699 0
M  V30 8359 C 784.53 0.391147 3.57969 0
M  V30 8360 C 784.383 1.84165 4.1037 0
M  V30 8361 C 785.702 -0.225072 4.39524 0
M  V30 8362 H 782.821 0.105642 0.729389 0
M  V30 8363 H 785.463 0.933892 1.65464 0
M  V30 8364 H 783.613 -0.159875 3.88171 0
M  V30 8365 H 785.285 2.44972 3.90879 0
M  V30 8366 H 783.528 2.3622 3.63844 0
M  V30 8367 H 784.199 1.866 5.19504 0
M  V30 8368 H 786.675 0.244677 4.1538 0
M  V30 8369 H 785.551 -0.121646 5.48765 0
M  V30 8370 H 785.812 -1.31141 4.22202 0
M  V30 8371 N 784.871 -1.49948 0.485112 0
M  V30 8372 C 786.119 -2.01996 -0.0648775 0
M  V30 8373 C 786.44 -1.36819 -1.38945 0
M  V30 8374 O 785.71 -0.518163 -1.88923 0
M  V30 8375 H 784.29 -0.746513 -0.0269662 0
M  V30 8376 H 786.952 -1.84136 0.638733 0
M  V30 8377 H 786.048 -3.11418 -0.20617 0
M  V30 8378 N 786.349 -0.21828 -1.56081 0
M  V30 8379 C 787.299 0.706492 -2.16778 0
M  V30 8380 C 788.283 1.15987 -1.11516 0
M  V30 8381 O 789.475 1.11441 -1.37513 0
M  V30 8382 C 786.604 1.91583 -2.8487 0
M  V30 8383 C 785.69 1.48228 -3.97353 0
M  V30 8384 N 786.081 0.761113 -5.00041 0
M  V30 8385 C 784.379 1.76982 -4.09382 0
M  V30 8386 C 785.08 0.540496 -5.79184 0
M  V30 8387 N 784.056 1.09622 -5.32432 0
M  V30 8388 H 787.858 0.147038 -2.93532 0
M  V30 8389 H 785.372 -0.0194049 -1.62388 0
M  V30 8390 H 787.369 2.58906 -3.26762 0
M  V30 8391 H 786.029 2.47979 -2.09611 0
M  V30 8392 H 787.04 0.414141 -5.16241 0
M  V30 8393 H 783.717 2.34721 -3.45271 0
M  V30 8394 H 785.107 -0.0332531 -6.71892 0
M  V30 8395 N 787.827 1.57504 0.0551401 0
M  V30 8396 C 788.757 2.07864 1.06372 0
M  V30 8397 C 789.738 0.975565 1.39344 0
M  V30 8398 O 790.923 1.24929 1.48682 0
M  V30 8399 C 788.053 2.53643 2.3724 0
M  V30 8400 C 787.007 3.67978 2.18578 0
M  V30 8401 C 786.333 3.9987 3.54976 0
M  V30 8402 C 787.633 4.97405 1.59329 0
M  V30 8403 H 789.327 2.92379 0.644595 0
M  V30 8404 H 786.873 1.40654 0.308619 0
M  V30 8405 H 788.826 2.8749 3.08103 0
M  V30 8406 H 787.55 1.66177 2.81163 0
M  V30 8407 H 786.209 3.3444 1.50152 0
M  V30 8408 H 785.857 3.0951 3.965 0
M  V30 8409 H 785.557 4.76867 3.43324 0
M  V30 8410 H 787.081 4.36228 4.27244 0
M  V30 8411 H 788.495 5.29375 2.20078 0
M  V30 8412 H 786.892 5.78837 1.58327 0
M  V30 8413 H 787.962 4.81697 0.55638 0
M  V30 8414 N 789.305 -0.326896 1.54172 0
M  V30 8415 C 790.535 -1.08328 1.75922 0
M  V30 8416 C 790.943 -1.82302 0.50622 0
M  V30 8417 O 790.286 -1.7581 -0.532581 0
M  V30 8418 C 790.348 -2.1294 2.8965 0
M  V30 8419 C 790.012 -1.58394 4.28673 0
M  V30 8420 C 791.009 -1.02747 5.09646 0
M  V30 8421 C 788.694 -1.62737 4.75207 0
M  V30 8422 C 790.688 -0.52169 6.35261 0
M  V30 8423 C 788.375 -1.11772 6.00791 0
M  V30 8424 C 789.373 -0.565819 6.80652 0
M  V30 8425 O 789.061 -0.0638146 8.03875 0
M  V30 8426 H 788.793 -0.3282 0.590983 0
M  V30 8427 H 791.347 -0.37972 2.0186 0
M  V30 8428 H 789.577 -2.86903 2.59275 0
M  V30 8429 H 791.266 -2.74274 2.99213 0
M  V30 8430 H 792.032 -0.987007 4.74851 0
M  V30 8431 H 787.911 -2.04635 4.13093 0
M  V30 8432 H 791.455 -0.0902544 6.97542 0
M  V30 8433 H 787.352 -1.15524 6.35078 0
M  V30 8434 H 788.12 -0.17955 8.18303 0
M  V30 8435 N 790.784 -1.46188 -0.588786 0
M  V30 8436 C 791.731 -1.56292 -1.69828 0
M  V30 8437 C 792.701 -0.407581 -1.61022 0
M  V30 8438 O 793.886 -0.623532 -1.80324 0
M  V30 8439 C 791.026 -1.55341 -3.08161 0
M  V30 8440 C 790.139 -2.81564 -3.27636 0
M  V30 8441 C 789.274 -2.72158 -4.56183 0
M  V30 8442 C 788.313 -3.93348 -4.68981 0
M  V30 8443 N 787.45 -3.82365 -5.88848 0
M  V30 8444 H 792.29 -2.51066 -1.6053 0
M  V30 8445 H 789.827 -1.24562 -0.782474 0
M  V30 8446 H 791.785 -1.52776 -3.88221 0
M  V30 8447 H 790.415 -0.641034 -3.16371 0
M  V30 8448 H 789.467 -2.94136 -2.41223 0
M  V30 8449 H 790.779 -3.714 -3.32962 0
M  V30 8450 H 789.933 -2.67665 -5.44464 0
M  V30 8451 H 788.672 -1.79953 -4.53286 0
M  V30 8452 H 787.677 -3.98181 -3.7912 0
M  V30 8453 H 788.902 -4.86643 -4.73662 0
M  V30 8454 H 786.848 -2.92942 -5.86959 0
M  V30 8455 H 786.765 -4.65851 -5.95415 0
M  V30 8456 H 788.033 -3.81836 -6.79575 0
M  V30 8457 N 792.262 0.832906 -1.33792 0
M  V30 8458 C 793.225 1.92471 -1.24449 0
M  V30 8459 C 794.225 1.59981 -0.162085 0
M  V30 8460 O 795.415 1.69208 -0.414029 0
M  V30 8461 C 792.547 3.28278 -0.919044 0
M  V30 8462 H 793.74 2.0218 -2.21502 0
M  V30 8463 H 791.293 1.0257 -1.17936 0
M  V30 8464 H 792.028 3.24263 0.048738 0
M  V30 8465 H 791.813 3.53241 -1.70187 0
M  V30 8466 H 793.303 4.08253 -0.878576 0
M  V30 8467 N 793.74 1.17359 1.05189 0
M  V30 8468 C 795.151 0.96793 1.5965 0
M  V30 8469 C 795.502 -0.485355 1.90102 0
M  V30 8470 O 794.627 -1.36066 1.6827 0
M  V30 8471 C 795.222 1.75068 2.90063 0
M  V30 8472 C 793.781 1.58969 3.41183 0
M  V30 8473 C 792.928 1.75231 2.14917 0
M  V30 8474 H 795.879 1.32067 0.880001 0
M  V30 8475 H 795.9 1.23308 3.59966 0
M  V30 8476 H 795.412 2.80835 2.67868 0
M  V30 8477 H 793.513 0.556906 3.68415 0
M  V30 8478 H 793.626 2.38067 4.15766 0
M  V30 8479 H 791.99 1.18073 2.25679 0
M  V30 8480 H 792.773 2.8241 1.95191 0
M  V30 8481 N 795.218 -1.23913 0.973828 0
M  V30 8482 C 796.128 -2.28838 0.516735 0
M  V30 8483 C 797.144 -1.68723 -0.425282 0
M  V30 8484 O 798.32 -1.99201 -0.296819 0
M  V30 8485 C 795.385 -3.46233 -0.179914 0
M  V30 8486 C 794.446 -4.21729 0.80269 0
M  V30 8487 C 793.679 -5.33518 0.139191 0
M  V30 8488 O 793.902 -5.60252 -1.07118 0
M  V30 8489 O 792.836 -5.96088 0.834447 0
M  V30 8490 H 796.662 -2.70067 1.38916 0
M  V30 8491 H 794.247 -1.2972 0.74115 0
M  V30 8492 H 796.129 -4.17514 -0.570991 0
M  V30 8493 H 794.804 -3.06969 -1.02721 0
M  V30 8494 H 793.711 -3.52799 1.24434 0
M  V30 8495 H 795.044 -4.64825 1.61859 0
M  V30 8496 N 796.696 -0.74468 -1.38897 0
M  V30 8497 C 797.924 -0.307428 -2.04603 0
M  V30 8498 C 798.339 1.06115 -1.56157 0
M  V30 8499 O 797.696 1.67233 -0.730701 0
M  V30 8500 C 797.747 -0.31101 -3.6016 0
M  V30 8501 O 797.468 -1.62557 -4.06825 0
M  V30 8502 C 798.969 0.141213 -4.43075 0
M  V30 8503 H 796.189 -0.132741 -0.657739 0
M  V30 8504 H 798.733 -1.01104 -1.77759 0
M  V30 8505 H 796.888 0.343792 -3.85872 0
M  V30 8506 H 797.302 -1.54569 -5.01207 0
M  V30 8507 H 798.776 0.0875449 -5.51931 0
M  V30 8508 H 799.253 1.18782 -4.22833 0
M  V30 8509 H 799.859 -0.484383 -4.22533 0
M  V30 8510 N 798.174 1.49689 -0.493057 0
M  V30 8511 C 799.104 2.31826 0.279073 0
M  V30 8512 C 800.085 1.39733 0.969987 0
M  V30 8513 O 801.27 1.68646 0.962925 0
M  V30 8514 C 798.4 3.20046 1.34862 0
M  V30 8515 C 797.354 4.20869 0.77805 0
M  V30 8516 C 796.68 4.97971 1.94753 0
M  V30 8517 C 797.98 5.21813 -0.225543 0
M  V30 8518 H 799.674 2.96627 -0.406512 0
M  V30 8519 H 797.22 1.42647 -0.196943 0
M  V30 8520 H 799.173 3.76315 1.89645 0
M  V30 8521 H 797.897 2.53172 2.06328 0
M  V30 8522 H 796.556 3.65733 0.252036 0
M  V30 8523 H 796.204 4.27552 2.64969 0
M  V30 8524 H 795.904 5.66186 1.57187 0
M  V30 8525 H 797.428 5.57082 2.49984 0
M  V30 8526 H 798.842 5.72823 0.233864 0
M  V30 8527 H 797.239 5.97872 -0.516622 0
M  V30 8528 H 798.309 4.71209 -1.14412 0
M  V30 8529 N 799.652 0.226554 1.55963 0
M  V30 8530 C 800.584 -0.713907 2.17798 0
M  V30 8531 C 801.597 -1.15387 1.14846 0
M  V30 8532 O 802.786 -1.08416 1.41804 0
M  V30 8533 C 799.886 -1.97945 2.75084 0
M  V30 8534 C 799.059 -1.69424 4.03255 0
M  V30 8535 C 798.118 -2.80734 4.45056 0
M  V30 8536 O 797.144 -2.4899 5.11852 0
M  V30 8537 N 798.346 -4.09797 4.11152 0
M  V30 8538 H 801.111 -0.18494 2.99129 0
M  V30 8539 H 798.672 0.0457346 1.61835 0
M  V30 8540 H 800.664 -2.71611 3.00016 0
M  V30 8541 H 799.234 -2.41876 1.98027 0
M  V30 8542 H 798.454 -0.793767 3.86126 0
M  V30 8543 H 799.742 -1.47806 4.86858 0
M  V30 8544 H 799.14 -4.38429 3.57486 0
M  V30 8545 H 797.697 -4.79992 4.40966 0
M  V30 8546 N 801.13 -1.57531 -0.0467866 0
M  V30 8547 C 802.077 -2.05387 -1.05285 0
M  V30 8548 C 803.047 -0.939385 -1.36985 0
M  V30 8549 O 804.232 -1.20877 -1.47626 0
M  V30 8550 C 801.372 -2.52343 -2.35408 0
M  V30 8551 C 800.485 -3.77512 -2.10022 0
M  V30 8552 C 799.62 -4.1315 -3.33887 0
M  V30 8553 C 798.659 -5.31286 -3.03976 0
M  V30 8554 N 797.796 -5.62441 -4.20243 0
M  V30 8555 H 802.636 -2.91095 -0.637788 0
M  V30 8556 H 800.173 -1.43939 -0.303322 0
M  V30 8557 H 802.131 -2.77628 -3.11413 0
M  V30 8558 H 800.761 -1.69577 -2.7467 0
M  V30 8559 H 799.813 -3.59417 -1.24594 0
M  V30 8560 H 801.125 -4.63644 -1.83945 0
M  V30 8561 H 800.279 -4.39469 -4.18273 0
M  V30 8562 H 799.018 -3.25634 -3.63062 0
M  V30 8563 H 798.023 -5.04738 -2.17991 0
M  V30 8564 H 799.248 -6.20441 -2.76098 0
M  V30 8565 H 797.194 -4.77885 -4.49402 0
M  V30 8566 H 797.111 -6.43046 -3.97528 0
M  V30 8567 H 798.379 -5.93327 -5.05553 0
M  V30 8568 N 802.608 0.318715 -1.54344 0
M  V30 8569 C 803.855 1.05608 -1.72781 0
M  V30 8570 C 804.183 1.87854 -0.504083 0
M  V30 8571 O 803.438 1.88826 0.51414 0
M  V30 8572 C 803.737 2.00514 -2.95853 0
M  V30 8573 C 803.403 1.34385 -4.30409 0
M  V30 8574 C 802.065 1.16081 -4.66989 0
M  V30 8575 C 804.417 0.869627 -5.13894 0
M  V30 8576 C 801.745 0.490114 -5.84649 0
M  V30 8577 C 804.097 0.212735 -6.32242 0
M  V30 8578 C 802.761 0.0175882 -6.67498 0
M  V30 8579 H 802.031 0.386449 -0.632249 0
M  V30 8580 H 804.678 0.332729 -1.88587 0
M  V30 8581 H 802.983 2.79317 -2.74753 0
M  V30 8582 H 804.68 2.57605 -3.07312 0
M  V30 8583 H 801.27 1.49634 -4.01631 0
M  V30 8584 H 805.454 0.998809 -4.86146 0
M  V30 8585 H 800.71 0.327767 -6.10521 0
M  V30 8586 H 804.884 -0.162699 -6.9621 0
M  V30 8587 H 802.511 -0.504137 -7.58527 0
M  V30 8588 N 804.086 1.46499 0.581025 0
M  V30 8589 C 805.316 1.55244 1.36319 0
M  V30 8590 C 805.724 0.193059 1.88212 0
M  V30 8591 O 805.067 -0.820109 1.64377 0
M  V30 8592 C 805.129 2.498 2.58535 0
M  V30 8593 C 804.793 3.96007 2.28096 0
M  V30 8594 C 805.79 4.85171 1.8683 0
M  V30 8595 C 803.475 4.41152 2.40189 0
M  V30 8596 C 805.469 6.17493 1.58053 0
M  V30 8597 C 803.156 5.73508 2.11024 0
M  V30 8598 C 804.154 6.615 1.70021 0
M  V30 8599 O 803.842 7.914 1.41215 0
M  V30 8600 H 803.574 0.527513 0.422736 0
M  V30 8601 H 806.128 1.92623 0.713139 0
M  V30 8602 H 804.358 2.07443 3.2635 0
M  V30 8603 H 806.047 2.48934 3.20604 0
M  V30 8604 H 806.813 4.51548 1.77001 0
M  V30 8605 H 802.692 3.72886 2.71066 0
M  V30 8606 H 806.236 6.86131 1.25974 0
M  V30 8607 H 802.133 6.06679 2.20478 0
M  V30 8608 H 802.901 8.03681 1.55046 0
M  V30 8609 N 805.565 -0.825799 1.34232 0
M  V30 8610 C 806.981 -1.11848 1.13851 0
M  V30 8611 C 807.181 -2.01405 -0.0619031 0
M  V30 8612 O 806.237 -2.41465 -0.738287 0
M  V30 8613 C 807.55 -1.76797 2.43235 0
M  V30 8614 C 809.098 -1.89304 2.49265 0
M  V30 8615 C 809.573 -2.57669 3.78643 0
M  V30 8616 N 811.064 -2.65171 3.79788 0
M  V30 8617 C 811.799 -3.1879 4.76614 0
M  V30 8618 N 811.295 -3.72995 5.83821 0
M  V30 8619 N 813.088 -3.17164 4.64073 0
M  V30 8620 H 805.239 -0.230049 2.11151 0
M  V30 8621 H 807.502 -0.164609 0.9336 0
M  V30 8622 H 807.208 -1.18455 3.31152 0
M  V30 8623 H 807.082 -2.76693 2.56361 0
M  V30 8624 H 809.469 -2.46796 1.6179 0
M  V30 8625 H 809.55 -0.883191 2.4007 0
M  V30 8626 H 809.194 -2.00833 4.66507 0
M  V30 8627 H 809.124 -3.59152 3.8512 0
M  V30 8628 H 811.615 -2.26746 3.02315 0
M  V30 8629 H 811.928 -4.12151 6.53721 0
M  V30 8630 H 810.273 -3.71246 5.87538 0
M  V30 8631 H 813.464 -2.74082 3.79469 0
M  V30 8632 H 813.637 -3.58647 5.397 0
M  V30 8633 N 807.043 -1.17915 -1.04565 0
M  V30 8634 C 807.953 -0.916449 -2.15959 0
M  V30 8635 C 808.969 0.117655 -1.73602 0
M  V30 8636 O 810.145 -0.063089 -2.01301 0
M  V30 8637 C 807.21 -0.440262 -3.43893 0
M  V30 8638 C 806.271 -1.54172 -4.00661 0
M  V30 8639 C 805.504 -1.08816 -5.22489 0
M  V30 8640 O 805.727 0.0551547 -5.70373 0
M  V30 8641 O 804.661 -1.88383 -5.7166 0
M  V30 8642 H 808.487 -1.8484 -2.40972 0
M  V30 8643 H 806.072 -0.960552 -1.14428 0
M  V30 8644 H 807.954 -0.182537 -4.21004 0
M  V30 8645 H 806.629 0.46346 -3.20365 0
M  V30 8646 H 805.536 -1.85341 -3.24961 0
M  V30 8647 H 806.869 -2.42139 -4.2852 0
M  V30 8648 N 808.521 1.23394 -0.980386 0
M  V30 8649 C 809.469 2.26872 -0.513018 0
M  V30 8650 C 810.463 1.63853 0.429948 0
M  V30 8651 O 811.669 1.77417 0.303842 0
M  V30 8652 H 808.044 0.737398 -0.147473 0
M  V30 8653 H 810.015 2.63654 -1.39746 0
M  V30 8654 C 808.764 3.47289 0.168962 0
M  V30 8655 H 808.087 3.96033 -0.547546 0
M  V30 8656 H 809.527 4.21502 0.459616 0
M  V30 8657 C 807.986 3.06425 1.40019 0
M  V30 8658 O 808.516 3.14708 2.49643 0
M  V30 8659 N 806.722 2.61339 1.27084 0
M  V30 8660 H 806.269 2.54799 0.378872 0
M  V30 8661 H 806.227 2.34364 2.09573 0
M  V30 8662 N 809.999 0.752036 1.385 0
M  V30 8663 C 811.276 0.233075 1.94206 0
M  V30 8664 C 811.656 -1.26838 1.68746 0
M  V30 8665 O 811.004 -2.04214 1.02513 0
M  V30 8666 C 811.214 0.58509 3.44061 0
M  V30 8667 C 812.562 0.543871 4.21102 0
M  V30 8668 O 813.586 0.523291 3.52335 0
M  V30 8669 O 812.445 0.553436 5.4369 0
M  V30 8670 H 809.539 0.0483049 0.825588 0
M  V30 8671 H 812.085 0.832053 1.47902 0
M  V30 8672 H 810.857 1.62212 3.56094 0
M  V30 8673 H 810.48 -0.0419738 3.97578 0
M  V30 8674 N 811.477 -1.49425 0.500989 0
M  V30 8675 C 812.888 -1.86624 0.0532011 0
M  V30 8676 C 813.239 -1.41331 -1.36088 0
M  V30 8677 O 812.364 -0.791195 -2.01418 0
M  V30 8678 C 812.959 -3.38681 0.0897693 0
M  V30 8679 C 811.518 -3.75181 -0.302677 0
M  V30 8680 C 810.665 -2.73419 0.462307 0
M  V30 8681 H 813.616 -1.41743 0.713773 0
M  V30 8682 H 813.637 -3.73902 -0.705528 0
M  V30 8683 H 813.149 -3.71616 1.11907 0
M  V30 8684 H 811.25 -3.47855 -1.33521 0
M  V30 8685 H 811.363 -4.79097 0.0167653 0
M  V30 8686 H 809.727 -2.54548 -0.0878557 0
M  V30 8687 H 810.51 -3.09198 1.49169 0
M  V30 8688 N 812.955 -0.234822 -1.55841 0
M  V30 8689 C 814.183 0.397745 -2.03041 0
M  V30 8690 C 814.598 1.52405 -1.11437 0
M  V30 8691 O 813.955 1.82061 -0.126466 0
M  V30 8692 C 814.006 0.916919 -3.49678 0
M  V30 8693 O 813.727 -0.164493 -4.37791 0
M  V30 8694 C 815.228 1.62139 -4.12584 0
M  V30 8695 H 812.448 0.0959214 -0.664108 0
M  V30 8696 H 814.992 -0.355156 -2.01392 0
M  V30 8697 H 813.147 1.62004 -3.519 0
M  V30 8698 H 813.561 0.227794 -5.24005 0
M  V30 8699 H 815.035 1.93651 -5.16917 0
M  V30 8700 H 815.512 2.53918 -3.58361 0
M  V30 8701 H 816.118 0.963145 -4.14251 0
M  V30 8702 N 814.433 1.57553 0.0384317 0
M  V30 8703 C 815.381 2.07021 1.06043 0
M  V30 8704 C 816.375 0.982078 1.38028 0
M  V30 8705 O 817.581 1.16702 1.37042 0
M  V30 8706 H 813.956 0.660522 0.359464 0
M  V30 8707 H 815.927 2.91944 0.617339 0
M  V30 8708 C 814.676 2.55734 2.35574 0
M  V30 8709 H 813.999 3.39074 2.11822 0
M  V30 8710 H 815.439 2.94066 3.05452 0
M  V30 8711 C 813.898 1.45449 3.03885 0
M  V30 8712 O 814.428 0.815402 3.93337 0
M  V30 8713 N 812.634 1.19134 2.65058 0
M  V30 8714 H 812.181 1.71288 1.92401 0
M  V30 8715 H 812.139 0.455554 3.11082 0
M  V30 8716 N 815.911 -0.310526 1.54511 0
M  V30 8717 C 817.136 -1.07046 1.7764 0
M  V30 8718 C 817.561 -1.80488 0.529696 0
M  V30 8719 O 816.919 -1.73702 -0.519361 0
M  V30 8720 C 816.967 -2.03411 2.97752 0
M  V30 8721 O 816.071 -3.11545 2.7021 0
M  V30 8722 H 815.412 -0.307994 0.588248 0
M  V30 8723 H 817.942 -0.350848 2.01569 0
M  V30 8724 H 817.952 -2.46048 3.2546 0
M  V30 8725 H 816.627 -1.49361 3.88155 0
M  V30 8726 H 815.204 -2.7349 2.53491 0
M  V30 8727 N 817.389 -1.46805 -0.573248 0
M  V30 8728 C 818.322 -1.52608 -1.69665 0
M  V30 8729 C 819.3 -0.379426 -1.58111 0
M  V30 8730 O 820.484 -0.584938 -1.79195 0
M  V30 8731 C 817.611 -1.41355 -3.07793 0
M  V30 8732 C 816.657 -2.60321 -3.37839 0
M  V30 8733 S 817.49 -4.22622 -3.28863 0
M  V30 8734 C 818.646 -4.13894 -4.69513 0
M  V30 8735 H 818.879 -2.47653 -1.64485 0
M  V30 8736 H 816.412 -1.34806 -0.752769 0
M  V30 8737 H 818.37 -1.35549 -3.87475 0
M  V30 8738 H 817.031 -0.477213 -3.10454 0
M  V30 8739 H 816.224 -2.48466 -4.38498 0
M  V30 8740 H 815.826 -2.63165 -2.65745 0
M  V30 8741 H 818.118 -3.81158 -5.60111 0
M  V30 8742 H 819.061 -5.14584 -4.86425 0
M  V30 8743 H 819.469 -3.44998 -4.46807 0
M  V30 8744 N 818.867 0.818669 -1.34668 0
M  V30 8745 C 819.815 1.95123 -1.26609 0
M  V30 8746 C 820.809 1.68611 -0.163348 0
M  V30 8747 O 822.015 1.76975 -0.328586 0
M  V30 8748 H 818.39 0.640871 -0.393431 0
M  V30 8749 H 820.361 1.99043 -2.22316 0
M  V30 8750 C 819.11 3.31697 -1.04272 0
M  V30 8751 H 818.433 3.52648 -1.8836 0
M  V30 8752 H 819.873 4.11382 -1.0267 0
M  V30 8753 C 818.332 3.35942 0.253858 0
M  V30 8754 O 818.862 3.81632 1.25378 0
M  V30 8755 N 817.068 2.89165 0.288447 0
M  V30 8756 H 816.615 2.52176 -0.525845 0
M  V30 8757 H 816.573 2.92387 1.15572 0
M  V30 8758 N 820.346 1.18468 1.03938 0
M  V30 8759 C 821.757 0.984808 1.58614 0
M  V30 8760 C 822.108 -0.465165 1.90606 0
M  V30 8761 O 821.233 -1.34274 1.69704 0
M  V30 8762 C 821.828 1.78135 2.8819 0
M  V30 8763 C 820.387 1.62579 3.39478 0
M  V30 8764 C 819.534 1.77501 2.13046 0
M  V30 8765 H 822.485 1.32993 0.865944 0
M  V30 8766 H 822.506 1.27119 3.58638 0
M  V30 8767 H 822.018 2.83661 2.64874 0
M  V30 8768 H 820.119 0.59595 3.67803 0
M  V30 8769 H 820.232 2.42463 4.13217 0
M  V30 8770 H 818.596 1.2046 2.24414 0
M  V30 8771 H 819.379 2.84464 1.92185 0
M  V30 8772 N 821.824 -1.22873 0.986916 0
M  V30 8773 C 823.072 -1.91084 0.658121 0
M  V30 8774 C 823.393 -1.77304 -0.811675 0
M  V30 8775 O 822.663 -1.15649 -1.58121 0
M  V30 8776 H 821.243 -0.707251 0.240427 0
M  V30 8777 H 823.905 -1.49357 1.25213 0
M  V30 8778 H 823.001 -2.98373 0.915428 0
M  V30 8779 N 823.302 -0.75937 -1.38099 0
M  V30 8780 C 824.551 -0.314864 -1.99227 0
M  V30 8781 C 824.864 1.1113 -1.60964 0
M  V30 8782 O 826.07 1.65657 -2.15105 0
M  V30 8783 C 824.526 -0.512001 -3.56239 0
M  V30 8784 C 824.134 -1.94762 -4.0345 0
M  V30 8785 C 825.878 -0.130497 -4.24299 0
M  V30 8786 C 823.785 -2.09301 -5.53125 0
M  V30 8787 H 822.715 -0.113978 -0.745335 0
M  V30 8788 H 825.366 -0.936736 -1.57789 0
M  V30 8789 H 823.748 0.179144 -3.95595 0
M  V30 8790 H 824.922 -2.67271 -3.75371 0
M  V30 8791 H 823.237 -2.28457 -3.48133 0
M  V30 8792 H 825.834 -0.21781 -5.34256 0
M  V30 8793 H 826.177 0.917644 -4.0606 0
M  V30 8794 H 826.71 -0.773716 -3.90203 0
M  V30 8795 H 823.449 -3.1239 -5.76275 0
M  V30 8796 H 822.969 -1.41261 -5.82928 0
M  V30 8797 H 824.648 -1.88571 -6.1891 0
M  V30 8798 N 824.78 1.49157 -0.508906 0
M  V30 8799 C 826.028 2.02073 0.0327335 0
M  V30 8800 C 826.349 1.39012 1.3675 0
M  V30 8801 O 825.619 0.548153 1.88075 0
M  V30 8802 H 824.199 0.746848 0.0150864 0
M  V30 8803 H 826.861 1.83097 -0.667946 0
M  V30 8804 H 825.957 3.11707 0.1566 0
M  V30 8805 N 826.258 0.243083 1.55714 0
M  V30 8806 C 827.205 -0.658078 2.21219 0
M  V30 8807 C 828.175 -1.1742 1.17481 0
M  V30 8808 O 829.36 -1.22937 1.45915 0
M  V30 8809 C 826.5 -1.85104 2.91257 0
M  V30 8810 C 825.613 -1.3718 4.09641 0
M  V30 8811 C 824.748 -2.52403 4.67404 0
M  V30 8812 C 823.787 -2.01321 5.78045 0
M  V30 8813 N 822.924 -3.09896 6.30007 0
M  V30 8814 H 827.764 -0.0927854 2.97856 0
M  V30 8815 H 825.301 -0.0340375 1.47061 0
M  V30 8816 H 827.259 -2.55179 3.3006 0
M  V30 8817 H 825.889 -2.38887 2.17101 0
M  V30 8818 H 824.941 -0.565232 3.76177 0
M  V30 8819 H 826.253 -0.957409 4.89525 0
M  V30 8820 H 825.407 -3.30525 5.08761 0
M  V30 8821 H 824.146 -2.97142 3.86728 0
M  V30 8822 H 823.151 -1.21667 5.36169 0
M  V30 8823 H 824.376 -1.57556 6.6057 0
M  V30 8824 H 822.322 -3.54077 5.52237 0
M  V30 8825 H 822.239 -2.72776 7.05074 0
M  V30 8826 H 823.507 -3.8809 6.76023 0
M  V30 8827 N 827.736 -1.57571 -0.0300757 0
M  V30 8828 C 828.964 -1.93485 -0.732891 0
M  V30 8829 C 829.379 -0.842758 -1.68947 0
M  V30 8830 O 828.736 0.180904 -1.81601 0
M  V30 8831 C 828.787 -3.29328 -1.49082 0
M  V30 8832 O 828.508 -4.34341 -0.572639 0
M  V30 8833 C 830.009 -3.79517 -2.29088 0
M  V30 8834 H 827.229 -0.638588 -0.206026 0
M  V30 8835 H 829.773 -2.04496 0.0120966 0
M  V30 8836 H 827.928 -3.19716 -2.1877 0
M  V30 8837 H 828.342 -5.12748 -1.10406 0
M  V30 8838 H 829.816 -4.77081 -2.77665 0
M  V30 8839 H 830.293 -3.10659 -3.10464 0
M  V30 8840 H 830.899 -3.92208 -1.64477 0
M  V30 8841 N 829.214 0.302327 -1.54673 0
M  V30 8842 C 830.439 1.06103 -1.78205 0
M  V30 8843 C 830.864 1.80204 -0.53926 0
M  V30 8844 O 830.222 1.73975 0.510142 0
M  V30 8845 C 830.27 2.01829 -2.98827 0
M  V30 8846 O 829.374 3.10108 -2.71858 0
M  V30 8847 H 828.715 0.30487 -0.589873 0
M  V30 8848 H 831.245 0.340153 -2.01753 0
M  V30 8849 H 831.255 2.44319 -3.2676 0
M  V30 8850 H 829.93 1.473 -3.88942 0
M  V30 8851 H 828.507 2.72142 -2.54937 0
M  V30 8852 N 830.692 1.47107 0.565454 0
M  V30 8853 C 831.639 1.58974 1.6732 0
M  V30 8854 C 832.609 0.433146 1.60353 0
M  V30 8855 O 833.794 0.652141 1.79309 0
M  V30 8856 C 830.934 1.60224 3.05651 0
M  V30 8857 C 830.047 2.86741 3.23116 0
M  V30 8858 C 829.182 2.79381 4.51796 0
M  V30 8859 C 828.221 4.0076 4.62664 0
M  V30 8860 N 827.358 3.91685 5.8269 0
M  V30 8861 H 832.198 2.53588 1.56515 0
M  V30 8862 H 829.735 1.25791 0.762558 0
M  V30 8863 H 831.693 1.58933 3.85741 0
M  V30 8864 H 830.323 0.691285 3.15311 0
M  V30 8865 H 829.375 2.97936 2.36513 0
M  V30 8866 H 830.687 3.7665 3.27011 0
M  V30 8867 H 829.841 2.76293 5.40136 0
M  V30 8868 H 828.58 1.87142 4.50366 0
M  V30 8869 H 827.585 4.04162 3.72738 0
M  V30 8870 H 828.81 4.94117 4.6586 0
M  V30 8871 H 826.756 3.02243 5.82224 0
M  V30 8872 H 826.673 4.75264 5.87929 0
M  V30 8873 H 827.941 3.92599 6.73414 0
M  V30 8874 N 832.17 -0.811516 1.35101 0
M  V30 8875 C 833.586 -1.10634 1.15031 0
M  V30 8876 C 833.786 -2.01459 -0.0405379 0
M  V30 8877 O 832.842 -2.42235 -0.712635 0
M  V30 8878 C 834.155 -1.74207 2.45097 0
M  V30 8879 C 835.703 -1.8665 2.51258 0
M  V30 8880 C 836.178 -2.53638 3.81355 0
M  V30 8881 N 837.669 -2.61128 3.82579 0
M  V30 8882 C 838.404 -3.13717 4.79968 0
M  V30 8883 N 837.9 -3.66782 5.87744 0
M  V30 8884 N 839.693 -3.12224 4.67411 0
M  V30 8885 H 831.844 -0.207641 2.11383 0
M  V30 8886 H 834.107 -0.154697 0.935293 0
M  V30 8887 H 833.813 -1.14936 3.32389 0
M  V30 8888 H 833.687 -2.73958 2.59281 0
M  V30 8889 H 836.074 -2.45066 1.64398 0
M  V30 8890 H 836.155 -0.857678 2.40993 0
M  V30 8891 H 835.799 -1.95873 4.68611 0
M  V30 8892 H 835.729 -3.55047 3.88907 0
M  V30 8893 H 838.22 -2.23527 3.04703 0
M  V30 8894 H 838.533 -4.05194 6.58056 0
M  V30 8895 H 836.878 -3.64994 5.91443 0
M  V30 8896 H 840.069 -2.70042 3.82354 0
M  V30 8897 H 840.242 -3.52903 5.43474 0
M  V30 8898 N 833.648 -1.19017 -1.03309 0
M  V30 8899 C 834.595 -0.924088 -2.11493 0
M  V30 8900 C 835.565 0.139464 -1.65513 0
M  V30 8901 O 836.75 -0.00178761 -1.908 0
M  V30 8902 C 833.89 -0.464255 -3.41963 0
M  V30 8903 C 833.003 -1.5941 -4.01513 0
M  V30 8904 C 832.138 -1.08622 -5.19976 0
M  V30 8905 C 831.177 -2.19024 -5.71572 0
M  V30 8906 N 830.314 -1.69575 -6.81314 0
M  V30 8907 H 835.154 -1.85039 -2.33591 0
M  V30 8908 H 832.691 -0.922593 -1.14572 0
M  V30 8909 H 834.649 -0.179078 -4.16815 0
M  V30 8910 H 833.279 0.425062 -3.19989 0
M  V30 8911 H 832.331 -1.99458 -3.23915 0
M  V30 8912 H 833.643 -2.42604 -4.35826 0
M  V30 8913 H 832.797 -0.756022 -6.01971 0
M  V30 8914 H 831.536 -0.223955 -4.87186 0
M  V30 8915 H 830.541 -2.5288 -4.88193 0
M  V30 8916 H 831.766 -3.05699 -6.06403 0
M  V30 8917 H 829.712 -0.856494 -6.50385 0
M  V30 8918 H 829.629 -2.46361 -7.14732 0
M  V30 8919 H 830.897 -1.39505 -7.66915 0
M  V30 8920 N 835.127 1.22348 -0.993418 0
M  V30 8921 C 836.075 2.26315 -0.537052 0
M  V30 8922 C 837.069 1.643 0.412545 0
M  V30 8923 O 838.275 1.77729 0.285008 0
M  V30 8924 H 834.65 0.735792 -0.155286 0
M  V30 8925 H 836.621 2.62157 -1.42535 0
M  V30 8926 C 835.37 3.47449 0.132118 0
M  V30 8927 H 834.693 3.9543 -0.589519 0
M  V30 8928 H 836.133 4.21965 0.414884 0
M  V30 8929 C 834.592 3.07893 1.36761 0
M  V30 8930 O 835.122 3.17338 2.46291 0
M  V30 8931 N 833.328 2.62672 1.24305 0
M  V30 8932 H 832.875 2.55186 0.351826 0
M  V30 8933 H 832.833 2.36574 2.07076 0
M  V30 8934 N 836.605 0.766683 1.37694 0
M  V30 8935 C 837.851 0.338201 2.00569 0
M  V30 8936 C 838.206 -1.07196 1.59771 0
M  V30 8937 O 837.499 -1.72622 0.831402 0
M  V30 8938 C 837.693 0.413831 3.54996 0
M  V30 8939 C 837.522 1.8298 4.1079 0
M  V30 8940 C 836.292 2.44932 4.41969 0
M  V30 8941 C 838.49 2.78852 4.32141 0
M  V30 8942 N 836.472 3.78353 4.83448 0
M  V30 8943 C 837.843 3.97063 4.76174 0
M  V30 8944 C 839.898 2.76205 4.14265 0
M  V30 8945 C 838.601 5.13003 5.04203 0
M  V30 8946 C 840.627 3.91314 4.43427 0
M  V30 8947 C 839.989 5.08265 4.87694 0
M  V30 8948 H 836.088 0.170693 0.763143 0
M  V30 8949 H 838.672 0.999435 1.67091 0
M  V30 8950 H 836.843 -0.217198 3.87792 0
M  V30 8951 H 838.575 -0.036222 4.04684 0
M  V30 8952 H 835.33 1.9659 4.3087 0
M  V30 8953 H 835.754 4.46937 5.08504 0
M  V30 8954 H 840.396 1.86962 3.79216 0
M  V30 8955 H 838.114 6.0285 5.38142 0
M  V30 8956 H 841.7 3.906 4.31187 0
M  V30 8957 H 840.58 5.95858 5.09827 0
M  V30 8958 N 838.083 -1.48885 0.516809 0
M  V30 8959 C 839.015 -2.27357 -0.290061 0
M  V30 8960 C 840.028 -1.34558 -0.916406 0
M  V30 8961 O 841.217 -1.59715 -0.797073 0
M  V30 8962 C 838.317 -3.07496 -1.42476 0
M  V30 8963 C 837.49 -4.27982 -0.902793 0
M  V30 8964 C 836.549 -4.90038 -1.91701 0
M  V30 8965 O 835.575 -5.49643 -1.47922 0
M  V30 8966 N 836.777 -4.811 -3.24843 0
M  V30 8967 H 839.542 -2.97244 0.382884 0
M  V30 8968 H 837.103 -1.58064 0.35032 0
M  V30 8969 H 839.095 -3.45882 -2.10113 0
M  V30 8970 H 837.665 -2.40115 -2.00159 0
M  V30 8971 H 836.885 -3.94167 -0.0508272 0
M  V30 8972 H 838.173 -5.06003 -0.532723 0
M  V30 8973 H 837.571 -4.33801 -3.63088 0
M  V30 8974 H 836.128 -5.23625 -3.8815 0
M  V30 8975 N 839.561 -0.251338 -1.55583 0
M  V30 8976 C 840.471 0.656978 -2.25213 0
M  V30 8977 C 841.487 1.18966 -1.26977 0
M  V30 8978 O 842.663 1.22499 -1.59862 0
M  V30 8979 C 839.728 1.83527 -2.94141 0
M  V30 8980 C 838.789 1.34162 -4.07798 0
M  V30 8981 C 838.022 2.46375 -4.73429 0
M  V30 8982 O 838.245 3.65205 -4.38157 0
M  V30 8983 O 837.179 2.15881 -5.61853 0
M  V30 8984 H 841.005 0.0936395 -3.03556 0
M  V30 8985 H 838.59 -0.0196638 -1.49387 0
M  V30 8986 H 840.472 2.52279 -3.3754 0
M  V30 8987 H 839.147 2.38614 -2.18735 0
M  V30 8988 H 838.054 0.621249 -3.68906 0
M  V30 8989 H 839.387 0.836779 -4.85035 0
M  V30 8990 N 841.039 1.57585 0.0217189 0
M  V30 8991 C 842.285 1.89887 0.712099 0
M  V30 8992 C 842.618 0.849971 1.74611 0
M  V30 8993 O 841.893 -0.13407 1.94037 0
M  V30 8994 C 842.176 3.32815 1.37499 0
M  V30 8995 C 842.029 4.48405 0.353993 0
M  V30 8996 C 843.348 3.74786 2.30703 0
M  V30 8997 H 840.467 0.690588 0.257405 0
M  V30 8998 H 843.109 1.89983 -0.0251145 0
M  V30 8999 H 841.259 3.32863 2.00335 0
M  V30 9000 H 842.931 4.60491 -0.273015 0
M  V30 9001 H 841.174 4.32573 -0.32599 0
M  V30 9002 H 841.845 5.45316 0.85644 0
M  V30 9003 H 844.321 3.76151 1.77904 0
M  V30 9004 H 843.197 4.75585 2.74061 0
M  V30 9005 H 843.458 3.07449 3.17691 0
M  V30 9006 N 842.517 -0.29412 1.54831 0
M  V30 9007 C 843.427 -1.3854 1.89325 0
M  V30 9008 C 844.443 -1.55127 0.788133 0
M  V30 9009 O 845.619 -1.6966 1.08524 0
M  V30 9010 C 842.684 -2.72809 2.13954 0
M  V30 9011 C 841.745 -2.65148 3.37631 0
M  V30 9012 C 840.978 -3.93014 3.61076 0
M  V30 9013 O 841.201 -4.927 2.87406 0
M  V30 9014 O 840.135 -3.94491 4.54599 0
M  V30 9015 H 843.961 -1.12289 2.82179 0
M  V30 9016 H 841.546 -0.490793 1.41108 0
M  V30 9017 H 843.428 -3.52238 2.31315 0
M  V30 9018 H 842.103 -2.9889 1.24285 0
M  V30 9019 H 841.01 -1.84168 3.25627 0
M  V30 9020 H 842.343 -2.4402 4.27452 0
M  V30 9021 O 844.034 -1.55391 -0.439992 0
M  V30 9022 H 844.725 -1.59875 -1.0936 0
M  V30 END ATOM
M  V30 BEGIN BOND
M  V30 END BOND
M  V30 END CTAB
M  END
$$$$
